#------------------------------------------------------------------------------
#$Date: 2021-04-13 10:42:01 +0300 (Tue, 13 Apr 2021) $
#$Revision: 264076 $
#$URL: file:///home/coder/svn-repositories/cod/cif/1/56/16/1561676.cif $
#------------------------------------------------------------------------------
#
# This file is available in the Crystallography Open Database (COD),
# http://www.crystallography.net/
#
# All data on this site have been placed in the public domain by the
# contributors.
#
data_1561676
loop_
_publ_author_name
'Childs, Amanda B.'
'Baranets, Sviatoslav'
'Bobev, Svilen'
_publ_section_title
;
 Five new ternary indium-arsenides discovered. Synthesis and structural
 characterization of the Zintl phases Sr3In2As4, Ba3In2As4, Eu3In2As4,
 Sr5In2As6 and Eu5In2As6
;
_journal_name_full               'Journal of Solid State Chemistry'
_journal_page_first              120889
_journal_paper_doi               10.1016/j.jssc.2019.07.050
_journal_volume                  278
_journal_year                    2019
_chemical_formula_sum            'As4 In2 Sr3'
_chemical_formula_weight         792.18
_space_group_crystal_system      orthorhombic
_space_group_IT_number           58
_space_group_name_Hall           '-P 2 2n'
_space_group_name_H-M_alt        'P n n m'
_atom_sites_solution_hydrogens   .
_atom_sites_solution_primary     dual
_cell_angle_alpha                90
_cell_angle_beta                 90
_cell_angle_gamma                90
_cell_formula_units_Z            2
_cell_length_a                   6.9362(4)
_cell_length_b                   16.6757(9)
_cell_length_c                   4.4287(2)
_cell_measurement_reflns_used    4059
_cell_measurement_temperature    200(2)
_cell_measurement_theta_max      30.44
_cell_measurement_theta_min      2.44
_cell_volume                     512.25(5)
_computing_cell_refinement       'SAINT V8.38A (Bruker, 2016)'
_computing_data_collection       'Bruker APEX-II'
_computing_data_reduction        'SAINT V8.38A (Bruker, 2016)'
_computing_molecular_graphics    'Olex2 (Dolomanov et al., 2009)'
_computing_publication_material  'Olex2 (Dolomanov et al., 2009)'
_computing_structure_refinement  'ShelXL (Sheldrick, 2015)'
_computing_structure_solution    'ShelXT (Sheldrick, 2015)'
_diffrn_ambient_temperature      200.01
_diffrn_measured_fraction_theta_full 1.000
_diffrn_measured_fraction_theta_max 0.973
_diffrn_measurement_device_type  'Bruker APEX-II CCD'
_diffrn_measurement_method       '\f and \w scans'
_diffrn_radiation_monochromator  graphite
_diffrn_radiation_type           MoK\a
_diffrn_radiation_wavelength     0.71073
_diffrn_reflns_av_R_equivalents  0.0294
_diffrn_reflns_av_unetI/netI     0.0166
_diffrn_reflns_Laue_measured_fraction_full 1.000
_diffrn_reflns_Laue_measured_fraction_max 0.973
_diffrn_reflns_limit_h_max       9
_diffrn_reflns_limit_h_min       -9
_diffrn_reflns_limit_k_max       23
_diffrn_reflns_limit_k_min       -23
_diffrn_reflns_limit_l_max       6
_diffrn_reflns_limit_l_min       -6
_diffrn_reflns_number            7293
_diffrn_reflns_point_group_measured_fraction_full 1.000
_diffrn_reflns_point_group_measured_fraction_max 0.973
_diffrn_reflns_theta_full        25.242
_diffrn_reflns_theta_max         30.703
_diffrn_reflns_theta_min         2.443
_diffrn_standards_number         0
_exptl_absorpt_coefficient_mu    32.695
_exptl_absorpt_correction_T_max  0.4331
_exptl_absorpt_correction_T_min  0.2283
_exptl_absorpt_correction_type   multi-scan
_exptl_absorpt_process_details
'SADABS-2008/1 (Bruker,2008) was used for absorption correction. wR2(int) was 0.1234 before and 0.0403 after correction. The Ratio of minimum to maximum transmission is 0.5271. The \l/2 correction factor is 0.0015.'
_exptl_crystal_colour            grey
_exptl_crystal_density_diffrn    5.136
_exptl_crystal_density_meas      .
_exptl_crystal_description       block
_exptl_crystal_F_000             688
_exptl_crystal_size_max          0.112
_exptl_crystal_size_mid          0.043
_exptl_crystal_size_min          0.036
_refine_diff_density_max         1.371
_refine_diff_density_min         -1.207
_refine_diff_density_rms         0.290
_refine_ls_extinction_coef       0.0200(5)
_refine_ls_extinction_expression Fc^*^=kFc[1+0.001xFc^2^\l^3^/sin(2\q)]^-1/4^
_refine_ls_extinction_method     'SHELXL-2018/3 (Sheldrick 2018)'
_refine_ls_goodness_of_fit_ref   1.162
_refine_ls_hydrogen_treatment    undef
_refine_ls_matrix_type           full
_refine_ls_number_parameters     30
_refine_ls_number_reflns         864
_refine_ls_number_restraints     0
_refine_ls_restrained_S_all      1.162
_refine_ls_R_factor_all          0.0167
_refine_ls_R_factor_gt           0.0156
_refine_ls_shift/su_max          0.001
_refine_ls_shift/su_mean         0.000
_refine_ls_structure_factor_coef Fsqd
_refine_ls_weighting_details
'w=1/[\s^2^(Fo^2^)+(0.0191P)^2^+0.1609P] where P=(Fo^2^+2Fc^2^)/3'
_refine_ls_weighting_scheme      calc
_refine_ls_wR_factor_gt          0.0362
_refine_ls_wR_factor_ref         0.0366
_reflns_Friedel_coverage         0.000
_reflns_Friedel_fraction_full    .
_reflns_Friedel_fraction_max     .
_reflns_number_gt                840
_reflns_number_total             864
_reflns_threshold_expression     'I > 2\s(I)'
_cod_data_source_file            yjssc_20889_Sr3In2As4_mmc5.cif
_cod_data_source_block           Sr3In2As4
_cod_database_code               1561676
_shelx_space_group_comment
;
The symmetry employed for this shelxl refinement is uniquely defined
by the following loop, which should always be used as a source of
symmetry information in preference to the above space-group names.
They are only intended as comments.
;
_shelx_estimated_absorpt_t_max   0.386
_shelx_estimated_absorpt_t_min   0.111
_olex2_refinement_description
;
;
_shelx_res_file
;
TITL sr3in2as4_a.res in Pnnm
CELL 0.71073 6.9362 16.6757 4.4287 90 90 90
ZERR 2 0.0004 0.0009 0.0002 0 0 0
LATT 1
SYMM -X,-Y,+Z
SYMM 0.5-X,0.5+Y,0.5-Z
SYMM 0.5+X,0.5-Y,0.5-Z
SFAC As In Sr
UNIT 8 4 6

L.S. 20
PLAN  20
TEMP -73.14
list 4
fmap 2
ACTA

WGHT    0.019100    0.160900
EXTI    0.020004
FVAR       0.34171
IN    2    0.136128    0.585419    0.000000    10.50000    0.00823    0.00698 =
         0.00927    0.00000    0.00000   -0.00010
SR2   3    0.000000    0.000000    0.000000    10.25000    0.00757    0.00896 =
         0.00828    0.00000    0.00000    0.00130
SR1   3    0.712023    0.198207    0.000000    10.50000    0.01410    0.00742 =
         0.00888    0.00000    0.00000   -0.00079
AS2   1    0.243214    0.431224    0.000000    10.50000    0.00787    0.00660 =
         0.00846    0.00000    0.00000   -0.00037
AS1   1    0.238594    0.167037    0.000000    10.50000    0.01057    0.00655 =
         0.00800    0.00000    0.00000    0.00083
HKLF 4


END

WGHT      0.0191      0.1609

REM Highest difference peak  1.371,  deepest hole -1.207,  1-sigma level  0.290
Q1    1   0.0000  0.0000  0.1698  10.50000  0.05    1.37
Q2    1   0.1331  0.5844 -0.1687  11.00000  0.05    1.24
Q3    1   0.7016  0.2018  0.1749  11.00000  0.05    0.97
Q4    1   0.2391  0.4306  0.1981  11.00000  0.05    0.94
Q5    1   0.2399  0.1635  0.1802  11.00000  0.05    0.90
Q6    1   0.1813  0.3797 -0.2875  11.00000  0.05    0.64
Q7    1  -0.0648  0.6309 -0.2081  11.00000  0.05    0.63
Q8    1   0.1860  0.0623  0.1702  11.00000  0.05    0.57
Q9    1   0.1181  0.0102  0.1644  11.00000  0.05    0.57
Q10   1   0.9227  0.2292  0.1924  11.00000  0.05    0.52
Q11   1   0.5950  0.2182 -0.2927  11.00000  0.05    0.50
Q12   1   0.7968  0.2468 -0.2879  11.00000  0.05    0.50
Q13   1   0.3462  0.4496  0.1205  11.00000  0.05    0.50
Q14   1   0.0647 -0.0686  0.2557  11.00000  0.05    0.49
Q15   1   0.1792  0.1364 -0.3445  11.00000  0.05    0.48
Q16   1   0.0450  0.5453  0.2716  11.00000  0.05    0.46
Q17   1  -0.0715  0.0318  0.1409  11.00000  0.05    0.46
Q18   1   0.0859  0.4237  0.2227  11.00000  0.05    0.45
Q19   1   0.3021  0.3689 -0.2365  11.00000  0.05    0.45
Q20   1   0.0287  0.5882  0.3234  11.00000  0.05    0.44
;
_shelx_res_checksum              74976
_shelx_hkl_file
;
   0   0   1   -6.50    1.20
   0   0  -1   -7.40    1.10
   0   0   1   -5.10    1.40
   0   0  -2 9275.97  248.88
   0   0   2 9477.75  256.37
   0   0  -2 9940.71  299.97
   0   0   2 9999.00  269.47
   0   0   3   -4.40    2.00
   0   0  -3   -7.00    1.30
   0   0  -3   -8.00    2.30
   0   0   3   -5.20    2.00
   0   0   4 7268.37  201.08
   0   0   4 7666.73  211.78
   0   0  -4 7385.96  236.78
   0   0   5   -1.00    4.00
   0   0   5    4.10    4.00
   0   0  -5    4.60    5.20
   0   0  -6 4049.89  140.39
  -1   0   0   -2.30    1.00
   1   0   0   -0.70    1.40
  -1   0   0   -0.90    1.10
   1   0   1 2340.57   64.99
  -1   0   1 2313.17   61.99
   1   0  -1 2241.48   72.09
  -1   0  -1 2316.57   72.19
  -1   0   1 2313.67   64.19
  -1   0  -1 2284.67   59.29
   1   0  -1 2173.38   60.09
   1   0   1 2239.78   61.39
   1   0  -2   -2.60    2.00
  -1   0  -2   -4.50    2.00
  -1   0  -2   -0.10    1.10
   1   0   2    1.10    1.80
   1   0  -2    0.50    1.60
  -1   0   2   -0.10    1.90
  -1   0   2    0.10    1.50
   1   0   2    1.00    1.90
  -1   0   3 1254.27   37.50
   1   0  -3 1199.38   43.90
  -1   0  -3 1264.97   33.90
   1   0   3 1219.38   39.10
  -1   0  -3 1204.88   44.20
   1   0   3 1215.78   36.50
  -1   0   3 1225.38   38.00
   1   0  -3 1226.28   35.20
   1   0  -4    2.00    4.30
  -1   0   4    0.40    2.70
   1   0   4    1.70    2.90
  -1   0  -4    6.80    4.50
   1   0   4    0.80    3.00
   1   0  -4    4.80    2.70
  -1   0   4    5.20    3.60
  -1   0   5  545.75   22.00
  -1   0  -5  549.95   27.80
   1   0  -5  472.85   25.90
   1   0   5  517.85   23.10
  -1   0   5  540.15   22.20
  -1   0  -6    0.70    6.50
   1   0   6   -4.30    5.10
   1   0  -6    0.10    6.60
  -2   0   0 5126.19  138.69
   2   0   0 4884.81  128.69
   2   0   0 4842.62  154.08
   2   0   1   -0.50    1.50
   2   0  -1   -1.50    1.30
  -2   0  -1   -0.90    1.90
  -2   0   1    1.20    1.60
  -2   0   1    0.50    1.30
  -2   0  -1   -1.50    1.20
   2   0   1   -2.20    1.40
   2   0  -1    0.50    2.20
  -2   0  -2 4692.23  140.89
  -2   0   2 4425.66  120.79
   2   0  -2 4217.78  140.39
  -2   0  -2 4624.44  115.29
   2   0  -2 4257.57  117.09
  -2   0   2 4570.44  124.69
   2   0   2 4339.07  126.59
   2   0   2 4374.46  119.49
  -2   0   3   -1.20    2.40
   2   0  -3   -1.00    2.00
  -2   0   3    1.40    1.80
   2   0  -3   -1.40    2.90
  -2   0  -3    2.30    3.30
   2   0   3    4.70    2.50
   2   0   3    2.80    2.70
  -2   0  -3    3.40    1.60
   2   0  -4 2500.85   70.69
   2   0   4 2624.74   72.89
  -2   0   4 2568.64   74.69
   2   0   4 2471.65   78.19
   2   0  -4 2437.96   86.89
  -2   0  -4 2585.34   87.89
  -2   0   4 2593.24   75.49
   2   0   5   -3.20    4.00
  -2   0   5    4.00    4.70
  -2   0  -5    5.20    5.90
   2   0  -5   -2.00    5.10
   2   0  -6 1133.39   49.99
   2   0   6 1159.68   44.70
  -3   0   0   -1.70    1.60
   3   0   0   -0.50    1.60
  -3   0   0    1.90    1.70
   3   0   0    1.40    2.10
   3   0  -1  140.79    9.00
  -3   0  -1  123.39    6.10
   3   0   1  119.69    6.40
   3   0   1  124.39    7.00
  -3   0  -1  127.49    7.60
  -3   0   1  136.29    6.90
   3   0  -1  125.19    6.60
  -3   0   1  132.09    6.60
   3   0   2   -0.70    1.80
  -3   0   2    0.50    2.20
   3   0   2   -0.70    2.10
   3   0  -2   -3.00    2.30
   3   0  -2    0.20    2.00
  -3   0  -2    6.70    3.10
  -3   0  -2    3.50    1.70
  -3   0   2    0.10    1.40
   3   0  -3   63.69    6.10
   3   0   3   67.99    7.20
   3   0  -3   69.09    8.00
  -3   0   3   63.59    6.90
   3   0   3   73.19    6.30
  -3   0   3   71.99    5.00
  -3   0  -3   67.59    8.20
  -3   0   4    7.30    4.40
   3   0   4   -2.60    3.30
  -3   0  -4    2.80    4.60
   3   0   4   -1.30    2.90
   3   0  -4    8.10    5.20
   3   0  -4    2.90    3.30
  -3   0  -5   37.20    9.30
   3   0   5   23.30    6.60
  -3   0   5   24.90    6.90
   3   0  -5   20.20    7.50
  -3   0   6   -0.40    6.10
   4   0   0 2179.68   60.29
   4   0   0 2113.49   71.19
  -4   0   0 2192.78   61.69
  -4   0   0 2144.49   64.39
  -4   0   1   -0.60    2.60
  -4   0  -1   -1.30    2.20
   4   0  -1   -3.20    2.70
   4   0  -1   -3.50    2.00
  -4   0   1   -3.80    2.00
  -4   0  -1    0.00    2.50
   4   0   1    1.30    2.50
  -4   0   2 1783.02   50.29
   4   0   2 1740.63   54.09
  -4   0  -2 1690.93   48.30
   4   0   2 1724.53   50.39
   4   0  -2 1696.33   60.19
  -4   0   2 1665.63   51.49
   4   0  -2 1671.73   50.09
  -4   0  -2 1777.82   59.39
   4   0  -3    0.80    4.00
   4   0   3    5.70    3.20
  -4   0   3    1.60    3.40
   4   0   3    0.20    3.20
   4   0  -3    2.00    3.20
  -4   0  -3    1.00    3.80
   4   0   4  968.70   36.60
   4   0  -4  996.10   33.20
  -4   0   4  951.30   34.90
  -4   0  -4  951.40   40.50
   4   0  -4  999.60   40.40
  -4   0  -5    7.70    6.30
  -4   0   5    0.20    5.00
   4   0   5    4.50    6.00
  -5   0   0    2.50    2.70
   5   0   0   -1.90    2.50
  -5   0   0    2.50    2.70
   5   0   0    3.00    3.10
  -5   0  -1  143.59    8.20
  -5   0  -1  134.39    9.00
  -5   0   1  120.29    8.40
  -5   0   1  134.09    9.00
   5   0  -1  122.69    8.50
   5   0  -1  122.49    9.20
  -5   0  -1  137.49    7.90
  -5   0  -1  127.39    8.50
   5   0   2    2.50    2.80
   5   0   2    4.70    3.70
  -5   0  -2    2.00    2.50
   5   0  -2    5.40    3.70
  -5   0  -2    2.30    3.50
   5   0  -2   -2.60    3.60
  -5   0   2   -0.70    2.80
   5   0   3   63.59    8.10
  -5   0   3   75.09    8.50
   5   0   3   91.69    8.10
   5   0  -3   71.29    8.20
  -5   0  -3   81.29    9.80
   5   0  -3   88.49   10.70
  -5   0  -4   -0.50    5.00
   5   0   4    3.00    4.70
  -5   0   4   -1.20    4.10
   5   0  -4    4.60    4.30
  -5   0  -5   34.60    9.70
   5   0  -5   54.19    8.50
   5   0   5   73.49   10.90
  -5   0   5   47.60    9.30
  -6   0   0  367.16   16.90
   6   0   0  353.06   16.10
   6   0   0  382.56   18.00
  -6   0   0  375.26   16.10
  -6   0  -1   -0.20    2.80
  -6   0  -1    4.40    3.60
  -6   0   1   -0.80    3.20
  -6   0  -1    1.50    3.40
   6   0  -1   -0.70    3.30
  -6   0  -1   -1.10    2.90
   6   0  -1    2.80    3.40
  -6   0  -2  288.77   13.40
  -6   0  -2  281.17   15.80
  -6   0  -2  284.67   15.20
  -6   0   2  277.47   14.80
   6   0  -2  257.87   14.20
  -6   0  -3   -5.20    3.90
   6   0  -3    1.70    4.30
  -6   0   3   11.70    5.00
   6   0   4  175.38   15.70
   6   0  -4  165.78   12.30
  -6   0  -4  145.59   15.30
  -6   0   4  150.18   14.20
   6   0  -5    2.90    5.80
  -7   0   0    1.20    3.80
   7   0   0    4.00    4.30
  -7   0  -1 1598.84   52.99
  -7   0   1 1574.64   50.69
  -7   0  -1 1571.54   48.90
  -7   0  -1 1592.74   49.30
   7   0  -1 1486.35   49.70
  -7   0  -1 1584.84   56.39
  -7   0   2   -3.30    3.70
   7   0  -2   -1.10    4.30
  -7   0  -2   -1.20    4.30
  -7   0  -2    4.20    4.10
  -7   0  -2    1.70    4.40
  -7   0  -3 1182.68   43.60
   7   0  -3 1148.59   40.50
  -7   0  -3 1059.79   44.70
  -7   0  -4   46.30    9.90
  -7   0  -4    0.40    6.40
  -7   0   4   -1.40    5.40
   7   0  -4   13.60    6.20
  -8   0   0 2580.64   77.89
  -8   0   0 2636.14   78.39
   8   0  -1   -5.10    4.80
  -8   0  -1    1.00    3.60
  -8   0  -1   -1.30    4.30
  -8   0   1   -3.40    4.50
  -8   0  -2 2314.07   80.39
  -8   0  -2 2205.68   74.89
  -8   0   2 2309.57   72.19
   8   0  -2 2257.87   70.99
   8   0  -3    1.30    6.00
  -8   0  -3   11.40    6.90
  -8   0   3    6.90    5.70
  -8   0  -3    5.20    5.80
  -9   0   0    3.30    5.10
  -9   0   0    1.40    4.80
  -9   0   1  190.58   13.80
  -9   0  -1  178.58   13.50
  -9   0  -1  170.08   12.40
  -9   0   2   -2.30    5.50
   0   1   0    1.30    0.50
   0  -1   0    3.70    0.50
   0   1   0    0.70    0.70
   0  -1   0    1.60    0.40
   0   1   1  873.91   25.90
   0   1  -1  898.31   24.10
   0  -1   1  912.11   24.60
   0  -1  -1  894.51   29.50
   0  -1  -1  869.81   23.50
   0   1  -1  877.91   29.10
   0   1   1  905.31   25.00
   0  -1  -2    2.50    2.20
   0  -1   2    1.80    1.60
   0   1   2   -0.20    1.30
   0  -1   2   -0.40    1.40
   0   1  -2   -0.10    1.70
   0   1  -2    2.50    1.40
   0   1   2   10.00    2.30
   0   1  -3  448.66   14.70
   0  -1  -3  450.85   13.90
   0  -1   3  423.26   16.50
   0  -1   3  453.45   15.70
   0   1  -3  432.46   19.20
   0   1   3  427.86   16.00
   0  -1  -3  426.26   19.60
   0   1   3  467.45   16.60
   0  -1  -4   -0.40    3.60
   0  -1   4   -1.50    2.70
   0   1   4    0.90    2.80
   0   1  -4   -2.40    3.20
   0   1  -4    9.20    3.00
   0   1   4    0.60    3.10
   0  -1   4    2.50    3.20
   0  -1   5  150.88   11.40
   0   1  -5  142.79   14.50
   0  -1   5  167.58   10.70
   0   1   5  159.48   10.80
   0   1   5  164.28   11.30
   0  -1  -5  144.49   14.90
   0  -1  -6    4.40    7.20
   0  -1   6   -2.10    5.00
   0   1  -6    3.20    7.00
   1  -1   0  232.58    9.80
   1   1   0  246.38    8.20
  -1  -1   0  243.18    8.40
   1   1   0  235.58    7.30
  -1  -1   0  241.88    8.60
  -1   1   0  236.68    7.30
   1  -1   0  251.27    7.40
  -1   1   0  242.78    7.40
  -1   1   1  113.49    4.10
   1   1  -1  111.79    4.80
   1   1  -1  110.69    5.40
   1  -1   1  108.79    4.20
  -1  -1  -1  116.49    3.60
  -1  -1  -1  122.39    5.90
  -1  -1   1  116.49    4.90
   1   1   1  120.79    5.00
  -1  -1   1  114.59    5.00
   1   1   1  108.89    3.60
   1  -1  -1  120.59    6.20
   1  -1  -1  112.99    4.60
  -1   1  -1  116.29    4.40
  -1   1  -1  112.49    5.90
   1   1  -2  151.78    8.20
   1   1  -2  147.19    6.60
  -1  -1  -2  148.19    8.30
  -1   1   2  144.59    6.30
   1  -1   2  160.78    6.40
  -1  -1  -2  151.48    5.00
  -1  -1   2  152.58    7.00
   1   1   2  154.98    6.90
   1  -1  -2  152.88    6.30
   1  -1  -2  145.59    8.60
  -1  -1   2  147.19    6.80
  -1   1  -2  153.08    5.90
   1   1   2  145.09    7.30
  -1   1  -2  148.59    8.60
  -1   1   3   44.60    5.10
  -1   1   3   40.80    4.40
   1  -1   3   35.10    4.80
   1   1  -3   55.59    4.90
   1  -1   3   51.69    4.70
  -1  -1  -3   49.10    3.10
  -1  -1  -3   42.60    6.10
   1   1  -3   48.90    6.20
   1  -1  -3   54.49    7.00
  -1  -1   3   50.99    5.10
   1   1   3   41.60    5.00
   1   1   3   50.69    5.00
  -1   1  -3   40.00    5.90
  -1   1  -3   46.30    3.90
  -1  -1   3   51.79    5.30
   1  -1  -3   40.30    4.00
   1  -1   4   66.89    6.40
   1  -1   4   62.49    7.20
   1   1  -4   63.79    5.90
  -1   1   4   56.79    6.20
  -1   1   4   71.39    7.50
  -1  -1  -4   66.39    9.00
   1   1  -4   63.79    8.50
   1   1   4   45.40    5.90
   1  -1  -4   72.29    5.80
   1  -1  -4   67.49    8.70
   1   1   4   73.29    7.50
  -1  -1   4   55.99    6.30
  -1  -1   4   57.99    6.70
  -1   1  -4   53.19    8.10
  -1   1   5   27.90    5.80
  -1   1   5   18.60    5.80
   1  -1   5   27.70    6.50
   1   1  -5   22.50    7.50
  -1  -1  -5   21.10    7.00
  -1   1  -5   16.40    6.90
   1   1   5   16.50    5.30
   1   1   5   25.20    5.70
  -1  -1   5   14.00    5.20
   1  -1  -5   21.90    7.30
  -1  -1   5   24.90    5.70
   1   1  -6   29.20    9.40
  -1  -1  -6   32.10    9.60
   1  -1   6   19.30    7.50
   1  -1  -6   22.00    8.30
  -1   1  -6   27.80    9.50
   1   1   6   34.30    8.00
   2  -1   0   23.90    2.30
   2   1   0   19.10    2.50
   2  -1   0   37.50    3.10
   2  -1   0   23.30    3.70
   2   1   0   25.00    2.60
  -2  -1   0   21.80    2.80
  -2   1   0   23.50    2.40
   2   1   0   24.60    2.50
   2  -1   1  819.92   25.90
   2  -1   1  810.22   24.20
  -2  -1  -1  849.12   28.60
   2   1  -1  879.81   28.80
   2   1  -1  803.52   24.30
  -2   1   1  854.81   24.10
  -2  -1  -1  831.12   23.20
   2   1   1  817.92   24.80
  -2  -1   1  865.41   25.80
  -2   1  -1  823.32   23.90
   2  -1  -1  818.02   24.30
   2   1   1  845.02   26.50
   2  -1  -1  875.01   30.20
  -2  -1   1  821.92   25.10
  -2   1  -1  867.91   29.40
  -2   1   2   18.20    3.30
   2   1  -2   20.50    3.20
   2  -1   2   15.00    2.90
  -2  -1  -2   14.90    3.40
   2  -1   2   18.90    2.60
   2   1  -2   19.30    3.50
  -2  -1  -2   19.50    1.90
  -2   1   2   17.90    2.10
   2   1   2   20.60    3.00
  -2   1  -2   23.60    4.00
   2   1   2   14.20    3.00
   2  -1  -2   19.20    4.00
  -2  -1   2   18.30    2.70
  -2  -1   2   19.60    3.20
  -2   1  -2   15.30    2.30
   2  -1  -2   16.20    2.70
   2  -1   3  458.55   15.60
   2   1  -3  451.55   16.00
  -2   1   3  421.36   16.90
   2   1  -3  446.06   19.50
   2  -1   3  405.66   17.40
  -2   1   3  452.55   15.50
  -2  -1  -3  420.46   19.70
  -2   1  -3  412.16   19.80
   2  -1  -3  436.36   20.10
   2   1   3  439.16   16.20
  -2  -1   3  449.76   16.10
  -2  -1   3  441.36   17.00
   2  -1  -3  428.36   15.40
   2   1   3  412.56   17.40
  -2   1  -3  463.55   14.20
   2  -1   4    5.90    4.20
   2   1  -4    4.80    4.50
  -2   1   4   13.40    4.60
  -2  -1  -4    6.60    4.90
   2  -1   4    7.00    3.40
  -2   1   4    5.00    3.00
   2   1  -4    9.20    3.70
   2  -1  -4    4.10    2.90
  -2   1  -4   12.60    5.30
   2  -1  -4    7.30    4.90
   2   1   4   12.20    4.10
  -2  -1   4   11.70    3.60
  -2  -1   4    6.00    4.10
   2   1   4    0.20    3.30
   2   1  -5  175.88   14.60
   2  -1   5  179.78   12.90
  -2  -1  -5  171.18   15.00
  -2   1   5  180.78   12.60
   2  -1  -5  172.38   14.90
  -2   1  -5  186.58   15.10
  -2  -1   5  156.68   11.80
   2   1   5  176.08   13.10
  -2   1   6    5.80    6.40
   2  -1   6   11.20    6.90
   2   1  -6    8.40    7.60
   2   1   6    7.40    6.10
   2  -1  -6   -1.80    6.90
   3  -1   0 2849.81   96.39
   3   1   0 2987.60   80.09
   3   1   0 3008.50   94.79
  -3   1   0 3134.39   82.09
  -3   1   0 2938.61   85.49
   3  -1   0 3137.09   80.69
  -3  -1   0 2952.70   86.89
   3   1  -1  794.62   29.40
   3  -1   1  794.12   24.40
   3  -1   1  795.92   26.00
  -3   1   1  801.22   25.10
  -3  -1  -1  807.52   23.70
   3   1  -1  791.62   24.60
  -3  -1  -1  854.81   28.60
  -3   1   1  834.72   24.60
   3  -1  -1  816.22   31.10
  -3  -1   1  884.11   26.80
   3   1   1  798.42   26.70
  -3  -1   1  789.22   25.40
  -3   1  -1  779.62   29.30
  -3   1  -1  820.92   24.30
   3  -1  -1  781.62   24.60
   3   1   1  769.62   25.20
   3   1  -2 2372.66   76.39
   3  -1   2 2253.17   68.99
  -3  -1  -2 2319.87   76.29
  -3  -1  -2 2328.87   61.79
  -3   1   2 2423.86   65.79
  -3   1   2 2272.17   66.09
   3   1  -2 2286.17   64.19
   3  -1   2 2330.67   64.59
  -3   1  -2 2322.17   62.69
   3  -1  -2 2270.47   77.39
   3  -1  -2 2221.88   63.89
   3   1   2 2305.77   65.29
   3   1   2 2301.07   69.59
  -3   1  -2 2342.57   76.99
  -3  -1   2 2387.76   67.19
  -3  -1   2 2319.17   66.29
   3  -1   3  468.85   16.80
   3  -1   3  453.85   19.20
   3   1  -3  470.35   17.70
  -3   1   3  483.95   16.10
   3   1  -3  477.25   21.00
  -3  -1  -3  445.06   21.20
  -3   1   3  476.55   18.80
  -3  -1   3  482.55   16.90
   3   1   3  483.05   17.60
  -3   1  -3  472.35   22.00
  -3   1  -3  485.35   15.50
  -3  -1   3  474.45   18.70
   3  -1  -3  448.36   21.60
   3   1   3  484.25   19.70
   3  -1  -3  450.95   17.20
   3  -1   4 1164.58   41.40
   3   1  -4 1242.98   37.60
  -3   1   4 1231.98   40.30
   3   1  -4 1176.18   45.50
  -3  -1  -4 1188.58   46.50
   3   1   4 1114.29   41.20
   3   1   4 1180.88   37.70
   3  -1  -4 1203.38   46.40
   3  -1  -4 1157.58   36.80
  -3  -1   4 1148.09   39.40
  -3   1  -4 1192.18   46.80
   3  -1   5  205.18   14.70
   3   1  -5  202.98   16.10
  -3  -1  -5  202.08   16.20
  -3   1   5  192.38   13.80
   3  -1  -5  185.58   15.70
   3   1   5  196.68   14.20
  -3   1  -5  184.48   16.30
  -3  -1   5  220.88   14.10
  -3   1   6  543.95   26.60
   3  -1  -6  578.24   32.00
   4  -1   0  710.13   22.80
  -4   1   0  703.53   23.30
   4   1   0  681.73   22.40
   4  -1   0  705.63   27.30
  -4  -1   0  679.83   24.50
  -4   1   0  702.93   22.60
   4   1   0  682.23   25.40
  -4  -1   0  700.93   23.30
   4   1  -1 1642.74   47.60
   4   1  -1 1592.04   55.89
  -4  -1  -1 1676.53   55.29
  -4   1   1 1678.43   48.60
  -4   1   1 1667.53   49.70
   4  -1   1 1656.53   50.59
  -4  -1  -1 1647.44   51.09
  -4  -1   1 1636.04   49.00
   4  -1  -1 1602.14   47.50
  -4  -1   1 1671.33   51.49
  -4   1  -1 1717.63   56.59
   4  -1  -1 1569.34   57.69
   4   1   1 1579.74   48.40
  -4   1  -1 1686.03   47.70
  -4   1  -1 1709.53   47.20
   4   1  -2  516.15   22.60
   4  -1   2  546.35   18.60
   4   1  -2  509.35   19.20
  -4  -1  -2  538.25   22.20
  -4   1   2  525.75   19.90
  -4   1   2  545.15   16.70
   4  -1   2  522.75   20.50
  -4  -1  -2  495.45   17.20
  -4  -1   2  505.95   19.80
  -4   1  -2  517.65   18.10
  -4   1  -2  555.64   22.90
   4  -1  -2  533.95   19.40
  -4  -1   2  562.24   18.50
   4   1   2  512.85   20.80
   4   1   2  526.45   19.20
   4  -1  -2  548.85   24.10
   4   1  -3  979.20   38.20
  -4  -1  -3 1049.20   39.10
   4  -1   3 1005.60   35.20
   4   1  -3 1020.30   32.60
  -4   1   3  948.91   33.60
   4  -1   3 1018.90   31.60
  -4   1  -3  960.20   38.70
   4  -1  -3 1000.90   32.30
  -4  -1   3  967.90   33.80
   4   1   3  974.60   35.30
   4   1   3  984.10   32.20
   4  -1  -3  999.80   39.60
  -4  -1  -4  317.57   18.70
   4   1  -4  294.57   17.60
   4  -1   4  292.07   16.20
   4   1  -4  289.17   14.30
  -4   1   4  274.77   15.50
  -4  -1   4  249.38   15.10
   4  -1  -4  271.27   14.00
  -4   1  -4  268.97   17.70
   4  -1  -4  294.27   18.20
   4   1   4  287.37   16.20
  -4  -1  -5  460.75   26.90
   4  -1   5  519.15   25.50
   4   1  -5  496.45   21.60
  -4   1   5  512.95   24.00
  -4   1  -5  490.65   28.10
   4   1   5  491.15   24.60
   4  -1  -5  514.65   27.70
  -4  -1   5  540.75   24.30
   5   1   0  360.96   15.90
   5  -1   0  332.27   14.80
  -5  -1   0  358.36   16.00
   5   1   0  379.96   15.10
  -5   1   0  362.76   15.20
   5  -1   0  394.16   17.80
  -5   1   0  373.56   14.80
  -5  -1   0  346.57   15.20
  -5   1   1 1239.58   42.00
  -5  -1  -1 1278.57   43.40
  -5   1   1 1343.47   41.40
   5   1  -1 1367.16   41.00
  -5  -1  -1 1352.66   46.40
  -5  -1  -1 1348.17   39.80
   5   1  -1 1308.87   46.50
  -5  -1   1 1327.27   41.80
  -5   1  -1 1410.66   40.30
  -5   1  -1 1299.77   42.50
  -5   1  -1 1357.46   40.20
   5  -1  -1 1287.37   40.70
  -5  -1   1 1298.97   43.90
   5  -1  -1 1359.96   48.70
  -5   1  -1 1371.66   47.80
   5  -1   2  273.87   14.00
  -5   1   2  270.97   13.60
  -5  -1  -2  299.07   15.00
   5  -1   2  300.67   12.80
   5   1  -2  269.17   13.60
  -5  -1  -2  268.17   11.90
   5   1  -2  304.17   16.20
  -5  -1  -2  314.97   15.10
  -5   1  -2  272.37   12.40
  -5  -1   2  262.97   13.70
  -5   1  -2  296.67   15.80
   5  -1  -2  268.37   13.30
   5  -1  -2  319.17   17.70
   5   1   2  267.57   13.10
  -5   1   3  858.21   31.40
  -5  -1  -3  854.51   35.20
   5  -1   3  857.31   32.50
   5   1  -3  919.51   30.80
   5  -1  -3  842.02   29.90
  -5   1  -3  866.41   35.90
   5  -1  -3  820.82   36.10
  -5  -1   3  866.41   31.50
   5   1   3  810.62   32.40
   5   1   3  888.91   29.80
  -5   1   4  162.78   11.90
  -5  -1  -4  157.08   13.80
   5  -1   4  132.19   12.80
   5   1  -4  146.89   12.30
  -5   1  -4  153.48   15.30
  -5  -1   4  138.29   12.90
   5   1   4  138.29   13.20
   5  -1  -4  174.38   11.60
  -5   1   5  418.26   22.30
   5   1  -5  472.05   21.40
   5  -1   5  433.46   23.60
  -5  -1  -5  415.26   25.60
  -5  -1   5  411.46   22.50
  -5   1  -5  414.96   26.10
   5   1   5  446.36   24.00
   6   1   0 1975.70   58.19
  -6   1   0 1958.60   61.39
   6  -1   0 1914.71   67.89
  -6   1   0 2040.50   58.79
  -6  -1   0 1958.60   62.19
  -6  -1   0 1879.71   58.89
   6   1   0 2068.69   66.89
   6  -1   0 1911.41   58.19
  -6  -1  -1  100.49    8.50
  -6  -1  -1   87.19    8.10
  -6  -1  -1   99.79    9.50
  -6   1   1   96.29    8.70
   6   1  -1  103.79    8.40
   6   1  -1  100.49    9.00
  -6  -1  -1   94.79    8.00
   6  -1  -1   92.09    8.80
  -6   1  -1  104.69    8.90
   6  -1  -1  102.49   10.20
  -6  -1   1   95.49    9.00
  -6   1  -1   94.99    7.30
  -6   1  -1   91.79    8.70
  -6   1  -1   93.79    9.60
  -6  -1  -2 1579.94   56.39
   6   1  -2 1565.24   49.70
  -6   1   2 1584.14   50.59
  -6  -1  -2 1648.83   53.69
   6  -1  -2 1549.64   58.59
  -6   1  -2 1624.04   52.59
  -6  -1   2 1594.94   51.19
  -6   1  -2 1695.83   48.40
  -6   1  -2 1542.85   47.90
   6   1   2 1653.03   49.50
  -6   1  -2 1551.94   57.29
   6  -1  -2 1453.75   49.10
  -6  -1  -3   64.69    9.10
  -6  -1  -3   82.79   10.00
  -6   1   3   65.39    8.90
   6   1  -3   67.39    8.60
   6  -1   3   68.29    9.10
  -6   1  -3   62.69    9.70
   6  -1  -3   65.69    8.30
  -6  -1   3   62.39    8.90
   6   1  -4  946.91   35.40
  -6  -1  -4  973.00   41.30
   6  -1   4  902.11   37.90
  -6  -1  -4 1019.90   40.00
  -6   1   4  922.81   36.50
   6  -1  -4  997.10   35.50
  -6  -1   4  946.71   37.20
  -6   1  -4  943.91   41.70
   6   1  -5   38.90    8.50
   6  -1  -5   32.80    8.10
  -7  -1   0   42.00    6.80
  -7   1   0   42.10    6.40
   7  -1   0   37.60    7.10
  -7  -1   0   42.60    7.10
   7   1   0   37.30    6.50
  -7   1   0   38.30    6.50
  -7  -1  -1  339.57   16.60
  -7  -1  -1  361.26   18.80
   7   1  -1  363.06   17.80
  -7  -1  -1  351.86   16.50
  -7   1   1  377.96   17.50
  -7  -1  -1  357.76   18.00
  -7   1  -1  387.86   18.20
  -7   1  -1  348.47   16.80
  -7   1  -1  364.46   16.20
  -7  -1   1  390.06   18.30
   7  -1  -1  353.96   17.50
  -7   1  -1  354.36   19.00
  -7  -1  -2   34.60    6.80
  -7  -1  -2   36.30    7.10
  -7   1   2   29.30    6.40
  -7  -1  -2   28.20    5.70
   7   1  -2   31.10    6.40
   7  -1  -2   16.50    5.60
  -7   1  -2   29.50    6.80
  -7  -1   2   44.80    7.80
  -7   1  -2   27.50    6.90
  -7  -1  -3  240.88   16.40
  -7  -1  -3  229.28   16.20
   7   1  -3  238.98   15.50
  -7   1   3  220.18   14.90
  -7  -1   3  246.48   15.90
  -7   1  -3  223.88   15.90
   7  -1  -3  268.17   16.00
  -7   1  -3  250.87   16.90
  -7  -1  -4   10.90    7.30
  -7  -1  -4   31.90    9.40
  -7   1   4   28.40    8.20
   7   1  -4   19.50    7.30
  -7   1  -4   11.70    7.10
   7  -1  -4   25.50    7.40
  -7   1  -4   11.20    7.40
  -7  -1   4   14.60    6.90
  -8  -1   0  910.01   33.10
  -8   1   0  867.91   32.10
  -8   1   0  868.71   32.90
   8   1  -1  299.57   17.30
  -8  -1  -1  299.17   16.00
  -8  -1  -1  299.67   15.90
  -8   1   1  308.87   16.50
  -8  -1  -1  310.87   18.20
  -8  -1   1  309.47   17.00
  -8   1  -1  272.77   16.00
  -8   1  -1  330.07   18.50
   8  -1  -1  300.87   17.10
  -8   1  -1  289.47   15.20
  -8   1   2  739.53   30.60
  -8  -1  -2  813.92   33.70
   8   1  -2  764.92   31.30
  -8   1  -2  770.92   32.50
  -8  -1   2  735.23   31.20
   8  -1  -2  806.22   31.80
  -8   1  -2  773.42   34.10
  -8   1   3  223.68   15.80
  -8  -1  -3  225.88   16.60
  -8  -1  -3  229.58   17.10
   8   1  -3  234.28   16.50
  -8   1  -3  226.08   17.20
   8  -1  -3  227.28   16.30
  -8   1  -3  205.78   16.50
  -8  -1   3  217.08   16.40
  -9   1   0   -7.60    5.00
  -9  -1   0    9.00    5.90
  -9  -1   0   -1.70    4.30
  -9   1   0   -1.90    4.20
  -9   1   1  115.99   12.90
  -9  -1  -1  118.29   11.50
   9   1  -1  110.59   12.60
  -9   1   1  111.89   11.70
  -9  -1   1  108.19   12.10
  -9   1  -1  106.29   11.80
  -9   1   2    1.60    5.70
   0   2   0  499.25   13.60
   0  -2   0  503.25   15.00
   0   2   0  482.85   13.70
   0   2  -1    0.40    1.30
   0  -2  -1    0.10    0.70
   0  -2   1    0.50    0.90
   0  -2  -1    0.50    1.50
   0  -2   1    0.90    1.10
   0   2  -1    0.30    1.00
   0   2   1   -2.80    1.00
   0   2   1    2.60    1.20
   0  -2   2  317.27   10.50
   0   2  -2  340.57   10.70
   0   2   2  295.67   11.20
   0   2  -2  299.47   13.10
   0   2   2  311.67   11.30
   0  -2  -2  307.37   13.80
   0  -2  -2  282.37    9.20
   0   2  -3    2.50    1.90
   0  -2   3    2.10    2.00
   0   2   3   12.30    2.90
   0   2   3   -2.60    1.80
   0  -2  -3    2.30    1.40
   0  -2   3    2.10    2.40
   0   2  -3    0.30    2.80
   0  -2  -3   11.90    4.00
   0   2  -4  122.69    7.30
   0   2   4  130.49    8.70
   0   2  -4  122.59   10.50
   0  -2   4  128.39    9.00
   0   2   4  118.49    8.60
   0  -2   4  116.39    7.70
   0  -2  -4  110.29   11.50
   0   2   5   -3.50    3.60
   0   2  -5    2.10    5.20
   0   2   5  -10.70    3.00
   0  -2   5    1.70    4.20
   0  -2  -5    5.40    5.70
   0   2  -6   53.79   11.20
   0  -2  -6   53.29   11.00
   0  -2   6   58.59    9.30
  -1   2   0  349.07    9.70
   1   2   0  334.17    9.80
  -1   2   0  315.37   10.20
   1  -2   0  296.27   13.40
   1  -2   0  328.87    9.90
   1   2   0  339.87   10.70
  -1  -2   0  321.27   11.80
  -1  -2   0  339.47   10.60
   1  -2   1 1824.32   52.59
   1  -2   1 1720.33   48.70
   1   2  -1 1782.72   49.00
  -1   2   1 1865.91   51.19
  -1  -2  -1 1939.31   58.49
   1   2  -1 1833.72   57.49
  -1   2   1 1859.01   50.29
  -1   2  -1 1824.22   58.99
  -1   2  -1 1813.42   48.70
   1   2   1 1778.52   50.29
   1   2   1 1889.51   53.19
   1  -2  -1 1848.81   48.60
  -1  -2   1 1806.52   50.09
  -1  -2   1 1864.21   52.79
   1  -2  -1 1783.22   59.29
  -1   2   2  216.58    9.00
  -1  -2  -2  186.58   10.10
  -1   2   2  204.08    7.90
   1   2  -2  220.68    8.60
   1  -2   2  225.08    7.70
   1   2  -2  212.48    9.90
  -1  -2  -2  206.08    6.00
  -1   2  -2  209.38   10.50
   1  -2  -2  197.98    7.70
  -1   2  -2  200.18    7.70
   1  -2  -2  205.08   10.90
   1   2   2  209.38    8.70
  -1  -2   2  214.88    9.00
   1   2   2  216.28    9.20
   1   2   2  214.18    6.10
  -1  -2   2  215.78    8.70
  -1   2   3  976.30   30.30
  -1  -2  -3  951.80   25.50
   1  -2   3  911.21   31.40
   1   2  -3  926.41   28.50
   1   2  -3  953.20   34.80
   1  -2   3  929.21   28.20
  -1   2   3  964.10   30.00
  -1  -2  -3  900.61   35.30
   1   2   3  944.81   29.70
   1  -2  -3  939.11   36.00
  -1   2  -3  960.70   35.60
  -1   2  -3  982.40   27.70
   1  -2  -3  945.61   27.40
  -1  -2   3  960.80   29.60
   1   2   3  888.71   31.00
  -1  -2   3  953.50   30.80
   1  -2   4   85.79    8.60
  -1   2   4   82.79    7.40
   1  -2   4   83.89    7.00
  -1  -2  -4   86.99   10.30
   1   2  -4   91.49    9.70
   1   2  -4   85.69    7.10
  -1   2   4   85.29    8.10
   1  -2  -4   83.19    9.90
   1   2   4   83.89    8.20
   1   2   4   85.89    7.90
  -1  -2   4   96.79    7.70
  -1   2  -4   83.19    9.60
  -1  -2   4   97.39    7.20
   1   2  -5  424.86   22.80
   1  -2   5  430.96   20.40
  -1   2   5  402.46   18.80
  -1  -2  -5  406.86   23.50
  -1  -2   5  418.56   18.60
   1  -2  -5  429.36   23.90
   1   2   5  395.16   18.40
  -1  -2   5  419.96   19.20
  -1   2  -5  404.36   23.20
   1   2   5  393.16   19.60
   1   2  -6   32.00    9.10
  -1   2   6   46.60    8.60
   1  -2   6   34.00    8.30
   1  -2  -6   40.30   10.20
  -1   2  -6   41.90   10.30
   1   2   6   62.59    9.70
   2   2   0 1333.67   36.70
  -2  -2   0 1316.97   41.00
   2  -2   0 1387.96   38.70
   2  -2   0 1255.37   45.90
  -2   2   0 1369.36   37.40
  -2   2   0 1363.26   37.40
  -2  -2   0 1410.16   42.70
   2   2  -1 2734.23   85.49
  -2  -2  -1 2825.62   85.99
   2   2  -1 2734.23   72.59
  -2   2   1 2741.33   74.39
   2  -2   1 2733.33   77.69
   2  -2   1 2729.63   73.19
  -2  -2   1 2631.64   74.59
   2   2   1 2713.33   74.59
   2   2   1 2700.13   70.89
  -2   2  -1 2758.72   72.39
  -2  -2   1 2738.13   78.39
   2  -2  -1 2614.34   88.29
   2  -2  -1 2701.93   72.49
  -2   2   2  983.90   30.20
  -2   2   2  965.20   28.60
   2  -2   2  929.71   28.00
  -2  -2  -2  976.50   34.60
   2   2  -2  973.10   29.10
  -2  -2  -2 1019.50   25.80
   2  -2   2  955.30   31.10
   2   2  -2  999.70   33.90
   2  -2  -2  937.41   28.40
   2  -2  -2  948.71   35.50
  -2   2  -2 1004.80   28.00
  -2  -2   2  980.50   29.90
   2   2   2  977.40   31.70
   2   2   2 1002.30   29.70
  -2   2  -2  950.60   35.10
  -2  -2   2  994.00   30.40
   2  -2   3 1533.25   44.10
   2   2  -3 1583.64   53.49
   2  -2   3 1560.54   48.90
  -2   2   3 1507.45   46.70
  -2   2   3 1545.25   45.90
   2   2  -3 1513.35   44.60
  -2  -2  -3 1516.85   54.29
   2   2   3 1540.75   45.90
   2  -2  -3 1520.45   43.90
  -2   2  -3 1551.74   54.99
   2  -2  -3 1539.75   55.09
   2   2   3 1533.85   48.80
  -2  -2   3 1551.04   46.50
  -2   2  -3 1603.24   43.10
  -2  -2   3 1551.54   47.20
   2  -2   4  441.96   20.40
  -2   2   4  477.85   19.80
  -2  -2  -4  454.15   23.20
  -2   2   4  502.25   18.20
   2   2  -4  470.85   22.40
   2   2  -4  464.65   18.10
   2  -2  -4  525.35   24.40
  -2  -2   4  483.55   18.90
  -2   2  -4  455.95   23.30
   2  -2  -4  479.75   17.30
   2   2   4  452.25   18.60
   2   2   4  488.45   20.70
  -2  -2   4  473.05   19.50
  -2  -2  -5  639.04   32.60
   2  -2   5  683.93   28.80
   2   2  -5  679.83   31.80
  -2   2   5  684.53   27.60
  -2   2  -5  671.73   32.80
   2  -2  -5  698.83   33.20
   2   2   5  702.33   26.20
  -2  -2   5  697.73   27.10
   2   2   5  722.53   29.30
   2   2  -6  203.18   17.90
  -2   2   6  222.48   15.70
   2  -2   6  208.88   16.40
   2   2   6  236.18   16.50
   2  -2  -6  214.58   21.10
  -3  -2   0 1282.87   39.60
   3   2   0 1302.47   40.90
   3  -2   0 1149.29   43.70
   3   2   0 1241.48   35.40
  -3   2   0 1267.27   35.90
   3  -2   0 1258.97   37.10
  -3  -2  -1  321.37   13.60
   3   2  -1  320.27   12.40
  -3   2   1  355.06   10.60
  -3   2   1  333.77   12.50
   3  -2   1  335.67   12.70
  -3  -2  -1  331.77   13.60
   3   2  -1  355.96   14.40
   3  -2  -1  342.57   12.70
   3   2   1  335.37   11.40
   3   2   1  312.57   12.70
  -3  -2   1  329.67   13.00
  -3   2  -1  332.87   12.20
  -3  -2   1  357.76   14.30
   3  -2  -1  342.87   16.90
   3  -2   2  917.81   27.10
  -3  -2  -2  913.11   33.00
  -3   2   2  900.01   26.10
   3   2  -2  933.91   32.40
  -3   2   2  890.91   29.00
  -3  -2  -2  914.91   25.30
   3   2  -2  897.81   28.20
  -3   2  -2  906.81   27.00
   3   2   2  906.11   28.60
  -3   2  -2  894.71   33.90
  -3  -2   2  912.61   28.80
  -3  -2   2  857.31   28.90
   3  -2  -2  903.41   34.80
   3   2   2  904.61   30.60
   3  -2  -2  864.31   27.60
  -3  -2  -3  174.58   11.50
   3   2  -3  171.98    9.70
   3   2  -3  195.78   11.40
  -3   2   3  174.78   10.40
   3  -2   3  191.28    8.60
  -3   2  -3  175.38   11.90
   3   2   3  164.88   10.50
   3  -2  -3  162.58    9.10
   3  -2  -3  190.28   12.50
  -3   2  -3  176.58    8.30
   3   2   3  174.88    9.60
  -3  -2   3  186.38   10.60
  -3  -2   3  177.28    8.90
   3   2  -4  449.36   18.00
  -3   2   4  407.76   18.90
   3   2  -4  437.96   21.50
  -3  -2  -4  419.06   22.00
   3  -2   4  399.66   19.50
   3  -2  -4  439.36   17.20
  -3  -2   4  406.76   18.80
  -3   2  -4  418.76   22.50
   3   2   4  446.96   18.00
   3   2   4  417.36   20.00
  -3  -2   4  450.75   17.60
   3  -2  -4  443.16   23.00
  -3  -2  -5   91.69   12.60
   3  -2   5   79.39   10.40
   3   2  -5   77.79   11.20
  -3   2   5   85.19   10.50
   3  -2  -5   80.99   12.10
  -3  -2   5   78.99   10.00
   3   2   5   86.39   10.50
  -3   2  -5   81.19   12.40
  -4  -2   0  175.48    9.20
  -4  -2   0  177.18    9.80
  -4   2   0  151.08    7.80
   4  -2   0  149.69   10.30
   4   2   0  172.98    8.40
   4   2   0  187.08    8.70
  -4   2   0  164.18    7.90
  -4   2   1  712.73   23.90
  -4   2   1  783.52   23.50
   4  -2   1  765.72   25.10
   4   2  -1  704.43   23.70
  -4  -2  -1  725.63   26.10
  -4  -2  -1  748.23   26.60
   4   2  -1  708.73   26.60
   4   2   1  717.23   24.60
  -4   2  -1  736.23   22.90
  -4  -2   1  703.73   26.40
  -4  -2   1  739.23   25.00
  -4   2  -1  714.43   23.60
   4   2   1  723.03   22.80
   4  -2  -1  733.43   30.40
  -4  -2  -2  108.69    8.30
   4   2  -2  122.59    7.90
   4   2  -2  127.09    9.00
   4  -2   2  112.59    7.90
  -4  -2  -2  122.39    6.30
   4  -2   2  128.99    6.90
  -4   2   2  109.19    7.60
  -4  -2   2  132.39    7.70
   4  -2  -2  118.79   10.30
  -4   2  -2  113.89    9.40
  -4  -2   2  124.49    8.30
  -4   2  -2  116.49    7.20
   4   2   2  121.89    8.00
   4  -2  -2  129.49    7.90
  -4  -2  -3  422.76   20.20
   4   2  -3  404.66   17.20
   4   2  -3  411.66   19.70
   4  -2   3  417.46   18.60
   4  -2  -3  417.16   17.10
   4   2   3  448.56   17.60
  -4  -2   3  408.46   18.10
  -4  -2   3  435.06   16.20
  -4   2  -3  399.06   20.80
   4   2   3  421.46   19.10
   4  -2  -3  443.56   22.20
  -4  -2  -4   58.29    9.20
   4  -2   4   47.20    7.80
   4   2  -4   45.40    6.90
  -4   2   4   55.69    8.10
  -4   2  -4   60.99    9.60
   4  -2  -4   55.09    7.00
   4  -2  -4   63.09   10.10
   4   2   4   50.69    6.90
  -4  -2   4   59.79    8.40
   4   2   4   59.89    8.60
  -4   2   5  239.58   15.60
  -4  -2  -5  208.88   17.40
   4  -2   5  203.98   15.30
   4   2  -5  254.27   14.40
  -4  -2   5  215.58   15.50
   4  -2  -5  218.88   17.80
  -4   2  -5  220.98   18.00
   4   2   5  229.88   16.20
   5   2   0 1088.79   34.20
   5  -2   0 1193.48   42.80
  -5   2   0 1104.99   34.90
  -5  -2   0 1084.99   35.40
  -5  -2   0 1104.59   37.60
  -5   2   0 1067.19   34.00
  -5   2   0 1080.39   35.20
  -5  -2  -1  575.04   22.80
   5  -2   1  598.84   21.70
  -5   2   1  562.24   20.30
   5   2  -1  550.64   21.90
   5   2  -1  576.84   21.00
  -5   2   1  553.34   20.60
  -5  -2  -1  536.95   22.10
  -5   2  -1  560.54   24.40
  -5  -2   1  567.24   21.90
  -5   2  -1  586.74   19.80
  -5  -2   1  542.75   23.00
   5   2   1  559.84   21.30
  -5   2  -1  596.04   20.90
   5   2   1  611.34   20.40
   5  -2  -1  574.44   25.70
   5  -2  -1  567.24   21.00
  -5  -2  -2  841.12   32.60
   5  -2   2  876.41   30.90
  -5  -2  -2  826.32   26.80
  -5   2   2  814.02   29.30
   5   2  -2  853.21   29.40
  -5  -2  -2  842.22   31.50
   5   2  -2  879.21   33.60
   5  -2  -2  853.11   36.30
  -5  -2   2  908.31   29.60
   5   2   2  855.01   29.30
   5  -2  -2  847.32   29.20
  -5   2  -2  887.11   34.70
  -5  -2   2  848.22   30.40
  -5   2  -2  841.52   28.10
  -5   2   3  360.16   17.30
  -5  -2  -3  367.66   19.00
   5   2  -3  320.57   16.20
   5  -2   3  345.77   17.50
   5  -2  -3  366.56   16.50
   5   2   3  362.06   16.30
   5  -2  -3  388.06   21.20
  -5  -2   3  348.87   17.70
  -5   2  -3  358.76   19.70
  -5   2   4  476.15   22.00
   5  -2   4  462.55   22.80
  -5  -2  -4  478.15   25.00
   5   2  -4  488.25   21.20
   5  -2  -4  485.55   20.80
   5  -2  -4  518.15   27.10
  -5  -2   4  489.05   22.90
   5   2   4  453.85   23.00
  -5   2  -4  460.75   25.80
  -5  -2  -5  202.28   16.80
   5  -2   5  199.68   15.60
  -5   2   5  164.48   15.30
   5   2  -5  237.98   14.70
  -5  -2   5  167.28   15.90
  -5   2  -5  197.78   19.80
  -6  -2   0  273.47   14.10
   6  -2   0  298.47   16.40
  -6  -2   0  281.47   15.00
  -6  -2   0  298.47   13.70
   6   2   0  267.47   13.70
  -6   2   0  263.27   12.70
  -6   2   0  300.57   14.50
  -6   2   0  281.87   13.50
  -6  -2  -1   77.29    7.00
  -6  -2  -1   66.79    7.30
   6   2  -1   92.09    8.80
  -6  -2  -1   82.09    9.00
  -6   2   1   82.79    8.10
  -6   2  -1   85.99    7.30
  -6  -2   1   72.09    8.40
  -6  -2   1   81.99    9.20
  -6   2  -1   68.59    8.90
   6  -2  -1   99.39    9.30
  -6   2  -1   75.49    7.80
   6  -2  -1   74.89    9.50
  -6   2  -1   85.59    8.40
  -6   2   2  199.28   12.40
  -6  -2  -2  228.08   14.10
  -6  -2  -2  197.08   12.60
   6   2  -2  217.18   12.90
   6  -2   2  214.38   12.70
   6  -2  -2  219.18   15.50
   6  -2  -2  191.08   12.30
  -6   2  -2  209.08   10.50
  -6   2  -2  210.08   14.20
  -6   2  -2  212.88   11.60
  -6  -2   2  211.98   13.40
   6   2   2  215.48   12.30
  -6  -2  -3   38.10    7.60
  -6  -2  -3   47.00    8.10
   6   2  -3   53.69    7.90
  -6   2   3   42.90    7.30
   6  -2   3   72.59    9.30
   6   2   3   61.99    7.80
   6  -2  -3   59.99    8.20
  -6   2  -3   42.80    8.40
  -6  -2   3   34.60    7.30
   6  -2  -3   66.39   10.80
  -6   2   4  148.99   13.50
  -6  -2  -4  138.59   14.50
  -6  -2  -4  147.89   15.00
   6  -2   4  144.29   13.70
   6   2  -4  125.89   12.50
   6  -2  -4  155.48   13.20
  -6  -2   4  125.19   13.40
  -6   2  -4  118.19   14.50
  -7  -2   0   68.09    8.20
   7   2   0   52.59    7.70
   7  -2   0   53.99    8.40
  -7  -2   0   73.19    9.20
  -7   2   0   62.99    7.50
  -7   2   0   53.99    7.80
   7   2  -1   73.49    8.90
  -7   2   1   68.19    8.10
  -7  -2  -1   83.59    8.50
  -7  -2  -1   71.59    9.50
  -7  -2  -1   76.49    8.50
   7  -2  -1   81.99   10.30
  -7  -2   1   82.89    9.60
  -7   2  -1   86.59    9.30
  -7   2  -1   73.29    8.70
  -7   2  -1   83.99   10.10
   7  -2  -1   91.99    9.60
  -7   2  -1   91.39    8.20
   7   2  -2   51.09    7.90
  -7  -2  -2   59.09    7.90
  -7  -2  -2   56.99    9.10
  -7  -2  -2   51.79    7.80
  -7   2   2   77.19    9.10
   7  -2  -2   53.89    7.90
  -7   2  -2   70.09    8.30
  -7   2  -2   75.99    9.30
  -7   2  -2   52.79    8.80
  -7  -2   2   39.00    7.60
  -7  -2  -3   44.90    8.70
  -7  -2  -3   75.89   10.20
  -7   2   3   63.19    9.20
   7   2  -3   59.59    9.20
  -7  -2   3   51.59    8.90
   7  -2  -3   53.99    8.90
  -7   2  -3   53.59    9.70
  -7  -2  -4   46.60   10.10
  -7   2   4   28.10    7.60
  -7  -2  -4   34.00    9.00
   7   2  -4   35.10    8.10
  -7   2  -4   48.80   10.70
  -7  -2   4   23.20    8.20
   7  -2  -4   48.40    8.80
  -8  -2   0  749.82   29.10
  -8   2   0  698.83   28.80
   8   2   0  731.63   28.80
  -8   2   0  705.13   27.30
  -8  -2  -1    5.80    4.80
  -8  -2  -1   10.50    4.90
  -8   2   1    8.50    5.80
  -8  -2  -1    0.60    4.90
  -8   2   1    8.90    5.00
   8   2  -1   -1.40    4.40
  -8   2  -1    8.10    4.30
  -8   2  -1    6.80    5.10
  -8  -2   1    4.90    5.10
  -8   2  -1    3.00    5.30
  -8  -2  -2  614.24   25.20
  -8  -2  -2  639.04   29.40
  -8   2   2  624.64   26.70
   8   2  -2  629.34   27.50
  -8  -2   2  582.44   27.00
   8  -2  -2  621.64   26.80
  -8   2  -2  621.74   27.60
  -8   2  -2  585.74   29.10
   8   2  -3   -2.50    5.50
  -8   2   3    3.30    5.60
  -8  -2  -3    8.30    7.10
  -8   2  -3    1.00    6.20
   8  -2  -3   -3.30    5.80
  -8  -2   3    7.60    6.40
  -8   2  -3    2.60    5.90
  -9   2   0  480.55   23.50
  -9  -2   0  511.35   23.40
  -9   2   0  448.46   21.40
  -9  -2   0  476.15   22.90
   9   2  -1  353.86   19.90
  -9   2   1  342.77   19.50
  -9   2   1  309.97   17.50
  -9  -2  -1  303.07   17.40
  -9   2  -1  324.37   18.40
  -9  -2   1  317.57   18.60
  -9   2   2  371.56   20.50
   0   3   0    0.50    0.90
   0  -3   0    3.50    2.00
   0   3   0    3.20    0.90
   0  -3   0   -0.60    1.20
   0   3  -1 2639.34   70.29
   0   3   1 2613.84   72.29
   0  -3  -1 2650.33   75.79
   0   3  -1 2675.33   83.89
   0  -3   1 2712.83   71.09
   0   3   1 2757.62   69.29
   0  -3  -1 2666.23   84.79
   0   3  -2    0.30    1.50
   0   3   2   -0.80    1.50
   0  -3  -2   -0.10    0.90
   0   3  -2    1.50    2.10
   0   3   2   -2.10    1.30
   0  -3   2    0.20    1.30
   0  -3   2    0.00    1.50
   0  -3  -2    1.00    2.10
   0  -3   3 1558.94   49.30
   0  -3   3 1584.54   45.60
   0   3   3 1603.14   47.20
   0   3   3 1625.74   48.70
   0   3  -3 1520.45   54.69
   0  -3  -3 1631.04   42.90
   0   3  -3 1606.94   45.10
   0  -3  -3 1620.94   56.09
   0   3   4    4.50    3.30
   0  -3   4    2.30    2.80
   0   3  -4    1.80    4.10
   0   3  -4    1.10    2.60
   0  -3   4    0.60    3.00
   0   3   4    2.20    3.40
   0  -3  -4    0.90    4.20
   0  -3  -5  635.44   32.30
   0   3  -5  730.43   32.90
   0   3   5  684.43   26.90
   0  -3   5  716.83   28.50
   0   3   5  731.53   27.80
   0  -3  -6    9.90    7.90
   0   3  -6    1.10    6.40
   0  -3   6   -3.40    5.10
   1  -3   0  814.02   23.10
  -1   3   0  827.32   22.00
   1   3   0  738.63   23.20
   1   3   0  812.22   25.10
  -1  -3   0  793.92   25.20
   1   3   0  799.92   22.00
   1  -3   1  275.57    8.00
  -1   3   1  268.17    9.80
   1   3  -1  285.87    9.80
  -1  -3  -1  299.27   11.40
  -1  -3  -1  285.27   10.90
   1   3  -1  290.37   10.30
   1  -3   1  299.97   10.40
   1  -3  -1  296.47    9.40
  -1   3  -1  298.27    9.80
  -1   3  -1  296.87   12.20
  -1   3  -1  285.97    7.90
  -1  -3   1  291.47   10.80
   1  -3  -1  281.57    9.10
  -1  -3   1  272.07    9.70
   1   3   1  279.07   10.10
  -1  -3  -2  469.95   19.50
   1  -3   2  481.95   17.50
   1  -3   2  488.35   14.80
  -1   3   2  510.95   16.10
   1   3  -2  510.55   16.40
  -1   3   2  495.25   17.00
   1   3  -2  506.05   18.70
   1  -3  -2  510.85   15.30
   1   3   2  499.65   17.70
  -1  -3   2  482.45   17.40
   1  -3  -2  517.85   20.70
  -1  -3   2  506.65   16.40
   1   3   2  482.05   16.70
  -1   3  -2  514.65   15.80
  -1   3  -2  499.05   19.90
   1  -3   3  136.49    8.60
  -1   3   3  160.38    7.70
   1   3  -3  142.89    9.30
   1   3  -3  147.79    7.80
   1  -3   3  158.38    6.90
  -1  -3  -3  132.69   10.00
  -1   3   3  158.88    8.60
  -1  -3   3  146.69    7.90
   1   3   3  134.89    8.30
   1  -3  -3  164.58   11.10
  -1   3  -3  162.48    7.60
   1   3   3  154.28    8.40
  -1  -3   3  141.99    8.20
   1  -3  -3  150.88    6.80
  -1   3  -3  132.79    9.90
  -1   3   4  210.48   10.90
   1   3  -4  225.98   10.90
   1   3  -4  203.48   13.50
  -1   3   4  227.18   12.10
   1  -3   4  223.68   10.20
  -1  -3  -4  212.18   14.60
   1  -3   4  228.38   12.60
  -1  -3   4  227.28   11.30
  -1   3  -4  236.18   10.40
   1   3   4  209.28   11.60
   1  -3  -4  213.78   14.60
   1   3   4  220.28   12.30
  -1   3  -4  222.78   14.40
  -1  -3   4  202.08   11.70
   1  -3   5   71.99    9.20
  -1   3   5   76.79    9.00
   1   3  -5   73.99   10.40
  -1  -3  -5   74.09   10.90
   1   3   5   67.79    8.90
   1   3   5   59.29    7.80
   1  -3  -5   58.19   10.40
  -1  -3   5   69.49    8.50
  -1   3  -5   77.79   11.00
  -1   3   6   98.49   11.60
   1  -3   6   91.49   11.80
   1   3  -6  121.19   15.10
   1  -3  -6   99.49   14.50
  -1   3  -6   88.99   13.60
   1   3   6   98.39   11.60
   2   3   0 2864.71   74.09
  -2  -3   0 2609.04   81.69
   2  -3   0 2542.15   91.29
   2   3   0 2878.71   77.39
  -2   3   0 2964.60   75.49
  -2  -3   0 2961.50   86.69
   2  -3   0 2776.82   78.59
  -2  -3  -1 4951.30  141.89
   2  -3   1 4997.90  157.68
   2  -3   1 5025.20  140.29
   2   3  -1 4773.72  130.69
  -2  -3  -1 5533.45  155.58
   2   3  -1 4902.11  154.18
   2  -3  -1 4462.75  158.08
  -2   3  -1 5086.49  132.09
   2   3   1 5107.79  134.59
  -2   3  -1 5201.28  130.79
   2  -3  -1 4727.83  130.49
   2   3   1 5002.00  128.79
  -2  -3   1 4904.21  134.49
  -2  -3   1 5154.88  141.89
  -2  -3  -2 2126.89   69.99
   2  -3   2 2171.38   63.19
   2  -3   2 2105.99   57.79
  -2   3   2 2146.39   60.49
  -2   3   2 2171.38   60.29
   2   3  -2 2133.49   58.89
   2   3  -2 2108.19   68.69
  -2  -3   2 2169.18   62.89
   2  -3  -2 2140.09   58.09
   2   3   2 2102.09   60.29
  -2  -3   2 2097.99   60.29
  -2   3  -2 2159.88   71.09
  -2   3  -2 2149.78   57.99
   2   3   2 2072.19   63.69
   2  -3  -2 2033.00   71.29
  -2  -3  -3 3463.35  111.99
   2   3  -3 3318.87   92.89
   2   3  -3 3411.36  110.49
  -2   3   3 3461.65   96.29
   2  -3   3 3391.06   92.79
   2  -3   3 3445.16  100.59
  -2   3   3 3486.55   97.39
   2   3   3 3399.06   95.49
   2  -3  -3 3316.97  112.99
  -2   3  -3 3536.85   91.39
   2  -3  -3 3400.16   91.79
  -2  -3   3 3465.55   99.39
  -2  -3   3 3367.36   95.59
  -2   3  -3 3400.06  112.39
   2   3   3 3416.66  100.79
  -2   3   4  954.00   34.40
   2   3  -4 1026.00   32.80
   2   3  -4 1055.39   39.60
   2  -3   4 1009.80   36.40
  -2  -3  -4  941.61   40.30
  -2  -3   4 1038.80   34.70
   2   3   4 1023.90   33.90
   2  -3  -4 1009.30   41.50
   2   3   4 1073.49   36.60
  -2  -3   4 1075.69   34.40
   2  -3  -4 1043.60   31.30
  -2   3  -4  961.10   40.70
   2   3  -5 1715.83   63.59
  -2  -3  -5 1699.23   65.39
  -2   3   5 1670.53   55.19
   2  -3   5 1674.33   57.99
   2   3   5 1732.13   57.79
  -2  -3   5 1746.33   54.39
  -2  -3   5 1717.93   55.69
  -2   3  -5 1726.73   65.79
   2   3   5 1673.33   53.69
   2  -3  -5 1730.23   66.09
  -2   3   6  472.95   23.10
   2   3   6  456.85   23.60
   2  -3  -6  429.46   27.60
   3   3   0   29.20    3.30
   3   3   0   41.60    4.60
   3  -3   0   36.00    3.10
  -3   3   0   30.40    3.10
  -3  -3   0   27.80    4.40
   3  -3   0   22.40    4.90
  -3  -3   0   34.50    2.80
  -3   3   0   29.30    3.70
   3  -3   1 3601.54  101.99
   3  -3   1 3576.84  115.69
  -3   3   1 3630.04   97.69
   3   3  -1 3260.37  111.89
  -3  -3  -1 3529.55  103.89
  -3  -3  -1 3742.33  112.49
   3   3  -1 3651.83   95.69
  -3   3  -1 3644.44   95.89
  -3  -3   1 3537.65   98.69
   3   3   1 3682.13   98.79
   3  -3  -1 3376.06  117.09
   3  -3  -1 3536.35   95.69
  -3  -3   1 3547.55  104.39
   3   3   1 3627.14   93.99
  -3   3  -1 3617.54   95.69
   3   3  -2   24.40    4.00
   3   3  -2   30.40    4.20
   3  -3   2   26.20    3.10
   3  -3   2   19.70    3.70
  -3   3   2   26.10    1.70
  -3  -3  -2   32.40    2.60
  -3   3   2   29.50    4.30
  -3   3  -2   25.40    3.70
   3  -3  -2   23.80    3.80
   3  -3  -2   24.70    5.50
  -3   3  -2   21.10    4.90
   3   3   2   22.80    4.00
  -3  -3   2   25.90    4.20
  -3  -3   2   19.20    3.60
  -3  -3  -3 2310.67   78.09
  -3   3   3 2325.87   67.69
   3  -3   3 2274.67   63.89
   3  -3   3 2279.97   70.49
   3   3  -3 2287.17   65.39
   3   3  -3 2327.47   76.69
  -3  -3   3 2283.37   67.39
   3  -3  -3 2209.98   79.39
   3  -3  -3 2268.27   64.39
   3   3   3 2288.47   66.79
  -3   3  -3 2371.76   63.59
   3   3   3 2235.88   70.79
  -3   3  -3 2334.17   79.39
  -3  -3   3 2400.66   68.79
   3  -3   4    7.10    4.40
   3   3  -4   13.10    4.40
  -3  -3  -4   11.40    5.00
  -3   3   4   14.60    4.90
   3   3  -4   14.70    5.20
   3  -3  -4    6.10    5.60
   3   3   4    8.10    4.40
  -3  -3   4   13.20    4.90
  -3  -3   4   13.40    4.10
   3   3   4    5.80    4.20
  -3   3  -4    8.80    5.60
   3  -3  -4   11.90    4.00
   3  -3   5 1121.09   42.30
  -3   3   5 1059.29   39.70
   3   3  -5 1152.18   37.60
  -3  -3  -5 1137.69   47.40
   3   3   5 1088.79   41.80
  -3   3  -5 1125.69   48.20
   3  -3  -5 1103.49   47.50
  -3  -3   5 1100.09   39.60
  -4   3   0  419.36   14.80
  -4   3   0  450.85   16.20
  -4  -3   0  428.66   15.60
  -4   3   0  400.56   14.60
   4   3   0  419.66   15.20
   4  -3   0  409.86   19.70
  -4  -3   0  424.26   16.60
  -4  -3   0  421.86   17.70
   4  -3   1 1087.49   35.00
  -4  -3  -1 1098.49   37.70
  -4   3   1 1233.28   32.50
  -4  -3  -1 1093.09   37.10
   4  -3   1 1057.69   41.10
  -4   3   1 1064.09   33.70
   4   3  -1 1095.19   33.70
   4   3  -1 1079.49   37.00
   4   3   1 1101.49   32.50
   4  -3  -1 1120.49   34.00
   4  -3  -1 1059.49   42.50
   4   3   1 1098.89   35.10
  -4  -3   1 1098.69   37.80
  -4  -3   1 1123.39   35.30
  -4   3  -1 1141.69   32.60
  -4   3  -1 1104.89   33.80
   4   3  -2  330.37   14.10
   4   3  -2  330.57   14.80
  -4  -3  -2  315.87   15.00
   4  -3   2  292.57   13.70
  -4  -3  -2  311.67   11.20
   4  -3   2  298.67   11.50
  -4  -3  -2  308.27   15.00
  -4   3   2  306.47   13.60
   4  -3  -2  316.17   17.80
  -4   3  -2  299.97   12.80
   4  -3  -2  281.57   13.00
  -4  -3   2  341.87   14.30
   4   3   2  318.17   14.10
  -4  -3   2  325.47   14.60
  -4   3  -2  326.37   16.90
   4  -3   3  679.93   26.30
   4   3  -3  700.53   27.70
   4   3  -3  744.73   25.30
  -4   3   3  679.83   25.40
  -4  -3  -3  663.03   28.30
  -4   3  -3  632.14   29.60
  -4  -3   3  658.93   25.70
   4   3   3  649.74   26.80
  -4   3  -3  698.13   23.10
  -4  -3   3  729.03   24.50
   4  -3  -3  668.43   24.00
   4  -3  -3  678.63   31.00
   4   3   3  686.83   24.80
   4   3  -4  171.48   10.90
   4  -3   4  141.59   11.60
  -4  -3  -4  144.29   12.80
  -4   3   4  163.28   11.70
   4  -3  -4  161.28   10.30
  -4   3  -4  158.48   14.10
  -4  -3   4  165.28   11.90
   4   3   4  157.38   12.00
   4  -3  -4  168.28   14.30
   4   3   4  153.58   10.70
   4  -3   5  284.07   18.50
  -4   3   5  345.67   19.10
  -4  -3  -5  325.17   21.30
   4   3  -5  321.77   17.00
   4   3   5  314.97   19.00
  -4  -3   5  315.97   18.20
   4  -3  -5  317.87   21.80
  -5  -3   0  529.75   21.40
   5   3   0  476.85   18.20
  -5  -3   0  516.95   18.90
  -5   3   0  497.35   19.10
  -5   3   0  497.25   17.90
  -5   3   0  502.65   18.00
  -5  -3   0  488.65   19.40
   5  -3   0  493.25   23.40
  -5  -3  -1 3133.09   99.49
   5   3  -1 3204.18   98.99
   5  -3   1 3172.18  104.39
   5  -3   1 3058.59   91.19
  -5   3   1 3005.10   87.29
  -5  -3  -1 3060.59   93.79
   5   3  -1 3064.69   86.19
   5   3   1 3122.09   88.79
  -5   3  -1 3156.68   85.99
   5   3   1 3123.59   85.09
   5  -3  -1 3047.60  104.89
  -5  -3   1 3054.99   89.19
  -5  -3   1 3089.49   94.39
  -5   3  -1 3164.48   86.39
   5  -3  -1 3060.59   86.49
  -5  -3  -2  368.76   18.40
  -5  -3  -2  402.86   18.20
   5  -3   2  404.36   17.50
  -5   3   2  379.36   16.60
   5   3  -2  387.46   17.00
   5  -3  -2  409.16   22.30
  -5  -3   2  396.66   18.10
  -5   3  -2  393.36   20.40
  -5   3  -2  421.96   16.60
   5   3   2  404.96   17.40
   5  -3  -2  387.96   16.90
  -5   3  -2  395.06   14.60
  -5  -3   2  406.96   17.60
  -5  -3  -3 1965.30   66.39
   5  -3   3 2068.19   65.49
  -5  -3  -3 2092.59   71.29
  -5   3   3 2004.70   62.69
   5   3  -3 2134.29   61.59
   5  -3  -3 2006.70   60.59
   5   3   3 2032.50   61.89
  -5   3  -3 2083.29   73.69
  -5  -3   3 2004.40   63.39
   5  -3  -3 2009.40   74.59
  -5  -3  -4  223.88   15.40
   5   3  -4  206.88   13.20
  -5  -3  -4  222.28   15.90
  -5   3   4  245.88   14.60
   5  -3   4  219.38   14.80
   5  -3  -4  227.98   17.90
   5  -3  -4  217.28   13.10
  -5  -3   4  216.38   14.60
  -5   3  -4  200.68   16.80
  -5  -3  -5 1042.00   47.00
   5   3  -5 1171.28   40.30
  -5  -3  -5 1188.78   45.90
   5  -3   5 1147.19   44.70
  -5   3   5 1061.29   41.70
  -5   3  -5 1071.59   49.20
  -5  -3   5 1105.39   42.70
   6  -3   0  493.65   24.10
   6   3   0  464.45   19.10
  -6  -3   0  488.95   20.40
  -6   3   0  488.55   18.70
  -6   3   0  488.95   20.10
  -6  -3   0  508.35   22.00
  -6  -3  -1 1424.06   45.80
   6   3  -1 1384.66   44.90
  -6   3   1 1485.45   45.20
  -6  -3  -1 1495.95   49.70
  -6  -3  -1 1378.26   49.10
  -6   3  -1 1447.56   45.00
  -6   3  -1 1472.15   43.50
   6   3   1 1439.46   44.10
  -6   3  -1 1404.06   46.20
   6  -3  -1 1444.36   45.40
   6  -3  -1 1381.26   53.79
  -6  -3   1 1530.25   49.99
  -6  -3   1 1426.06   46.80
  -6   3  -1 1435.96   53.29
   6   3  -2  381.86   18.00
  -6   3   2  400.76   17.80
  -6  -3  -2  393.26   18.60
   6  -3   2  425.86   18.80
  -6  -3  -2  372.56   19.40
  -6   3  -2  400.16   21.40
  -6   3  -2  387.06   17.30
   6  -3  -2  388.76   22.20
   6   3   2  416.26   18.20
  -6  -3   2  393.06   19.10
   6  -3  -2  393.76   17.90
  -6  -3  -3  992.40   38.80
   6  -3   3  984.50   37.30
   6   3  -3 1021.40   35.80
  -6  -3  -3  989.80   39.40
  -6   3   3  949.71   35.60
   6  -3  -3 1000.70   43.70
  -6   3  -3  991.70   41.90
  -6  -3   3 1030.70   37.40
   6   3   3 1012.20   35.20
   6  -3  -3  960.70   34.70
  -6   3   4  232.38   15.10
  -6  -3  -4  226.18   16.60
   6   3  -4  245.18   15.50
  -6  -3  -4  204.38   16.20
   6  -3   4  213.98   15.80
   6  -3  -4  253.67   15.10
  -6   3  -4  216.48   17.70
  -6  -3   4  221.88   16.20
  -7  -3   0   45.60    7.40
  -7  -3   0   43.00    7.60
   7   3   0   43.50    7.20
  -7   3   0   56.39    6.90
  -7   3   0   37.60    6.60
   7  -3   0   55.19    9.00
  -7   3   1   67.19    7.90
   7   3  -1   53.89    8.00
  -7  -3  -1   59.59    9.30
  -7  -3  -1   66.79    8.00
  -7   3   1   52.79    8.10
  -7   3  -1   69.69    7.20
  -7   3  -1   84.69    8.80
   7  -3  -1   71.09   10.10
  -7   3  -1   73.19    9.90
  -7  -3   1   71.69    9.00
  -7   3  -1   83.99    8.90
  -7  -3  -2   38.90    8.20
  -7  -3  -2   41.60    7.00
  -7   3   2   36.00    6.80
   7   3  -2   37.20    7.20
   7  -3  -2   37.90    7.30
  -7   3  -2   40.50    7.10
   7  -3  -2   44.70    9.20
  -7  -3   2   27.20    6.70
  -7   3  -2   44.40    8.50
  -7   3  -2   29.70    6.10
  -7  -3  -3   46.90    8.40
   7   3  -3   42.30    8.00
  -7  -3  -3   40.80    8.60
  -7   3   3   38.90    7.60
   7  -3   3   37.10    7.80
   7   3   3   46.00    7.90
  -7  -3   3   43.60    8.40
   7  -3  -3   46.70    8.20
  -7   3  -3   37.60    9.10
  -7  -3  -4   31.80    9.40
   7  -3   4   27.10    8.20
  -7  -3  -4   12.80    7.10
   7   3  -4   12.70    6.90
  -7  -3   4    9.90    6.90
  -7   3  -4   21.50    8.60
   7  -3  -4   20.00    6.80
  -8   3   0   93.69    9.30
  -8  -3   0   85.59    9.90
   8   3   0  107.49   11.30
  -8   3   0  113.89   11.50
   8  -3   0   81.99   11.50
  -8   3   1    4.60    5.00
  -8  -3  -1    9.70    5.90
  -8  -3  -1   21.60    5.90
   8   3  -1   13.20    6.20
  -8   3   1    4.30    4.70
  -8  -3  -1    5.20    4.40
  -8   3  -1   11.40    6.20
  -8  -3   1    3.70    5.30
  -8   3  -1    8.60    5.40
  -8  -3  -2   80.69    9.70
   8   3  -2  106.79   12.10
  -8  -3  -2   89.79   12.10
  -8   3   2   76.09    9.70
  -8  -3   2   84.09   11.10
  -8   3  -2   83.39   11.60
   8   3  -3   17.70    7.30
  -8  -3  -3    6.00    6.40
  -8   3   3    4.70    5.70
   8  -3  -3    1.70    5.60
  -8   3  -3   11.30    7.20
  -8  -3   3   -1.00    5.70
  -8   3  -3    5.50    6.10
  -9   3   0   63.29    8.50
  -9  -3   0   80.49   10.60
  -9   3   0   72.69   10.50
   9   3  -1  174.38   15.50
  -9  -3  -1  150.68   13.60
  -9   3   1  162.48   12.50
  -9   3   1  158.28   15.00
  -9  -3   1  146.49   14.20
  -9   3  -1  138.99   13.70
  -9   3   2   54.39    9.00
  -9  -3  -2   68.29   11.80
   0  -4   0  575.04   22.40
   0  -4   0  604.74   19.50
   0   4   0  637.34   17.60
   0   4   0  608.74   17.70
   0   4  -1   -2.80    1.50
   0   4   1    4.40    1.40
   0   4   1   -1.50    1.50
   0   4  -1    5.50    2.20
   0  -4   1   -1.00    1.60
   0  -4  -1   -1.70    2.00
   0  -4  -1   -3.30    1.70
   0  -4   1   -1.20    1.10
   0   4   2  360.46   13.60
   0   4  -2  373.06   13.00
   0  -4   2  388.96   12.10
   0  -4   2  375.76   14.40
   0   4   2  374.06   11.20
   0  -4  -2  383.26   16.70
   0   4  -2  363.26   15.30
   0   4   2  379.26   13.80
   0   4  -3    2.80    2.20
   0  -4  -3    1.50    1.40
   0  -4   3   -2.90    2.30
   0   4  -3    7.50    3.30
   0   4   3    1.70    2.50
   0   4   3    3.80    2.40
   0  -4   3    4.10    2.20
   0  -4  -3   -0.30    3.30
   0  -4   4  167.58   10.80
   0   4  -4  170.98    9.30
   0   4   4  154.48    9.90
   0  -4   4  159.78    8.80
   0   4   4  156.88    9.90
   0  -4  -4  158.68   12.50
   0   4  -4  173.08   11.90
   0   4   5    3.00    4.10
   0   4  -5   -4.80    4.60
   0   4   5    1.00    4.40
   0  -4  -5    3.60    5.80
   0  -4   5    2.20    4.50
   0   4  -6   59.89   11.60
   0   4   6   64.39    9.60
   0  -4   6   81.89   11.20
  -1  -4   0    4.90    3.00
   1   4   0    5.50    2.20
   1  -4   0    6.10    3.90
  -1   4   0    5.90    1.50
  -1   4   0    2.40    1.90
   1   4   0    5.20    1.70
   1  -4   0    5.40    1.70
  -1  -4   0    7.80    2.10
   1  -4   1   13.20    3.40
  -1  -4  -1   13.10    2.90
  -1   4   1   15.70    2.50
   1   4  -1   15.50    2.10
  -1  -4  -1   14.90    3.20
  -1   4   1   13.50    2.50
   1   4  -1   10.60    2.40
   1  -4   1    7.90    2.30
   1   4   1   13.40    2.70
   1   4   1   15.20    1.50
  -1   4  -1   11.70    2.60
   1  -4  -1   24.80    4.50
  -1  -4   1   20.80    3.30
   1  -4  -1   13.10    2.30
  -1  -4   1   16.70    2.70
   1   4  -2    6.50    2.50
   1  -4   2    6.70    1.50
  -1   4   2   15.70    2.50
  -1   4   2    5.10    2.50
   1   4  -2    8.50    2.70
   1  -4   2    7.80    2.60
  -1  -4  -2    2.90    2.90
  -1   4  -2    5.80    3.00
   1  -4  -2    5.60    1.90
  -1  -4   2    5.10    2.20
  -1   4  -2    3.70    2.20
   1  -4  -2    8.40    3.60
  -1  -4   2    9.00    2.90
   1   4   2   10.30    3.10
   1   4   2    8.50    2.80
   1   4  -3    6.90    3.30
  -1   4   3    6.40    2.40
   1   4  -3   10.20    2.90
   1  -4   3    6.30    2.00
  -1   4   3   12.10    3.50
   1  -4   3    5.30    2.90
  -1  -4  -3    9.40    3.80
   1  -4  -3   13.10    2.50
   1   4   3   12.60    3.50
  -1  -4   3    5.50    2.60
  -1   4  -3    8.60    2.70
  -1   4  -3   10.20    4.00
  -1  -4   3    4.90    2.80
   1   4   3   11.80    3.20
   1  -4  -3    9.70    4.30
  -1   4   4   -4.30    3.00
  -1  -4  -4    0.80    3.80
  -1   4   4   -2.20    2.60
   1   4  -4   -0.50    3.80
   1  -4   4    5.50    3.70
   1   4  -4    1.60    3.10
   1   4   4    3.90    3.50
  -1  -4   4    0.00    3.30
  -1   4  -4    4.10    3.00
  -1   4  -4   -2.70    3.80
  -1  -4   4    2.70    3.10
   1   4   4    5.40    3.70
   1  -4  -4   -2.30    4.40
  -1  -4  -5    1.50    5.80
   1  -4   5    5.20    4.60
   1   4  -5    7.80    5.90
  -1   4   5   -1.10    4.00
  -1  -4   5    4.00    4.60
   1  -4  -5    6.90    6.20
  -1   4  -5    7.90    6.10
   1   4   5    2.90    4.40
   1   4   5    8.40    4.90
   1   4  -6    9.00    7.40
   1  -4   6   12.80    6.80
  -1   4   6    3.00    5.80
  -1   4  -6    2.70    7.50
   2   4   0 1248.28   36.70
  -2  -4   0 1183.48   39.20
   2   4   0 1261.47   34.30
  -2   4   0 1299.97   34.50
  -2  -4   0 1275.57   38.80
   2  -4   0 1121.59   44.20
  -2   4   0 1249.88   35.30
   2  -4   0 1251.37   35.60
   2   4  -1  354.46   11.80
  -2   4   1  331.87   12.10
   2  -4   1  325.77   15.50
  -2   4   1  355.26   12.10
   2   4  -1  357.26   12.30
  -2  -4  -1  348.57   13.30
   2  -4   1  346.57   12.30
  -2  -4  -1  318.57   13.70
  -2  -4   1  326.67   12.70
   2   4   1  342.47   12.70
  -2  -4   1  369.16   14.40
   2  -4  -1  339.17   16.50
   2   4   1  326.37   10.20
  -2   4  -1  350.26   12.30
  -2   4  -1  336.67    9.90
   2  -4   2  878.21   25.00
  -2   4   2  927.11   28.30
   2  -4   2  871.61   29.20
   2   4  -2  920.11   30.70
  -2  -4  -2  870.81   29.90
  -2  -4  -2  886.01   32.30
   2   4  -2  909.81   27.50
  -2  -4   2  897.61   28.00
  -2   4  -2  917.31   33.80
  -2   4  -2  904.31   26.90
   2   4   2  880.51   28.20
   2  -4  -2  930.61   26.80
   2  -4  -2  832.62   33.90
  -2  -4   2  886.11   29.40
  -2   4   3  171.68    7.60
   2  -4   3  163.18    7.00
   2  -4   3  153.58    9.60
   2   4  -3  157.88    8.90
  -2  -4  -3  152.58   10.80
  -2   4   3  157.58    9.50
   2   4  -3  173.48   10.10
   2  -4  -3  161.18   12.00
   2   4   3  167.58    9.30
   2   4   3  166.08    9.90
   2  -4  -3  175.08    8.30
  -2   4  -3  169.98    8.20
  -2  -4   3  178.18    9.60
  -2  -4   3  172.28    9.50
  -2   4  -3  173.88   11.60
  -2  -4  -4  422.16   22.00
   2   4  -4  423.06   20.70
   2   4  -4  441.56   17.70
  -2   4   4  404.06   18.60
   2  -4   4  415.36   19.50
  -2   4  -4  425.36   22.50
   2   4   4  420.06   19.20
  -2  -4   4  433.16   18.50
   2   4   4  433.76   18.40
  -2  -4   4  459.05   18.30
   2  -4  -4  455.35   23.50
   2  -4   5   65.19    9.50
   2   4  -5   69.49   10.20
  -2   4   5   63.99    8.80
  -2  -4  -5   70.09   11.00
   2  -4  -5   80.69   12.10
  -2  -4   5   87.19    9.40
   2   4   5   89.99   10.50
   2   4   5   62.49    8.50
  -2   4  -5   79.89   11.60
  -2   4   6  211.48   15.50
   3  -4   0 2530.15   70.89
  -3  -4   0 2410.36   75.19
   3   4   0 2558.24   70.99
   3   4   0 2500.35   67.39
  -3  -4   0 2534.55   77.79
  -3   4   0 2537.35   68.69
  -3   4   0 2583.64   68.39
   3  -4   0 2308.47   83.79
  -3  -4  -1 1939.61   60.19
   3   4  -1 1880.81   61.59
   3  -4   1 1889.31   66.99
   3  -4   1 1950.50   57.49
  -3   4   1 1992.60   55.49
  -3  -4  -1 2038.90   63.19
   3   4  -1 1948.71   54.69
  -3  -4   1 1987.20   57.09
  -3  -4   1 2022.50   60.99
   3  -4  -1 1949.70   54.79
   3   4   1 2037.90   52.89
   3  -4  -1 1872.11   68.59
  -3   4  -1 1936.91   54.79
   3   4   1 1926.51   56.69
  -3   4  -1 1998.70   53.39
   3   4  -2 1970.00   56.19
   3   4  -2 2044.00   64.29
  -3  -4  -2 1981.90   61.29
   3  -4   2 1980.90   53.99
   3  -4   2 1983.50   59.79
  -3  -4  -2 1988.60   51.99
  -3  -4  -2 1939.31   65.59
  -3   4   2 1999.60   57.49
   3   4   2 1972.00   57.69
   3  -4  -2 1871.71   68.89
  -3   4  -2 1942.31   55.39
  -3   4  -2 1996.30   68.39
  -3  -4   2 1991.60   60.19
   3  -4  -2 2015.10   55.69
  -3  -4   2 1930.61   57.89
  -3   4   3 1187.98   37.80
   3   4  -3 1180.58   41.20
   3  -4   3 1159.58   39.10
   3   4  -3 1178.78   36.40
  -3  -4  -3 1104.89   42.50
  -3  -4   3 1116.49   37.30
  -3  -4   3 1198.78   38.10
  -3   4  -3 1134.99   44.30
   3  -4  -3 1147.09   35.20
  -3   4  -3 1173.38   34.80
   3  -4  -3 1138.99   45.00
   3   4   3 1167.58   37.20
   3   4   3 1144.49   39.60
   3  -4   4 1058.19   37.80
   3   4  -4  997.50   33.90
   3   4  -4 1058.79   39.60
  -3  -4  -4  999.90   41.00
  -3   4   4 1010.80   35.80
   3   4   4 1027.60   34.80
  -3  -4   4 1067.99   35.50
   3   4   4  987.70   37.30
   3  -4  -4 1038.90   32.60
  -3  -4   4  993.60   35.30
   3  -4  -4 1030.40   43.10
  -3   4  -4  990.70   42.30
   3  -4   5  553.54   26.40
  -3  -4  -5  545.25   29.20
  -3   4   5  575.54   25.30
   3   4  -5  576.64   23.60
  -3  -4   5  558.34   24.30
   3  -4  -5  602.64   31.00
   3   4   5  567.44   23.80
   3   4   5  552.84   25.90
  -3   4  -5  563.24   30.30
   4  -4   0  567.24   18.20
   4   4   0  569.84   20.50
  -4   4   0  557.84   19.60
  -4  -4   0  541.35   18.80
   4   4   0  536.45   18.40
   4  -4   0  499.45   24.10
  -4  -4   0  532.05   21.80
  -4   4   0  534.05   17.90
   4  -4   1  573.84   20.30
   4  -4   1  551.84   25.40
  -4  -4  -1  579.24   23.00
  -4   4   1  598.54   20.10
   4   4  -1  570.44   20.30
   4   4  -1  580.14   20.00
  -4  -4  -1  586.04   21.50
  -4   4  -1  613.54   20.80
   4   4   1  560.44   21.20
   4  -4  -1  579.04   27.10
  -4  -4   1  606.84   22.00
  -4  -4   1  588.04   23.80
  -4   4  -1  584.94   18.30
   4   4   1  596.84   19.00
  -4  -4  -2  420.16   18.50
  -4   4   2  395.46   16.30
   4  -4   2  390.36   16.50
  -4  -4  -2  386.36   13.20
   4   4  -2  399.76   16.30
  -4  -4  -2  404.96   17.70
   4   4  -2  445.16   17.20
   4   4   2  383.16   16.40
   4  -4  -2  391.76   16.00
  -4   4  -2  393.56   20.10
  -4  -4   2  414.86   17.40
  -4   4  -2  414.76   13.50
  -4   4  -2  392.36   15.70
   4  -4  -2  413.86   21.50
  -4  -4   2  400.76   17.40
  -4  -4  -3  368.76   18.00
   4   4  -3  366.56   16.20
  -4   4   3  365.36   16.50
   4  -4   3  337.87   16.70
  -4  -4  -3  349.37   18.20
   4  -4  -3  387.46   21.50
  -4   4  -3  387.76   15.30
   4   4   3  346.77   16.20
  -4  -4   3  376.76   16.00
   4  -4  -3  366.36   15.60
  -4  -4   3  354.66   17.00
  -4   4  -3  349.57   20.00
  -4  -4  -4  189.38   14.60
  -4  -4  -4  208.58   14.30
  -4   4   4  216.18   13.70
   4  -4   4  230.08   14.50
   4   4  -4  221.38   12.90
   4  -4  -4  256.07   17.90
   4   4   4  220.08   13.00
   4  -4  -4  225.88   12.20
  -4  -4   4  214.28   14.00
  -4   4  -4  225.18   16.90
  -4  -4  -5  179.18   16.00
  -4   4   5  157.18   14.70
  -4  -4  -5  168.18   15.80
   4  -4   5  203.38   15.00
   4   4  -5  180.68   12.80
  -4  -4   5  196.58   14.40
  -4   4  -5  175.28   18.10
   4  -4  -5  158.98   17.80
  -5   4   0 3274.67   94.29
  -5   4   0 3333.77   90.89
   5   4   0 3253.77   89.79
  -5  -4   0 3261.07  102.99
  -5   4   0 3322.17   91.29
  -5  -4   0 3152.48   98.79
   5  -4   0 3237.18  109.89
  -5  -4   0 3350.76   93.69
   5   4  -1  103.59    8.60
   5  -4   1  109.59    7.50
  -5   4   1  115.39    7.50
  -5  -4  -1   95.99    9.60
  -5  -4  -1   97.29    6.90
   5  -4   1   99.09   10.70
  -5   4  -1   96.49    8.50
   5  -4  -1  102.29   11.70
   5   4   1  107.09    7.30
  -5   4  -1  102.79    6.20
   5   4   1  120.59    8.80
  -5  -4   1   83.39    8.40
  -5  -4   1  100.09   10.20
   5  -4   2 2628.64   81.09
   5   4  -2 2661.43   76.79
  -5  -4  -2 2694.63   83.79
  -5   4   2 2665.43   77.99
  -5  -4  -2 2741.73   88.69
  -5   4  -2 2598.74   75.79
   5   4   2 2674.63   78.69
   5  -4  -2 2679.83   76.49
  -5  -4   2 2863.81   83.09
   5  -4  -2 2546.45   94.29
  -5   4  -2 2803.72   92.89
  -5  -4   2 2693.13   79.89
  -5  -4  -3   56.29    8.00
  -5  -4  -3   55.29    8.40
  -5   4   3   58.49    7.70
   5   4  -3   57.59    7.70
   5  -4   3   68.49    8.50
  -5  -4   3   67.99    8.60
   5  -4  -3   73.19   11.20
   5  -4  -3   64.39    7.50
   5   4   3   64.49    8.00
  -5   4  -3   70.19   10.20
   5   4  -4 1525.05   49.70
  -5  -4  -4 1518.95   57.89
  -5  -4  -4 1541.45   54.99
  -5   4   4 1545.45   51.39
   5  -4   4 1587.94   54.09
   5  -4  -4 1518.95   61.39
   5   4   4 1472.85   49.70
  -5  -4   4 1582.64   52.79
  -5   4  -4 1480.15   60.09
   5  -4  -4 1548.15   48.60
   5  -4   5   31.20    8.60
  -5   4   5   26.10    7.80
  -5  -4  -5   24.30    8.30
  -5  -4  -5   22.80    8.00
   5   4  -5   27.90    7.60
   5  -4  -5   48.00   11.90
  -5   4  -5   33.20    9.90
  -5  -4   5   24.90    8.00
  -6   4   0  286.87   13.00
  -6  -4   0  300.77   16.30
   6   4   0  295.27   14.10
  -6   4   0  277.07   14.40
   6  -4   0  313.07   18.80
  -6   4   1 2820.72   80.59
  -6  -4  -1 2803.42   87.59
  -6   4   1 2779.12   80.19
   6   4  -1 2748.23   79.69
  -6  -4  -1 2843.52   90.29
   6  -4   1 2834.02   96.79
  -6   4  -1 2762.02   78.19
   6  -4  -1 2713.03   96.19
  -6   4  -1 2825.32   80.09
   6   4   1 2782.82   81.89
  -6  -4   1 2630.54   82.29
   6   4   1 2804.32   78.59
  -6  -4   1 2824.72   87.49
  -6  -4  -2  242.88   13.50
   6   4  -2  249.28   13.90
  -6  -4  -2  247.88   15.50
   6  -4   2  235.18   13.50
  -6   4   2  254.47   13.50
  -6   4  -2  227.18   12.80
   6   4   2  222.78   13.10
  -6   4  -2  222.28   16.00
   6  -4  -2  273.17   18.20
  -6  -4   2  223.18   14.10
   6  -4  -2  206.18   12.90
   6  -4   3 1840.92   62.89
   6   4  -3 1950.10   59.89
  -6  -4  -3 1933.71   65.29
  -6  -4  -3 1954.70   67.99
  -6   4   3 1906.81   60.59
   6  -4  -3 1867.91   73.19
  -6   4  -3 1871.91   70.89
   6   4   3 1987.30   60.49
   6  -4  -3 1932.81   59.09
  -6  -4   3 1924.21   62.59
  -6  -4  -4  148.39   13.30
  -6  -4  -4  135.59   14.80
   6  -4   4  131.39   13.80
  -6   4   4  124.79   12.50
   6   4  -4  164.48   14.10
  -6   4  -4  129.99   15.40
   6  -4  -4  145.99   12.80
  -6  -4   4  137.99   14.40
   7  -4   0  709.73   32.90
   7   4   0  773.92   28.00
  -7  -4   0  774.92   30.90
  -7   4   0  730.83   28.30
  -7  -4   0  721.63   28.70
  -7   4   0  695.93   25.90
  -7  -4  -1   47.10    8.50
  -7   4   1   36.30    6.00
   7   4  -1   39.00    7.00
  -7   4   1   48.80    7.90
  -7  -4  -1   33.10    6.40
  -7   4  -1   49.00    6.10
  -7   4  -1   43.90    8.50
  -7   4  -1   41.20    7.00
   7   4   1   33.10    6.30
  -7  -4   1   35.60    7.20
   7  -4  -1   36.50    8.20
  -7  -4  -2  631.64   27.90
   7   4  -2  606.74   25.00
  -7   4   2  556.64   23.70
   7   4   2  554.34   24.10
  -7  -4   2  570.24   25.80
   7  -4  -2  539.75   28.70
  -7   4  -2  550.94   23.40
  -7   4  -2  585.44   28.80
  -7  -4  -3   36.10    7.60
   7   4  -3   25.70    7.40
  -7   4   3   31.50    7.00
   7  -4   3   27.10    7.10
  -7  -4  -3   34.40    8.70
   7   4   3   36.60    7.50
   7  -4  -3   23.80    6.50
  -7   4  -3   37.40    9.20
  -7  -4   3   21.40    7.60
  -7  -4  -4  304.47   20.00
   7  -4   4  336.77   20.60
  -7   4  -4  356.46   23.70
   7  -4  -4  326.87   18.40
  -8  -4   0  133.59   12.80
   8   4   0  149.79   13.20
  -8   4   0  155.38   10.60
   8  -4   0  168.08   14.60
  -8   4   0  140.69   12.90
   8   4  -1 1258.17   44.60
  -8   4   1 1272.77   43.10
  -8   4   1 1315.47   45.40
  -8  -4  -1 1278.97   44.60
  -8  -4  -1 1318.47   48.50
  -8   4  -1 1265.87   44.40
  -8  -4   1 1319.77   46.10
  -8   4  -1 1334.77   52.19
  -8   4   2  130.29   13.00
  -8  -4  -2  157.68   15.80
  -8  -4  -2  134.09   12.50
  -8   4   2  124.09   12.00
   8   4  -2  147.49   13.70
  -8  -4   2  114.59   12.90
  -8   4  -2  133.59   14.80
  -8  -4  -3  973.50   42.00
  -8   4   3  894.71   36.80
   8   4  -3  984.20   38.20
  -8   4  -3 1065.79   40.50
  -8   4  -3  928.11   43.30
  -8  -4   3  964.80   39.70
  -9  -4   0  124.49   12.90
   9   4   0  129.29   13.10
  -9   4   0  107.99   12.50
   9   4  -1   -4.40    5.70
  -9   4   1    8.40    5.40
  -9  -4  -1   -5.50    4.90
  -9   4   1   -2.10    5.80
  -9   4  -1   -0.30    5.30
  -9  -4   1   -0.10    5.30
  -9  -4  -2  119.09   14.80
  -9   4   2   91.89   11.20
  -9  -4  -2  109.89   12.00
  -9   4  -2   86.69   13.30
   0  -5   0    3.10    2.80
   0   5   0   -0.90    1.30
   0  -5   0   -1.70    1.70
   0   5   0    1.00    1.30
   0  -5  -1 8225.08  266.07
   0  -5   1 8251.27  226.08
   0   5  -1 9031.60  265.27
   0   5   1 8713.33  223.28
   0   5   1 8308.87  227.58
   0  -5   1 8864.41  239.68
   0   5  -1 8663.83  221.88
   0  -5   2    1.10    1.50
   0  -5   2    0.20    1.90
   0  -5  -2    5.80    2.30
   0   5   2    0.50    2.00
   0  -5  -2    2.20    2.60
   0   5  -2    2.50    2.10
   0   5   2    2.30    1.20
   0   5  -2   -0.40    1.90
   0  -5  -3 6653.63  211.38
   0   5  -3 6367.26  174.58
   0   5   3 6422.26  180.18
   0  -5   3 6747.73  189.58
   0   5  -3 6405.06  209.28
   0  -5   3 6778.52  177.58
   0   5   3 6923.81  171.48
   0   5   3 6873.51  188.38
   0   5   4    6.00    3.70
   0   5  -4   14.20    5.10
   0  -5   4   -1.00    3.40
   0  -5  -4    4.80    4.40
   0   5   4    0.70    3.10
   0   5  -4    0.40    2.80
   0   5   5 3747.73  110.99
   0   5   5 3579.04  107.19
   0  -5   5 3766.02  112.99
   0   5  -5 3718.63  125.19
   0  -5  -5 3692.43  127.39
   0   5   6   -0.60    5.40
   0   5  -6    6.60    7.20
   0  -5   6    2.70    5.30
   1   5   0 1766.32   48.90
  -1  -5   0 1705.13   55.89
   1   5   0 1792.72   46.80
  -1   5   0 1749.12   47.30
  -1   5   0 1706.03   47.50
  -1  -5   0 1720.43   52.99
   1  -5   0 1790.62   50.29
   1  -5   1  254.17   10.10
   1   5  -1  260.87    9.70
  -1   5   1  267.37    9.60
   1   5  -1  254.77    9.60
  -1  -5  -1  250.17   11.10
   1  -5   1  270.07   12.60
  -1   5   1  258.97    9.30
  -1  -5  -1  267.17   11.50
  -1   5  -1  271.67    9.90
   1   5   1  260.27    7.90
   1  -5  -1  265.07    9.60
  -1  -5   1  271.37   11.30
  -1  -5   1  267.67    9.80
   1   5   1  252.97   10.10
  -1   5   2 1264.87   34.70
   1   5  -2 1234.78   41.50
  -1  -5  -2 1290.57   43.60
   1  -5   2 1217.78   33.70
  -1  -5  -2 1267.07   39.40
   1   5  -2 1208.18   36.10
  -1   5   2 1231.08   37.20
  -1  -5   2 1269.77   36.20
   1   5   2 1220.98   37.40
   1  -5  -2 1276.77   37.50
  -1  -5   2 1180.98   39.00
  -1   5  -2 1286.47   36.00
  -1   5  -2 1263.27   43.70
   1  -5  -2 1234.58   44.60
  -1  -5  -3  117.39    9.80
   1   5  -3  127.49    7.90
   1  -5   3  139.89    6.00
   1  -5   3  133.99    8.70
  -1   5   3  122.69    8.20
   1   5  -3  139.79    8.90
  -1   5   3  135.39    7.40
   1  -5  -3  116.49   10.00
   1  -5  -3  130.29    6.20
   1   5   3  134.79    8.40
  -1   5  -3  137.49    9.90
   1   5   3  128.49    8.30
  -1  -5   3  130.79    8.40
  -1   5  -3  140.79    7.60
  -1  -5   3  137.49    7.50
   1   5  -4  560.64   21.10
   1   5  -4  562.14   25.20
   1  -5   4  577.84   23.70
  -1  -5  -4  527.25   26.40
  -1   5   4  592.64   21.70
  -1   5   4  596.14   23.00
  -1  -5   4  612.24   21.20
   1   5   4  576.44   23.10
   1  -5  -4  601.14   28.10
  -1   5  -4  601.44   20.80
  -1   5  -4  584.64   26.60
   1   5   4  551.44   22.20
  -1  -5   4  551.94   23.10
  -1   5   5   65.99    9.30
   1  -5   5   71.29    9.50
  -1  -5  -5   61.29   10.60
   1   5  -5   72.09   10.20
   1   5   5   43.20    7.60
  -1   5  -5   53.59    9.80
   1   5   5   55.29    7.90
  -1  -5   5   64.19    8.70
   1  -5  -5   68.79   11.10
  -1   5   6  265.17   17.00
   1  -5   6  263.97   18.30
  -1  -5   6  298.47   18.00
  -1   5  -6  242.58   20.30
   1   5   6  280.87   17.10
  -2   5   0  598.04   19.30
  -2  -5   0  603.84   19.80
   2   5   0  594.64   20.20
  -2  -5   0  581.94   22.30
   2   5   0  624.64   18.40
   2  -5   0  616.24   18.50
  -2   5   0  628.64   18.00
   2  -5   1 2371.16   80.99
   2   5  -1 2323.07   65.89
  -2   5   1 2465.95   67.19
   2   5  -1 2495.45   75.19
  -2   5   1 2456.95   66.09
   2  -5   1 2514.25   70.39
  -2  -5  -1 2635.84   77.79
  -2  -5  -1 2319.57   72.69
   2   5   1 2483.15   68.39
  -2   5  -1 2435.76   66.29
  -2   5  -1 2552.14   64.29
  -2  -5   1 2366.66   72.79
   2  -5  -1 2362.86   67.59
  -2  -5   1 2413.76   68.39
   2  -5  -1 2355.16   81.99
   2   5   1 2388.96   63.79
  -2   5  -1 2411.06   64.69
  -2   5   2  407.06   15.60
   2   5  -2  446.66   15.70
   2  -5   2  423.66   16.30
   2   5  -2  433.66   16.00
  -2  -5  -2  432.46   17.40
  -2  -5  -2  411.66   17.80
   2  -5   2  418.06   12.00
   2   5   2  436.26   16.20
   2  -5  -2  415.86   19.90
  -2  -5   2  409.66   15.60
  -2   5  -2  438.66   15.10
   2  -5  -2  434.46   13.80
  -2  -5   2  400.56   16.60
  -2   5  -2  402.26   19.20
   2  -5  -2  442.56   14.80
   2  -5   3 1516.95   48.00
   2   5  -3 1521.15   51.09
   2   5  -3 1434.96   44.20
  -2  -5  -3 1437.06   53.09
  -2   5   3 1478.85   45.90
  -2   5   3 1561.14   44.70
   2  -5  -3 1423.26   54.79
   2  -5  -3 1502.45   42.70
  -2  -5   3 1519.05   47.60
   2   5   3 1493.75   45.80
  -2   5  -3 1534.65   43.50
  -2  -5   3 1484.05   45.10
  -2   5  -3 1480.55   53.99
   2   5  -4  213.88   11.40
   2  -5   4  188.68   12.10
   2   5  -4  196.38   12.50
  -2   5   4  189.18   11.80
  -2  -5  -4  188.88   13.90
  -2  -5   4  195.88   11.20
   2   5   4  187.88   12.20
  -2   5  -4  188.28   14.00
   2   5   4  163.38   11.00
  -2   5  -4  199.58   10.30
  -2  -5   4  191.68   11.40
   2  -5  -4  174.18   14.20
  -2   5   5  669.73   27.90
  -2  -5  -5  650.43   32.50
   2   5  -5  681.03   26.00
   2  -5   5  683.93   29.50
  -2   5  -5  667.73   33.10
   2  -5  -5  718.53   34.50
   2   5   5  705.53   27.40
  -2  -5   5  679.83   27.80
  -2  -5  -6   83.29   11.60
   3  -5   0   14.70    2.10
  -3  -5   0   18.30    4.30
   3  -5   0   12.00    4.60
  -3  -5   0   14.00    1.70
  -3   5   0   15.20    2.40
  -3   5   0    5.70    2.60
   3   5   0   15.70    3.60
   3   5   0   15.30    2.80
  -3   5   1  148.19    7.30
   3   5  -1  135.79    7.40
   3  -5   1  136.19    6.80
   3  -5   1  137.39   10.20
  -3  -5  -1  136.19    7.10
  -3  -5  -1  123.19    8.70
  -3   5   1  140.49    7.50
  -3  -5   1  137.99    9.60
   3   5   1  126.39    5.90
  -3  -5   1  138.39    8.20
  -3   5  -1  141.59    5.30
  -3   5  -1  142.99    7.90
   3   5   1  130.29    8.00
   3  -5  -1  149.79   11.60
   3   5  -2   11.80    2.80
  -3  -5  -2   11.00    1.50
  -3  -5  -2    8.70    3.00
   3  -5   2   17.30    3.60
  -3  -5  -2    7.70    3.60
  -3   5   2   18.70    3.80
   3   5  -2   11.30    3.30
  -3   5  -2   14.30    1.80
  -3  -5   2   13.60    4.00
   3  -5  -2   11.40    3.00
  -3  -5   2   10.90    3.50
  -3   5  -2   13.10    3.40
   3   5   2   10.90    3.40
   3  -5  -2    6.40    4.60
  -3   5   3   64.99    7.20
  -3  -5  -3   66.79    7.80
  -3  -5  -3   74.89    8.40
   3  -5   3   61.99    7.20
   3   5  -3   75.19    6.70
   3   5  -3   72.19    7.30
   3  -5  -3   83.59    7.00
  -3   5  -3   63.79    9.00
  -3   5  -3   83.59    7.00
   3  -5  -3   70.49    9.80
  -3  -5   3   79.19    7.70
  -3  -5   3   61.79    7.10
   3   5   3   82.99    8.00
   3   5  -4    8.60    4.30
  -3   5   4    7.60    4.70
  -3  -5  -4    8.10    5.00
  -3  -5  -4   11.10    5.60
   3  -5   4   13.80    5.30
   3  -5  -4    1.60    5.30
  -3  -5   4    9.80    4.80
   3   5   4    8.60    4.60
  -3   5  -4    5.90    5.30
   3  -5  -4   11.00    4.00
  -3  -5   4    7.90    4.10
  -3   5   5   34.20    7.80
   3  -5   5   34.20    7.60
  -3  -5  -5   28.00    7.60
   3   5  -5   39.30    7.30
  -3  -5  -5   36.00    9.20
   3   5   5   40.00    7.60
   3  -5  -5   50.69   10.60
  -3   5  -5   46.80   10.20
  -4  -5   0   91.09    9.00
  -4   5   0   94.39    5.40
  -4  -5   0   83.99    4.40
   4   5   0   97.99    7.30
   4  -5   0   75.99    9.40
   4  -5   0   85.29    5.10
   4   5   0   71.79    5.50
  -4   5   0   89.09    6.70
   4  -5   1  590.74   20.90
  -4  -5  -1  578.84   22.00
  -4  -5  -1  628.64   24.60
  -4   5   1  599.14   21.30
  -4   5   1  604.24   20.60
   4  -5   1  602.74   27.30
   4   5  -1  621.74   21.20
  -4   5  -1  634.74   21.70
   4   5   1  620.74   22.60
   4   5   1  607.94   19.50
  -4  -5   1  620.64   22.90
  -4   5  -1  615.24   18.70
  -4  -5   1  593.04   24.80
   4  -5  -1  609.34   28.60
  -4  -5  -2   71.59    8.30
  -4  -5  -2   71.89    7.10
  -4   5   2   59.79    6.40
   4   5  -2   78.19    7.40
   4  -5   2   65.19    6.60
   4  -5  -2   58.69    9.50
  -4  -5   2   72.09    7.70
   4   5   2   56.99    6.70
   4  -5  -2   58.89    6.40
  -4   5  -2   65.19    6.70
  -4  -5   2   58.19    7.40
  -4   5  -2   54.89    8.10
   4  -5   3  388.86   18.20
  -4  -5  -3  373.56   19.10
  -4  -5  -3  394.86   19.20
   4   5  -3  426.86   17.70
  -4   5   3  389.16   17.50
  -4  -5   3  409.26   17.80
  -4   5  -3  417.86   16.70
   4  -5  -3  412.76   23.00
  -4   5  -3  399.76   21.60
   4   5   3  383.86   17.50
  -4  -5   3  416.56   18.70
   4  -5  -3  391.06   16.50
  -4   5   4   26.50    6.10
   4   5  -4   39.80    7.10
  -4  -5  -4   42.50    8.10
   4  -5   4   30.50    7.10
  -4  -5  -4   39.90    7.90
  -4   5  -4   48.70    9.10
   4   5   4   40.80    6.70
   4  -5  -4   25.00    5.60
   4  -5  -4   37.20    9.10
  -4  -5   4   44.30    7.70
  -4  -5  -5  174.88   16.40
  -4   5   5  207.38   14.40
  -4  -5  -5  183.68   15.80
   4  -5   5  177.28   14.60
   4   5  -5  201.98   13.20
  -4  -5   5  194.58   14.60
  -4   5  -5  179.88   18.80
   4  -5  -5  188.48   19.60
  -5   5   0  248.48   10.50
   5  -5   0  268.67   16.50
  -5  -5   0  258.37   13.30
  -5  -5   0  259.07   14.70
  -5   5   0  260.27   12.80
  -5   5   0  248.68   10.80
   5   5   0  270.37   12.10
   5  -5   1  217.98   15.10
  -5   5   1  228.58   11.10
   5   5  -1  225.28   11.80
   5  -5   1  252.77   11.40
  -5   5   1  241.08   12.20
  -5  -5  -1  216.18   13.90
  -5  -5  -1  232.08   11.00
  -5   5  -1  221.88   11.90
  -5  -5   1  225.38   12.90
  -5   5  -1  233.18    9.60
   5   5   1  251.27   11.10
   5  -5  -1  253.97   16.90
   5   5   1  222.58   12.30
  -5  -5   1  218.18   14.10
  -5   5   2  186.18   10.90
  -5  -5  -2  204.88   11.50
  -5  -5  -2  194.58   13.10
   5   5  -2  182.68   11.40
   5  -5   2  176.58   10.70
  -5  -5   2  212.68   12.70
   5  -5  -2  224.18   16.70
  -5   5  -2  192.58   11.10
   5   5   2  199.78   12.10
  -5   5  -2  208.08   14.80
   5  -5  -2  188.58   11.30
  -5  -5   2  230.28   13.70
   5  -5   3  143.59   10.90
  -5   5   3  143.39   10.70
  -5  -5  -3  143.49   11.20
   5   5  -3  152.38   10.70
  -5  -5  -3  161.08   12.70
  -5   5  -3  165.48   13.90
  -5   5  -3  136.29   10.00
   5   5   3  130.49   11.60
   5  -5  -3  153.48   16.20
  -5  -5   3  150.08   13.00
   5  -5  -3  143.09   10.30
   5   5  -4  119.59   11.40
   5  -5   4  127.09   12.50
  -5   5   4  103.59   11.10
  -5  -5  -4  131.19   11.70
  -5  -5  -4  128.99   13.60
   5  -5  -4  121.99   15.40
  -5  -5   4  112.69   12.40
  -5   5  -4  112.59   14.00
   5   5   4  113.29   11.40
   5  -5  -4  121.89   11.00
  -5  -5  -5   69.89   11.90
   5   5  -5   72.19   10.00
   5  -5  -5   87.19   14.60
  -5  -5   5   83.39   12.00
  -6   5   0   55.59    7.30
   6  -5   0   61.69   10.20
  -6  -5   0   78.19    9.60
   6   5   0   67.79    7.50
  -6   5   0   68.09    6.50
  -6  -5   0   68.59    8.00
   6  -5   1   11.00    5.90
   6  -5   1    0.20    3.30
  -6  -5  -1    2.40    4.30
  -6   5   1    2.00    3.10
   6   5  -1    0.80    3.40
  -6   5   1   -1.80    3.50
   6   5   1    2.10    3.30
  -6   5  -1    0.60    2.60
  -6   5  -1    1.10    3.50
  -6  -5   1    4.70    4.70
  -6  -5   1    0.50    3.70
   6  -5  -1    7.90    5.60
   6   5   1    1.00    3.60
  -6   5   2   66.89    8.20
  -6   5   2   59.19    7.40
  -6  -5  -2   71.09    9.70
   6   5  -2   69.19    8.30
   6  -5   2   69.09    8.10
  -6  -5  -2   52.89    7.10
  -6   5  -2   64.69    8.00
  -6  -5   2   54.29    8.30
   6  -5  -2   54.09   10.20
  -6  -5   2   87.39   10.30
   6   5   2   60.79    8.00
  -6   5  -2   65.59   10.10
   6  -5   3   -3.10    4.40
  -6  -5  -3    3.80    4.60
  -6   5   3   -1.10    3.80
   6   5  -3    8.00    4.80
  -6  -5  -3   -0.10    4.70
  -6   5  -3    1.70    5.60
   6  -5  -3    0.10    4.30
  -6  -5   3    4.10    5.40
   6   5   3    9.10    4.80
   6  -5  -3    7.50    6.90
   6   5  -4   31.30    7.40
  -6  -5  -4   42.80    8.70
  -6   5   4   24.30    7.30
  -6  -5  -4   40.00    9.70
   6  -5   4   37.50    8.60
  -6  -5   4   43.90    9.10
   6  -5  -4   31.60    7.10
  -6   5  -4   40.70    9.80
   6  -5  -4   30.60    9.80
  -7  -5   0 1860.11   59.29
  -7   5   0 1843.42   58.09
   7   5   0 1865.51   56.69
  -7  -5   0 1902.41   62.99
   7  -5   0 1798.32   68.79
  -7   5   0 1851.91   55.59
  -7  -5  -1    2.00    4.50
  -7  -5  -1    4.90    5.20
  -7   5   1    3.60    4.00
  -7   5   1    8.50    4.90
   7   5  -1   -1.10    4.40
  -7  -5   1   12.40    5.70
   7   5   1    7.20    4.70
   7  -5  -1   15.90    6.60
  -7   5  -1    1.90    4.40
  -7  -5   1   11.80    5.40
  -7   5   2 1530.35   50.49
   7  -5   2 1574.44   52.59
  -7   5   2 1558.14   51.19
  -7  -5  -2 1584.94   56.49
   7   5  -2 1566.44   51.09
  -7  -5   2 1514.35   53.19
   7   5   2 1579.74   51.59
   7  -5  -2 1581.24   61.69
  -7   5  -2 1548.84   60.69
  -7   5  -2 1556.24   50.09
  -7  -5  -3    0.00    6.30
  -7   5   3    4.50    5.30
   7  -5   3   18.80    6.50
  -7   5   3   10.00    5.90
   7   5  -3    9.10    5.70
  -7   5  -3    0.00    6.00
   7   5   3    0.10    4.60
  -7  -5   3   -9.30    4.00
   7  -5  -3   -3.70    6.20
  -7   5   4 1023.90   37.90
   7  -5   4  984.20   40.70
  -8   5   0   10.50    6.00
  -8   5   0    6.70    4.30
   8   5   0    7.40    5.30
  -8  -5   0    5.60    5.00
   8  -5   0    9.80    6.70
  -8  -5  -1 1287.17   44.70
   8   5  -1 1324.57   44.60
  -8   5   1 1233.48   42.60
  -8  -5  -1 1248.28   48.40
  -8   5   1 1265.97   45.00
  -8   5  -1 1273.77   44.40
   8  -5  -1 1320.47   53.19
  -8   5  -1 1283.67   52.09
  -8  -5   1 1282.57   46.10
  -8   5   2    2.00    5.00
  -8  -5  -2    8.20    6.80
   8   5  -2    0.10    5.00
  -8  -5  -2    9.90    5.60
  -8   5   2   13.30    5.40
  -8   5  -2    3.40    6.50
  -8  -5   2   -0.90    5.10
  -8   5  -2   -1.10    5.20
  -8  -5  -3  981.60   41.90
  -8   5   3  924.61   36.60
  -8   5   3  914.11   36.50
  -8   5  -3 1003.70   39.50
  -8   5  -3  904.11   42.70
   9   5   0   57.09    9.70
  -9  -5   0   44.50    8.60
  -9   5   0   40.60    8.90
   9   5  -1   58.69   10.40
  -9   5   1   62.29   10.10
  -9  -5  -1   52.79    9.50
  -9   5   1   56.09    8.50
  -9   5  -1   41.40    9.10
  -9   5  -1   69.09   11.70
  -9  -5   1   48.20    9.30
  -9  -5  -2   34.30    8.20
  -9  -5  -2   38.30   10.30
  -9   5  -2   33.70    9.70
   0   6   0  209.68    8.00
   0  -6   0  198.28   11.50
   0   6   0  208.68    8.10
   0  -6   0  232.98    9.90
   0   6  -1   -2.90    1.70
   0  -6  -1   -0.60    2.60
   0  -6   1   -4.60    1.30
   0   6   1   -3.90    1.60
   0  -6   1   -3.60    1.90
   0  -6  -1    0.70    2.40
   0   6   1   -1.10    1.50
   0  -6   1    0.10    2.10
   0  -6  -2  117.29    7.20
   0  -6  -2  110.19    8.70
   0  -6   2  129.79    5.40
   0   6   2  130.59    7.20
   0   6  -2  143.89    8.10
   0   6  -2  119.99    6.90
   0   6   2  133.29    5.20
   0   6  -3    2.10    3.20
   0  -6   3    4.70    3.30
   0  -6  -3    1.60    2.50
   0   6   3   10.90    3.60
   0   6  -3    3.50    2.90
   0  -6   3   -0.10    1.70
   0  -6  -3   -2.20    3.10
   0   6  -4   52.79    6.40
   0   6   4   61.79    7.40
   0   6  -4   57.59    8.20
   0  -6  -4   34.80    7.40
   0  -6   4   47.10    6.90
   0  -6  -5   -2.90    5.10
   0   6  -5    9.60    6.00
   0   6   5   -2.40    4.40
   0  -6   5    5.90    5.10
   0  -6   6   25.20    7.70
   0   6  -6   26.20    8.90
   0   6   6   22.70    7.50
   1   6   0 2525.35   64.69
   1  -6   0 2209.98   81.29
   1   6   0 2518.45   67.29
  -1  -6   0 2292.57   77.69
  -1   6   0 2484.55   65.39
   1  -6   0 2504.35   69.49
  -1   6   0 2499.15   65.59
  -1  -6   0 2378.66   72.29
  -1   6   1  274.37    9.80
  -1   6   1  271.57   10.10
   1   6  -1  275.07   10.20
  -1  -6  -1  264.97   12.10
   1  -6   1  269.17   10.70
   1   6  -1  266.57   10.20
  -1  -6  -1  264.47   11.90
   1  -6   1  254.47   13.10
   1  -6  -1  275.97   13.90
  -1   6  -1  254.67   10.20
  -1  -6   1  284.07   12.10
   1  -6  -1  280.77   10.30
  -1  -6   1  267.87   10.40
   1   6   1  271.87   10.80
   1   6   1  259.07    8.40
   1   6  -2 1824.52   51.59
  -1  -6  -2 1879.01   62.19
   1  -6   2 1874.81   48.90
   1   6  -2 1858.21   59.79
  -1   6   2 1888.81   50.09
  -1   6   2 1817.72   52.99
  -1  -6  -2 1810.02   56.19
   1  -6   2 1854.91   55.79
  -1   6  -2 1820.62   62.19
  -1  -6   2 1775.22   55.99
   1  -6  -2 1845.02   54.29
  -1  -6   2 1834.12   51.79
   1  -6  -2 1784.72   63.29
  -1   6  -2 1869.71   51.59
   1   6   2 1824.12   53.39
  -1  -6  -3  142.89   10.40
   1   6  -3  132.69    8.90
  -1  -6  -3  130.29    8.80
  -1   6   3  135.69    6.50
   1   6  -3  123.89    7.90
  -1   6   3  140.89    8.80
  -1   6  -3  133.59    7.90
  -1  -6   3  142.39    7.60
   1  -6  -3  144.79    7.70
   1  -6  -3  134.59   11.10
  -1  -6   3  130.19    8.70
  -1   6  -3  111.49    9.20
   1   6   3  115.59    8.20
   1  -6   4  905.01   34.00
  -1   6   4  907.41   32.40
   1   6  -4  966.10   36.50
  -1  -6  -4  885.21   38.40
  -1  -6  -4  902.11   33.20
   1   6  -4  963.80   31.30
   1   6   4  970.90   32.80
  -1  -6   4  944.71   33.90
  -1   6  -4  907.31   37.80
   1  -6  -4  913.61   39.40
  -1   6  -4  963.00   30.50
  -1   6   5   47.00    8.00
   1  -6   5   48.00    8.30
  -1  -6  -5   51.39   10.10
   1   6  -5   60.99    9.70
  -1  -6  -5   48.10    8.00
  -1   6  -5   42.50    9.10
  -1  -6   5   49.10    8.10
   1  -6  -5   51.79   10.50
   1   6   5   54.09    8.30
  -1   6  -6  438.16   26.30
  -1  -6   6  417.16   22.50
   1   6   6  405.76   21.50
  -2  -6   0   85.69    7.90
   2  -6   0   77.39    9.00
  -2   6   0   82.09    5.30
   2   6   0   76.49    4.60
   2   6   0   81.69    5.70
  -2  -6   0   78.89    4.20
  -2   6   0   75.79    3.90
   2  -6   0   76.59    4.10
  -2   6   1   91.29    5.40
  -2  -6  -1   96.09    7.30
  -2   6   1   93.49    5.60
   2  -6   1   94.19    5.50
   2  -6   1   88.99    7.90
   2   6  -1   91.19    5.70
  -2  -6  -1   91.19    5.90
   2  -6  -1   96.19    3.70
  -2  -6   1   85.29    6.20
  -2   6  -1   99.39    6.00
   2   6   1   84.79    6.00
   2  -6  -1   93.89    9.60
  -2  -6   1   94.79    8.30
   2   6   1   90.89    4.30
  -2  -6  -2   45.70    5.80
  -2   6   2   40.90    4.40
   2   6  -2   52.69    4.20
   2   6  -2   49.99    5.30
  -2  -6  -2   47.20    6.00
   2  -6   2   53.79    5.70
  -2   6   2   68.19    5.90
  -2  -6   2   50.59    5.30
   2  -6  -2   54.19    3.70
  -2   6  -2   42.80    6.50
  -2  -6   2   63.69    6.50
   2   6   2   49.90    5.60
   2  -6  -2   54.69    7.60
  -2   6  -2   37.90    4.60
  -2  -6  -3   57.19    7.60
   2   6  -3   53.59    6.00
  -2   6   3   41.20    5.70
  -2  -6  -3   62.99    7.40
   2  -6   3   51.59    6.40
  -2   6   3   52.29    5.10
   2   6  -3   48.20    5.80
   2   6   3   52.49    6.50
  -2   6  -3   46.50    7.50
   2  -6  -3   56.69    8.60
  -2  -6   3   50.09    5.70
  -2  -6   3   45.20    6.10
  -2   6  -3   54.69    5.80
  -2  -6  -4   26.40    6.00
   2   6  -4   23.60    5.80
   2   6  -4   21.80    5.10
  -2   6   4   20.20    5.30
  -2  -6  -4   22.50    6.60
   2  -6   4   25.20    6.00
  -2  -6   4   26.20    5.70
   2  -6  -4   26.00    7.70
   2   6   4   17.80    5.20
  -2  -6   4   26.80    5.40
  -2   6  -4   26.10    5.00
  -2   6  -4   34.70    7.80
   2  -6   5   22.70    6.80
   2   6  -5   15.10    5.40
  -2  -6  -5   34.40    7.40
  -2   6   5   19.80    6.60
  -2  -6  -5   17.90    7.70
   2  -6  -5   19.60    7.90
  -2   6  -5   14.20    7.00
   2   6   5   20.20    6.20
  -2  -6   5   29.70    6.80
  -2  -6  -6    9.60    7.20
   3   6   0 1184.78   37.30
  -3  -6   0 1124.69   40.20
  -3   6   0 1219.48   36.10
   3   6   0 1197.68   34.50
   3  -6   0 1182.88   46.00
  -3   6   0 1226.98   34.10
  -3  -6   0 1202.58   37.70
   3  -6   0 1193.18   35.00
  -3  -6  -1 2714.63   84.19
  -3  -6  -1 2615.74   80.79
  -3   6   1 2638.14   73.39
   3  -6   1 2697.33   76.79
   3  -6   1 2578.94   89.99
   3   6  -1 2599.14   72.59
  -3   6   1 2671.73   72.89
   3  -6  -1 2490.85   91.09
  -3   6  -1 2780.92   70.79
  -3  -6   1 2612.64   81.09
  -3  -6   1 2573.94   75.59
   3   6   1 2681.43   70.49
  -3   6  -1 2667.93   73.29
  -3   6   2  891.21   28.20
  -3  -6  -2  891.41   32.30
   3   6  -2  938.31   29.10
  -3   6   2  860.21   28.90
  -3  -6  -2  884.11   32.60
   3   6  -2  929.81   30.30
   3  -6   2  910.01   30.20
   3   6   2  881.81   29.90
  -3   6  -2  908.91   28.80
  -3  -6   2  895.81   30.10
   3  -6  -2  841.22   36.90
  -3   6  -2  895.61   36.20
  -3  -6   2  889.61   31.90
  -3   6   3 1605.24   49.70
  -3  -6  -3 1568.34   56.59
  -3  -6  -3 1629.34   53.29
   3  -6   3 1611.54   51.69
   3   6  -3 1600.34   48.30
  -3  -6   3 1587.54   51.69
   3  -6  -3 1593.04   60.39
  -3   6  -3 1632.74   59.29
  -3  -6   3 1570.14   49.60
   3   6   3 1592.64   49.70
  -3   6  -3 1611.74   47.40
   3  -6   4  419.76   20.90
  -3   6   4  448.26   20.40
   3   6  -4  464.65   19.60
  -3  -6  -4  454.85   23.30
  -3  -6  -4  471.55   22.10
  -3  -6   4  477.45   20.50
  -3  -6   4  498.05   20.80
   3  -6  -4  459.05   25.80
  -3   6  -4  469.25   25.10
   3   6   4  459.75   20.10
  -3  -6  -5  828.42   34.60
   3   6  -5  825.42   30.90
  -3  -6  -5  794.62   37.30
  -3   6   5  800.92   32.50
   3  -6   5  844.62   34.70
   3   6   5  793.12   31.40
  -3   6  -5  846.52   39.70
   3  -6  -5  810.82   39.70
   4  -6   0 3092.89  107.19
  -4  -6   0 3265.27   97.89
   4   6   0 3194.48   85.79
  -4   6   0 3214.18   87.49
   4   6   0 3148.59   90.19
  -4   6   0 3149.78   86.19
   4  -6   0 3103.59   89.69
  -4  -6   0 3017.60   95.69
  -4   6   1  276.97   11.90
   4   6  -1  311.47   13.10
  -4  -6  -1  305.57   12.60
  -4   6   1  283.17   13.20
   4  -6   1  265.97   16.90
  -4  -6  -1  319.37   16.30
   4  -6   1  290.87   12.10
  -4  -6   1  259.27   15.20
   4  -6  -1  289.87   18.60
   4   6   1  282.57   13.70
  -4   6  -1  302.17   13.60
   4   6   1  302.27   11.40
  -4   6  -1  306.57   10.20
  -4  -6   1  301.67   14.40
  -4  -6  -2 2498.45   81.39
  -4   6   2 2374.76   71.19
  -4  -6  -2 2491.75   77.79
   4   6  -2 2530.45   70.69
   4  -6   2 2482.35   74.49
  -4   6   2 2500.35   70.19
  -4  -6   2 2559.54   77.69
  -4  -6   2 2439.06   73.39
  -4   6  -2 2518.25   86.49
   4  -6  -2 2334.47   87.79
   4   6   2 2473.15   72.89
  -4   6  -2 2487.75   70.19
  -4  -6  -3  153.08   12.10
  -4  -6  -3  191.18   12.00
   4   6  -3  184.18   11.30
   4  -6   3  171.28   11.40
  -4   6   3  165.18   10.90
  -4  -6   3  165.08   11.60
   4   6   3  168.58   11.10
  -4  -6   3  180.78   11.60
  -4   6  -3  165.68   13.60
   4  -6  -3  172.38   15.10
  -4   6  -3  177.98   10.30
   4   6  -4 1398.06   46.20
  -4  -6  -4 1411.96   54.39
  -4   6   4 1428.56   47.80
   4  -6   4 1454.55   50.29
  -4  -6  -4 1443.36   51.49
   4   6   4 1476.65   47.70
  -4  -6   4 1466.55   48.40
  -4  -6   4 1412.46   48.40
  -4   6  -4 1430.46   57.19
   4  -6  -4 1362.76   57.89
  -4   6   5   85.29   10.90
  -4  -6  -5   93.29   12.90
  -4  -6  -5   92.49   12.50
   4   6  -5   84.89   10.60
   4  -6   5   99.09   12.20
   4   6   5   92.59   10.90
   4  -6  -5  101.29   15.30
  -4   6  -5   92.09   14.40
  -5   6   0  304.57   14.50
   5  -6   0  310.17   12.20
  -5   6   0  328.37   12.50
  -5  -6   0  311.57   16.90
   5   6   0  303.77   13.50
   5  -6   0  276.77   18.30
  -5   6   1  504.75   18.40
   5  -6   1  484.35   25.30
   5   6  -1  486.55   19.20
  -5   6   1  463.05   19.50
  -5  -6  -1  461.75   22.20
   5  -6   1  493.75   18.50
  -5  -6  -1  486.25   18.80
   5   6   1  464.55   20.10
   5  -6  -1  536.25   26.90
  -5   6  -1  471.55   19.50
  -5  -6   1  504.65   23.10
   5   6   1  509.35   18.00
  -5  -6   1  475.45   20.80
  -5   6  -1  492.25   16.30
  -5  -6  -2  232.88   14.90
  -5   6   2  248.18   12.50
  -5   6   2  237.38   12.90
  -5  -6  -2  232.58   12.70
   5  -6   2  247.58   12.70
   5   6  -2  236.98   13.00
  -5   6  -2  238.88   12.70
  -5  -6   2  246.28   14.40
  -5  -6   2  243.28   15.20
  -5   6  -2  245.18   16.80
   5  -6  -2  217.88   17.50
   5   6   2  245.28   13.50
   5  -6   3  329.57   16.80
  -5  -6  -3  337.67   18.60
   5   6  -3  290.67   15.70
  -5   6   3  303.17   15.80
  -5  -6  -3  316.97   17.10
  -5  -6   3  339.47   17.10
  -5   6  -3  306.77   15.20
   5   6   3  325.57   16.80
  -5   6  -3  313.27   20.00
  -5  -6   3  308.27   17.10
   5  -6  -3  308.27   21.20
   5  -6   4  126.39   12.70
  -5   6   4  134.09   12.50
  -5  -6  -4  116.49   12.90
  -5  -6  -4  157.98   15.10
   5   6  -4  144.29   12.50
   5   6   4  136.19   12.70
   5  -6  -4  148.79   17.10
  -5   6  -4  136.29   16.10
  -5  -6   4  141.19   13.60
  -5  -6  -5  184.38   18.20
   5   6  -5  193.38   14.00
  -5  -6   5  173.08   16.60
   5  -6  -5  183.18   20.50
  -6  -6   0   10.20    5.00
   6   6   0   10.50    4.50
  -6   6   0   13.10    4.90
  -6  -6   0   12.20    4.90
  -6   6   0   16.40    3.70
   6  -6   0   17.50    6.90
   6   6  -1  325.67   15.90
   6  -6   1  333.57   15.20
   6  -6   1  328.07   20.70
  -6   6   1  314.67   16.10
  -6  -6  -1  360.56   19.00
  -6   6   1  315.17   14.40
  -6  -6   1  333.07   17.20
   6   6   1  321.77   16.70
  -6   6  -1  328.77   16.30
   6  -6  -1  330.77   20.70
   6   6   1  348.37   15.20
  -6  -6   1  351.56   19.10
  -6   6   2    9.10    4.50
   6  -6   2    6.60    4.20
  -6  -6  -2   12.00    5.90
   6   6  -2    6.80    4.50
  -6   6   2    7.00    4.60
  -6   6  -2   17.90    5.30
  -6   6  -2   16.70    6.80
   6   6   2   13.20    4.80
  -6  -6   2    3.90    4.90
   6  -6  -2   12.80    6.70
  -6  -6   2    2.60    5.20
  -6  -6  -3  221.18   14.30
  -6   6   3  200.68   13.10
  -6   6   3  230.08   13.80
   6  -6   3  238.08   14.50
  -6  -6  -3  229.88   16.60
   6   6  -3  236.98   14.60
   6   6   3  243.58   15.10
   6  -6  -3  186.48   19.60
  -6  -6   3  218.48   15.60
  -6   6  -3  205.78   17.20
  -6   6   4    2.30    5.10
  -6   6   4    8.60    5.70
   6   6  -4    5.40    5.40
  -6  -6  -4   -0.70    5.20
   6  -6   4    3.50    5.60
  -6  -6  -4   12.90    7.20
   6   6   4   -1.10    5.10
   6  -6  -4    7.70    8.40
  -6   6  -4    4.30    6.60
  -6  -6   4   12.20    7.00
  -7  -6   0   72.09    9.00
   7   6   0   72.79    8.70
  -7  -6   0   64.99    9.60
  -7   6   0   67.59    8.90
  -7   6   0   61.79    6.80
   7  -6   0   71.79   11.40
   7  -6   1  149.59   16.20
  -7   6   1  134.09    9.80
  -7  -6  -1  165.48   15.10
   7   6  -1  157.68   11.50
  -7   6   1  175.58   12.50
  -7  -6  -1  155.78   11.80
  -7  -6   1  165.68   15.10
  -7   6  -1  144.99   12.60
  -7  -6   1  143.19   12.90
   7  -6  -1  158.28   15.90
   7   6  -2   57.79    8.90
  -7   6   2   58.99    8.50
  -7   6   2   61.29    8.00
   7  -6   2   46.60    7.70
  -7  -6  -2   40.80    8.90
  -7  -6   2   49.20    8.80
   7  -6  -2   51.89   10.80
  -7   6  -2   61.59   10.50
   7   6   2   53.79    8.40
  -7   6  -2   49.50    7.90
   7   6  -3  104.09   11.50
  -7  -6  -3  110.89   14.30
  -7   6   3  100.19   11.20
  -7   6   3  103.79   11.20
   7  -6   3  110.69   12.00
  -7  -6   3  122.99   13.70
   7  -6  -3  104.19   15.10
   7   6   3  126.99   12.50
   7  -6   4   35.90    8.70
  -7   6   4   40.10    8.20
   8  -6   0  162.08   17.10
   8   6   0  190.48   13.40
  -8   6   0  186.68   13.60
  -8  -6   0  149.19   14.00
  -8  -6   0  175.18   16.00
  -8   6   1  128.09   12.80
  -8   6   1  113.79   10.50
   8   6  -1  107.39   11.80
  -8  -6  -1  141.59   14.70
  -8  -6  -1  124.79   12.40
  -8   6  -1  114.49   14.30
  -8   6  -1  101.79   11.80
  -8  -6   1  105.79   12.10
   8  -6  -1  149.88   16.40
  -8   6   2  158.78   11.90
  -8   6   2  146.19   14.60
   8   6  -2  144.19   14.00
  -8  -6  -2  177.38   15.40
  -8  -6  -2  147.59   16.00
  -8   6  -2  193.68   16.90
  -8  -6   2  127.89   14.20
  -8   6  -2  156.18   14.00
   8   6   3   96.49   11.60
  -8   6  -3   73.09   12.90
  -9  -6   0   10.30    6.40
   9  -6   0   -1.20    7.00
   9   6   0    2.20    6.10
  -9   6   0    5.20    6.50
  -9   6   1   15.50    5.50
  -9   6   1   21.10    7.50
  -9  -6  -1   14.90    6.60
   9   6  -1   16.60    7.00
  -9   6  -1   12.40    6.90
  -9   6  -1    6.50    7.20
  -9  -6  -2    5.70    7.50
   0  -7   0    0.70    3.20
   0   7   0   22.10    2.80
   0  -7   0   -0.60    1.90
   0   7   0   17.80    2.50
   0  -7  -1 4139.09  134.29
   0   7   1 4403.36  109.99
   0   7  -1 4259.27  111.49
   0  -7  -1 3863.81  120.49
   0   7   1 4271.27  114.19
   0   7  -1 4275.07  112.89
   0  -7   1 4241.88  133.19
   0  -7   1 4199.18  120.59
   0  -7   2    5.30    1.70
   0   7  -2   -0.90    2.10
   0  -7   2    2.00    2.40
   0   7   2    2.40    2.50
   0   7  -2    3.50    2.50
   0   7   2    0.10    1.40
   0  -7  -2   -1.80    2.60
   0  -7  -2    1.40    2.50
   0  -7  -3 2904.71   85.09
   0  -7  -3 2887.51   96.79
   0   7  -3 2889.51   79.39
   0   7  -3 2812.82   94.09
   0  -7   3 2950.30   78.09
   0   7   3 2825.92   81.79
   0  -7   3 2745.83   85.89
   0  -7  -4    2.50    3.50
   0   7  -4    4.90    3.80
   0  -7   4   -5.30    3.50
   0   7   4   -2.00    3.30
   0  -7  -4    3.90    4.40
   0   7  -4    4.50    4.50
   0  -7  -5 1299.07   55.09
   0   7   5 1352.86   46.30
   0   7  -5 1345.87   52.89
   0  -7   5 1420.06   48.90
   0   7  -6   -1.80    7.00
  -1  -7   0 2379.56   72.99
  -1   7   0 2473.35   65.99
   1  -7   0 2481.95   70.19
  -1  -7   0 2348.36   78.79
   1   7   0 2489.65   65.09
   1   7   0 2426.96   67.59
  -1   7   0 2409.66   65.79
   1  -7   1  836.92   27.90
  -1   7   1  881.11   26.50
   1   7  -1  880.21   26.40
   1   7  -1  889.41   29.30
  -1  -7  -1  853.11   31.10
   1  -7   1  908.11   23.60
  -1  -7  -1  843.02   29.80
   1  -7   1  828.42   32.90
  -1   7   1  879.21   25.80
   1   7  -1  861.21   26.90
   1   7   1  880.81   27.30
  -1   7  -1  840.82   26.50
  -1   7  -1  879.91   23.90
   1  -7  -1  944.81   27.80
   1   7   1  890.81   24.40
  -1  -7  -2 1880.51   62.49
  -1   7   2 1838.82   53.19
   1   7  -2 1848.32   59.69
  -1   7   2 1878.41   50.29
   1   7  -2 1787.12   51.89
  -1  -7  -2 1813.82   56.79
   1  -7   2 1800.02   55.89
  -1  -7   2 1763.12   56.39
   1  -7  -2 1811.82   54.89
  -1   7  -2 1896.91   62.89
  -1   7  -2 1866.51   52.09
   1   7   2 1827.32   53.69
  -1  -7   2 1834.72   51.99
   1   7   2 1867.41   47.80
   1  -7  -2 1770.02   63.79
  -1  -7  -3  490.45   23.10
   1   7  -3  522.65   19.10
  -1   7   3  511.75   16.40
  -1  -7  -3  523.45   20.80
   1  -7   3  510.75   20.60
  -1   7   3  510.55   19.60
   1   7  -3  507.35   20.90
  -1  -7   3  537.75   17.90
  -1   7  -3  494.45   22.60
  -1  -7   3  488.75   20.50
   1  -7  -3  462.25   23.70
   1  -7  -3  549.54   19.10
   1   7   3  491.65   19.60
  -1   7  -3  485.55   18.40
   1   7  -4  916.81   35.50
   1  -7   4  906.21   33.70
  -1  -7  -4  863.41   37.60
   1   7  -4  932.51   30.80
  -1  -7  -4  909.11   33.00
  -1   7   4  887.71   32.00
   1   7   4  877.11   31.90
  -1  -7   4  894.41   33.50
  -1   7  -4  931.21   30.30
   1  -7  -4  872.61   38.80
  -1   7  -4  896.01   37.10
  -1  -7  -5  189.08   16.90
   1   7  -5  242.08   16.60
  -1   7   5  247.08   14.80
   1   7  -5  219.88   13.20
  -1  -7  -5  204.38   14.20
   1  -7   5  208.98   15.10
   1   7   5  232.98   14.50
  -1  -7   5  236.48   15.10
  -1   7  -5  223.48   16.80
   1  -7  -5  219.68   18.20
  -1  -7   6  429.16   23.10
  -2  -7   0 1500.55   49.50
   2   7   0 1547.35   45.50
   2   7   0 1563.44   42.70
  -2   7   0 1492.65   43.90
   2  -7   0 1439.16   56.19
   2  -7   0 1573.54   44.90
  -2  -7   0 1560.04   49.60
  -2   7   0 1572.14   42.60
  -2   7   1  137.09    7.20
  -2  -7  -1  144.09    9.30
   2   7  -1  142.79    5.10
   2  -7   1  140.89   10.80
  -2  -7  -1  136.69    7.60
   2  -7   1  133.79    7.10
  -2   7   1  152.58    7.00
   2   7  -1  136.49    7.10
   2   7   1  134.09    7.80
   2  -7  -1  133.29    5.50
   2  -7  -1  147.29   11.50
  -2   7  -1  137.79    7.60
  -2  -7   1  158.78    8.40
  -2  -7   1  135.19    9.50
   2   7   1  134.39    5.70
   2   7  -2 1131.19   34.70
  -2   7   2 1145.29   35.30
  -2  -7  -2 1181.38   40.80
  -2  -7  -2 1110.89   38.50
  -2   7   2 1174.38   33.60
   2   7  -2 1152.28   37.60
   2  -7   2 1132.49   36.80
   2   7   2 1137.39   36.00
  -2   7  -2 1048.90   42.40
   2  -7  -2 1066.09   43.50
  -2  -7   2 1161.48   35.50
   2  -7  -2 1182.48   34.20
  -2  -7   2 1158.28   38.60
  -2   7  -2 1133.99   34.50
   2   7  -3   70.39    7.10
  -2  -7  -3   96.69    9.40
   2  -7   3   92.09    8.70
  -2   7   3   90.69    6.20
   2   7  -3   88.39    7.00
  -2   7   3   81.49    7.80
  -2  -7  -3   87.59    9.40
  -2   7  -3   85.39    7.50
  -2  -7   3   91.49    7.10
  -2   7  -3   92.19   10.20
  -2  -7   3   94.09    9.00
   2  -7  -3   90.39   10.90
   2   7   3   86.09    8.40
  -2  -7  -4  544.75   26.90
  -2   7   4  591.54   23.70
   2   7  -4  593.04   22.50
   2  -7   4  513.55   23.70
  -2  -7  -4  548.35   24.40
   2  -7  -4  567.04   28.90
  -2   7  -4  562.94   21.40
   2   7   4  600.54   23.50
  -2  -7   4  564.04   24.10
  -2   7  -4  555.34   27.60
  -2  -7   4  596.34   22.00
  -2  -7  -5   31.20    8.70
  -2  -7  -5   41.60    8.60
   2  -7   5   18.00    6.40
  -2   7   5   36.10    7.70
   2   7  -5   25.80    6.30
  -2   7  -5   18.60    7.70
  -2  -7   5   32.40    7.40
   2  -7  -5   33.40    9.00
   2   7   5   23.90    6.70
  -3   7   0 1244.58   34.80
   3   7   0 1233.88   35.40
  -3   7   0 1223.48   37.00
  -3  -7   0 1146.09   41.40
  -3  -7   0 1250.67   38.60
   3  -7   0 1169.58   47.30
   3   7   0 1213.18   38.40
   3  -7   0 1221.98   35.90
   3  -7   1    2.50    3.70
  -3   7   1    3.50    2.60
  -3  -7  -1    1.40    2.00
  -3   7   1   -2.20    1.60
   3   7  -1    5.80    2.50
  -3  -7  -1   -0.10    2.70
   3  -7   1   -0.80    1.80
  -3  -7   1    8.00    4.20
   3   7   1    7.20    2.90
  -3   7  -1    0.50    1.00
   3  -7  -1    0.30    4.30
  -3  -7   1    2.00    2.80
   3   7   1    3.50    1.90
  -3   7  -1    1.70    2.40
  -3  -7  -2  916.61   33.20
   3  -7   2  888.81   30.40
  -3   7   2  878.11   28.40
  -3   7   2  899.31   29.30
   3   7  -2  889.11   29.20
  -3  -7  -2  950.80   33.50
  -3  -7   2  917.91   32.90
  -3   7  -2  893.21   29.20
  -3   7  -2  820.92   36.40
  -3  -7   2  910.91   30.80
   3   7   2  911.51   30.60
   3  -7  -2  884.61   38.10
  -3  -7  -3    2.80    3.70
   3  -7   3    0.40    3.10
   3   7  -3   -2.40    2.90
  -3  -7  -3    1.40    3.40
  -3   7   3    1.80    3.30
  -3   7   3   -0.30    2.60
  -3  -7   3    4.90    3.80
   3  -7  -3    3.50    5.20
   3   7   3    2.90    3.80
  -3   7  -3    0.20    4.40
  -3   7  -3    4.20    3.40
  -3  -7   3    6.80    3.90
  -3  -7  -4  436.26   23.10
   3   7  -4  505.65   20.50
   3  -7   4  475.15   21.80
  -3   7   4  448.16   20.60
  -3  -7  -4  442.86   22.10
   3   7   4  454.25   20.40
  -3   7  -4  420.16   24.50
   3  -7  -4  452.05   26.10
  -3  -7   4  457.35   20.30
  -3  -7   4  498.35   21.60
  -3  -7  -5    1.80    6.00
   3   7  -5   -1.20    4.60
   3  -7   5    5.00    5.60
  -3   7   5   -3.00    5.00
  -3  -7  -5   10.10    6.30
   3   7   5    6.60    5.40
  -3   7  -5    2.60    5.80
   3  -7  -5    5.70    7.40
  -4   7   0  719.13   22.50
   4  -7   0  722.43   22.80
   4   7   0  727.23   26.30
  -4   7   0  722.23   25.30
   4  -7   0  737.63   32.90
  -4  -7   0  694.53   28.50
   4   7   0  744.03   23.80
  -4  -7  -1  105.29    6.60
  -4   7   1  103.89    7.60
   4   7  -1  119.09    7.90
   4  -7   1  115.09    6.80
  -4  -7  -1  120.39   11.20
   4  -7   1  113.19   12.60
  -4   7   1  102.19    6.80
  -4  -7   1  120.99    8.70
   4  -7  -1  124.29   13.90
  -4   7  -1  118.09    5.20
   4   7   1   98.59    8.90
  -4  -7   1  105.89   10.60
   4   7   1  121.69    6.70
  -4   7  -1  100.89    8.80
   4  -7   2  539.95   21.00
  -4   7   2  546.95   20.60
   4   7  -2  523.05   20.60
  -4  -7  -2  571.54   22.50
  -4   7   2  554.04   20.70
  -4  -7  -2  552.44   24.20
  -4   7  -2  568.94   27.50
   4   7   2  531.65   21.80
  -4  -7   2  544.65   24.20
  -4  -7   2  551.54   22.60
   4  -7  -2  566.94   28.80
  -4   7  -2  544.95   20.90
  -4   7   3   88.29    8.90
   4   7  -3   78.79    8.50
   4  -7   3   69.49    8.20
  -4  -7  -3   79.19    9.70
  -4  -7  -3   76.19    8.80
  -4   7   3   67.29    7.20
  -4  -7   3   66.29    8.50
   4   7   3   91.29    9.50
   4  -7  -3   76.29   11.60
  -4  -7   3   67.39    8.70
  -4   7  -3   76.49    7.80
  -4   7  -3   72.69   10.60
  -4   7   4  293.07   14.40
  -4  -7  -4  278.57   18.00
  -4  -7  -4  302.27   18.40
   4   7  -4  295.47   16.10
  -4   7   4  282.07   16.00
   4  -7   4  300.97   17.10
  -4  -7   4  307.37   16.60
   4  -7  -4  297.77   21.60
  -4  -7   4  322.47   17.50
   4   7   4  281.77   16.30
  -4   7  -4  302.47   20.60
   4  -7   5   27.30    8.10
  -4  -7  -5   39.20    9.50
  -4   7   5   36.20    8.40
  -4  -7  -5   25.70    8.10
   4   7  -5   26.40    7.30
   4  -7  -5   28.70    9.90
   4   7   5   36.00    7.90
  -4   7  -5   33.40    9.90
   5   7   0  686.73   26.10
   5  -7   0  664.23   32.00
  -5   7   0  697.43   22.50
   5   7   0  669.43   23.60
  -5  -7   0  687.43   28.50
  -5   7   0  710.33   25.60
  -5  -7  -1    5.40    4.30
  -5   7   1    1.20    3.30
   5   7  -1    5.30    3.50
   5  -7   1    2.70    2.60
  -5   7   1    2.70    2.60
   5  -7   1   14.10    6.10
  -5  -7   1    6.20    4.70
  -5  -7   1   15.90    5.20
   5   7   1    1.00    2.90
  -5   7  -1    5.50    3.80
   5  -7  -1    7.30    6.20
   5   7   1    8.80    4.20
  -5  -7  -2  564.94   25.90
  -5  -7  -2  593.34   23.40
   5  -7   2  582.14   22.50
  -5   7   2  572.34   21.70
   5   7  -2  562.14   22.20
  -5   7   2  557.04   22.20
  -5  -7   2  538.15   24.00
  -5   7  -2  530.95   28.20
  -5  -7   2  589.04   26.20
   5   7   2  545.25   23.10
  -5   7  -2  538.85   21.90
   5  -7  -2  583.64   30.40
  -5  -7  -3    7.40    5.20
   5   7  -3    8.10    4.50
   5  -7   3    1.60    4.30
  -5  -7  -3   16.60    5.20
  -5   7   3    4.60    4.10
  -5   7   3    5.80    4.60
  -5   7  -3    0.40    5.30
   5   7   3    6.30    4.40
  -5  -7   3    6.50    4.90
  -5  -7   3    6.80    5.10
   5  -7  -3    7.20    6.80
  -5   7  -3    4.40    4.30
  -5   7   4  332.27   18.20
  -5   7   4  320.07   16.30
  -5  -7  -4  333.27   19.80
  -5  -7  -4  346.37   20.60
   5   7  -4  330.97   17.80
   5  -7   4  336.87   18.80
   5  -7  -4  304.77   23.00
  -5   7  -4  334.77   23.00
   5   7   4  323.97   18.20
  -5  -7   4  331.57   19.40
  -5  -7  -5   -3.00    6.00
   5  -7  -5   -1.50    7.50
  -6  -7   0   30.50    6.20
   6   7   0   38.30    6.10
  -6  -7   0   44.30    8.10
  -6   7   0   32.00    4.70
   6  -7   0   31.40    8.30
  -6   7   0   46.30    7.50
   6  -7   1   32.20    5.30
  -6   7   1   30.20    5.10
  -6  -7  -1   24.00    6.90
  -6   7   1   28.00    5.80
   6   7  -1   23.00    5.50
   6  -7   1   35.90    8.60
   6   7   1   32.40    5.70
  -6  -7   1   30.90    6.50
  -6   7  -1   24.80    5.70
   6  -7  -1   20.20    7.80
   6   7   1   34.20    6.50
  -6  -7   1   34.90    7.60
  -6  -7  -2   34.60    7.90
   6   7  -2   40.20    7.10
   6  -7   2   24.90    5.70
  -6   7   2   37.00    6.30
  -6   7   2   23.30    5.80
  -6  -7   2   47.10    8.30
   6   7   2   24.30    6.30
  -6   7  -2   32.40    8.50
  -6   7  -2   31.10    6.30
  -6  -7   2   31.80    7.90
   6  -7  -2   28.80    9.00
   6   7  -3    9.80    5.50
   6  -7   3   24.20    6.10
  -6  -7  -3   14.70    7.10
  -6   7   3   12.40    5.40
  -6   7   3   15.30    5.60
  -6  -7  -3   31.80    6.80
  -6  -7   3   17.50    6.60
  -6   7  -3   23.00    8.40
   6   7   3   20.50    6.70
  -6   7  -3    6.10    4.90
   6  -7  -3   16.30    8.70
   6  -7   4    2.60    6.00
   6   7  -4   12.40    6.50
  -6  -7  -4   13.30    7.70
  -6  -7  -4   29.60    7.90
  -6   7   4   15.30    6.40
  -6   7   4   16.20    6.00
   6  -7  -4   12.70    9.40
  -6  -7   4   15.00    7.20
  -6   7  -4   20.20    9.10
   6   7   4   22.90    7.30
  -7  -7   0   52.39    8.20
  -7   7   0   67.29    9.20
   7   7   0   61.89    8.20
  -7  -7   0   55.29    9.30
   7  -7   0   78.99   12.50
  -7   7   0   80.29    7.50
  -7   7   1  392.46   17.50
   7   7  -1  381.46   18.90
  -7   7   1  375.06   19.10
  -7  -7  -1  430.86   22.80
   7  -7   1  390.16   24.30
  -7  -7   1  381.66   20.10
   7  -7  -1  391.16   23.80
  -7  -7   1  416.36   21.80
  -7   7  -1  385.76   19.50
  -7   7   2   67.39    8.40
  -7  -7  -2   57.79   10.30
   7   7  -2   66.99    9.20
  -7   7   2   32.60    7.30
   7  -7  -2   50.09   10.80
  -7   7  -2   55.29   10.70
  -7  -7   2   57.69    9.60
   7   7   2   49.90    8.70
  -7   7  -2   67.69    9.20
   7   7  -3  273.37   17.10
  -7   7   3  275.17   16.10
   7  -7   3  250.77   16.30
  -7   7   3  267.67   16.60
  -7  -7  -3  269.07   19.20
  -7   7  -3  276.37   20.50
   7   7   3  293.17   17.60
   7  -7  -3  280.27   21.90
  -7  -7   3  273.97   18.40
  -8   7   0  108.19   12.40
   8  -7   0  110.99   14.70
  -8  -7   0  111.09   13.10
   8   7   0  104.69   11.30
  -8  -7   0  100.19   11.60
  -8   7   1 2085.39   66.39
  -8  -7  -1 2222.38   75.29
  -8   7   1 2239.08   69.69
   8   7  -1 2222.28   68.49
  -8  -7  -1 2243.68   70.39
  -8   7  -1 2210.08   68.99
   8  -7  -1 2151.68   82.19
  -8  -7   1 2172.18   71.09
  -8   7   2   75.29    9.60
   8   7  -2   73.19   10.70
  -8  -7  -2   89.49   12.80
  -8   7   2   79.69   11.00
  -8  -7   2   76.69   11.40
  -8   7  -2   68.09   12.30
  -8   7  -2   82.19   10.80
   8  -7  -2   83.79   13.30
   8   7   3 1509.05   52.69
  -9  -7   0  733.83   32.20
  -9   7   0  730.93   32.50
   9  -7   0  778.72   37.90
  -9  -7  -1  682.73   30.70
  -9  -7  -1  711.93   33.40
   9   7  -1  681.73   30.00
  -9   7  -1  663.83   29.80
  -9   7  -1  654.73   34.90
   0   8   0 4652.03  116.09
   0  -8   0 4512.75  126.19
   0   8   0 4608.84  118.49
   0  -8   0 3790.12  140.99
   0  -8   1    1.20    2.00
   0  -8  -1   -1.50    2.20
   0  -8  -1    5.60    2.70
   0  -8   1   -0.80    2.00
   0   8  -1    1.60    1.60
   0   8   1    0.80    1.80
   0   8  -1    1.50    2.00
   0   8   1   -0.50    1.50
   0   8   2 3634.64  102.59
   0   8  -2 3739.83  118.39
   0  -8   2 3819.92   99.19
   0   8  -2 3661.73   99.79
   0   8   2 3846.02   96.99
   0  -8  -2 3473.15  107.79
   0  -8  -3    2.60    2.90
   0   8   3    1.40    2.80
   0   8  -3    0.90    3.30
   0  -8  -3    4.70    4.10
   0   8  -3    1.40    3.00
   0  -8   3   -0.60    2.90
   0   8  -4 2127.09   71.49
   0   8  -4 2038.10   59.99
   0  -8  -4 2019.90   63.79
   0   8   4 1978.50   62.39
   0  -8   4 1987.50   65.49
   0  -8  -4 2013.90   74.19
   0  -8  -5   10.20    6.70
   0   8  -5    5.90    5.70
   0   8   5   -1.90    4.40
   0  -8   5   -0.60    4.50
   1  -8   0  493.25   17.00
  -1   8   0  493.05   16.50
   1   8   0  492.65   16.90
  -1  -8   0  473.95   19.30
  -1   8   0  507.05   15.50
   1  -8   0  489.75   23.10
  -1  -8   0  454.35   19.80
   1   8   0  492.15   15.80
   1  -8   1   72.39    8.40
   1  -8   1   86.19    5.90
  -1  -8  -1   86.89    7.10
  -1  -8  -1  100.49    7.00
   1   8  -1   92.99    5.70
  -1   8   1   91.29    5.30
  -1   8   1   82.59    5.20
   1   8  -1   79.99    5.70
  -1   8  -1   79.59    3.80
   1  -8  -1   88.89    5.70
   1   8   1   89.99    5.90
  -1  -8   1   80.29    7.60
   1   8   1   81.29    4.40
  -1   8  -1   76.99    5.50
   1  -8  -1   74.29    8.60
  -1   8   2  392.26   14.90
  -1   8   2  390.26   13.10
  -1  -8  -2  383.96   17.70
   1  -8   2  361.86   15.40
   1   8  -2  359.86   14.50
   1   8  -2  376.36   15.20
  -1  -8  -2  369.26   16.60
  -1   8  -2  368.06   14.60
   1  -8  -2  380.16   14.80
  -1   8  -2  378.06   17.80
   1   8   2  377.36   11.10
   1  -8  -2  370.96   19.00
  -1  -8   2  371.16   13.70
   1   8   2  350.46   14.90
   1   8  -3   44.80    5.80
  -1   8   3   48.40    4.50
  -1  -8  -3   52.39    8.00
  -1  -8  -3   57.79    7.10
   1   8  -3   51.89    6.30
  -1   8   3   48.40    6.10
   1  -8   3   39.60    6.10
   1  -8  -3   52.29    5.90
   1  -8  -3   46.50    7.90
   1   8   3   59.09    6.90
  -1   8  -3   56.39    6.30
  -1   8  -3   53.99    7.60
  -1  -8   3   51.19    6.90
  -1  -8   3   51.79    5.20
  -1  -8  -4  195.28   15.00
   1   8  -4  199.88   12.90
  -1   8   4  212.28   12.70
  -1  -8  -4  200.78   12.50
   1  -8   4  205.88   13.30
   1   8  -4  207.28   11.90
  -1   8  -4  210.38   11.70
  -1   8  -4  194.88   14.00
  -1  -8   4  195.48   12.80
   1  -8  -4  205.28   15.90
   1   8   4  192.28   12.60
  -1  -8  -5   23.90    6.80
   1  -8   5   30.70    7.40
   1   8  -5   39.60    7.00
  -1  -8  -5   17.40    7.40
  -1   8   5   20.20    6.30
  -1  -8   5   28.90    7.10
  -1   8  -5   32.90    8.40
   1  -8  -5   22.90    8.20
   1   8   5   21.80    6.80
  -2   8   0 5281.57  138.79
  -2   8   0 5421.86  139.59
   2  -8   0 5505.35  147.09
   2  -8   0 5028.50  170.58
   2   8   0 5236.68  137.19
   2   8   0 5525.15  143.09
  -2  -8   0 4938.91  151.78
  -2  -8   0 4871.11  163.08
   2   8  -1 1632.54   49.30
  -2   8   1 1602.64   45.50
   2  -8   1 1518.45   58.09
  -2   8   1 1525.75   45.20
   2   8  -1 1581.14   45.30
  -2  -8  -1 1600.04   52.79
  -2  -8  -1 1594.14   51.59
   2  -8   1 1567.74   47.80
   2  -8  -1 1563.84   58.79
  -2  -8   1 1545.55   51.29
   2   8   1 1577.84   47.30
   2  -8  -1 1583.04   45.70
   2   8   1 1620.54   43.20
  -2   8  -1 1569.04   45.90
  -2  -8  -2 4187.48  129.69
   2   8  -2 4321.87  118.79
   2  -8   2 4449.96  127.59
   2   8  -2 4585.24  137.59
  -2  -8  -2 4608.54  141.39
  -2   8   2 4541.35  117.59
  -2   8   2 4433.86  121.39
  -2  -8   2 4274.37  129.49
  -2   8  -2 4399.56  144.19
   2  -8  -2 4467.15  124.49
  -2   8  -2 4503.35  119.09
   2   8   2 4547.65  122.59
  -2  -8   2 4367.76  121.79
   2  -8  -2 4044.70  144.69
   2   8  -3  909.41   30.80
  -2   8   3  923.81   28.70
  -2  -8  -3  926.91   36.80
  -2  -8  -3  949.60   34.40
   2   8  -3  969.30   33.60
   2  -8   3  936.41   33.20
  -2   8   3  971.40   32.00
   2   8   3  941.11   32.20
  -2  -8   3  944.11   34.10
  -2   8  -3  921.11   30.50
  -2  -8   3  930.81   30.70
   2  -8  -3  890.21   39.20
  -2   8  -3  905.01   37.80
   2   8  -4 2520.15   73.69
  -2  -8  -4 2574.44   88.99
  -2   8   4 2462.65   75.99
   2  -8   4 2528.75   79.89
  -2  -8  -4 2546.25   80.19
  -2  -8   4 2518.45   79.69
   2  -8  -4 2509.45   91.39
   2   8   4 2544.55   76.19
  -2   8  -4 2566.64   89.49
  -2   8  -4 2543.65   72.69
   2  -8   5  477.15   23.10
  -2   8   5  439.76   21.90
  -2  -8  -5  448.76   25.90
   2   8  -5  435.86   20.40
  -2  -8  -5  425.06   22.40
   2   8   5  461.05   21.80
   2  -8  -5  409.76   26.60
  -2  -8   5  467.05   22.80
  -2   8  -5  423.46   25.60
  -3   8   0 3479.55   91.09
  -3   8   0 3391.06   92.29
   3  -8   0 3270.77  114.49
  -3  -8   0 3154.78  101.39
   3  -8   0 3438.86   95.39
  -3  -8   0 3350.26  104.49
   3   8   0 3367.26   90.49
   3   8   0 3416.46   95.29
   3  -8   1  301.67   19.10
  -3   8   1  318.37   12.50
   3   8  -1  311.07   13.10
  -3   8   1  328.97   13.70
   3  -8   1  318.77   12.80
  -3  -8  -1  339.17   16.60
  -3  -8  -1  329.07   13.70
  -3  -8   1  308.67   16.40
   3   8   1  306.07   14.30
   3   8   1  348.57   11.70
  -3   8  -1  317.27   13.80
   3  -8  -1  315.97   19.70
  -3   8  -1  335.87    9.90
  -3  -8   1  325.77   14.80
   3  -8  -1  321.17   10.00
  -3  -8  -2 2642.64   82.19
   3  -8   2 2673.43   78.59
  -3   8   2 2606.74   74.99
   3   8  -2 2596.84   73.79
  -3   8   2 2576.64   72.99
  -3  -8  -2 2724.93   86.39
  -3  -8   2 2736.83   77.19
   3   8   2 2715.33   76.89
  -3  -8   2 2523.35   81.29
  -3   8  -2 2555.04   73.89
   3  -8  -2 2560.04   92.29
  -3   8  -2 2569.14   91.19
  -3   8   3  192.68   10.00
   3   8  -3  209.38   11.70
   3  -8   3  178.98   11.40
  -3  -8  -3  188.78   13.10
  -3  -8  -3  190.98   12.60
  -3   8   3  185.58   11.20
  -3   8  -3  195.58   14.70
  -3  -8   3  201.88   13.00
   3   8   3  180.98   11.60
   3  -8  -3  234.28   16.60
  -3   8  -3  202.78   11.30
  -3  -8   3  173.68   11.30
  -3   8   4 1487.15   49.00
  -3  -8  -4 1475.55   51.99
   3  -8   4 1492.55   50.99
  -3  -8  -4 1446.96   55.99
   3   8  -4 1485.25   47.30
  -3  -8   4 1480.55   51.09
  -3   8  -4 1530.05   46.30
  -3  -8   4 1538.25   48.40
   3   8   4 1431.26   48.60
   3  -8  -4 1473.85   59.89
  -3   8  -4 1404.16   58.09
   3   8  -5  108.59   11.40
  -3  -8  -5   91.69   12.20
   3  -8   5  100.19   12.50
  -3  -8  -5  101.89   13.60
  -3   8   5  152.18   13.90
  -3  -8   5   84.19   11.10
   3   8   5   98.49   11.60
   3  -8  -5  104.89   15.30
  -3   8  -5  107.49   14.80
  -4   8   0  447.96   18.30
  -4   8   0  460.05   15.40
  -4  -8   0  444.66   21.10
   4   8   0  447.46   16.70
   4  -8   0  454.35   15.40
   4  -8   0  455.15   24.60
   4   8   0  468.95   19.40
  -4  -8  -1  150.18   11.40
   4  -8   1  135.59   14.50
  -4  -8  -1  161.18    8.40
   4   8  -1  154.88    9.10
   4  -8   1  149.69    8.20
  -4   8   1  134.09    9.20
  -4   8   1  167.48    8.40
   4   8   1  158.38    8.00
   4   8   1  155.28   10.10
  -4  -8   1  145.39   11.60
   4  -8  -1  160.88   14.20
  -4   8  -1  163.08    9.90
  -4  -8   1  177.78   10.80
  -4   8   2  325.77   15.00
  -4  -8  -2  340.67   18.50
  -4   8   2  336.67   15.00
   4   8  -2  352.16   15.60
   4  -8   2  346.07   15.40
  -4  -8  -2  377.36   16.70
  -4   8  -2  361.26   21.10
  -4  -8   2  337.77   18.60
  -4  -8   2  342.17   17.40
   4   8   2  379.86   17.20
  -4   8  -2  361.46   16.00
   4  -8  -2  378.96   22.80
  -4  -8  -3  109.39   11.60
  -4   8   3   94.49    9.30
  -4   8   3  112.89    8.40
   4   8  -3  101.99    9.70
  -4  -8  -3  103.19   10.40
   4  -8   3  101.39    9.70
   4   8   3  111.39   10.80
  -4  -8   3   91.39   10.50
   4  -8  -3   97.89   13.60
  -4  -8   3  105.49   10.70
  -4   8  -3  111.39    9.70
  -4   8  -3   87.59   12.10
  -4  -8  -4  178.68   16.10
   4  -8   4  205.98   14.20
  -4   8   4  198.38   13.40
  -4  -8  -4  187.88   14.50
   4   8  -4  186.78   12.80
  -4  -8   4  209.78   14.20
  -4  -8   4  170.08   13.10
   4  -8  -4  158.38   18.10
   4   8   4  175.78   13.10
  -4   8  -4  197.68   17.20
   4  -8   5   63.99   10.40
  -4   8   5   40.30    8.80
   4   8  -5   59.29    9.50
  -4  -8  -5   54.69   10.90
  -4  -8  -5   65.29   11.20
  -4   8  -5   57.49   12.00
   4  -8  -5   47.60   12.00
   4   8   5   52.79    9.40
  -5   8   0 2874.31   81.79
  -5   8   0 2866.61   79.19
   5  -8   0 2788.82  100.19
   5   8   0 2839.02   79.59
   5   8   0 2826.52   84.09
  -5  -8   0 2871.21   89.79
   5  -8   1  701.33   24.60
  -5   8   1  729.73   26.20
  -5  -8  -1  733.43   30.40
   5  -8   1  692.63   34.10
  -5   8   1  671.63   23.90
   5   8  -1  683.63   25.10
   5   8   1  719.53   23.60
  -5   8  -1  714.63   26.40
  -5  -8   1  733.33   27.80
   5  -8  -1  713.33   34.60
  -5  -8   1  690.43   29.80
   5   8   1  661.83   26.80
  -5   8   2 2295.87   66.59
   5  -8   2 2313.07   69.39
   5   8  -2 2327.67   66.79
  -5  -8  -2 2292.87   74.89
  -5   8   2 2206.28   65.89
  -5  -8  -2 2200.78   74.39
  -5  -8   2 2343.57   70.69
  -5  -8   2 2180.88   74.39
   5  -8  -2 2186.78   84.19
  -5   8  -2 2216.18   66.29
   5   8   2 2204.58   68.89
  -5   8  -2 2144.69   81.99
  -5  -8  -3  477.75   22.80
   5  -8   3  444.26   21.50
  -5   8   3  461.45   20.70
   5   8  -3  507.85   21.40
  -5  -8  -3  483.45   24.70
  -5   8   3  501.55   20.70
   5   8   3  478.45   22.00
  -5   8  -3  482.65   21.00
   5  -8  -3  451.45   28.10
  -5   8  -3  453.25   26.90
  -5  -8   3  539.25   24.50
  -5  -8   3  499.95   23.60
  -5  -8  -4 1390.46   51.79
  -5  -8  -4 1321.57   52.29
   5  -8   4 1383.96   49.40
  -5   8   4 1364.16   44.30
   5   8  -4 1369.16   46.20
  -5   8   4 1282.47   46.30
  -5  -8   4 1321.77   48.70
   5   8   4 1366.06   47.40
   5  -8  -4 1370.46   58.79
  -5   8  -4 1374.76   57.99
   5   8   5  246.38   16.60
  -6   8   0 1223.98   42.20
  -6  -8   0 1271.17   43.40
  -6  -8   0 1310.67   46.90
   6  -8   0 1282.97   52.89
  -6   8   0 1217.78   38.60
   6   8   0 1306.17   40.50
  -6   8   1  509.95   19.50
  -6   8   1  483.55   21.30
  -6  -8  -1  492.25   24.40
   6  -8   1  483.95   27.70
   6   8  -1  498.55   20.70
  -6  -8   1  494.55   22.90
  -6   8  -1  490.55   21.50
   6   8   1  473.85   21.90
   6  -8  -1  467.25   27.00
  -6  -8   1  491.95   24.30
   6   8  -2 1030.70   35.70
  -6   8   2  993.80   34.30
   6  -8   2 1053.99   36.00
  -6   8   2  929.61   34.70
  -6  -8  -2 1009.70   40.70
  -6  -8   2  941.31   40.00
   6  -8  -2  969.40   45.50
  -6   8  -2  986.70   35.10
   6   8   2 1066.69   37.50
  -6   8  -2 1005.90   44.70
  -6  -8   2 1015.80   38.30
  -6  -8  -3  343.17   21.40
  -6   8   3  320.27   17.30
  -6   8   3  297.37   16.50
   6   8  -3  357.96   18.20
   6  -8   3  356.96   18.30
   6   8   3  331.87   18.40
   6  -8  -3  333.97   24.30
  -6   8  -3  361.06   23.80
  -6   8  -3  302.67   17.00
  -6  -8   3  347.67   20.10
  -6   8   4  574.44   26.90
  -6  -8  -4  636.14   31.70
   6  -8   4  624.34   29.00
  -6   8   4  612.34   26.00
   6   8  -4  619.64   27.10
  -6  -8   4  670.53   31.00
   6  -8  -4  633.44   36.50
   6   8   4  656.63   28.40
  -6   8  -4  576.74   34.10
  -7  -8   0   83.39   11.20
  -7  -8   0   80.59    9.80
   7  -8   0   87.09   14.20
   7   8   0   99.39   10.00
  -7   8   0   93.19   10.60
  -7   8   1   39.20    6.30
   7  -8   1   46.80   10.50
   7   8  -1   32.60    6.90
  -7   8   1   26.80    6.90
  -7  -8  -1   27.00    7.60
  -7   8  -1   33.20    7.50
   7  -8  -1   24.70    8.40
  -7  -8   1   37.90    7.90
  -7  -8   1   17.60    6.80
  -7   8   2   80.99   10.00
  -7   8   2   78.79    9.10
  -7  -8  -2   73.89   11.50
   7   8  -2   69.89    9.50
   7   8   2   75.89   10.10
  -7   8  -2   61.79    9.20
  -7  -8   2   98.39   12.10
  -7   8  -2   66.59   11.80
   7  -8  -2   80.99   13.50
   7  -8   3   20.50    7.10
   7   8  -3   29.40    7.30
  -7  -8  -3   16.30    8.00
  -7   8   3   26.40    6.60
  -7   8   3   28.60    7.00
   7  -8  -3   39.90   11.00
   7   8   3   14.10    7.00
  -7  -8   3   28.60    8.40
  -7   8  -3   23.70    9.20
   7  -8  -4   48.90   13.20
  -8  -8   0  243.08   17.30
  -8   8   0  231.58   16.00
   8   8   0  235.08   15.00
   8  -8   0  252.07   20.00
  -8  -8   0  238.88   16.10
  -8   8   1  127.49   13.50
   8   8  -1  148.39   13.70
  -8   8   1  114.19   10.60
  -8  -8  -1  131.59   13.50
  -8  -8  -1  151.48   16.10
  -8   8  -1  160.38   14.40
   8  -8  -1  158.18   17.50
  -8  -8   1  118.89   13.10
  -8   8   2  184.08   13.10
  -8  -8  -2  196.18   18.80
   8   8  -2  194.28   16.40
  -8   8   2  209.38   17.00
   8  -8  -2  219.58   18.90
  -8   8  -2  167.78   15.00
  -8   8  -2  191.18   19.50
  -8  -8   2  194.68   17.70
   9  -8   0  106.89   15.60
   9   8  -1   38.90    9.00
  -9  -8  -1   60.69   11.30
   9  -8  -1   69.49   13.80
  -9   8  -1   50.99   11.20
  -9   8  -1   60.19   10.50
   0   9   0    5.00    2.10
   0  -9   0    3.40    2.50
   0  -9   0   -2.70    3.00
   0   9   0    1.80    1.90
   0  -9  -1  104.79    7.40
   0  -9   1   84.99    6.90
   0   9   1   87.19    5.90
   0   9   1  104.19    5.50
   0  -9  -1   91.99    9.30
   0   9  -1   89.69    5.50
   0  -9   1   89.79    7.40
   0   9  -1   89.69    6.30
   0  -9  -2    4.00    3.00
   0  -9   2    4.30    3.00
   0   9   2    2.20    2.50
   0  -9  -2    1.10    3.50
   0   9  -2    6.70    2.80
   0   9   2    0.80    1.70
   0  -9   2   -0.60    1.40
   0   9  -2   -0.30    2.60
   0  -9   3   51.89    7.00
   0   9  -3   56.59    7.20
   0  -9  -3   57.19    8.50
   0  -9  -3   64.89    7.50
   0   9  -3   71.29    7.00
   0   9   3   56.59    6.70
   0   9  -4    0.50    3.80
   0  -9   4   -3.40    4.00
   0  -9  -4    0.60    5.50
   0  -9  -4    2.10    4.20
   0   9   4    1.90    3.90
   0   9  -4    0.50    4.50
   0  -9   5   21.40    6.90
   0  -9  -5   30.30    9.10
   0   9  -5   30.30    8.00
   0   9  -5   37.90    7.00
   0   9   5   23.70    7.10
   1   9   0  101.39    6.30
  -1  -9   0  111.09    8.20
  -1  -9   0  101.59    8.20
  -1   9   0   99.19    5.40
   1   9   0  104.79    6.00
   1  -9   0  114.69    6.60
   1  -9   0   98.59   10.70
  -1   9   0  108.09    6.40
   1  -9   1 1517.85   47.60
   1   9  -1 1563.54   44.50
   1   9  -1 1549.34   45.80
  -1   9   1 1545.45   44.80
  -1   9   1 1535.25   43.70
  -1  -9  -1 1513.15   53.19
  -1  -9  -1 1534.75   49.99
   1  -9   1 1470.75   56.09
  -1  -9   1 1510.55   49.70
   1   9   1 1616.14   42.60
   1  -9  -1 1550.14   56.59
  -1   9  -1 1558.94   44.90
   1  -9  -1 1602.24   47.20
  -1  -9   1 1588.74   51.09
  -1   9  -1 1547.65   42.80
   1   9   1 1560.54   45.90
  -1  -9  -2   75.69    8.00
   1   9  -2   71.19    5.80
   1  -9   2   66.89    6.90
   1   9  -2   65.99    6.40
  -1   9   2   65.69    6.40
  -1  -9  -2   72.99    8.10
  -1   9   2   79.49    5.20
  -1  -9   2   80.09    5.70
   1  -9  -2   86.29    6.40
   1  -9  -2   78.39    9.30
   1   9   2   71.89    6.90
  -1   9  -2   63.49    6.50
   1   9   2   77.49    3.80
  -1  -9   2   63.39    7.20
  -1   9  -2   79.79    8.70
   1  -9   3  919.11   33.00
   1   9  -3  898.41   30.30
   1   9  -3  934.91   33.80
  -1  -9  -3  894.81   36.90
  -1  -9  -3  889.81   33.10
  -1   9   3  924.71   31.30
  -1   9  -3  914.11   36.30
   1  -9  -3  878.91   38.20
   1   9   3  899.31   31.60
  -1  -9   3  896.21   33.40
   1  -9  -3  977.30   31.80
  -1   9  -3  916.31   30.20
  -1   9   4   38.60    6.60
   1   9  -4   49.50    7.20
   1   9  -4   38.30    6.80
  -1  -9  -4   28.70    7.40
   1  -9   4   36.30    6.90
  -1  -9  -4   29.60    6.30
  -1   9  -4   39.40    7.90
  -1  -9   4   34.60    7.00
   1  -9  -4   36.00    8.60
  -1   9  -4   35.70    6.10
   1   9   4   32.70    6.40
   1  -9   5  491.15   24.10
   1   9  -5  491.15   21.70
  -1  -9  -5  445.96   26.80
  -1   9   5  463.75   22.60
   1  -9  -5  489.65   28.70
  -1   9  -5  427.46   25.40
   1   9   5  505.55   23.20
  -1  -9   5  496.35   24.00
   2  -9   0  682.93   31.50
  -2  -9   0  688.23   26.90
  -2  -9   0  724.63   25.50
  -2   9   0  706.73   23.00
   2   9   0  658.03   21.40
   2   9   0  644.24   23.60
   2  -9   0  686.63   22.30
  -2   9   0  688.63   20.90
   2  -9   1  302.77   12.50
  -2   9   1  303.17   11.90
   2   9  -1  314.97   13.70
  -2   9   1  281.07   12.30
   2   9  -1  297.27   10.60
  -2  -9  -1  310.97   13.90
   2   9  -1  300.87   12.40
  -2  -9  -1  316.97   15.60
   2  -9   1  281.87   18.30
   2   9   1  308.77   10.70
  -2   9  -1  300.87    9.10
  -2   9  -1  291.27   12.90
   2   9   1  293.37   13.30
   2  -9  -1  295.47   18.50
   2  -9  -1  305.37   11.00
  -2  -9   1  304.17   15.50
  -2  -9  -2  490.35   21.50
  -2   9   2  493.75   17.60
   2   9  -2  520.65   18.20
   2   9  -2  493.85   18.70
  -2  -9  -2  517.55   22.20
   2  -9   2  523.25   19.90
  -2   9   2  507.45   18.80
  -2  -9   2  481.35   19.10
   2  -9  -2  532.35   17.20
  -2   9  -2  493.65   24.10
   2   9   2  462.25   19.20
  -2   9  -2  480.15   18.70
  -2  -9   2  525.95   21.90
   2  -9  -2  481.25   24.90
   2  -9   3  180.28   11.40
  -2  -9  -3  176.38   12.10
  -2   9   3  181.78    9.10
  -2  -9  -3  160.18   12.00
   2   9  -3  186.08   11.00
  -2  -9   3  201.98   12.60
  -2   9  -3  185.68   10.60
  -2  -9   3  183.08   10.50
  -2   9  -3  183.88   13.70
   2  -9  -3  187.28   14.90
   2   9   3  173.38   11.20
  -2  -9  -4  229.98   14.70
  -2   9   4  250.17   14.50
   2   9  -4  243.18   13.60
  -2  -9  -4  236.98   16.60
   2  -9   4  237.68   14.70
   2   9   4  232.88   14.00
   2  -9  -4  230.78   17.90
  -2   9  -4  232.68   16.70
  -2  -9   4  269.57   15.70
  -2   9  -4  240.98   13.10
   2  -9   5   87.19   11.30
  -2  -9  -5  115.39   12.40
  -2   9   5   69.89   10.40
  -2  -9  -5  100.89   13.80
   2   9  -5   98.49   10.90
  -2   9  -5   77.09   12.30
   2  -9  -5   72.39   13.20
  -2  -9   5  116.19   12.70
   2   9   5   96.89   11.20
  -3  -9   0  621.54   26.30
   3   9   0  609.04   23.40
   3   9   0  622.54   21.00
   3  -9   0  661.33   20.90
   3  -9   0  606.84   30.40
  -3   9   0  653.73   20.00
  -3  -9   0  691.23   22.30
  -3   9   1  345.97   13.40
   3   9  -1  337.67   14.00
   3  -9   1  346.27   13.90
  -3  -9  -1  361.96   14.90
  -3   9   1  331.57   14.30
   3  -9   1  352.56   21.50
  -3  -9  -1  341.97   17.70
   3   9   1  325.07   15.30
   3  -9  -1  354.76   11.20
  -3   9  -1  359.46   15.00
   3  -9  -1  337.57   21.00
  -3  -9   1  330.17   15.60
   3   9   1  363.96   12.60
  -3  -9   1  349.67   17.80
  -3   9   2  476.15   18.20
  -3   9   2  495.55   18.80
   3  -9   2  471.35   19.20
  -3  -9  -2  498.65   21.00
  -3  -9  -2  505.85   22.90
   3   9  -2  438.76   18.40
  -3   9  -2  462.75   19.10
  -3  -9   2  515.55   22.80
   3  -9  -2  481.55   25.90
  -3   9  -2  502.65   25.70
  -3  -9   2  537.15   21.00
   3   9   2  476.85   20.00
   3  -9   3  213.28   12.50
  -3  -9  -3  203.48   13.90
  -3  -9  -3  217.58   13.80
   3   9  -3  201.88   11.70
  -3   9   3  187.08   11.90
  -3   9   3  206.08   10.70
  -3   9  -3  189.68   11.50
   3  -9  -3  238.08   17.50
  -3   9  -3  214.08   16.20
   3   9   3  225.48   13.00
  -3  -9   3  216.68   12.60
  -3  -9   3  221.68   14.00
  -3  -9  -4  254.87   16.70
  -3   9   4  246.48   15.00
   3  -9   4  274.87   16.10
  -3  -9  -4  273.47   17.60
   3   9  -4  240.08   14.20
   3   9   4  262.37   15.70
  -3   9  -4  266.17   19.20
   3  -9  -4  279.97   20.80
  -3  -9   4  287.37   16.80
  -3   9  -4  248.18   13.90
  -3  -9  -5  102.29   13.50
  -3   9   5  118.39   12.50
   3   9  -5   97.49   11.10
  -3  -9  -5  111.99   13.40
   3  -9   5   99.59   12.40
  -3   9  -5  112.09   15.10
   3   9   5   84.49   10.90
   3  -9  -5   88.59   14.60
  -3  -9   5  104.29   12.20
  -4  -9   0  213.08   13.70
   4   9   0  184.08   11.30
   4  -9   0  176.18   15.30
   4   9   0  182.88    9.60
  -4   9   0  191.78   10.90
   4  -9   0  193.48    8.10
  -4   9   0  178.18    8.20
  -4  -9  -1  210.08    9.90
  -4   9   1  198.28    9.70
   4  -9   1  199.48   16.30
   4  -9   1  199.68    9.70
   4   9  -1  197.38   10.50
  -4   9   1  188.88   11.10
  -4  -9  -1  206.08   13.70
  -4   9  -1  163.88   10.70
   4  -9  -1  231.38   17.20
  -4  -9   1  168.98   13.10
  -4  -9   1  175.78   11.60
   4   9   1  216.68    9.40
   4   9   1  177.28   11.40
   4  -9   2  143.59    9.30
  -4  -9  -2  144.79    9.70
   4   9  -2  147.09    9.60
  -4   9   2  127.99    9.10
  -4  -9  -2  136.69   13.30
  -4   9   2  140.29    9.00
   4   9   2  128.89   11.30
   4  -9  -2  147.19   16.20
  -4   9  -2  118.79   14.00
  -4   9  -2  146.39   10.10
  -4  -9   2  142.79   13.60
  -4  -9   2  144.19   12.30
  -4  -9  -3  128.19   10.60
   4   9  -3  140.39   10.10
  -4  -9  -3  125.79   12.90
  -4   9   3  138.49    9.40
   4  -9   3  129.59    9.90
  -4   9   3  107.79   10.00
   4  -9  -3  128.59   15.70
  -4  -9   3  137.49   12.50
  -4  -9   3  150.68   13.70
  -4   9  -3  112.09   14.20
   4   9   3  125.39   11.50
  -4   9  -3  118.39   10.60
  -4  -9  -4   81.19   11.00
  -4  -9  -4   68.29   10.60
   4   9  -4   94.49   10.20
   4  -9   4   88.69   10.50
  -4   9   4   96.09   10.70
   4  -9  -4   92.39   14.40
   4   9   4   66.19    9.40
  -4  -9   4   84.79   10.90
  -4   9  -4   85.79   13.30
  -4  -9   4   97.29   11.30
  -4  -9  -5   61.79   11.30
  -4  -9  -5   79.89   12.00
   4   9  -5   68.89   10.10
   4  -9  -5   73.49   14.10
   4   9   5   71.39   10.60
   5   9   0   21.70    4.70
  -5  -9   0   27.10    6.70
   5   9   0   30.10    5.90
   5  -9   0   34.80    8.60
  -5   9   0   18.30    5.10
  -5   9   0   26.80    3.80
  -5   9   1 1099.39   37.40
  -5  -9  -1 1211.18   43.40
   5   9  -1 1165.58   36.80
   5  -9   1 1105.79   36.40
  -5   9   1 1091.09   35.30
   5  -9   1 1122.99   48.70
   5  -9  -1 1142.49   49.30
   5   9   1 1182.08   34.80
  -5   9  -1 1150.18   38.00
   5   9   1 1041.90   38.50
  -5  -9   1 1131.29   39.50
  -5  -9   1 1087.69   42.50
   5  -9   2   18.30    4.80
   5   9  -2   32.90    6.20
  -5  -9  -2   23.90    7.20
  -5   9   2   18.40    4.90
  -5   9   2   23.10    5.60
  -5   9  -2    9.80    4.50
  -5  -9   2   18.60    6.30
  -5  -9   2   10.80    6.50
  -5   9  -2   16.20    7.20
   5  -9  -2   23.40    8.50
   5   9   2   20.90    5.70
   5   9  -3  731.13   28.80
  -5   9   3  762.52   27.90
  -5   9   3  739.43   28.50
  -5  -9  -3  766.82   31.50
   5  -9   3  722.23   29.50
  -5  -9  -3  741.03   33.20
   5   9   3  754.92   30.40
  -5  -9   3  779.12   33.10
  -5  -9   3  811.52   32.50
  -5   9  -3  735.73   28.40
   5  -9  -3  735.43   38.80
  -5   9  -3  760.32   37.80
   5   9  -4   13.10    6.10
   5  -9   4   16.10    6.50
  -5   9   4   12.50    5.80
  -5  -9  -4   10.50    6.30
  -5  -9  -4   19.80    7.70
  -5   9  -4    9.00    8.10
   5   9   4   21.20    6.60
  -5  -9   4   32.60    8.10
   5  -9  -4   21.00    9.40
  -6   9   0 2054.49   63.59
  -6  -9   0 1988.70   65.09
  -6  -9   0 2071.19   69.89
   6   9   0 2126.29   61.49
   6  -9   0 2120.59   79.09
  -6   9   1  162.78   11.80
   6  -9   1  163.48   17.60
   6   9  -1  161.98   11.20
  -6  -9  -1  139.19   14.40
  -6   9   1  143.29    9.30
  -6  -9   1  157.48   13.80
  -6   9  -1  157.88   11.90
   6  -9  -1  148.49   16.50
   6   9   1  151.78   13.30
  -6  -9   1  154.78   14.80
  -6  -9  -2 1678.73   60.69
  -6   9   2 1671.33   52.69
   6  -9   2 1758.42   55.29
   6   9  -2 1777.22   54.29
  -6   9   2 1738.13   54.09
  -6  -9   2 1597.34   60.49
   6  -9  -2 1695.63   68.79
   6   9   2 1688.03   55.99
  -6   9  -2 1619.54   66.79
  -6  -9   2 1753.02   57.79
  -6   9  -2 1640.44   53.59
   6  -9   3  108.49   11.40
  -6   9   3  105.29   10.80
  -6  -9  -3   94.49   12.80
   6   9  -3  110.59   11.50
  -6   9   3   91.29   10.30
  -6   9  -3   95.99   10.60
   6  -9  -3   94.29   15.10
   6   9   3  109.09   12.10
  -6  -9   3   83.09   11.80
  -6   9  -3  104.49   15.30
  -6   9   4 1084.29   38.80
  -6   9   4 1078.89   40.50
   6  -9   4 1110.89   43.00
   6   9  -4 1133.09   40.90
   6  -9  -4 1058.19   52.49
  -6  -9   4 1132.59   45.10
   6   9   4 1108.19   42.10
   7   9   0  216.98   13.20
  -7   9   0  188.58   13.70
   7  -9   0  215.08   21.40
  -7  -9   0  198.38   15.50
  -7  -9   0  192.68   14.00
  -7   9   1   35.50    6.10
  -7  -9  -1   38.70    8.70
   7   9  -1   45.10    7.60
   7  -9   1   30.30    9.60
  -7   9   1   40.00    7.80
  -7   9  -1   20.60    6.50
  -7  -9   1   45.00    8.50
   7   9   1   42.40    8.00
  -7  -9   1   38.60    8.70
   7  -9  -1   30.70    9.20
  -7   9   2  166.58   14.10
   7   9  -2  172.98   14.40
  -7  -9  -2  161.68   16.50
  -7   9   2  148.29   11.40
  -7   9  -2  171.38   18.50
   7  -9  -2  180.98   19.70
   7   9   2  155.58   14.20
  -7  -9   2  175.58   16.10
  -7   9  -2  155.18   13.90
   7   9  -3   29.20    7.70
  -7  -9  -3   25.80    8.90
   7  -9   3   25.30    7.50
  -7   9   3   29.00    7.50
  -7   9   3   29.60    7.30
   7   9   3   26.90    7.40
   7  -9  -3   31.10   10.50
  -7  -9   3   28.00    9.00
  -7   9  -3   19.90    8.70
  -8  -9   0  823.12   34.30
   8  -9   0  867.51   41.30
  -8  -9   0  824.12   36.00
   8   9   0  820.82   31.70
  -8   9   0  782.22   33.30
  -8   9   1   16.80    7.00
   8  -9   1   14.00    9.30
   8   9  -1   21.30    6.60
  -8  -9  -1   17.40    6.70
  -8  -9  -1    6.20    6.90
   8  -9  -1   15.40    8.60
  -8  -9   1   11.80    6.00
  -8   9  -1   16.30    7.00
  -8  -9  -2  709.13   33.90
  -8   9   2  649.93   27.00
  -8   9   2  630.44   29.00
   8   9  -2  727.33   30.10
  -8   9  -2  644.84   35.30
  -8   9  -2  643.44   28.70
   8  -9  -2  674.53   36.00
   8   9   2  662.93   29.60
  -8  -9   2  691.33   31.50
   9  -9   0    5.30    8.50
  -9  -9  -1   20.80    8.80
   9  -9  -1   35.90   11.80
   0 -10   0 1934.11   71.29
   0 -10   0 2077.09   62.89
   0  10   0 2126.19   58.19
   0  10   0 2069.39   57.19
   0 -10  -1    0.80    2.70
   0 -10  -1   12.10    4.50
   0 -10   1   -0.20    2.40
   0  10   1    4.40    2.20
   0  10   1    4.30    2.40
   0  10  -1    0.40    2.40
   0  10  -1    1.70    2.10
   0 -10   1    2.60    2.90
   0 -10  -2 1518.85   55.99
   0  10  -2 1538.55   53.59
   0  10   2 1525.35   46.90
   0 -10   2 1487.85   49.70
   0  10  -2 1530.15   45.90
   0 -10  -2 1509.05   49.50
   0  10   2 1639.14   43.00
   0 -10   2 1609.94   43.40
   0  10  -3    0.00    3.20
   0 -10  -3   -1.80    3.90
   0 -10  -3   22.90    5.20
   0 -10   3    1.70    3.60
   0  10   3    0.40    3.10
   0  10  -3    0.70    3.60
   0 -10  -4  952.90   39.40
   0  10  -4  860.11   30.30
   0 -10   4  801.92   33.10
   0  10   4  809.32   31.20
   0  10  -4  828.92   34.70
   0 -10   5    1.20    5.70
   0  10  -5    6.50    5.10
   0 -10  -5   12.50    7.00
   0  10   5    1.60    5.00
   1  10   0  395.56   14.40
   1 -10   0  410.86   15.80
   1 -10   0  409.16   21.60
  -1  10   0  418.56   14.10
  -1  10   0  407.36   15.10
   1  10   0  411.96   15.50
  -1 -10   0  385.16   17.60
  -1 -10   0  402.66   18.80
  -1 -10  -1  515.45   21.10
   1  10  -1  508.65   18.50
  -1 -10  -1  522.15   22.00
   1  10  -1  480.65   17.70
   1 -10   1  485.65   18.90
   1 -10   1  426.96   23.40
  -1  10   1  490.55   17.00
  -1  10   1  494.55   17.60
  -1  10  -1  504.25   18.30
  -1 -10   1  502.35   20.90
   1  10   1  504.35   16.20
  -1 -10   1  522.35   19.60
   1 -10  -1  537.05   18.70
  -1  10  -1  509.75   16.00
   1 -10  -1  515.75   24.60
   1  10   1  508.65   18.60
   1  10  -2  309.37   13.40
  -1  10   2  320.27   13.40
  -1  10   2  310.17   11.80
   1  10  -2  279.17   13.10
   1 -10   2  296.87   14.20
  -1 -10  -2  300.17   15.20
  -1 -10  -2  294.57   16.00
   1 -10  -2  304.67   17.90
  -1  10  -2  315.07   16.80
  -1 -10   2  283.77   15.00
   1  10   2  306.17   10.10
   1 -10  -2  319.67   13.60
  -1 -10   2  295.97   12.60
  -1  10  -2  302.07   13.50
   1  10  -3  294.37   14.20
  -1  10   3  281.37   14.00
  -1 -10  -3  305.37   15.80
   1 -10   3  307.37   15.60
   1  10  -3  301.47   14.50
  -1 -10  -3  284.47   17.20
   1 -10  -3  282.77   18.30
  -1  10  -3  276.17   16.30
   1  10   3  281.17   14.50
  -1 -10   3  275.97   15.40
  -1  10  -3  305.87   14.10
  -1 -10  -4  162.08   14.10
  -1 -10  -4  163.58   12.20
   1  10  -4  178.38   11.70
  -1  10   4  166.38   11.60
   1 -10   4  124.39   12.30
  -1 -10   4  142.09   13.20
  -1  10  -4  150.38   13.00
   1 -10  -4  148.39   15.90
   1  10   4  170.18   11.90
  -1  10  -4  150.68   10.80
   1  10  -5  169.88   12.50
  -1 -10  -5  129.29   16.00
   1 -10   5  150.28   14.50
  -1  10   5  127.59   13.00
   1  10   5  143.59   13.40
  -1  10  -5  147.09   15.50
   1 -10  -5  153.48   17.50
  -1 -10   5  133.19   14.00
  -2 -10   0   87.99    6.90
  -2 -10   0   86.89    9.20
   2 -10   0   83.59   11.00
  -2  10   0   90.69    6.70
   2 -10   0   87.89    5.50
  -2  10   0   84.59    5.00
   2  10   0   86.89    5.60
   2  10   0   74.69    7.10
  -2  10   1  971.30   31.30
   2 -10   1 1027.60   33.30
   2  10  -1 1085.19   33.20
   2  10  -1 1024.80   31.60
   2  10  -1 1057.89   33.90
  -2  10   1 1012.70   31.30
  -2 -10  -1  979.60   36.70
   2 -10   1  922.61   42.40
  -2 -10  -1 1075.89   37.10
   2 -10  -1 1013.50   43.00
  -2 -10   1 1046.40   37.10
   2  10   1 1044.00   29.60
   2 -10  -1 1030.60   31.40
   2  10   1  986.90   33.30
  -2  10  -1 1043.30   32.60
  -2  10  -1 1006.40   28.40
   2  10  -2   70.19    7.10
   2 -10   2   60.59    6.70
  -2 -10  -2   55.49    8.00
  -2  10   2   66.59    6.60
  -2 -10  -2   65.29    7.70
  -2  10   2   77.99    6.50
  -2 -10   2   67.39    7.10
  -2 -10   2   52.09    7.70
  -2  10  -2   72.19    9.90
   2 -10  -2   66.99   10.10
  -2  10  -2   61.29    6.70
   2  10   2   75.29    7.90
   2  10  -3  609.94   23.40
  -2  10   3  615.14   23.80
  -2 -10  -3  569.74   27.10
  -2  10   3  649.43   21.30
   2 -10   3  588.94   24.70
  -2 -10  -3  652.93   26.90
   2  10   3  637.64   24.60
  -2  10  -3  627.64   23.50
   2 -10  -3  599.64   30.60
  -2  10  -3  612.64   28.90
  -2 -10   3  641.84   22.90
  -2 -10   3  612.84   26.20
  -2 -10  -4   40.30    8.10
   2  10  -4   47.70    7.50
  -2  10   4   21.40    5.60
  -2 -10  -4   19.00    7.20
   2 -10   4   23.60    6.30
   2  10   4   32.50    6.70
  -2  10  -4   32.60    6.20
  -2 -10   4   35.70    7.90
   2 -10  -4   33.70    9.20
  -2  10  -4   31.70    8.10
  -2 -10  -5  297.17   18.90
  -2  10   5  320.57   18.30
   2 -10   5  293.77   19.10
   2  10  -5  339.27   17.80
  -2 -10  -5  307.67   21.60
  -2  10  -5  329.87   22.20
  -2 -10   5  341.27   20.10
   2 -10  -5  306.47   23.60
   2  10   5  302.37   18.20
   3 -10   0  390.56   14.20
   3  10   0  379.66   17.20
   3 -10   0  424.56   23.90
  -3  10   0  426.66   13.90
   3  10   0  402.56   15.00
  -3 -10   0  359.06   19.00
  -3  10   0  403.96   16.60
   3  10  -1  265.77   11.90
   3 -10   1  259.27   11.50
   3 -10   1  236.28   18.10
  -3  10   1  251.87   12.20
  -3 -10  -1  258.87   15.20
  -3 -10  -1  253.57   12.20
  -3  10   1  256.57   11.10
   3 -10  -1  282.17   19.10
  -3  10  -1  258.47   12.70
  -3 -10   1  251.47   15.40
   3  10   1  239.38   13.00
   3  10   1  259.67   10.40
  -3  10   2  302.37   13.70
  -3  10   2  315.27   13.80
   3  10  -2  298.07   14.00
  -3 -10  -2  288.17   16.80
  -3 -10  -2  324.07   15.80
   3 -10   2  319.87   14.70
   3  10   2  308.17   15.50
  -3  10  -2  318.97   14.90
  -3 -10   2  332.07   16.00
  -3 -10   2  298.47   17.30
  -3  10  -2  268.97   18.70
   3 -10  -2  310.57   20.30
  -3 -10  -3  179.78   12.70
   3 -10   3  176.38   11.40
   3  10  -3  160.38   10.80
  -3 -10  -3  190.88   13.60
  -3  10   3  165.58   11.20
  -3  10   3  186.48   10.20
  -3  10  -3  156.18   16.10
  -3  10  -3  170.48   11.30
   3  10   3  176.18   11.80
  -3 -10   3  154.68   12.50
   3 -10  -3  176.88   18.10
  -3 -10   3  196.58   12.40
   3  10  -4  180.78   12.40
  -3 -10  -4  167.48   13.60
  -3 -10  -4  156.38   13.80
   3 -10   4  178.18   13.10
  -3  10   4  154.48   11.80
  -3 -10   4  151.18   14.40
  -3  10  -4  181.88   16.10
   3 -10  -4  189.78   19.40
   3  10   4  151.98   13.70
  -3  10  -4  171.38   11.70
  -3  10   5   94.19   11.80
   3  10  -5   88.79   10.70
  -3 -10  -5   88.99   12.30
  -3 -10  -5   83.29   12.80
   3 -10   5   72.59   10.90
   3 -10  -5   94.99   15.60
  -3 -10   5  102.99   12.90
  -3  10  -5   77.29   13.60
   3  10   5   86.19   11.60
   4 -10   0  180.68    8.10
  -4 -10   0  173.48   13.00
  -4  10   0  180.18    8.20
   4  10   0  171.28    9.50
  -4  10   0  184.78   11.20
   4  10   0  175.68   11.40
   4 -10   0  175.88   15.60
  -4  10   1  118.49    7.70
  -4  10   1  137.69    9.60
   4 -10   1  121.69   14.60
  -4 -10  -1  140.19   13.20
   4 -10   1  124.59    7.70
   4  10  -1  133.79    8.70
  -4  10  -1  149.09   10.10
   4  10   1  136.49    7.70
   4  10   1  117.19   10.60
   4 -10  -1  140.89   15.70
  -4 -10   1  131.19    9.90
  -4 -10   1  120.09   12.60
   4  10  -2  133.09    9.50
  -4  10   2  135.89    9.10
  -4 -10  -2  130.49    9.50
  -4  10   2  149.99    9.50
  -4 -10  -2  134.99   13.20
   4 -10   2  120.19    9.00
   4  10   2  105.29   10.50
  -4  10  -2  137.49   10.20
  -4  10  -2  144.29   15.60
   4 -10  -2  117.49   15.20
  -4 -10   2  138.59   12.30
  -4 -10   2  147.49   14.00
  -4  10   3   76.99    8.10
   4 -10   3   85.69    9.60
  -4 -10  -3   95.09   10.30
  -4  10   3   84.39    9.10
  -4 -10  -3   98.19   11.80
   4  10  -3   85.69    9.10
   4 -10  -3   75.99   12.60
  -4  10  -3   88.79    9.50
  -4 -10   3   78.09   10.00
   4  10   3   74.69    9.70
  -4 -10   3   90.99   11.50
  -4  10  -3   85.59   12.80
   4  10  -4   69.59    9.40
  -4  10   4   85.29   10.40
  -4 -10  -4   65.69   10.80
   4 -10   4   82.29   10.40
  -4 -10  -4   72.79   10.80
  -4 -10   4   80.59   11.30
  -4  10  -4   62.69   12.30
   4  10   4   79.99   10.30
   4 -10  -4   64.49   12.50
  -4 -10  -5   37.90    9.70
   4  10   5   30.30    8.70
  -5  10   0  626.74   21.10
  -5 -10   0  666.53   29.00
   5 -10   0  645.04   32.70
   5  10   0  630.74   22.90
   5  10   0  620.54   25.80
  -5  10   0  644.84   25.00
   5 -10   1  450.95   18.00
  -5 -10  -1  475.85   23.80
   5 -10   1  458.65   27.10
  -5  10   1  449.26   20.00
   5  10  -1  447.36   18.90
  -5  10   1  454.95   17.70
  -5  10  -1  477.45   20.60
   5  10   1  476.25   21.40
  -5 -10   1  457.45   23.50
   5 -10  -1  496.15   28.00
  -5 -10   1  436.76   20.90
   5 -10   2  492.45   20.50
  -5 -10  -2  497.75   25.10
  -5  10   2  484.35   20.50
   5  10  -2  459.25   20.40
  -5  10   2  475.15   19.80
  -5  10  -2  509.65   21.70
   5 -10  -2  514.75   30.30
  -5  10  -2  501.55   28.20
   5  10   2  481.35   22.60
  -5 -10   2  480.35   25.20
  -5 -10   2  533.95   24.10
   5  10  -3  275.17   15.90
  -5  10   3  290.07   15.30
  -5 -10  -3  326.87   20.40
  -5  10   3  282.27   15.40
   5 -10   3  286.67   16.30
  -5  10  -3  261.67   15.70
  -5 -10   3  288.47   18.40
  -5 -10   3  311.07   19.40
  -5  10  -3  296.17   21.80
   5  10   3  323.37   18.00
   5 -10  -3  301.47   23.40
   5 -10   4  303.37   18.30
  -5 -10  -4  305.07   19.30
  -5 -10  -4  320.57   21.50
  -5  10   4  317.77   18.00
   5  10  -4  332.87   18.30
  -5 -10   4  286.97   19.40
   5  10   4  328.37   19.00
   5 -10  -4  314.57   24.60
  -5  10  -4  282.67   22.90
   6 -10   0  815.02   40.00
   6  10   0  851.81   29.30
  -6 -10   0  874.81   35.40
  -6 -10   0  795.22   31.80
  -6  10   0  783.82   30.80
   6  10  -1  227.98   13.80
  -6  10   1  237.28   12.10
  -6 -10  -1  234.08   17.00
   6 -10   1  253.17   20.50
  -6  10   1  272.97   15.40
  -6  10  -1  219.98   14.10
   6  10   1  206.88   14.30
  -6 -10   1  270.37   17.50
  -6 -10   1  250.07   15.60
   6 -10  -1  236.88   19.40
   6  10  -2  708.23   27.60
   6 -10   2  708.93   27.10
  -6  10   2  645.44   25.70
  -6  10   2  665.83   27.10
  -6 -10  -2  706.23   32.50
   6  10   2  663.23   28.70
   6 -10  -2  723.23   37.20
  -6  10  -2  654.43   35.10
  -6  10  -2  701.43   27.90
  -6 -10   2  708.83   32.80
  -6 -10   2  674.13   30.20
  -6  10   3  172.78   12.30
   6 -10   3  172.58   13.10
   6  10  -3  170.08   12.90
  -6 -10  -3  174.98   17.40
  -6  10   3  177.38   12.70
   6  10   3  173.38   15.30
  -6 -10   3  169.88   16.70
  -6  10  -3  171.98   14.50
  -6  10  -3  146.49   18.10
   6 -10  -3  147.99   19.30
   6 -10   4  448.76   23.30
  -6 -10   4  424.66   25.40
   6  10   4  404.16   23.00
   6 -10  -4  450.55   30.90
  -7 -10   0    8.40    6.50
   7  10   0   12.10    5.50
   7 -10   0   20.40    9.60
  -7 -10   0    4.50    5.30
  -7  10   0    8.00    5.50
   7 -10   1 1976.10   76.99
  -7 -10  -1 2002.90   68.59
  -7  10   1 1881.21   61.29
   7  10  -1 1898.51   59.69
  -7  10  -1 1920.71   61.39
  -7 -10   1 1867.61   63.39
   7  10   1 1851.81   62.49
  -7 -10   1 1950.40   67.29
   7 -10  -1 1900.61   75.39
   7  10  -2    5.70    5.80
  -7  10   2    6.30    4.60
  -7  10   2   28.90    7.50
  -7 -10  -2   11.90    7.50
  -7 -10   2   10.80    7.40
  -7  10  -2    8.10    7.70
  -7 -10   2   13.70    6.60
  -7  10  -2    1.50    5.40
   7 -10  -2   15.40    9.20
   7  10   2   17.30    6.70
  -7  10   3 1383.46   47.00
   7  10  -3 1375.36   47.60
  -7  10   3 1319.47   46.30
   7  10   3 1377.46   49.60
   7 -10  -3 1317.17   60.09
  -7 -10   3 1413.26   52.39
  -7  10  -3 1265.27   58.69
  -8  10   0   12.10    6.70
  -8 -10   0   35.40    9.10
  -8 -10   0   10.50    6.60
   8 -10   0   22.50    9.90
   8 -10   1   22.60   10.30
   8  10  -1   22.80    7.30
  -8  10   1   32.90    8.00
  -8 -10  -1   26.80    8.90
  -8 -10  -1   19.50    7.40
  -8 -10   1   21.20    7.60
   8 -10  -1   24.50    9.80
  -8  10  -1   31.00    8.40
   8  10  -2    8.20    6.50
  -8  10   2    5.00    4.90
  -8 -10  -2    3.80    7.30
   8  10   2   16.90    7.30
  -8  10  -2   13.90    7.00
   8 -10  -2   22.20   10.20
   0  11   0    4.80    2.30
   0 -11   0    3.20    4.00
   0 -11   0   -1.50    2.60
   0  11   0    4.30    2.70
   0 -11  -1   30.70    6.30
   0  11   1   22.20    4.10
   0 -11   1   16.80    4.50
   0  11  -1   13.80    3.20
   0 -11   1   28.80    5.70
   0  11   1   24.90    3.60
   0 -11  -1   19.20    4.60
   0  11  -1   23.10    4.20
   0  11  -2    2.40    2.80
   0  11   2    3.20    2.20
   0  11   2    0.30    2.60
   0 -11  -2    0.80    3.10
   0  11  -2    1.50    3.10
   0 -11  -2   -0.40    3.50
   0 -11   2    1.10    3.20
   0  11  -3   20.50    5.30
   0 -11  -3   22.00    6.80
   0  11   3   23.50    5.10
   0 -11   3   27.30    5.80
   0  11  -3   22.60    4.90
   0 -11  -3   21.00    5.40
   0 -11   4    0.70    4.50
   0  11   4   -2.50    4.20
   0  11  -4   -1.00    4.10
   0 -11  -4   -2.10    5.50
   0  11  -4   -6.30    4.00
   0  11   5    6.60    5.70
   0  11  -5    6.80    5.50
   0 -11   5    1.20    5.30
   0 -11  -5   10.30    7.10
  -1 -11   0  144.99   10.10
   1  11   0  148.49    7.90
  -1 -11   0  149.29   10.60
   1 -11   0  140.09   12.60
   1 -11   0  128.29    8.20
  -1  11   0  155.78    7.50
   1  11   0  147.79    8.50
  -1  11   0  150.78    8.50
   1 -11   1 3302.17   97.89
  -1  11   1 3294.87   92.39
   1  11  -1 3398.76   91.19
  -1 -11  -1 3389.56  109.89
   1  11  -1 3455.85   93.69
  -1  11   1 3299.07   90.09
   1 -11   1 2951.40  111.99
  -1 -11  -1 3276.97  100.09
   1  11   1 3398.36   88.99
  -1  11  -1 3358.76   91.59
   1 -11  -1 3214.28  113.19
  -1  11  -1 3363.56   90.59
   1  11   1 3395.26   93.79
  -1 -11   1 3287.17  100.19
   1 -11  -1 3496.75   97.29
  -1 -11   1 3330.57  106.59
   1  11  -2  102.89    7.70
   1  11  -2  101.99    7.10
  -1  11   2  103.39    7.50
  -1 -11  -2  112.69    9.80
  -1  11   2  109.29    6.50
   1 -11   2  109.29    8.50
  -1 -11  -2   91.59    9.60
   1 -11  -2  115.39    7.90
  -1  11  -2  113.39   11.40
  -1 -11   2  102.09    9.90
  -1  11  -2   90.09    8.20
   1  11   2   99.59    8.70
  -1 -11   2  105.79    7.10
   1 -11  -2   98.59   11.60
  -1 -11  -3 2153.18   77.89
   1 -11   3 2262.97   70.09
  -1  11   3 2214.58   66.29
  -1 -11  -3 2258.07   70.89
   1  11  -3 2154.78   64.59
  -1  11  -3 2256.07   77.09
  -1  11  -3 2204.38   64.59
   1 -11  -3 2184.68   79.99
  -1 -11   3 2183.68   70.99
   1  11   3 2183.18   66.79
  -1 -11  -4   27.00    8.10
   1 -11   4   46.80    7.90
  -1 -11  -4   52.39    8.60
   1  11  -4   53.39    7.80
  -1  11   4   56.49    8.20
  -1 -11   4   38.40    8.10
   1 -11  -4   58.19   10.50
   1  11   4   40.40    7.30
  -1  11  -4   65.99    9.70
  -1  11  -4   53.09    7.70
   1  11  -5 1121.29   39.90
  -1 -11  -5 1131.59   49.70
  -1  11   5 1107.79   41.70
   1 -11   5 1154.88   44.30
  -1 -11   5 1140.49   44.50
   1  11   5 1161.08   42.20
   1 -11  -5 1105.39   50.79
  -1  11  -5 1071.09   46.90
   2 -11   0  406.86   23.10
   2  11   0  397.96   15.00
  -2  11   0  389.76   15.90
  -2 -11   0  431.86   17.90
  -2  11   0  423.86   14.20
  -2 -11   0  386.66   19.10
   2  11   0  390.66   16.70
   2 -11   0  409.66   15.30
   2 -11   1   17.10    6.90
   2  11  -1   18.60    4.10
  -2 -11  -1   20.40    5.70
   2  11  -1    9.20    3.80
  -2 -11  -1   25.50    4.90
  -2  11   1   27.70    4.30
  -2  11   1   17.30    3.70
   2 -11   1   23.60    4.10
   2 -11  -1   23.30    7.30
  -2 -11   1   18.00    5.20
   2 -11  -1   22.90    3.40
   2  11   1   22.90    3.30
  -2  11  -1   21.20    4.40
   2 -11   2  291.47   14.30
  -2  11   2  328.57   14.00
   2  11  -2  306.57   14.10
  -2 -11  -2  297.17   16.00
  -2  11   2  303.17   12.90
  -2 -11  -2  320.37   16.90
  -2  11  -2  275.77   18.10
  -2 -11   2  313.87   14.70
   2  11   2  316.57   15.10
  -2 -11   2  313.17   17.10
  -2  11  -2  305.77   14.40
   2 -11  -2  312.27   19.90
   2 -11   3    9.70    4.40
   2  11  -3   14.90    4.60
  -2  11   3    8.10    4.40
  -2 -11  -3   14.00    5.50
  -2 -11  -3   12.30    5.80
   2  11   3   14.60    4.90
   2 -11  -3    9.30    6.00
  -2 -11   3   21.50    6.10
  -2  11  -3    8.90    4.60
  -2  11  -3    6.90    5.40
  -2  11   4  159.08   13.60
   2  11  -4  161.28   12.00
  -2 -11  -4  200.58   14.50
  -2 -11  -4  180.58   14.90
   2 -11   4  158.68   12.70
   2 -11  -4  153.08   17.40
  -2 -11   4  168.28   13.40
   2  11   4  184.48   13.00
  -2  11  -4  165.38   14.90
  -2  11  -4  159.68   11.50
  -2 -11  -5    1.90    6.20
  -2 -11  -5    5.00    6.50
  -2  11   5   12.80    6.70
   2  11  -5    0.40    5.30
   2 -11   5    4.80    5.80
   2  11   5    5.90    5.80
  -2  11  -5    7.40    7.20
   2 -11  -5    1.50    7.60
  -2 -11   5    4.40    6.50
   3  11   0 1849.91   53.89
   3 -11   0 1896.51   56.09
  -3  11   0 1882.71   55.99
   3 -11   0 1853.11   71.79
  -3 -11   0 1890.51   63.29
   3  11   0 1970.90   58.49
  -3  11   0 1940.21   53.39
  -3  11   1 3803.62  105.39
   3  11  -1 3713.33  104.29
   3 -11   1 3752.62  110.69
   3 -11   1 3698.13  132.69
  -3 -11  -1 3863.61  122.39
  -3 -11  -1 3739.43  116.59
  -3  11   1 3851.21  105.09
  -3  11  -1 3916.71  105.99
  -3 -11   1 3784.72  116.99
   3  11   1 3922.21  109.29
   3 -11  -1 3803.02  132.59
   3  11   1 4020.80  102.29
  -3  11   2 1483.75   45.80
  -3 -11  -2 1478.55   52.69
   3 -11   2 1457.85   47.90
  -3 -11  -2 1501.15   52.29
   3  11  -2 1472.45   45.80
  -3  11   2 1527.55   45.10
   3 -11  -2 1455.45   59.89
   3  11   2 1492.95   48.10
  -3  11  -2 1476.55   46.40
  -3 -11   2 1522.65   52.59
  -3 -11   2 1488.95   48.60
  -3 -11  -3 2682.33   88.99
  -3 -11  -3 2661.43   84.39
  -3  11   3 2658.63   73.29
  -3  11   3 2530.15   76.39
   3 -11   3 2492.55   80.09
   3  11  -3 2511.15   75.39
  -3  11  -3 2659.03   75.89
  -3  11  -3 2512.85   93.39
   3 -11  -3 2500.05   94.79
  -3 -11   3 2598.94   83.89
  -3 -11   3 2583.24   77.79
   3  11   3 2629.44   78.59
   3 -11   4  826.42   34.20
   3  11  -4  875.71   32.50
  -3 -11  -4  882.01   38.20
  -3  11   4  891.11   33.30
  -3 -11  -4  849.12   36.40
  -3  11  -4  897.21   41.10
   3 -11  -4  884.81   43.10
  -3  11  -4  885.31   32.20
   3  11   4  860.61   33.90
  -3 -11   4  869.01   36.60
  -3 -11  -5 1456.65   54.39
  -3 -11  -5 1383.66   57.79
   3  11  -5 1458.25   49.00
  -3 -11   5 1402.26   53.49
  -3  11  -5 1337.27   59.89
   3  11   5 1450.15   50.79
   4  11   0  126.29    8.40
  -4 -11   0  132.09   13.00
  -4  11   0  125.69    6.80
   4 -11   0  125.39   14.80
  -4  11   0  137.39    9.90
   4  11   0  127.59   11.30
   4 -11   1 2769.32   80.49
   4 -11   1 2738.43   99.99
  -4 -11  -1 2704.33   87.29
  -4  11   1 2763.62   77.99
   4  11  -1 2607.24   76.69
  -4  11   1 2728.03   76.89
   4  11   1 2833.92   74.89
   4  11   1 2727.13   81.29
  -4  11  -1 2729.53   78.59
  -4 -11   1 2638.54   81.09
  -4 -11   1 2622.94   87.09
   4 -11  -1 2751.12   99.39
   4  11  -2   88.59    8.80
   4 -11   2   97.69    8.90
  -4 -11  -2  101.09    8.70
  -4 -11  -2   94.49   11.50
  -4  11   2  102.59    8.80
  -4  11   2   95.89    8.90
  -4 -11   2  114.59   12.80
   4  11   2  106.69   11.10
  -4  11  -2   98.39    9.80
   4 -11  -2   79.09   13.20
  -4 -11   2   99.39   10.70
   4  11  -3 1868.61   58.29
  -4  11   3 1948.61   56.69
  -4 -11  -3 1921.51   67.09
  -4 -11  -3 1934.41   66.19
   4 -11   3 1895.01   61.39
  -4  11   3 1845.92   58.59
   4  11   3 1903.71   61.09
  -4 -11   3 1908.51   65.89
  -4  11  -3 1836.12   73.79
  -4 -11   3 1770.62   61.09
  -4  11  -3 1941.91   58.89
   4 -11  -3 1825.72   74.69
  -4 -11  -4   71.29   10.90
  -4 -11  -4   79.29   11.90
   4 -11   4   55.09    8.70
  -4  11   4   60.99    9.10
   4  11  -4   48.80    8.30
   4 -11  -4   74.69   13.90
  -4  11  -4   50.59   11.40
  -4  11  -4   76.59    9.60
  -4 -11   4   85.39   12.20
   4  11   4   66.99   10.00
   5  11   0  308.57   14.20
  -5 -11   0  287.77   17.90
   5 -11   0  289.77   20.90
   5  11   0  283.87   16.00
  -5  11   0  316.07   16.10
   5 -11   1 2392.86   89.19
   5  11  -1 2265.87   68.19
  -5  11   1 2386.46   67.79
  -5 -11  -1 2397.76   78.39
  -5  11   1 2385.56   69.99
  -5  11  -1 2346.47   70.19
   5  11   1 2306.47   72.39
  -5 -11   1 2229.68   77.59
  -5 -11   1 2372.06   72.59
   5 -11  -1 2363.96   88.79
  -5  11   2  229.28   13.70
  -5 -11  -2  231.48   16.90
   5 -11   2  259.47   13.70
   5  11  -2  297.37   14.80
  -5  11   2  262.27   13.60
  -5 -11   2  251.57   17.90
   5 -11  -2  287.87   22.10
  -5  11  -2  257.27   19.70
  -5  11  -2  251.77   14.80
  -5 -11   2  244.78   15.90
   5  11   2  245.28   15.70
  -5  11   3 1670.53   52.59
   5  11  -3 1610.54   52.29
   5 -11   3 1659.03   54.89
  -5 -11  -3 1663.53   59.99
  -5  11   3 1544.45   50.69
  -5 -11   3 1594.44   59.59
   5  11   3 1691.93   55.49
   5 -11  -3 1588.64   68.39
  -5  11  -3 1629.94   67.39
  -5 -11   3 1661.93   56.89
  -5  11  -3 1527.75   51.79
   5  11  -4  163.48   14.50
  -5  11   4  156.78   13.90
   5 -11   4  166.98   15.10
  -5 -11  -4  166.38   17.60
   5 -11  -4  125.09   18.50
  -5  11  -4  144.89   19.10
  -5 -11   4  139.19   15.70
   5  11   4  191.38   16.70
  -6 -11   0   17.70    7.10
   6  11   0   10.40    4.80
  -6  11   0   18.40    6.30
   6 -11   0    6.70    7.00
   6 -11   1   62.19   12.80
   6  11  -1   68.69    8.70
  -6 -11  -1   84.69   12.10
  -6  11   1   92.39   10.10
  -6  11   1   73.99    7.50
  -6 -11   1   69.19   10.90
   6  11   1   78.69   10.10
   6 -11  -1  100.69   14.60
  -6  11  -1   84.89   10.10
  -6 -11   1   84.99   10.60
  -6  11   2   12.80    4.70
  -6  11   2   14.80    5.50
   6  11  -2   10.80    5.20
  -6 -11  -2   13.50    6.90
   6  11   2   13.80    6.00
  -6  11  -2    7.50    5.50
  -6 -11   2    9.20    5.90
   6 -11  -2   22.20    9.30
  -6  11  -2   14.10    8.20
  -6 -11   2   13.20    7.50
   6  11  -3   71.89    9.80
  -6 -11  -3   63.49   11.70
  -6  11   3   54.19    8.50
   6 -11   3   54.29    9.00
  -6  11   3   51.39    8.50
  -6 -11   3   59.69   11.50
  -6  11  -3   62.39    9.60
  -6  11  -3   52.09   12.00
   6 -11  -3   54.69   13.40
   6  11   3   55.79    9.80
  -6 -11   3  109.99   13.80
  -6 -11   4   20.70    9.00
  -7  11   0   95.69   11.60
   7  11   0   79.89    9.50
  -7 -11   0   82.59   11.70
  -7 -11   0  103.59   12.10
   7 -11   0   95.19   16.20
  -7 -11  -1  522.55   27.30
  -7  11   1  535.15   24.50
   7 -11   1  531.15   31.70
   7  11  -1  532.15   23.10
   7 -11  -1  490.55   30.40
  -7 -11   1  501.75   25.00
  -7 -11   1  530.55   27.10
   7  11   1  465.75   24.10
  -7  11  -1  491.95   23.80
   7  11  -2   83.49   10.30
  -7  11   2   73.09   10.00
  -7  11   2   74.39    8.90
  -7 -11  -2   67.79   11.70
  -7  11  -2   95.09   11.60
  -7 -11   2   68.29   12.20
  -7 -11   2   92.49   12.30
  -7  11  -2   55.39   12.40
   7  11   2   66.99   10.60
   7 -11  -2  111.39   16.50
  -7  11   3  338.67   19.50
   7  11   3  352.46   21.10
  -7 -11   3  369.16   23.00
  -7  11  -3  381.26   20.60
   7 -11  -3  334.87   26.00
  -8 -11   0   22.40    7.90
  -8  11   0    9.10    6.40
   8 -11   0   26.70   10.70
  -8 -11   0   23.70    8.20
  -8 -11  -1   23.80    8.40
  -8 -11  -1   41.90   10.20
  -8  11   1   47.50    9.50
   8  11  -1   24.70    7.70
   8 -11   1   22.40   10.40
   8 -11  -1   16.70    9.40
  -8 -11   1   36.80    9.30
  -8 -11   1   38.10    9.00
  -8  11  -1   26.30    7.80
  -8  11  -2    9.80    7.00
   8 -11  -2   16.00    9.60
   0  12   0 4130.99  108.09
   0 -12   0 3926.11  117.29
   0  12   0 4086.59  110.19
   0 -12   0 3841.02  132.19
   0 -12  -1    2.10    3.20
   0  12  -1    5.60    2.90
   0 -12   1   15.10    4.40
   0  12   1    0.70    2.30
   0  12  -1    5.10    3.00
   0 -12  -1    0.70    4.00
   0  12   1    9.30    3.30
   0 -12   1    0.80    3.50
   0 -12  -2 3161.28   95.79
   0 -12  -2 3091.39  107.99
   0 -12   2 3107.79   96.29
   0  12   2 3176.28   90.99
   0  12  -2 3194.28  104.69
   0  12   2 3360.66   85.59
   0  12  -2 3185.48   88.99
   0  12   3    6.60    4.40
   0 -12   3    5.30    4.40
   0 -12  -3   -1.10    3.90
   0  12  -3   -0.50    3.70
   0 -12  -3    0.50    4.90
   0  12  -3    1.70    4.00
   0  12   4 1777.72   58.09
   0 -12  -4 1792.92   69.49
   0  12  -4 1817.72   56.29
   0 -12   4 1825.52   61.89
   0  12  -5   -0.90    5.30
   0 -12   5    5.00    6.40
   0 -12  -5   -1.20    6.10
   0  12   5    3.10    6.00
  -1  12   0  104.69    6.50
  -1  12   0  104.49    7.10
  -1 -12   0  120.59    9.70
   1  12   0   99.29    7.30
   1 -12   0  100.99    7.40
   1  12   0  105.69    7.00
  -1 -12   0   88.79    9.10
   1 -12   0  112.99   12.80
   1 -12   1 1757.42   55.19
  -1  12   1 1736.33   51.69
   1 -12   1 1543.35   64.29
  -1 -12  -1 1830.12   62.89
  -1  12   1 1767.02   50.39
   1  12  -1 1741.23   51.39
  -1 -12  -1 1770.72   57.29
   1  12  -1 1762.62   52.79
   1  12   1 1796.02   49.40
   1  12   1 1771.92   53.09
   1 -12  -1 1791.12   66.39
  -1 -12   1 1806.22   59.39
  -1 -12   1 1738.73   57.39
   1 -12  -1 1841.82   54.49
  -1  12  -1 1737.13   49.90
  -1  12  -1 1753.72   51.89
   1  12  -2   97.49    7.20
   1 -12   2   75.39    8.20
  -1  12   2   83.09    6.70
   1  12  -2   78.69    7.80
  -1 -12  -2   90.69    9.50
  -1 -12  -2   92.89   10.30
  -1  12   2   64.79    6.90
  -1 -12   2   69.09    6.80
  -1 -12   2   67.69    8.50
   1  12   2   84.19    8.30
   1 -12  -2   89.89    7.20
  -1  12  -2   63.19    7.20
   1 -12  -2   70.79   10.70
  -1  12  -2   72.39    9.60
  -1  12   3 1097.19   37.80
  -1 -12  -3 1179.48   45.50
  -1 -12  -3 1147.19   40.80
   1 -12   3 1071.09   39.80
   1  12  -3 1099.09   37.20
   1  12   3 1166.68   38.70
  -1  12  -3 1143.89   44.00
   1 -12  -3 1071.69   46.60
  -1  12  -3 1127.29   37.10
  -1 -12   3 1082.89   41.10
   1  12  -4   53.39    8.20
  -1 -12  -4   33.70    8.60
  -1 -12  -4   40.90    8.10
  -1  12   4   43.30    7.60
   1 -12   4   47.40    8.20
  -1  12  -4   43.90    8.60
  -1 -12   4   36.00    7.90
  -1  12  -4   35.80    7.20
   1 -12  -4   25.40    8.40
   1  12   4   35.20    7.00
   1  12  -5  636.24   26.70
  -1 -12  -5  598.24   32.70
  -1  12   5  642.04   28.00
   1 -12   5  601.24   29.10
   1 -12  -5  605.44   34.30
  -1  12  -5  574.84   25.70
  -1 -12   5  579.14   29.50
   1  12   5  571.84   27.10
  -2  12   0  142.09    7.20
  -2 -12   0  144.59    9.40
   2  12   0  124.99    9.10
   2 -12   0  121.79   14.00
  -2 -12   0  123.79   11.50
  -2  12   0  114.79    8.30
   2  12   0  132.49    7.90
   2 -12   0  142.99    7.90
   2  12  -1  241.48   12.90
  -2 -12  -1  266.47   14.20
   2  12  -1  242.78   11.70
  -2 -12  -1  227.08   14.40
   2 -12   1  211.98   11.40
   2 -12   1  179.28   16.40
  -2  12   1  240.68   11.50
  -2  12   1  241.28   10.90
   2 -12  -1  221.58   17.20
   2  12   1  239.28   10.10
   2  12   1  216.28   12.20
  -2 -12   1  260.47   15.00
  -2  12  -1  253.87   12.40
   2 -12  -1  248.28   10.50
   2  12  -2   93.69    8.40
  -2 -12  -2  102.49   10.90
  -2  12   2   92.89    8.30
  -2 -12  -2  110.99    9.60
  -2  12   2   90.49    7.50
   2 -12   2   85.89    8.40
  -2  12  -2   96.09   12.00
  -2 -12   2   80.49    9.90
   2  12   2   99.19    9.40
  -2  12  -2  111.59    9.60
  -2 -12   2   94.69    9.10
   2 -12  -2   95.19   12.40
   2  12  -3  138.39   10.30
  -2 -12  -3  130.09   12.70
  -2  12   3  142.79   10.20
   2 -12   3  135.09   10.60
  -2 -12  -3  168.38   13.00
  -2  12  -3  144.39   10.70
  -2  12  -3  149.88   13.50
  -2 -12   3  148.89   13.70
   2  12   3  128.79   11.30
   2 -12  -3  157.98   16.70
  -2 -12  -4   50.69    9.40
  -2 -12  -4   39.20    8.90
   2  12  -4   43.40    7.40
   2 -12   4   45.70    8.20
  -2  12   4   40.90    7.40
  -2  12  -4   39.60    7.50
  -2 -12   4   44.90    9.10
   2 -12  -4   58.39   11.60
  -2  12  -4   48.30    9.80
   2  12   4   36.80    7.90
   2  12  -5   85.09   10.70
  -2 -12  -5   85.39   13.30
  -2 -12   5   75.89   11.80
   2  12   5   95.49   12.00
  -2  12  -5   72.39   12.70
  -3  12   0   34.20    3.90
  -3 -12   0   36.80    7.10
   3 -12   0   32.50    4.10
  -3  12   0   24.10    5.00
   3 -12   0   30.10    8.60
   3  12   0   33.70    5.90
   3  12   0   26.50    4.50
   3 -12   1  989.90   33.50
  -3  12   1 1008.80   33.30
  -3 -12  -1 1007.70   38.80
   3  12  -1  983.80   32.70
   3  12  -1 1025.10   35.60
   3 -12   1 1077.89   47.30
  -3  12   1 1038.80   32.10
  -3  12  -1 1020.20   34.10
  -3 -12   1 1002.70   39.20
   3  12   1 1034.90   30.70
   3  12   1 1009.20   35.40
  -3  12   2   23.00    4.80
   3  12  -2   26.30    5.30
   3 -12   2   19.30    4.60
  -3 -12  -2   27.10    5.90
  -3 -12  -2   23.60    6.60
  -3  12   2   17.30    4.70
  -3  12  -2   18.90    5.30
  -3 -12   2   21.20    5.80
   3 -12  -2   18.80    7.60
   3  12   2   29.00    6.00
  -3 -12   2   30.30    7.30
  -3 -12  -3  711.73   30.30
  -3 -12  -3  664.63   29.90
  -3  12   3  690.03   24.00
   3  12  -3  644.74   25.80
   3 -12   3  631.64   26.80
  -3  12   3  649.14   25.70
   3  12   3  643.54   27.20
   3 -12  -3  710.63   35.80
  -3 -12   3  705.03   30.90
  -3  12  -3  674.83   26.30
  -3  12  -3  650.43   33.80
  -3 -12  -4   36.20    8.60
  -3 -12  -4    2.40    5.80
  -3  12   4   15.30    5.80
   3  12  -4   10.40    5.60
   3 -12   4    5.50    5.10
  -3  12  -4   13.40    5.90
   3  12   4    4.60    5.60
  -3  12  -4   12.40    7.60
  -3 -12   4   13.10    7.10
   3 -12  -4    0.60    6.70
  -3 -12  -5  401.86   23.90
  -3 -12   5  342.57   22.40
   4  12   0   12.40    3.90
   4 -12   0   25.80    8.20
   4  12   0   16.10    5.10
  -4  12   0   15.80    4.90
  -4 -12   0    6.10    5.00
  -4 -12  -1  267.77   17.30
   4 -12   1  285.87   12.90
   4  12  -1  281.57   13.50
  -4  12   1  275.67   14.40
   4 -12   1  269.27   21.50
  -4  12   1  264.77   12.20
   4 -12  -1  282.27   21.20
  -4  12  -1  263.27   14.40
  -4 -12   1  256.57   15.00
   4  12   1  285.57   15.50
  -4 -12   1  242.78   16.60
   4 -12   2    8.00    4.10
   4  12  -2    7.90    4.20
  -4  12   2   10.40    4.70
  -4 -12  -2   17.70    6.80
  -4  12   2    5.30    3.90
  -4 -12   2   10.70    5.90
   4  12   2   11.90    5.20
  -4  12  -2    7.40    4.90
  -4 -12   2   14.00    6.10
   4 -12  -2    5.10    6.80
  -4  12   3  188.88   12.20
   4 -12   3  186.58   12.40
  -4  12   3  185.28   11.50
  -4 -12  -3  176.28   16.50
  -4 -12  -3  165.08   13.10
   4  12  -3  189.88   12.80
  -4 -12   3  187.48   17.60
  -4 -12   3  175.28   15.40
  -4  12  -3  165.98   19.10
   4  12   3  165.98   12.90
  -4  12  -3  170.38   12.30
   4 -12  -3  171.18   19.50
   4 -12   4    8.60    5.50
  -4 -12  -4    8.10    6.30
   4  12  -4    6.60    5.10
  -4  12   4    3.90    5.40
  -4 -12  -4   17.60    7.80
  -4 -12   4    8.70    6.80
  -4  12  -4    6.30    5.30
   4  12   4   -1.40    5.80
   4 -12  -4   11.20    8.50
  -4  12  -4   13.50    7.90
  -5 -12   0   85.89   11.40
   5 -12   0   88.29   13.90
   5  12   0   91.69    8.50
  -5  12   0   75.19    8.90
   5  12   0   67.59    9.00
  -5  12   1  412.46   19.30
   5 -12   1  395.56   26.60
   5  12  -1  395.26   18.00
  -5 -12  -1  418.76   23.00
  -5  12   1  417.66   16.90
   5 -12  -1  467.55   27.90
  -5  12  -1  427.76   19.80
  -5 -12   1  393.76   20.20
  -5 -12   1  425.56   22.90
   5  12   1  451.45   21.10
  -5  12   2   61.99    8.20
  -5  12   2   60.89    7.50
   5  12  -2   58.89    8.00
  -5 -12  -2   52.69    9.80
   5 -12   2   71.79    8.00
  -5 -12   2   57.19   10.70
  -5  12  -2   53.69    8.60
  -5 -12   2   61.79    9.70
   5 -12  -2   58.19   12.70
   5  12   2   56.19    9.10
  -5  12   3  295.17   15.90
  -5  12   3  298.67   15.90
   5  12  -3  267.47   15.90
   5 -12   3  300.37   16.70
  -5 -12  -3  275.27   19.20
  -5  12  -3  296.37   23.10
  -5 -12   3  304.07   20.70
  -5 -12   3  279.47   18.60
   5 -12  -3  300.67   24.00
   5  12   3  301.87   18.00
  -5  12  -3  281.87   16.40
  -5  12   4   45.30    8.90
   5  12  -4   43.00    8.70
   5 -12   4   18.80    7.30
  -5 -12  -4   54.29   11.40
  -5  12  -4   27.60   10.60
  -5 -12   4   27.10    9.10
   5 -12  -4   46.70   13.00
   5  12   4   29.50    8.60
   6 -12   0    3.70    7.40
   6  12   0    5.60    4.50
  -6  12   0    7.90    5.50
  -6 -12   0    5.80    5.80
  -6 -12  -1  139.39   15.30
  -6  12   1  129.29   12.30
   6 -12   1  159.28   19.40
   6  12  -1  153.28   12.50
  -6 -12   1  142.29   13.50
  -6 -12   1  172.08   16.40
  -6  12  -1  149.69   13.30
   6  12   1  142.19   13.40
   6 -12  -1  148.59   18.00
  -6  12   2    0.80    4.40
  -6 -12  -2    4.80    6.60
   6  12  -2   -1.30    4.70
  -6  12   2    6.80    4.60
  -6  12  -2   -3.30    6.50
  -6  12  -2    9.40    6.00
  -6 -12   2    0.50    5.80
   6  12   2   16.70    6.20
  -6 -12   2    3.50    5.70
   6 -12  -2   -1.80    7.20
  -6 -12  -3  101.79   13.90
  -6  12   3  101.19   11.30
  -6  12   3   83.19    9.80
   6  12  -3  113.69   12.20
   6 -12   3   94.79   11.20
   6  12   3  132.89   13.90
  -6  12  -3  109.99   16.40
   6 -12  -3  105.49   17.30
  -6  12  -3  121.19   12.60
  -6 -12   3  141.19   15.60
  -6 -12   3   89.29   13.50
   7 -12   0  310.97   24.90
  -7 -12   0  240.48   16.40
  -7 -12   0  237.68   18.00
  -7  12   0  257.57   16.60
  -7  12   1  127.49   13.20
  -7 -12  -1  126.19   14.80
   7  12  -1  102.39   11.10
   7 -12   1  118.29   17.20
  -7 -12   1  106.79   13.00
  -7  12  -1  113.69   12.60
   7  12   1   86.29   11.50
  -7 -12   1  119.19   14.20
   7 -12  -1  107.89   16.00
   7  12  -2  182.88   13.70
  -7 -12  -2  194.18   18.90
  -7  12   2  198.08   12.90
  -7  12   2  206.38   14.90
  -7 -12   2  185.48   17.20
  -7  12  -2  171.68   15.70
  -7  12  -2  206.78   21.10
   7  12   2  195.98   17.00
  -7 -12   2  174.58   18.20
   7 -12  -2  231.18   23.30
  -7  12   3   69.09   10.00
  -7  12  -3   76.59   11.20
   8 -12   0 2109.09   80.99
  -8  12   0 1939.11   65.09
  -8 -12   0 1942.01   69.89
  -8 -12   0 1911.81   66.19
  -8 -12  -1  111.99   14.60
   8  12  -1  108.19   12.30
   8 -12  -1  108.19   16.60
  -8 -12   1  130.09   15.10
  -8  12  -1  125.19   14.00
   0  13   0    8.80    3.30
   0  13   0    4.20    2.80
   0 -13   0   11.60    5.60
   0 -13   0    6.70    3.90
   0 -13   1 1801.12   58.89
   0 -13  -1 1775.12   58.09
   0 -13  -1 1966.40   68.49
   0  13  -1 1812.82   54.09
   0  13   1 1913.61   52.49
   0 -13   1 1813.02   65.39
   0  13   1 1845.12   54.79
   0  13  -1 1804.62   53.79
   0  13   2    4.40    3.30
   0  13  -2   -2.60    2.90
   0  13   2   -0.90    2.50
   0  13  -2    0.30    3.50
   0 -13  -2    4.30    3.80
   0 -13   2   -0.30    3.40
   0 -13  -2    1.50    4.60
   0  13  -3 1155.78   39.20
   0  13   3 1200.58   40.40
   0 -13   3 1135.39   42.80
   0 -13  -3 1212.18   41.90
   0 -13  -3 1194.88   48.70
   0  13  -3 1201.58   44.50
   0  13  -4    7.30    5.00
   0 -13  -4    5.90    6.40
   0  13   4    1.60    4.50
   0 -13   4    5.00    5.30
   0  13  -5  645.04   27.90
  -1  13   0    2.40    3.20
   1  13   0    6.00    3.30
  -1 -13   0   43.60    7.00
   1  13   0    2.00    2.80
   1 -13   0    6.50    3.40
  -1  13   0    2.30    2.30
   1 -13   0    7.00    5.30
  -1 -13   0    6.00    4.10
  -1 -13  -1    3.50    4.10
   1  13  -1    2.30    3.30
   1  13  -1    8.50    3.50
  -1  13   1    6.90    3.20
  -1 -13  -1   -0.60    3.80
   1 -13   1   11.00    3.90
   1 -13   1   -2.20    4.60
  -1  13   1    6.30    3.20
   1 -13  -1    5.00    5.60
  -1 -13   1    4.20    3.40
  -1  13  -1    6.20    3.60
  -1 -13   1    3.80    3.90
   1 -13  -1    1.20    3.20
   1  13   1    4.50    3.20
   1  13   1    7.20    2.90
   1 -13   2    6.50    3.90
  -1 -13  -2    3.80    4.30
  -1  13   2    4.50    2.90
   1  13  -2   -0.50    3.30
  -1 -13  -2    3.50    4.50
  -1  13   2    7.80    3.60
  -1 -13   2    2.70    4.10
   1 -13  -2   21.50    7.20
   1  13   2    3.40    3.60
   1 -13  -2    5.00    3.50
  -1  13  -2   -1.40    3.10
  -1  13  -2   -3.20    4.20
   1 -13   3   -0.20    3.60
  -1  13   3    6.50    4.00
  -1 -13  -3    2.30    5.10
   1  13  -3    7.30    4.80
  -1 -13  -3    3.70    4.70
   1 -13  -3    0.60    5.60
   1  13   3    4.70    4.10
  -1 -13   3    4.20    4.60
  -1  13  -3   10.90    5.80
  -1  13  -3    7.50    4.50
   1  13  -4    3.90    4.70
  -1 -13  -4   -2.30    5.90
   1 -13   4    3.00    4.90
  -1  13   4    6.50    4.90
   1  13   4    5.20    5.00
  -1  13  -4    5.20    5.30
  -1 -13   4   10.70    5.90
   1 -13  -4   11.20    7.40
  -1  13  -4    3.70    4.50
   1  13  -5    0.70    5.30
  -1 -13  -5   15.40    8.70
  -1  13  -5   10.00    5.80
  -2 -13   0  601.94   26.70
   2  13   0  628.14   22.00
   2 -13   0  658.83   32.50
   2  13   0  641.94   24.40
  -2  13   0  682.73   23.60
  -2  13   0  669.43   21.40
   2 -13   0  624.14   22.70
   2  13  -1 1713.63   52.19
   2 -13   1 1662.83   52.29
  -2  13   1 1669.73   49.50
  -2 -13  -1 1615.24   56.09
   2  13  -1 1662.13   49.70
  -2 -13  -1 1757.42   59.49
   2 -13   1 1528.25   64.69
  -2  13   1 1618.94   49.00
   2  13   1 1690.03   52.19
   2 -13  -1 1623.64   50.29
  -2  13  -1 1627.74   50.19
   2  13   1 1703.03   47.30
   2 -13  -1 1647.94   65.39
  -2 -13   1 1729.43   56.99
  -2  13   2  509.55   18.50
  -2  13   2  471.95   19.30
  -2 -13  -2  483.75   23.10
   2  13  -2  467.45   19.70
  -2 -13  -2  526.75   23.80
   2 -13   2  483.55   20.70
  -2 -13   2  486.15   20.80
  -2 -13   2  483.45   23.50
  -2  13  -2  480.55   20.40
   2 -13  -2  497.95   27.70
   2  13   2  479.15   20.90
  -2 -13  -3 1091.39   42.10
   2 -13   3 1138.89   40.60
  -2 -13  -3 1107.29   44.80
   2  13  -3 1113.19   38.20
  -2  13   3 1132.69   38.20
  -2 -13   3 1159.08   43.30
   2 -13  -3 1117.09   49.50
  -2  13  -3 1088.69   37.90
   2  13   3 1099.49   39.20
  -2  13  -3 1122.69   46.90
  -2 -13  -4  309.37   18.80
  -2 -13  -4  305.27   20.00
  -2  13   4  280.47   16.60
   2 -13   4  312.57   17.90
   2  13  -4  283.57   16.20
   2  13   4  278.17   16.90
  -2 -13   4  293.37   18.80
  -2  13  -4  250.57   19.10
  -2  13  -4  268.67   16.00
   2 -13  -4  267.47   21.90
   2  13  -5  631.34   27.30
  -2  13  -5  552.94   31.60
   3  13   0  354.46   14.70
  -3  13   0  358.66   16.30
   3  13   0  362.16   17.30
  -3 -13   0  297.17   18.20
   3 -13   0  359.16   14.20
   3 -13   0  381.56   23.50
   3  13  -1  578.04   21.50
   3  13  -1  586.24   23.70
  -3 -13  -1  607.44   26.80
  -3  13   1  564.44   21.60
   3 -13   1  587.84   32.70
  -3  13   1  565.44   20.40
   3 -13   1  532.45   21.10
  -3  13  -1  567.04   22.70
   3  13   1  566.14   19.40
   3 -13  -1  559.84   31.20
  -3 -13   1  527.95   25.80
   3  13   1  573.64   23.50
  -3  13   2  266.27   13.10
  -3 -13  -2  262.77   16.80
   3  13  -2  278.57   14.50
   3 -13   2  254.67   13.70
  -3  13   2  285.47   13.50
  -3 -13  -2  265.97   15.40
   3  13   2  254.17   14.90
  -3 -13   2  263.77   15.60
  -3  13  -2  269.67   14.50
   3 -13  -2  289.87   21.20
  -3 -13   2  269.57   17.70
  -3 -13  -3  399.76   20.90
   3 -13   3  374.86   18.80
  -3  13   3  371.36   17.60
  -3 -13  -3  362.46   20.80
   3  13  -3  352.76   17.70
  -3  13  -3  358.56   23.90
   3 -13  -3  352.16   24.30
  -3 -13   3  401.86   22.20
  -3  13  -3  346.67   17.90
   3  13   3  366.56   19.10
   3 -13   4  155.68   14.30
  -3 -13  -4  155.68   15.90
  -3 -13  -4  157.58   15.90
   3  13  -4  175.48   12.90
  -3  13   4  175.58   13.30
  -3  13  -4  145.59   13.30
   3  13   4  153.88   14.50
   3 -13  -4  167.18   20.10
  -3  13  -4  195.28   19.70
  -3 -13   4  168.38   17.10
  -4 -13   0   89.29   11.40
   4 -13   0  136.69   16.70
   4  13   0  133.39    8.90
  -4  13   0  144.49   11.80
   4  13   0  138.59   12.30
  -4 -13  -1  222.98   15.50
   4 -13   1  212.08   11.10
  -4  13   1  222.48   10.90
  -4  13   1  226.28   12.70
   4  13  -1  214.28   12.10
   4 -13   1  213.28   21.80
   4  13   1  204.88   13.50
  -4 -13   1  218.58   15.90
   4 -13  -1  218.78   18.80
  -4  13  -1  189.68   12.60
  -4 -13   1  210.78   13.80
   4 -13   2   76.59    8.50
  -4 -13  -2  114.49   13.00
  -4  13   2   89.39    9.10
  -4  13   2  104.49    9.10
   4  13  -2  105.59   10.10
  -4 -13   2  120.99   14.10
  -4  13  -2   99.39   10.40
  -4 -13   2  111.29   12.00
   4  13   2  122.19   11.90
   4 -13  -2  123.49   16.50
  -4  13   3  158.68   11.50
  -4  13   3  159.58   10.80
  -4 -13  -3  123.09   14.20
   4  13  -3  137.69   12.10
   4 -13   3  143.39   11.20
  -4  13  -3  159.18   18.40
   4 -13  -3  158.78   19.40
  -4 -13   3  153.18   16.40
   4  13   3  150.48   14.10
  -4  13  -3  166.38   13.70
  -4  13   4   80.89   10.40
  -4 -13  -4   49.80   10.70
   4 -13   4   57.49    9.30
   4  13  -4   58.09    9.50
   4  13   4   59.29    9.90
   4 -13  -4   61.49   13.50
  -4  13  -4   54.99    9.20
  -4 -13   4   87.49   13.30
  -4  13  -4   54.99   13.00
   5  13   0 1050.49   40.90
   5  13   0 1196.28   37.90
  -5  13   0 1189.58   40.40
  -5 -13   0 1150.58   45.20
   5 -13   0 1283.97   53.59
   5 -13   1  503.25   30.50
   5  13  -1  504.05   20.90
  -5  13   1  493.35   19.00
  -5 -13  -1  480.55   25.30
  -5  13   1  472.25   21.60
  -5 -13   1  497.95   23.30
   5  13   1  484.45   23.00
  -5  13  -1  501.45   22.30
   5 -13  -1  489.25   29.90
  -5 -13   1  488.25   25.60
  -5  13   2  958.10   34.20
  -5  13   2  980.80   33.50
  -5 -13  -2  994.40   41.00
   5  13  -2  882.11   33.80
   5 -13   2  977.70   34.80
  -5 -13   2 1004.50   38.30
  -5 -13   2  891.71   40.30
   5  13   2  981.80   37.50
  -5  13  -2  979.10   35.90
   5 -13  -2 1023.40   48.10
   5  13  -3  339.37   18.20
   5 -13   3  351.96   18.30
  -5 -13  -3  371.26   22.70
  -5  13   3  343.17   17.40
  -5  13   3  350.46   17.60
  -5 -13   3  308.57   22.10
   5 -13  -3  339.97   26.50
  -5 -13   3  356.06   21.50
  -5  13  -3  330.67   18.70
  -5  13  -3  292.87   24.50
   5  13   3  339.77   19.70
   5 -13   4  596.54   28.40
  -5 -13   4  626.94   32.70
   6  13   0   99.19   10.10
  -6  13   0  106.09   11.40
  -6 -13   0   92.69   12.30
   6 -13   0  109.99   16.40
   6  13  -1  101.99   10.50
   6 -13   1   89.29   15.20
  -6  13   1   82.99   10.50
  -6 -13  -1  106.79   13.40
  -6 -13   1  112.99   12.30
   6 -13  -1   96.29   15.40
  -6  13  -1   95.79   11.10
   6  13   1  100.49   12.00
  -6 -13   1  107.29   13.10
   6  13  -2   98.49   10.90
  -6  13   2   94.09   10.60
  -6 -13  -2   73.69   12.00
  -6  13   2  104.29   10.00
   6  13   2   83.29   11.30
   6 -13  -2  103.79   16.60
  -6  13  -2   65.69   13.50
  -6  13  -2   90.99   11.10
  -6 -13   2   79.89   12.80
  -6 -13   2   71.69   11.30
   6  13  -3   75.79   10.10
   6 -13   3   74.89   10.20
  -6 -13  -3   70.29   12.80
  -6  13   3   41.90    8.10
  -6  13   3   54.49    8.90
  -6  13  -3   74.59   10.20
  -6 -13   3   66.89   11.80
   6 -13  -3   57.39   14.10
   6  13   3   72.59   11.20
  -6  13  -3   69.69   14.60
  -6 -13   3   72.79   13.00
  -7  13   0  434.66   23.20
  -7 -13   0  476.15   25.80
   7 -13   0  537.85   33.70
  -7 -13   0  471.75   24.00
   7  13  -1   14.80    6.00
  -7  13   1   19.00    7.00
   7 -13   1   22.60   10.80
  -7 -13  -1   13.50    7.90
   7  13   1   17.10    6.60
  -7 -13   1    9.70    6.40
  -7  13  -1    6.10    6.40
   7 -13  -1    9.70    9.00
  -7 -13   1    2.20    6.10
  -7  13   2  402.66   21.00
  -7 -13  -2  402.36   25.10
   7  13  -2  379.16   20.50
  -7  13  -2  384.46   21.20
   7  13   2  388.26   22.50
  -7 -13   2  391.36   24.50
  -7 -13   2  379.36   23.10
   7 -13  -2  401.26   28.10
  -8 -13   0   20.80    8.40
   8  13  -1   50.79    9.70
  -8 -13   1   50.59   10.70
   0  14   0 1405.26   43.70
   0  14   0 1412.86   43.20
   0 -14   0 1432.16   47.70
   0 -14   0 1505.75   55.19
   0 -14  -1    3.30    3.70
   0 -14  -1    4.40    5.30
   0 -14   1   -0.10    3.40
   0  14   1    1.70    2.80
   0  14  -1    1.10    3.20
   0 -14   1    9.50    4.80
   0  14   1    0.70    2.80
   0  14   2 1099.99   36.30
   0 -14   2 1045.10   39.00
   0 -14  -2 1098.09   38.30
   0  14  -2 1052.99   35.60
   0 -14  -2 1047.00   44.70
   0  14  -2 1095.79   41.10
   0 -14  -3   -2.00    5.40
   0  14   3    2.70    4.10
   0  14  -3    3.40    4.10
   0 -14   3   -1.20    4.60
   0 -14  -4  615.04   33.10
   0  14   4  655.23   27.20
   0  14  -4  656.83   26.70
   0 -14   4  580.34   28.50
   0  14  -5    0.60    5.70
  -1  14   0 4563.14  120.99
   1 -14   0 4549.04  148.29
  -1  14   0 4249.77  119.29
  -1 -14   0 4499.15  143.79
   1  14   0 4403.16  122.89
  -1 -14   0 4315.87  131.09
   1 -14   0 4269.07  127.99
   1  14   0 4367.46  118.69
  -1  14   1  308.77   13.90
   1  14  -1  315.87   14.70
   1  14  -1  336.17   15.30
  -1 -14  -1  354.16   17.60
  -1 -14  -1  348.47   19.60
   1 -14   1  306.77   20.30
   1 -14   1  318.87   15.60
  -1  14   1  332.67   14.50
  -1  14  -1  314.97   15.00
   1 -14  -1  338.47   21.60
   1  14   1  342.27   13.30
  -1 -14   1  298.27   16.90
   1  14   1  334.97   15.50
   1 -14  -1  340.07   15.20
   1 -14   2 3574.04  107.39
  -1  14   2 3543.55  101.39
  -1 -14  -2 3555.94  120.19
   1  14  -2 3588.34   99.89
  -1  14   2 3722.53   96.89
  -1 -14  -2 3554.94  108.49
   1  14   2 3615.04  102.39
   1 -14  -2 3424.16  122.59
  -1  14  -2 3448.65   99.89
  -1 -14   2 3480.75  109.09
  -1  14  -2 3617.14  120.39
   1 -14   3  210.78   14.20
  -1 -14  -3  233.58   15.00
   1  14  -3  198.98   12.90
  -1 -14  -3  224.38   16.60
  -1  14   3  231.48   13.40
   1  14   3  212.98   13.40
  -1  14  -3  198.78   13.00
  -1  14  -3  234.38   15.80
  -1 -14   3  219.98   15.30
   1 -14  -3  217.58   17.60
   1  14  -4 2222.18   68.39
   1 -14   4 2160.68   73.89
  -1 -14  -4 2307.67   83.29
  -1  14   4 2213.18   70.19
   1  14   4 2166.18   70.19
  -1  14  -4 2215.88   68.29
  -1 -14   4 2247.48   75.69
   1 -14  -4 2207.18   85.39
  -1  14  -5  127.59   13.30
   2  14   0    8.90    3.70
   2  14   0    9.10    3.90
  -2  14   0   12.10    3.40
  -2  14   0   12.10    4.30
   2 -14   0    8.00    3.30
   2 -14   0   19.50    7.50
  -2 -14   0    7.30    4.70
   2 -14   1  469.45   27.80
   2  14  -1  445.76   19.00
   2  14  -1  474.75   20.70
   2 -14   1  509.95   20.30
  -2 -14  -1  525.45   23.70
  -2  14   1  497.15   19.30
  -2  14   1  500.15   18.70
  -2 -14  -1  521.75   23.60
   2 -14  -1  521.05   29.00
   2 -14  -1  485.85   18.40
  -2 -14   1  501.95   23.80
   2  14   1  481.05   17.50
   2  14   1  517.15   21.20
  -2  14  -1  475.75   20.00
  -2 -14  -2    5.80    4.90
   2  14  -2    9.60    4.40
  -2  14   2   11.70    4.20
  -2  14   2    8.00    3.70
   2 -14   2    1.50    4.00
  -2 -14  -2    0.50    4.80
   2 -14  -2    7.80    6.70
   2  14   2   10.40    4.90
  -2  14  -2    7.90    4.40
  -2 -14   2    5.70    4.90
  -2 -14  -3  334.97   19.90
   2  14  -3  329.97   16.90
  -2 -14  -3  326.67   19.10
  -2  14   3  312.27   16.20
   2 -14   3  343.07   17.90
  -2  14  -3  327.77   21.30
   2 -14  -3  335.27   23.40
   2  14   3  301.27   17.00
  -2 -14   3  329.87   19.90
  -2  14  -3  315.87   16.60
  -2 -14  -4    7.40    6.00
  -2  14   4    5.90    5.30
  -2 -14  -4    4.40    6.10
   2 -14   4    0.90    5.00
   2  14  -4    2.60    5.20
  -2  14  -4    4.40    6.60
  -2 -14   4   -2.70    6.00
   2  14   4    6.20    5.80
  -2  14  -4    7.40    5.40
   2 -14  -4   -0.30    6.70
   3  14   0  548.15   20.10
  -3 -14   0  520.15   25.20
   3 -14   0  559.74   30.50
   3 -14   0  559.34   19.90
  -3  14   0  525.35   21.70
   3  14   0  502.05   22.40
  -3  14   1   23.20    5.30
   3  14  -1   27.30    5.40
   3 -14   1   20.70    8.80
  -3  14   1   20.80    4.40
  -3 -14  -1   26.20    6.90
   3 -14   1   21.20    4.60
   3  14  -1   21.50    6.00
  -3 -14   1   21.70    6.70
   3  14   1   27.30    4.40
   3  14   1   23.80    5.90
  -3  14  -1   19.90    5.30
   3 -14  -1   19.30    8.00
   3  14  -2  436.86   19.20
  -3 -14  -2  392.76   22.10
   3 -14   2  410.06   26.80
   3 -14   2  417.16   19.10
  -3  14   2  404.96   17.90
  -3  14   2  449.56   18.20
  -3 -14   2  418.96   22.90
   3  14   2  434.66   20.50
  -3  14  -2  450.05   19.90
   3 -14  -2  480.25   28.70
  -3 -14   2  408.06   20.60
   3  14  -3   25.40    6.20
  -3 -14  -3   27.30    7.90
  -3 -14  -3   31.00    7.50
  -3  14   3   11.90    5.30
   3 -14   3   18.10    5.90
  -3  14  -3   20.00    8.80
   3  14   3   23.00    6.70
   3 -14  -3   16.90    8.30
  -3 -14   3   19.10    7.30
  -3  14  -3   36.70    7.30
  -3 -14  -4  279.27   19.00
  -3  14   4  257.87   16.20
   3 -14   4  238.68   16.40
   3  14  -4  270.17   16.30
  -3 -14  -4  273.27   18.80
   3 -14  -4  273.77   23.40
  -3  14  -4  229.68   20.40
   3  14   4  259.97   17.30
  -3 -14   4  257.07   19.60
  -3  14  -4  238.38   15.50
   4  14   0  131.39    9.20
  -4 -14   0  146.99   14.40
  -4  14   0  142.39   11.90
   4  14   0  160.88   13.50
   4 -14   0  136.19   16.70
   4 -14   1   18.20    4.50
  -4 -14  -1   27.60    7.50
   4  14  -1   16.30    4.80
  -4  14   1   19.30    4.50
  -4  14   1   15.40    5.00
   4 -14   1   20.10    9.30
  -4  14  -1    6.80    4.80
  -4 -14   1   21.10    6.10
  -4 -14   1   13.00    6.60
   4  14   1   13.80    5.50
   4 -14  -1   15.80    8.10
   4  14  -2  116.99   10.90
  -4 -14  -2  118.59   13.70
   4 -14   2  117.69    9.40
  -4  14   2  112.19    9.70
   4 -14   2   96.19   15.90
  -4  14   2  131.69   10.90
   4  14   2  130.19   12.50
  -4 -14   2  109.79   13.60
   4 -14  -2  116.19   16.50
  -4 -14   2  114.09   12.40
  -4  14  -2  106.39   10.90
   4 -14   3   10.50    5.40
  -4  14   3   13.80    5.70
  -4 -14  -3   28.00    8.30
   4  14  -3   14.00    5.60
   4 -14  -3    0.10    6.90
  -4  14  -3   10.40    8.10
  -4  14  -3    4.10    5.50
  -4 -14   3   17.60    8.00
   4  14   3   13.60    6.10
  -4 -14  -4   90.89   13.30
  -4  14   4   55.89    9.30
   4  14  -4   66.39   10.20
   4 -14   4   54.99    9.80
   4  14   4   69.39   10.80
  -4 -14   4   97.39   14.10
  -4  14  -4   75.99   14.60
  -4  14  -4   78.99   10.70
   5 -14   0    7.10    7.70
  -5  14   0   11.80    5.40
  -5 -14   0   13.00    6.40
   5  14   0   10.50    4.90
   5  14   0   16.10    5.90
  -5  14   1   16.90    6.00
   5  14  -1   17.10    5.20
   5 -14   1   11.20    8.20
  -5 -14  -1   11.60    6.30
   5 -14  -1    8.40    7.70
   5  14   1   17.40    6.60
  -5 -14   1   16.40    6.40
  -5 -14   1   13.80    6.70
  -5  14  -1    9.50    5.30
   5 -14   2   12.90    5.40
  -5  14   2    3.10    5.10
  -5 -14  -2   16.40    7.30
  -5  14   2    4.00    4.20
   5  14  -2    1.10    4.60
   5 -14  -2   13.60    8.30
  -5  14  -2   14.10    5.90
  -5 -14   2   12.70    7.00
  -5 -14   2   11.80    6.60
   5  14   2   11.90    6.20
  -5  14   3    7.50    5.10
  -5  14   3    9.40    5.50
   5 -14   3   33.50    7.00
   5  14  -3   11.10    6.00
  -5 -14  -3   12.30    7.30
   5  14   3   14.00    6.50
   5 -14  -3   22.90   10.90
  -5 -14   3   13.50    8.00
  -5  14  -3   19.70    7.10
  -5  14  -3   10.60    8.80
  -6  14   0   12.60    6.00
   6 -14   0   24.10   10.20
  -6 -14   0   22.90    8.00
   6  14   0   30.50    6.80
   6  14  -1  766.62   30.20
  -6 -14  -1  767.22   36.00
  -6  14   1  789.22   31.70
   6 -14   1  835.12   43.50
  -6  14  -1  798.62   32.10
  -6 -14   1  787.72   36.00
  -6 -14   1  838.12   33.70
   6 -14  -1  849.72   42.40
   6  14   1  823.72   33.70
   6  14  -2   20.60    6.70
  -6  14   2   14.30    6.40
  -6  14   2   11.50    5.20
  -6 -14  -2   21.10    8.60
   6 -14  -2   18.50   10.10
   6  14   2   22.30    7.50
  -6  14  -2   16.80    9.10
  -6 -14   2   15.30    7.20
  -6 -14   2   18.70    8.20
  -6  14  -2   22.10    7.00
  -6  14   3  604.54   25.70
  -6  14   3  564.34   25.10
  -6 -14   3  541.75   31.20
  -6  14  -3  636.44   27.70
  -6 -14   3  568.44   30.00
  -7  14   0  294.97   18.40
   7 -14   0  323.57   26.40
  -7 -14   0  292.07   20.60
  -7 -14   0  320.07   19.50
  -7  14   1  246.18   16.90
   7 -14   1  281.57   24.60
   7  14  -1  227.88   15.60
  -7 -14  -1  264.17   19.90
   7  14   1  225.28   17.20
  -7 -14   1  265.57   19.10
  -7 -14   1  260.27   18.10
  -7  14  -1  260.37   17.30
   7 -14  -1  281.47   23.40
   7  14  -2  262.37   17.10
  -7 -14   2  225.18   21.00
  -7  14  -2  231.88   17.00
  -7 -14   2  269.87   19.30
   0  15   0   14.10    4.00
   0  15   0    1.40    3.00
   0 -15   0   -1.90    3.50
   0 -15   0   -0.20    4.90
   0  15   1    8.80    4.00
   0  15  -1   18.90    5.00
   0  15   1   13.30    4.30
   0 -15  -1   15.50    6.80
   0 -15   1   15.60    5.50
   0 -15  -1   14.80    5.00
   0 -15   1   25.10    6.10
   0  15  -2   -3.00    3.50
   0  15   2    0.20    3.80
   0 -15  -2    5.50    5.90
   0 -15  -2    2.00    4.10
   0 -15   2   -0.20    3.80
   0 -15   3    8.40    5.60
   0  15   3   11.50    5.20
   0 -15  -3    7.10    6.70
   0  15  -3    4.60    4.70
   0  15   4    4.90    5.70
   0 -15  -4    8.60    7.70
   0 -15   4   -3.00    4.80
   0  15  -4    2.20    5.20
  -1  15   0   68.39    7.40
  -1  15   0   58.59    6.30
   1 -15   0   63.79   10.70
  -1 -15   0   74.19    9.30
  -1 -15   0   77.39    9.50
   1 -15   0   56.49    7.10
   1  15   0   74.69    7.20
   1  15   0   79.79    8.10
  -1  15   1  260.37   12.70
  -1  15   1  239.18   12.00
  -1 -15  -1  265.47   17.50
   1  15  -1  231.58   12.80
   1 -15   1  251.17   13.90
   1 -15   1  227.28   17.50
  -1 -15  -1  239.58   14.60
   1  15  -1  240.88   12.80
   1  15   1  249.18   11.50
   1 -15  -1  279.47   19.70
   1  15   1  242.88   13.50
  -1  15  -1  234.88   12.90
   1 -15  -1  262.67   13.20
  -1 -15   1  241.38   15.10
  -1  15   2   46.50    5.90
  -1 -15  -2   42.20    8.60
   1 -15   2   47.90    7.50
   1  15  -2   47.60    7.10
  -1 -15  -2   42.00    7.90
  -1  15   2   61.69    7.60
   1  15   2   57.49    7.50
  -1 -15   2   38.90    7.70
  -1  15  -2   45.00    8.80
   1 -15  -2   56.49   10.50
  -1  15  -2   57.59    7.70
  -1  15   3  168.08   11.80
  -1 -15  -3  171.98   14.90
   1 -15   3  155.78   12.70
  -1 -15  -3  173.88   13.40
   1  15  -3  159.08   12.10
  -1  15  -3  147.29   13.30
  -1 -15   3  172.38   15.70
   1 -15  -3  166.38   18.00
   1  15   3  136.19   12.40
  -1  15  -3  167.88   12.10
   1  15  -4   21.70    6.40
  -1 -15  -4   34.40    9.80
   1 -15   4   39.00    8.50
  -1  15   4   33.80    7.80
  -1  15  -4   29.70    7.30
   1  15   4   29.40    7.50
  -1 -15   4   32.20    8.80
   1 -15  -4   20.10    9.60
  -2  15   0  897.91   31.60
   2  15   0  955.70   30.70
   2 -15   0 1001.90   43.20
   2 -15   0  888.91   31.70
   2  15   0  957.50   33.40
  -2 -15   0  912.31   36.20
  -2  15   1  904.81   31.50
   2 -15   1  916.81   33.50
  -2  15   1 1028.60   32.20
   2  15  -1  903.81   32.20
  -2 -15  -1  927.41   37.10
   2 -15   1  978.10   44.70
   2  15  -1 1002.30   34.40
  -2 -15   1  971.40   38.10
   2 -15  -1 1054.49   45.60
   2  15   1  958.50   34.20
  -2  15  -1  884.81   32.60
   2  15   1 1006.90   30.40
   2  15  -2  748.93   27.80
  -2  15   2  763.52   25.90
  -2  15   2  724.03   27.00
   2 -15   2  709.23   28.50
  -2 -15  -2  786.32   33.20
  -2 -15  -2  707.83   31.00
   2  15   2  713.83   28.70
  -2 -15   2  759.32   32.60
   2 -15  -2  738.53   37.80
  -2  15  -2  720.03   27.90
  -2 -15  -3  601.64   28.60
   2 -15   3  644.04   27.60
   2  15  -3  618.34   26.00
  -2 -15  -3  675.13   31.30
  -2  15   3  693.03   26.40
  -2  15  -3  657.13   32.70
   2  15   3  643.14   27.10
  -2 -15   3  612.64   29.90
  -2  15  -3  571.54   25.50
   2 -15  -3  628.24   34.50
   2 -15   4  447.16   23.50
   2  15  -4  491.15   22.90
  -2  15   4  442.96   22.20
  -2 -15  -4  444.26   24.20
  -2 -15  -4  454.75   26.40
   2  15   4  420.06   22.40
  -2  15  -4  447.96   21.80
   2 -15  -4  508.75   31.40
  -2  15  -4  411.86   25.90
  -2 -15   4  473.25   25.90
   3 -15   0  741.93   36.60
  -3  15   0  671.73   25.90
   3  15   0  691.63   27.70
  -3 -15   0  684.13   30.50
   3  15   0  693.23   24.60
  -3  15   1  423.56   17.40
   3 -15   1  451.55   28.40
  -3 -15  -1  404.66   22.20
  -3  15   1  435.06   18.70
   3 -15   1  440.06   18.30
   3  15  -1  422.06   18.60
   3  15  -1  431.66   20.50
   3  15   1  459.65   20.90
   3 -15  -1  450.05   27.80
  -3  15  -1  423.06   19.50
  -3 -15   1  411.46   22.50
  -3  15   2  506.85   21.50
   3  15  -2  562.24   23.20
  -3  15   2  578.84   21.90
   3 -15   2  507.95   31.60
   3 -15   2  540.55   23.00
  -3 -15  -2  613.64   28.00
   3  15   2  567.64   24.70
   3 -15  -2  574.94   32.80
  -3 -15   2  569.04   28.10
  -3  15  -2  525.95   23.40
  -3 -15  -3  300.27   19.60
   3  15  -3  300.17   16.70
   3 -15   3  305.37   17.40
  -3  15   3  296.77   16.20
  -3  15  -3  296.87   17.10
   3 -15  -3  304.67   24.00
  -3 -15   3  340.67   21.10
  -3  15  -3  291.67   22.40
   3  15   3  308.27   18.10
   3 -15   4  345.87   19.90
  -3 -15  -4  355.96   22.10
  -3  15   4  337.37   19.10
  -3 -15  -4  354.36   22.40
   3  15  -4  354.66   19.60
   3  15   4  348.67   20.30
  -3 -15   4  324.77   22.80
  -3  15  -4  317.07   24.20
  -3  15  -4  344.87   19.30
   3 -15  -4  335.87   26.60
  -4 -15   0   87.79   11.40
  -4  15   0  106.59   10.40
   4  15   0   97.09   10.70
   4  15   0   86.49    8.50
   4 -15   0  100.69   15.10
  -4 -15  -1  379.36   21.60
  -4  15   1  333.07   17.10
   4 -15   1  372.76   26.60
   4  15  -1  363.76   16.90
  -4 -15   1  345.07   18.80
   4 -15  -1  364.06   25.70
  -4  15  -1  359.96   18.50
   4  15   1  383.16   19.50
  -4 -15   1  352.26   21.20
   4 -15   2   72.09    8.60
  -4 -15  -2   82.69   12.10
  -4  15   2   67.29    8.00
   4 -15   2   61.79   13.60
   4  15  -2   64.59    8.70
  -4  15   2   86.59    9.20
  -4 -15   2   85.89   11.00
   4 -15  -2   71.99   13.90
  -4  15  -2   80.59   10.00
   4  15   2   69.49    9.90
  -4 -15   2   75.69   11.70
  -4 -15  -3  250.47   18.10
   4  15  -3  252.87   15.50
   4 -15   3  250.27   15.20
  -4  15   3  241.48   14.80
  -4 -15   3  231.98   18.70
  -4  15  -3  219.68   23.00
  -4  15  -3  232.88   15.90
   4  15   3  229.28   16.10
   4 -15  -3  281.67   23.80
  -4  15  -4   58.09    9.80
  -4 -15   4   49.00   11.90
   5  15   0  342.47   16.40
  -5  15   0  341.17   18.00
  -5 -15   0  295.87   20.00
   5  15   0  352.86   19.20
   5 -15   0  369.16   25.50
  -5  15   1  618.44   26.70
   5  15  -1  677.03   26.30
  -5 -15  -1  688.13   32.20
   5 -15   1  679.13   38.40
  -5 -15   1  629.64   28.40
   5  15   1  673.33   29.30
   5 -15  -1  758.62   38.80
  -5 -15   1  668.03   31.90
  -5  15  -1  696.33   28.60
  -5 -15  -2  295.27   20.50
   5  15  -2  274.47   15.90
  -5  15   2  272.97   15.70
  -5  15   2  288.07   15.00
  -5  15  -2  306.97   18.10
   5  15   2  288.07   18.20
  -5 -15   2  310.47   18.80
  -5 -15   2  281.67   20.40
   5 -15  -2  272.87   23.10
   5  15  -3  449.36   22.50
  -5 -15  -3  470.85   26.90
  -5  15   3  486.55   21.80
   5 -15   3  473.15   22.60
   5 -15  -3  465.05   32.10
   5  15   3  496.35   25.70
  -5  15  -3  464.55   23.30
  -5  15  -3  432.26   30.70
  -5 -15   3  482.05   28.00
  -6 -15   0  302.47   20.70
  -6  15   0  360.56   19.70
   6 -15   0  404.46   28.00
   6  15  -1 1183.28   42.10
  -6  15   1 1244.98   43.90
   6 -15   1 1364.96   60.29
  -6 -15  -1 1284.27   50.69
  -6 -15   1 1234.48   45.90
   6  15   1 1222.18   46.10
  -6  15  -1 1271.27   45.30
   6 -15  -1 1256.77   57.19
  -6 -15   1 1224.78   49.60
  -6  15   2  325.27   18.10
   6  15  -2  299.27   17.30
  -6 -15  -2  286.17   21.00
   6 -15  -2  296.87   25.20
  -6 -15   2  305.87   20.00
   6  15   2  340.27   20.20
  -6  15  -2  256.17   22.60
  -6 -15   2  325.97   22.20
  -6  15  -2  323.77   18.90
  -6  15   3  844.82   32.20
  -6  15   3  822.82   32.40
  -6 -15   3  789.72   39.60
   7 -15   0 1519.05   64.89
  -7 -15   0 1229.78   47.50
  -7  15   0 1257.67   46.60
  -7 -15   0 1241.18   50.89
   7  15  -1    6.60    6.30
  -7 -15   1   24.50    8.20
  -7 -15   1   16.00    7.60
   0  16   0   75.69    7.80
   0 -16   0  107.29   12.30
   0 -16   0   83.69    9.60
   0  16   0   67.79    7.50
   0  16   1   -3.40    3.00
   0 -16  -1    2.00    5.40
   0 -16  -1    5.90    4.10
   0 -16   1    5.00    4.70
   0  16   1   15.90    4.70
   0 -16   1   -0.40    4.40
   0  16  -1   -1.10    3.40
   0  16   2   61.99    7.90
   0 -16  -2   73.59   11.60
   0 -16  -2   69.69    8.70
   0 -16   2   64.09    9.00
   0  16  -2   53.69    7.60
   0 -16   3    0.70    5.00
   0 -16  -3   -1.00    6.20
   0  16  -3   -2.80    4.50
   0  16   3    2.10    4.40
   0  16   4   46.00    8.40
   0 -16  -4   44.90   11.60
   0 -16   4   41.80    9.20
   0  16  -4   31.20    7.70
   1 -16   0 1149.29   46.40
  -1  16   0 1030.60   34.80
   1 -16   0 1025.60   37.00
  -1 -16   0 1060.29   39.40
   1  16   0 1062.39   34.40
   1  16   0 1068.89   36.10
  -1  16   1   21.30    5.10
  -1 -16  -1   28.30    6.90
   1  16  -1   19.70    5.30
  -1 -16  -1   26.90    7.80
   1 -16   1   14.50    7.10
   1 -16   1   14.50    5.20
  -1  16   1   18.40    4.80
  -1 -16   1   21.80    6.10
   1 -16  -1   23.80    5.30
  -1  16  -1   22.40    5.70
   1  16   1   21.10    4.60
   1 -16  -1   27.50    8.90
   1  16   1   17.10    5.30
  -1  16   2  863.81   30.60
   1 -16   2  853.01   33.00
  -1 -16  -2  865.31   33.90
  -1 -16  -2  898.11   38.70
   1  16  -2  855.01   31.00
  -1  16  -2  806.92   30.60
   1  16   2  825.52   31.30
   1 -16  -2  895.41   41.40
  -1  16  -2  766.22   36.40
  -1 -16   2  821.62   34.40
   1  16  -3   15.20    5.70
  -1 -16  -3   16.60    7.60
   1 -16   3   26.60    7.10
  -1 -16  -3   24.70    7.10
  -1  16   3   20.20    6.10
  -1 -16   3   16.40    6.90
   1 -16  -3   27.60    9.50
   1  16   3   14.80    5.90
  -1  16  -3   16.70    5.80
   1 -16   4  482.05   25.60
  -1  16   4  486.95   24.20
   1  16  -4  492.25   23.90
  -1 -16  -4  516.25   29.60
  -1  16  -4  517.75   24.30
   1 -16  -4  540.05   32.30
  -1 -16   4  523.35   27.60
   2 -16   0    9.30    6.90
   2  16   0   22.30    5.50
   2 -16   0    8.50    3.80
   2  16   0   15.50    4.50
  -2  16   0   10.50    4.50
  -2 -16   0   16.20    6.30
  -2  16   1  671.53   24.40
   2  16  -1  683.83   25.40
  -2  16   1  657.13   24.50
   2  16  -1  693.93   26.70
  -2 -16  -1  640.84   28.90
   2 -16   1  670.53   35.20
   2 -16   1  656.23   25.90
  -2 -16   1  594.84   28.80
   2  16   1  679.13   26.80
  -2  16  -1  680.53   26.20
   2  16   1  676.73   23.00
   2 -16  -1  692.53   35.70
   2  16  -2    5.70    4.70
   2 -16   2    5.30    4.70
  -2 -16  -2    2.40    5.50
  -2  16   2   16.50    4.70
  -2  16   2    8.00    4.30
  -2  16  -2    8.10    4.80
   2  16   2    0.60    4.50
  -2 -16   2    3.70    5.40
   2 -16  -2   10.90    7.70
  -2 -16  -3  495.75   26.20
   2 -16   3  442.56   22.60
  -2  16   3  486.75   21.40
   2  16  -3  506.75   22.30
  -2 -16  -3  468.75   24.40
  -2  16  -3  432.46   26.40
   2  16   3  459.55   22.50
  -2 -16   3  478.15   25.50
   2 -16  -3  459.45   29.20
  -2  16  -3  431.56   21.20
  -2  16   4    7.00    5.70
   2 -16   4    5.90    6.30
   2  16  -4   -3.80    4.90
  -2 -16  -4    7.10    7.10
  -2  16  -4   -2.00    5.20
   2  16   4   -0.20    5.80
   2 -16  -4    8.40    8.50
  -2 -16   4    8.40    7.50
  -3  16   0 2464.05   74.29
   3 -16   0 2640.74   95.39
   3  16   0 2632.34   77.89
  -3 -16   0 2448.35   82.99
   3  16   0 2500.25   72.49
   3 -16   1  904.21   32.90
  -3  16   1  921.01   32.60
   3  16  -1  932.21   32.70
  -3  16   1  956.00   31.50
   3  16  -1  971.70   35.30
  -3 -16  -1  948.91   38.50
   3 -16   1  983.90   46.30
   3 -16  -1 1043.50   46.80
  -3 -16   1  935.81   38.80
  -3  16  -1  872.71   33.30
   3  16   1  916.11   35.20
  -3  16   2 2175.48   63.09
   3  16  -2 2018.40   62.99
  -3 -16  -2 2054.69   70.59
   3 -16   2 1747.73   79.39
   3 -16   2 2084.09   65.99
  -3  16   2 2069.79   61.09
   3 -16  -2 2119.29   82.59
  -3  16  -2 2089.69   64.19
  -3 -16   2 2063.79   72.09
   3  16   2 2113.89   66.29
  -3 -16  -3  613.44   30.50
   3  16  -3  727.43   28.30
   3 -16   3  642.64   28.00
  -3  16   3  679.73   27.00
   3  16   3  639.24   28.50
  -3  16  -3  654.13   27.80
   3 -16  -3  642.84   37.80
  -3 -16   3  682.33   32.70
  -3  16  -3  588.54   34.50
  -3 -16  -4 1297.37   49.70
  -3  16  -4 1167.38   54.79
  -3  16  -4 1248.58   44.70
   4  16   0 1391.56   48.50
  -4 -16   0 1303.57   51.79
   4 -16   0 1553.54   61.99
  -4  16   0 1402.56   46.70
   4  16   0 1408.26   44.10
   4 -16   1  190.58   21.10
  -4 -16  -1  161.08   15.90
  -4  16   1  146.79   10.90
   4  16  -1  153.38   11.10
  -4 -16   1  139.29   15.20
  -4  16  -1  133.69   12.60
   4 -16  -1  190.28   20.80
  -4 -16   1  177.48   13.20
   4  16   1  146.69   13.90
   4  16  -2 1096.99   38.90
   4 -16   2 1104.89   39.20
  -4  16   2 1073.59   37.40
  -4 -16  -2 1139.19   45.10
  -4  16   2 1131.39   37.50
   4 -16   2  974.80   51.99
  -4  16  -2 1100.19   40.00
  -4 -16   2 1090.49   41.80
   4  16   2 1173.68   42.20
  -4 -16   2 1087.29   45.30
   4 -16  -2 1194.08   53.99
  -4 -16  -3  120.79   14.90
   4 -16   3  102.79   11.30
  -4  16   3  102.89   10.80
   4  16  -3  115.09   12.00
   4  16   3  105.39   13.00
  -4  16  -3  118.09   12.60
   4 -16  -3  104.69   17.80
  -4  16  -3  107.69   16.80
  -4 -16   3  121.59   15.50
   5 -16   0 1959.20   76.99
  -5  16   0 1812.82   58.99
   5  16   0 1825.12   61.49
   5  16   0 1840.52   56.19
  -5 -16   0 1811.12   65.89
  -5 -16  -1   74.59   12.20
   5 -16   1   56.89   13.10
  -5  16   1   58.39    8.60
   5  16  -1   69.89    8.80
   5 -16  -1   78.49   14.60
  -5 -16   1   79.29   12.40
  -5  16  -1   59.69    9.30
  -5 -16   1   65.99    9.80
   5  16   1   72.79   10.40
   5  16  -2 1536.45   50.59
  -5 -16  -2 1549.84   58.29
  -5  16   2 1556.74   49.99
  -5 -16   2 1518.25   54.29
   5  16   2 1576.24   54.59
  -5 -16   2 1421.86   57.79
   5 -16  -2 1524.45   67.19
  -5  16  -2 1486.75   51.69
  -5  16   3   39.60    7.90
   5 -16   3   43.10    8.40
  -5  16  -3   48.00   12.80
  -5  16  -3   28.80    8.40
  -5 -16   3   49.90   11.60
   6 -16   0   18.50   10.50
  -6 -16   0   28.00    8.50
  -6  16   0   18.80    7.40
   6 -16   1  102.59   17.20
   6  16  -1   67.49    9.60
  -6  16   1   92.29   11.00
  -6 -16  -1   73.09   12.20
  -6 -16   1   63.79   10.20
  -6  16  -1   83.29   11.20
   6  16   1   73.19   10.80
   6 -16  -1   77.79   14.80
  -6 -16   1   71.59   11.90
  -6  16   2   13.10    6.30
   6  16  -2   25.80    7.40
  -6  16  -2   31.20    8.80
  -6 -16   2   29.50    8.60
  -6 -16   2   20.40    9.00
   7  16  -1   -0.90    5.80
   0 -17   0    3.20    5.50
   0  17   0    1.00    3.80
   0  17   0    0.80    3.70
   0 -17   0    6.60    4.90
   0  17  -1  541.55   22.20
   0  17   1  567.94   21.10
   0  17   1  546.85   22.60
   0 -17   1  531.05   24.80
   0 -17  -1  536.15   23.90
   0 -17  -1  661.63   31.80
   0  17  -2   -2.20    3.80
   0 -17  -2   -4.70    5.50
   0  17   2    9.70    5.20
   0 -17   2   -4.40    4.00
   0 -17  -2   -1.90    4.20
   0 -17   3  376.26   21.40
   0 -17  -3  365.06   24.50
   0  17  -3  344.07   18.90
   0  17   3  387.46   19.30
   0  17   4    1.60    6.00
   0 -17   4    6.50    6.40
   0  17  -4    0.20    5.80
   0 -17  -4   -3.20    7.10
   1 -17   0  962.20   35.30
   1  17   0  962.20   32.60
  -1  17   0  955.40   33.10
   1 -17   0 1075.89   44.10
   1  17   0  982.70   34.50
  -1 -17   0  959.30   37.40
  -1  17   1  432.86   18.30
  -1 -17  -1  383.46   20.40
   1 -17   1  435.76   24.50
  -1  17   1  398.06   17.40
   1  17  -1  392.56   18.10
   1 -17   1  384.26   19.30
   1  17   1  460.45   19.70
  -1 -17   1  417.46   21.40
  -1  17  -1  375.16   18.20
   1 -17  -1  435.16   19.10
   1 -17  -1  411.56   25.70
   1  17   1  410.56   16.80
   1  17  -2  759.02   29.90
   1 -17   2  791.12   32.10
  -1 -17  -2  793.12   32.40
  -1  17   2  813.02   30.00
  -1 -17  -2  844.22   37.60
  -1  17  -2  816.12   30.50
   1  17   2  811.72   31.00
  -1  17  -2  766.12   35.80
   1 -17  -2  859.71   40.90
  -1 -17   2  765.32   33.50
   1 -17   3  276.07   17.60
  -1 -17  -3  328.57   21.80
  -1  17   3  286.47   16.50
   1  17  -3  285.27   16.90
  -1 -17   3  288.67   19.00
   1  17   3  274.27   16.40
  -1  17  -3  277.07   16.70
   1 -17  -3  310.17   22.60
  -1  17   4  466.05   23.70
   1  17  -4  486.55   24.10
  -1 -17  -4  500.25   29.70
   1 -17  -4  511.35   32.10
  -1  17  -4  492.25   24.20
   2  17   0   12.00    4.60
  -2  17   0    1.70    4.10
   2 -17   0   13.20    4.40
   2  17   0    7.00    4.80
  -2 -17   0    2.00    4.90
   2 -17   0    2.40    6.40
   2  17  -1  311.57   15.80
  -2 -17  -1  305.57   18.00
  -2  17   1  302.17   14.80
  -2  17   1  316.17   15.10
   2 -17   1  269.17   15.00
   2 -17   1  330.87   22.90
   2  17   1  304.77   16.80
   2 -17  -1  334.67   23.30
  -2  17  -1  300.57   15.90
  -2 -17   1  281.07   18.10
  -2  17   2    5.10    4.40
   2  17  -2    6.60    5.00
  -2  17   2   11.80    5.20
   2 -17   2   10.40    5.20
  -2 -17  -2    6.20    5.80
  -2 -17   2   11.90    6.80
  -2  17  -2    0.00    4.60
   2 -17  -2    8.60    8.20
   2  17   2    9.70    5.10
  -2 -17  -3  228.88   16.50
   2 -17   3  209.48   15.00
   2  17  -3  204.88   14.20
  -2  17   3  222.98   14.40
   2  17   3  207.08   15.20
   2 -17  -3  246.38   21.20
  -2  17  -3  197.98   14.00
  -2 -17   3  225.88   17.70
  -2  17  -3  192.38   17.50
  -2 -17  -4    8.10    7.50
  -2  17  -4    5.70    6.20
   3  17   0  425.66   21.10
   3  17   0  421.56   18.40
  -3 -17   0  442.76   23.40
   3 -17   0  504.65   28.80
  -3  17   0  414.66   19.80
   3  17  -1   21.80    6.60
   3 -17   1   47.50   11.60
   3  17  -1   32.10    6.60
   3 -17   1   38.60    6.20
  -3  17   1   33.10    6.50
  -3 -17  -1   40.10    8.50
   3  17   1   30.90    7.40
  -3 -17   1   26.50    7.80
  -3  17  -1   37.20    7.10
   3 -17  -1   33.90   10.20
  -3  17   2  362.36   17.20
   3  17  -2  370.46   18.80
   3 -17   2  348.27   18.10
  -3 -17  -2  378.46   21.70
  -3  17   2  365.96   17.40
   3 -17  -2  337.27   25.80
   3  17   2  347.67   19.60
  -3  17  -2  388.16   19.70
  -3 -17   2  354.76   22.20
   3 -17   3   23.80    7.10
  -3 -17  -3   27.50    8.60
  -3  17   3   30.40    6.90
   3  17  -3   26.70    7.70
   3  17   3   27.40    7.90
   3 -17  -3   19.10   10.40
  -3  17  -3   11.50    8.60
  -3 -17   3   20.40    8.60
  -3  17  -3   29.50    7.70
  -3 -17  -4  232.68   18.50
  -3  17  -4  229.68   23.30
   4  17   0   40.70    6.90
  -4  17   0   49.30    8.10
  -4 -17   0   49.80    9.70
   4  17   0   53.69    8.70
   4 -17   0   57.39   12.60
  -4 -17  -1  377.96   22.40
   4 -17   1  405.96   27.90
   4  17  -1  383.96   18.20
  -4  17   1  377.76   18.80
  -4 -17   1  384.76   22.60
  -4  17  -1  352.66   19.10
   4 -17  -1  408.66   27.50
  -4 -17   1  342.97   19.40
   4  17   1  381.06   20.50
  -4 -17  -2   62.99   10.90
  -4  17   2   39.90    7.40
   4  17  -2   34.70    7.80
   4 -17   2   41.80    7.40
  -4  17   2   36.80    6.80
   4  17   2   27.20    7.70
  -4 -17   2   42.80    9.70
   4 -17  -2   28.40   11.20
  -4  17  -2   29.70    7.40
   4 -17   3  265.37   16.30
  -4 -17  -3  253.97   19.60
  -4  17   3  252.37   15.50
   4  17  -3  274.47   16.90
   4 -17  -3  319.87   26.20
  -4  17  -3  278.07   17.50
   4  17   3  276.97   18.30
  -4 -17   3  291.97   21.40
  -4  17  -3  206.78   23.50
   5 -17   0  133.69   18.50
   5  17   0  106.49   12.60
  -5  17   0  124.59   12.80
  -5 -17   0  116.59   14.10
  -5  17   1   15.90    6.40
  -5 -17  -1   14.40    7.40
   5  17  -1    4.00    5.30
   5 -17   1   16.90    9.90
   5  17   1   13.60    7.30
  -5 -17   1   15.10    6.70
  -5 -17   1   17.20    7.20
  -5  17  -1   16.30    7.10
   5 -17  -1    9.50    9.00
  -5 -17  -2   93.39   13.50
  -5  17   2   69.79    9.80
   5  17  -2  108.59   11.50
   5 -17  -2  115.59   18.30
  -5  17  -2   74.69   11.10
  -5 -17   2  103.59   14.10
   5  17   2   85.69   12.00
  -5  17   3    5.40    5.50
  -6  17   0  218.08   15.60
   6 -17   0  209.48   24.10
  -6 -17   0  198.58   18.90
  -6  17   1  268.07   17.10
  -6 -17  -1  256.37   19.70
   6 -17   1  318.27   26.30
   6  17  -1  256.37   15.90
   6  17   1  301.97   19.10
  -6 -17   1  286.87   20.60
  -6  17  -1  265.47   18.20
  -6 -17   1  256.27   17.70
   6 -17  -1  247.48   25.40
  -6 -17   2  177.48   17.10
   0 -18   0  216.48   14.00
   0  18   0  226.28   12.70
   0 -18  -1    8.00    5.10
   0  18  -1    4.00    4.50
   0  18   1    2.80    4.00
   0 -18   1    2.60    4.70
   0  18   1    1.90    4.10
   0 -18  -1    5.60    6.80
   0  18   2  168.38   12.00
   0  18  -2  183.28   12.80
   0 -18   2  179.18   13.90
   0 -18  -2  247.18   19.70
   0 -18   3    4.10    6.20
   0 -18  -3   -6.00    6.10
   0  18  -3   -3.00    4.30
   0  18   3    1.70    4.80
   1  18   0  204.38   13.10
  -1 -18   0  211.98   14.90
  -1  18   0  204.28   12.70
   1  18   0  213.08   12.50
   1 -18   0  222.38   13.40
   1 -18   0  215.28   17.50
  -1  18   1   -1.40    3.90
   1 -18   1   14.10    7.00
   1 -18   1   18.00    5.70
   1  18  -1    4.10    4.30
  -1  18   1   13.50    5.00
  -1 -18  -1   11.40    6.00
   1 -18  -1   18.50    8.30
  -1  18  -1    6.70    4.60
  -1 -18   1    1.60    4.80
   1  18   1   13.90    5.50
   1 -18   2  201.28   14.10
  -1 -18  -2  163.08   13.30
  -1 -18  -2  187.58   16.50
   1  18  -2  142.19   12.80
  -1  18   2  148.49   11.50
   1  18   2  129.99   12.70
  -1  18  -2  165.38   12.00
  -1 -18   2  176.88   16.20
   1 -18  -2  176.68   19.60
  -1  18   3    4.70    5.40
   1  18  -3   10.40    5.50
   1 -18   3    8.70    5.90
  -1 -18  -3   16.60    8.60
   1  18   3    6.00    5.70
  -1 -18   3    7.70    6.70
   1 -18  -3   10.30    8.20
  -1  18  -3   16.70    6.60
  -1 -18  -4  109.89   16.00
   2  18   0   86.69    9.00
   2 -18   0   85.69   13.60
  -2 -18   0  102.19   11.90
  -2  18   0  101.09   10.20
   2  18   0  114.59   11.40
   2  18  -1  128.89   11.60
  -2 -18  -1  131.49   13.50
  -2  18   1  141.09   10.40
   2 -18   1  143.49   16.90
   2 -18   1  132.79   10.70
   2  18   1  137.19   12.70
  -2  18  -1  115.99   11.30
   2 -18  -1  150.58   18.20
  -2 -18   1  120.29   13.70
   2 -18   2   69.99    9.40
  -2  18   2   75.69    9.10
  -2 -18  -2   75.59   10.70
   2  18  -2   88.59   10.40
  -2  18  -2   85.19   10.00
   2 -18  -2  103.89   16.00
   2  18   2   80.89   10.40
  -2 -18   2   76.19   11.70
   2  18  -3   55.19    9.20
  -2 -18  -3   92.99   12.40
   2 -18   3   99.09   11.70
  -2  18   3   85.49   10.60
   2  18   3   94.69   11.80
  -2  18  -3   81.29   10.90
  -2 -18   3   82.79   12.50
   2 -18  -3  111.39   17.20
  -3  18   0   62.99    8.80
   3 -18   0   48.30   11.70
  -3 -18   0   69.39   10.80
   3  18   0   61.39    9.50
   3  18   0   58.79    7.60
   3 -18   1  212.68   21.90
  -3  18   1  185.08   12.80
  -3 -18  -1  217.58   16.10
   3  18  -1  234.78   14.10
   3  18   1  214.28   14.80
  -3 -18   1  219.08   16.70
  -3  18  -1  186.58   13.40
   3 -18  -1  225.28   20.00
   3  18  -2   44.10    8.10
  -3  18   2   49.60    7.60
  -3 -18  -2   44.30    9.40
  -3  18   2   40.70    7.30
   3 -18   2   49.90    8.10
   3 -18  -2   41.00   12.00
  -3 -18   2   40.20    9.80
  -3  18  -2   46.80    9.10
   3  18   2   66.59   10.20
   3 -18   3  145.69   13.90
   3  18  -3  179.68   15.20
  -3  18   3  161.58   13.70
  -3 -18  -3  145.89   15.80
   3  18   3  157.28   15.30
  -3  18  -3  150.68   14.40
  -3 -18   3  165.98   18.00
  -3  18  -3  113.39   16.90
   3 -18  -3  154.48   21.00
   4 -18   0 1494.15   62.49
   4  18   0 1405.16   49.70
   4  18   0 1392.46   45.10
  -4  18   0 1363.46   47.20
  -4 -18   0 1411.56   53.49
  -4 -18  -1  100.19   13.20
   4 -18   1  121.29   17.70
   4  18  -1  113.49   11.30
  -4  18   1   93.49   10.60
   4  18   1  125.59   13.40
  -4 -18   1   94.89   13.20
  -4 -18   1   89.09   11.10
  -4  18  -1  116.59   12.40
   4 -18  -1  114.49   17.10
   4  18  -2 1159.58   41.70
  -4 -18  -2 1213.68   48.10
  -4  18   2 1148.79   40.20
   4 -18  -2 1163.48   55.79
  -4 -18   2 1134.49   48.30
   4  18   2 1221.48   45.30
  -4  18  -2 1184.08   43.10
   4 -18   3   84.09   10.60
  -4  18   3   69.29    9.80
  -4  18  -3   68.89   14.50
   5  18   0   37.60    8.70
  -5  18   0   56.69    9.30
   5 -18   0   59.89   14.30
  -5 -18   0   53.89   10.40
  -5 -18  -1 1136.29   48.10
   5  18  -1 1178.48   41.40
   5 -18   1 1263.57   58.39
  -5  18   1 1181.68   42.20
  -5 -18   1 1205.68   44.50
   5 -18  -1 1216.08   56.49
   5  18   1 1248.38   45.90
  -5  18  -1 1165.38   43.50
  -5 -18   1 1179.18   48.40
  -5  18   2   27.00    7.30
   5  18  -2   21.70    7.30
   6  18  -1   19.70    6.90
  -6 -18   1   18.80    7.70
   0 -19   0    3.50    5.00
   0  19   0   -0.10    4.20
   0 -19   1 1717.43   60.39
   0  19  -1 1710.23   55.39
   0 -19  -1 1727.53   59.09
   0  19   1 1810.52   53.89
   0  19   1 1834.92   56.99
   0 -19  -1 1876.41   69.99
   0 -19  -2    7.90    7.60
   0 -19   2    6.60    5.80
   0  19  -2    0.50    5.00
   0  19   2    2.40    4.80
   0 -19   3 1203.38   48.50
   0  19  -3 1244.88   44.70
   0 -19  -3 1281.27   55.79
   0  19   3 1258.87   44.70
  -1 -19   0  461.25   23.30
   1 -19   0  508.25   27.30
  -1  19   0  439.86   20.00
   1 -19   0  471.35   21.70
   1  19   0  469.75   20.10
  -1  19   1 3347.87   96.69
  -1 -19  -1 3426.26  106.89
   1  19  -1 3386.26   98.39
   1 -19   1 3387.86  105.59
  -1 -19   1 3370.86  107.99
   1  19   1 3625.24  101.89
  -1  19  -1 3368.26   98.59
   1 -19  -1 3608.64  123.29
   1 -19   2  404.56   21.30
  -1  19   2  422.76   19.50
  -1 -19  -2  383.16   20.80
   1  19  -2  372.16   19.40
  -1  19  -2  377.46   19.40
   1  19   2  381.06   19.90
  -1 -19   2  390.36   22.60
   1 -19  -2  358.66   26.10
   1  19  -3 2511.65   77.29
  -1  19   3 2526.05   77.69
   1 -19   3 2443.76   82.89
   1  19   3 2569.34   79.09
  -1 -19   3 2450.25   84.99
   1 -19  -3 2532.85   97.19
  -1  19  -3 2464.95   77.19
  -2 -19   0  154.48   15.10
   2  19   0  150.08   13.50
  -2  19   0  167.58   12.30
   2  19   0  182.18   11.90
   2 -19   0  190.48   19.40
   2 -19   1   72.49    9.10
  -2 -19  -1   73.59   10.80
   2 -19   1   90.79   13.70
  -2  19   1   79.39    9.00
   2  19  -1   69.69    8.90
  -2  19  -1   64.09    9.40
   2 -19  -1  101.99   15.40
   2  19   1   83.09   10.60
  -2 -19   1   98.29   12.70
  -2 -19  -2  157.58   15.20
  -2  19   2  127.09   12.00
   2 -19   2  136.59   12.90
   2  19  -2  124.59   12.40
   2  19   2  116.69   12.50
   2 -19  -2  140.69   18.90
  -2 -19   2  129.09   15.10
  -2  19  -2  119.39   12.50
  -2  19  -2  118.99   15.50
  -2 -19  -3   56.69   10.30
  -2  19   3   42.50    8.10
   2 -19   3   52.79    9.60
   2  19  -3   68.79   10.40
  -2  19  -3   55.79    9.50
   2  19   3   42.50    8.90
   2 -19  -3   61.99   13.70
  -2 -19   3   48.00   11.00
   3  19   0   56.29    7.80
  -3 -19   0   55.79   10.20
  -3  19   0   51.89    8.20
   3  19   0   69.29   10.10
   3 -19   0   49.99   11.70
  -3 -19  -1  926.81   40.20
   3  19  -1  981.60   35.70
   3 -19   1 1059.69   48.30
  -3  19   1  988.50   35.40
   3 -19  -1 1101.09   49.60
  -3  19  -1  933.91   36.40
  -3 -19   1 1020.70   42.20
   3  19   1  991.90   38.50
   3 -19   2   43.60    8.00
  -3 -19  -2   28.10    9.00
   3  19  -2   48.70    8.30
   3 -19  -2   58.99   13.70
   3  19   2   49.60    9.60
  -3  19  -2   44.90    8.90
  -3 -19   2   53.29   10.70
  -3  19   3  739.43   29.50
   3 -19   3  734.33   31.60
  -3 -19  -3  720.33   33.70
  -3  19  -3  608.64   36.80
   4  19   0   11.40    6.50
  -4  19   0   15.00    6.60
   4 -19   0   12.80    9.30
  -4 -19   0   10.40    7.70
  -4 -19  -1   37.40    9.40
  -4  19   1   27.60    7.40
   4  19  -1   24.40    6.80
   4 -19   1   30.40   11.00
   4 -19  -1   35.20   11.70
   4  19   1   21.80    7.90
  -4 -19   1   27.40    8.80
  -4  19  -1   27.20    7.70
   4  19  -2   12.10    6.10
  -4  19   2   21.40    6.70
  -4 -19  -2   11.60    7.40
  -4  19  -2    5.60    6.70
   4  19   2    2.50    6.10
   4 -19  -2   31.90   11.50
  -4 -19   2   14.40    8.20
  -5 -19   0   10.20    7.70
  -5  19   0   11.30    6.30
   5 -19   0   27.00   11.60
   5  19   0   15.80    7.30
  -5  19   1  239.98   15.90
   5 -19   1  273.07   27.20
   5  19  -1  272.17   16.30
   5  19   1  252.57   18.30
  -5 -19   1  256.47   17.30
  -5  19   2   11.80    6.60
   0  20   0   11.80    5.30
   0 -20   0    4.70    5.30
   0  20  -1    5.50    5.10
   0 -20   1    1.50    5.30
   0 -20  -1    3.90    5.10
   0  20  -2   10.20    5.90
   0 -20  -2    5.50    8.10
   0  20   2   15.30    6.10
   0 -20   2    7.30    5.70
   0 -20  -3   -3.10    7.50
   0  20   3   -5.20    5.20
  -1  20   0  144.89   12.20
   1 -20   0  131.49   12.30
   1  20   0  122.89   11.10
   1 -20   0  153.48   16.40
  -1 -20   0  127.39   13.60
   1 -20   1    8.50    5.30
  -1 -20  -1    0.40    4.80
   1  20  -1    5.30    5.20
  -1  20   1   -0.10    4.50
  -1  20  -1    0.00    4.90
   1  20   1   10.80    5.80
  -1 -20   1    3.80    5.50
   1 -20  -1    1.00    6.90
  -1  20   2  121.69   11.90
   1  20  -2  116.39   12.40
   1 -20   2  106.39   12.50
   1 -20  -2  130.29   17.80
   1  20   2  124.59   13.00
  -1  20  -2  104.89   11.60
  -1 -20   2  120.89   14.10
  -1  20   3   -0.30    5.10
   1 -20  -3   14.20    9.70
   1  20   3    6.00    6.20
  -2 -20   0  195.28   15.20
   2 -20   0  208.98   20.60
   2  20   0  194.18   12.70
  -2  20   0  183.98   13.10
   2  20  -1  520.85   22.80
  -2 -20  -1  499.75   25.20
   2 -20   1  517.45   29.40
   2 -20   1  475.45   22.60
  -2  20   1  482.55   21.50
   2  20   1  460.65   23.40
   2 -20  -1  578.14   32.30
  -2  20  -1  484.45   22.70
  -2 -20   1  494.35   25.80
   2  20  -2  186.48   15.30
   2 -20   2  162.08   14.50
  -2 -20  -2  162.08   15.90
   2  20   2  162.88   14.80
   2 -20  -2  160.58   20.30
  -2  20  -2  147.89   14.10
  -2 -20   2  176.88   17.50
  -2  20   3  423.56   21.70
   3  20   0  316.17   18.40
  -3 -20   0  241.18   18.60
   3 -20   0  314.07   23.80
  -3  20   0  298.07   17.00
  -3  20   1  599.14   25.70
  -3 -20  -1  628.64   30.80
   3  20  -1  670.33   26.90
   3 -20   1  689.23   36.60
   3  20   1  680.43   29.40
  -3  20  -1  593.14   27.20
  -3 -20   1  601.04   30.70
   3 -20  -1  670.53   37.30
  -3 -20  -2  238.18   17.80
   3  20  -2  258.97   16.60
   3 -20   2  216.88   14.80
   3  20   2  250.07   17.20
  -3  20  -2  229.48   16.40
  -3  20  -2  236.38   20.20
  -3 -20   2  240.98   18.90
   3 -20  -2  235.48   24.20
  -4  20   0   19.70    7.00
   4  20   0   14.10    7.00
  -4 -20   0   10.70    7.10
   4 -20   0   18.90   10.30
  -4 -20  -1   38.30    9.60
   4 -20   1   40.50   12.40
   4  20  -1   51.09    8.60
  -4  20   1   54.49    9.00
   4 -20  -1   55.29   13.50
   4  20   1   40.30    9.30
  -4 -20   1   43.30   10.40
  -4  20  -1   24.90    8.00
   5  20   0  419.16   23.50
   5  20  -1   46.50    8.90
   0  21   0   -6.90    4.20
   0 -21   0    7.30    5.70
   0 -21   1  104.29   12.50
   0  21  -1   98.49   10.70
   0  21   2    4.70    5.80
   0 -21   2   -1.50    5.80
   0  21  -2    4.00    5.60
  -1 -21   0   13.30    6.60
   1  21   0   16.30    5.60
  -1  21   0    1.20    4.50
   1  21  -1   70.79    9.40
  -1  21   1   57.79    8.40
  -1 -21  -1   68.69   10.40
   1 -21   1   55.59    9.20
  -1  21  -1   65.49    9.20
   1 -21  -1   59.89   12.60
  -1 -21   1   57.19   10.20
   1  21  -2    4.20    5.70
   1 -21   2    3.70    5.60
  -1  21  -2   11.10    5.90
   1 -21  -2   -0.40    7.90
   1  21   2    7.70    6.20
  -1 -21   2    5.10    6.80
  -2  21   0  774.02   31.30
   2  21   0  805.72   30.60
   2 -21   0  906.61   41.60
  -2 -21   0  844.12   36.50
  -2 -21  -1    6.20    6.80
   2  21  -1   13.10    6.20
  -2  21   1    4.60    5.30
   2 -21  -1   16.40    9.70
   2  21   1   -2.40    5.60
  -2  21  -1    6.10    5.60
  -2 -21   1    3.10    6.40
   2  21  -2  700.83   29.90
  -2 -21  -2  724.73   32.60
   2 -21   2  719.33   31.10
   2  21   2  668.83   30.60
   2 -21  -2  748.73   40.70
   3 -21   0  426.26   27.90
  -3 -21   0  359.66   22.50
  -3  21   0  385.36   20.30
   3  21  -1  299.87   17.60
   3 -21   1  278.77   23.20
  -3  21   1  297.37   16.90
  -3 -21  -1  301.17   20.40
   3 -21  -1  363.46   26.30
   3  21   1  320.47   19.60
  -3  21  -1  313.57   18.80
  -3 -21   1  290.17   20.50
  -3 -21  -2  333.07   21.50
   4  21   0  281.07   18.90
   4 -21   0  334.37   26.20
  -4  21   1  272.47   17.20
   4  21  -1  293.67   17.30
   4 -21   1  274.07   24.50
   4  21   1  302.37   19.70
   0 -22   0   71.99   10.50
   0  22   0   80.09    9.80
   0 -22   1   -2.70    5.70
   0  22  -1    1.20    5.30
   0  22   2   51.09    9.10
  -1  22   0 1161.58   40.90
   1  22   0 1210.98   40.90
  -1 -22   0 1158.98   45.10
  -1 -22  -1  353.56   20.20
   1  22  -1  361.36   19.20
   1 -22   1  341.57   19.60
  -1 -22   1  318.47   20.90
  -1  22  -1  326.97   18.20
   1 -22   2  993.00   41.30
   1  22   2 1080.59   40.70
  -2 -22   0 1160.68   46.00
  -2  22   0 1141.89   40.60
   2  22  -1  113.19   12.00
  -2 -22  -1  103.39   13.20
  -2  22   1  111.99   11.70
   2 -22  -1  158.48   19.40
  -2 -22   1  115.19   14.20
  -2  22  -1  104.59   12.10
   2 -22   2  962.30   38.70
  -2 -22  -2  955.80   39.80
  -3  22   0  149.39   14.00
  -3  22   1   70.59   10.10
   3 -22   1   71.09   13.90
   3  22  -1   69.79   10.10
   3  22   1   59.19   10.80
   3 -22  -1   76.29   14.70
   0  23   0    9.00    5.80
   0 -23   0   17.50    7.10
   0 -23   1   70.49   11.20
  -1  23   0   11.90    6.40
  -1 -23   0   28.80    8.20
   1 -23   1   82.99   11.30
   0   0   0    0.00    0.00



_computing_structure_solution     'SHELXT 2018/2 (Sheldrick, 2018)'
;
_shelx_hkl_checksum              49262
loop_
_space_group_symop_operation_xyz
'x, y, z'
'-x, -y, z'
'-x+1/2, y+1/2, -z+1/2'
'x+1/2, -y+1/2, -z+1/2'
'-x, -y, -z'
'x, y, -z'
'x-1/2, -y-1/2, z-1/2'
'-x-1/2, y-1/2, z-1/2'
loop_
_atom_site_label
_atom_site_type_symbol
_atom_site_fract_x
_atom_site_fract_y
_atom_site_fract_z
_atom_site_U_iso_or_equiv
_atom_site_adp_type
_atom_site_occupancy
_atom_site_site_symmetry_order
_atom_site_calc_flag
_atom_site_refinement_flags_posn
_atom_site_refinement_flags_adp
_atom_site_refinement_flags_occupancy
_atom_site_disorder_assembly
_atom_site_disorder_group
Sr2 Sr 0.000000 0.000000 0.000000 0.00827(10) Uani 1 4 d S T P . .
Sr1 Sr 0.71202(5) 0.19821(2) 0.000000 0.01013(9) Uani 1 2 d S T P . .
In In 0.13613(3) 0.58542(2) 0.000000 0.00816(8) Uani 1 2 d S T P . .
As2 As 0.24321(5) 0.43122(2) 0.000000 0.00764(9) Uani 1 2 d S T P . .
As1 As 0.23859(5) 0.16704(2) 0.000000 0.00837(9) Uani 1 2 d S T P . .
loop_
_atom_site_aniso_label
_atom_site_aniso_U_11
_atom_site_aniso_U_22
_atom_site_aniso_U_33
_atom_site_aniso_U_23
_atom_site_aniso_U_13
_atom_site_aniso_U_12
In 0.00823(12) 0.00698(12) 0.00927(12) 0.000 0.000 -0.00010(7)
Sr2 0.0076(2) 0.0090(2) 0.00828(19) 0.000 0.000 0.00130(14)
Sr1 0.01410(17) 0.00742(16) 0.00888(15) 0.000 0.000 -0.00079(11)
As2 0.00787(16) 0.00660(16) 0.00846(16) 0.000 0.000 -0.00037(11)
As1 0.01057(17) 0.00655(17) 0.00800(16) 0.000 0.000 0.00083(11)
loop_
_atom_type_symbol
_atom_type_description
_atom_type_scat_dispersion_real
_atom_type_scat_dispersion_imag
_atom_type_scat_source
As As 0.0499 2.0058 'International Tables Vol C Tables 4.2.6.8 and 6.1.1.4'
In In -0.7276 1.3100 'International Tables Vol C Tables 4.2.6.8 and 6.1.1.4'
Sr Sr -1.5307 3.2498 'International Tables Vol C Tables 4.2.6.8 and 6.1.1.4'
loop_
_geom_angle_atom_site_label_1
_geom_angle_atom_site_label_2
_geom_angle_atom_site_label_3
_geom_angle
_geom_angle_site_symmetry_1
_geom_angle_site_symmetry_3
Sr2 In Sr2 74.765(6) 3 3_554
Sr2 In Sr1 106.314(4) 3_554 3_554
Sr2 In Sr1 173.039(8) 3_554 3
Sr2 In Sr1 100.428(7) 3 5_665
Sr2 In Sr1 106.314(4) 3 3
Sr2 In Sr1 100.428(6) 3_554 5_665
Sr2 In Sr1 173.039(8) 3 3_554
Sr1 In Sr1 72.615(6) 5_665 3
Sr1 In Sr1 72.615(5) 5_665 3_554
Sr1 In Sr1 71.766(8) 3_554 3
As2 In Sr2 55.441(6) . 3_554
As2 In Sr2 55.441(6) . 3
As2 In Sr2 130.332(7) 5_565 3
As2 In Sr2 130.332(7) 5_565 3_554
As2 In Sr1 130.972(8) . 3
As2 In Sr1 54.306(8) 5_565 3_554
As2 In Sr1 54.306(7) 5_565 3
As2 In Sr1 112.295(11) 5_565 5_665
As2 In Sr1 147.615(12) . 5_665
As2 In Sr1 130.972(8) . 3_554
As2 In As2 100.091(12) 5_565 .
As2 In As1 111.557(9) 5_565 3_554
As2 In As1 112.899(9) . 3
As2 In As1 112.899(9) . 3_554
As2 In As1 111.557(9) 5_565 3
As1 In Sr2 58.934(8) 3_554 3_554
As1 In Sr2 117.716(10) 3 3_554
As1 In Sr2 58.934(8) 3 3
As1 In Sr2 117.716(10) 3_554 3
As1 In Sr1 115.406(10) 3_554 3
As1 In Sr1 115.406(10) 3 3_554
As1 In Sr1 55.559(7) 3_554 5_665
As1 In Sr1 58.792(9) 3_554 3_554
As1 In Sr1 55.559(7) 3 5_665
As1 In Sr1 58.792(9) 3 3
As1 In As1 107.799(14) 3 3_554
In Sr2 In 105.235(6) 7_565 3_544
In Sr2 In 74.765(6) 3_545 3_544
In Sr2 In 180.0 3_545 7_565
In Sr2 In 180.0 7_566 3_544
In Sr2 In 105.235(6) 3_545 7_566
In Sr2 In 74.765(6) 7_565 7_566
In Sr2 Sr1 91.356(6) 3_544 1_455
In Sr2 Sr1 91.356(6) 7_566 5_655
In Sr2 Sr1 91.356(6) 3_545 1_455
In Sr2 Sr1 88.644(6) 7_565 1_455
In Sr2 Sr1 88.644(6) 3_544 5_655
In Sr2 Sr1 88.644(6) 3_545 5_655
In Sr2 Sr1 91.356(6) 7_565 5_655
In Sr2 Sr1 88.644(6) 7_566 1_455
Sr1 Sr2 Sr1 180.0 5_655 1_455
As2 Sr2 In 79.475(7) 3_545 7_566
As2 Sr2 In 79.475(7) 3_544 7_565
As2 Sr2 In 100.525(7) 3_545 3_544
As2 Sr2 In 134.007(7) 3_544 7_566
As2 Sr2 In 134.007(7) 7_565 3_545
As2 Sr2 In 100.525(7) 7_565 7_566
As2 Sr2 In 100.525(7) 7_566 7_565
As2 Sr2 In 45.993(7) 7_566 7_566
As2 Sr2 In 79.475(7) 7_566 3_545
As2 Sr2 In 45.993(7) 3_545 3_545
As2 Sr2 In 100.525(7) 3_544 3_545
As2 Sr2 In 134.007(7) 3_545 7_565
As2 Sr2 In 134.007(7) 7_566 3_544
As2 Sr2 In 45.993(7) 3_544 3_544
As2 Sr2 In 79.475(7) 7_565 3_544
As2 Sr2 In 45.993(7) 7_565 7_565
As2 Sr2 Sr1 128.383(6) 7_565 5_655
As2 Sr2 Sr1 51.617(6) 7_565 1_455
As2 Sr2 Sr1 51.617(6) 7_566 1_455
As2 Sr2 Sr1 51.617(6) 3_545 5_655
As2 Sr2 Sr1 128.383(6) 3_545 1_455
As2 Sr2 Sr1 128.383(6) 7_566 5_655
As2 Sr2 Sr1 51.617(6) 3_544 5_655
As2 Sr2 Sr1 128.383(6) 3_544 1_455
As2 Sr2 As2 87.463(9) 3_545 7_566
As2 Sr2 As2 180.000(12) 7_565 3_545
As2 Sr2 As2 92.537(9) 7_565 7_566
As2 Sr2 As2 87.463(9) 7_565 3_544
As2 Sr2 As2 92.537(9) 3_545 3_544
As2 Sr2 As2 180.0 7_566 3_544
As2 Sr2 As1 88.575(8) 7_566 .
As2 Sr2 As1 91.425(8) 7_566 5
As2 Sr2 As1 88.575(8) 3_545 5
As2 Sr2 As1 91.425(8) 3_545 .
As2 Sr2 As1 88.575(8) 3_544 5
As2 Sr2 As1 88.575(8) 7_565 .
As2 Sr2 As1 91.425(8) 3_544 .
As2 Sr2 As1 91.425(8) 7_565 5
As1 Sr2 In 46.432(4) . 3_544
As1 Sr2 In 133.568(4) . 7_565
As1 Sr2 In 133.568(4) 5 3_545
As1 Sr2 In 46.432(5) 5 7_566
As1 Sr2 In 133.568(5) 5 3_544
As1 Sr2 In 133.568(5) . 7_566
As1 Sr2 In 46.432(4) . 3_545
As1 Sr2 In 46.432(4) 5 7_565
As1 Sr2 Sr1 118.138(8) 5 1_455
As1 Sr2 Sr1 61.862(8) . 1_455
As1 Sr2 Sr1 61.862(8) 5 5_655
As1 Sr2 Sr1 118.138(8) . 5_655
As1 Sr2 As1 180.0 5 .
In Sr1 In 71.766(8) 3_544 3_545
In Sr1 In 131.073(7) 5_665 3_545
In Sr1 In 131.073(7) 5_665 3_544
In Sr1 Sr2 132.581(10) 5_665 1_655
In Sr1 Sr2 84.521(7) 3_545 1_655
In Sr1 Sr2 84.521(7) 3_544 1_655
In Sr1 Sr1 54.117(4) 3_545 1_556
In Sr1 Sr1 125.884(4) 3_545 1_554
In Sr1 Sr1 54.117(4) 3_544 1_554
In Sr1 Sr1 90.0 5_665 1_556
In Sr1 Sr1 90.0 5_665 1_554
In Sr1 Sr1 125.884(4) 3_544 1_556
Sr2 Sr1 Sr1 90.0 1_655 1_556
Sr2 Sr1 Sr1 90.0 1_655 1_554
Sr1 Sr1 Sr1 180.0 1_554 1_556
As2 Sr1 In 43.884(7) 7_665 3_544
As2 Sr1 In 130.454(8) 7_666 5_665
As2 Sr1 In 96.700(10) 7_666 3_544
As2 Sr1 In 96.700(10) 7_665 3_545
As2 Sr1 In 43.884(7) 7_666 3_545
As2 Sr1 In 130.454(7) 7_665 5_665
As2 Sr1 Sr2 50.800(7) 7_666 1_655
As2 Sr1 Sr2 50.800(7) 7_665 1_655
As2 Sr1 Sr1 44.410(6) 7_666 1_556
As2 Sr1 Sr1 135.591(6) 7_665 1_556
As2 Sr1 Sr1 44.410(6) 7_665 1_554
As2 Sr1 Sr1 135.591(6) 7_666 1_554
As2 Sr1 As2 91.181(12) 7_665 7_666
As2 Sr1 As1 89.456(8) 7_666 7_666
As2 Sr1 As1 80.374(9) 7_665 1_655
As2 Sr1 As1 87.712(10) 7_666 .
As2 Sr1 As1 89.456(8) 7_665 7_665
As2 Sr1 As1 172.565(14) 7_666 7_665
As2 Sr1 As1 80.374(9) 7_666 1_655
As2 Sr1 As1 87.712(10) 7_665 .
As2 Sr1 As1 172.565(14) 7_665 7_666
As1 Sr1 In 88.888(7) 7_666 3_545
As1 Sr1 In 143.320(12) 7_666 3_544
As1 Sr1 In 45.659(6) 7_665 5_665
As1 Sr1 In 115.267(11) . 5_665
As1 Sr1 In 44.832(6) . 3_544
As1 Sr1 In 81.827(9) 1_655 5_665
As1 Sr1 In 44.832(6) . 3_545
As1 Sr1 In 143.320(12) 7_665 3_545
As1 Sr1 In 124.241(8) 1_655 3_545
As1 Sr1 In 124.241(8) 1_655 3_544
As1 Sr1 In 45.659(6) 7_666 5_665
As1 Sr1 In 88.888(7) 7_665 3_544
As1 Sr1 Sr2 112.151(10) . 1_655
As1 Sr1 Sr2 125.340(8) 7_666 1_655
As1 Sr1 Sr2 125.340(8) 7_665 1_655
As1 Sr1 Sr2 50.754(7) 1_655 1_655
As1 Sr1 Sr1 45.517(6) 7_665 1_554
As1 Sr1 Sr1 90.0 1_655 1_554
As1 Sr1 Sr1 134.482(6) 7_665 1_556
As1 Sr1 Sr1 134.482(6) 7_666 1_554
As1 Sr1 Sr1 45.517(6) 7_666 1_556
As1 Sr1 Sr1 90.0 . 1_556
As1 Sr1 Sr1 90.0 1_655 1_556
As1 Sr1 Sr1 90.0 . 1_554
As1 Sr1 As1 88.965(11) 7_666 7_665
As1 Sr1 As1 99.716(10) 7_665 .
As1 Sr1 As1 92.434(10) 7_665 1_655
As1 Sr1 As1 99.716(10) 7_666 .
As1 Sr1 As1 92.434(10) 7_666 1_655
As1 Sr1 As1 162.905(15) . 1_655
In As2 In 79.908(12) 5_565 .
In As2 Sr2 128.116(7) 5_565 3_554
In As2 Sr2 128.116(7) 5_565 3
In As2 Sr2 78.565(8) . 3
In As2 Sr2 78.565(8) . 3_554
In As2 Sr1 81.811(10) 5_565 7_565
In As2 Sr1 130.510(8) . 7_566
In As2 Sr1 130.510(8) . 7_565
In As2 Sr1 81.811(10) 5_565 7_566
Sr2 As2 Sr2 92.537(9) 3 3_554
Sr2 As2 Sr1 77.583(6) 3_554 7_565
Sr2 As2 Sr1 144.819(13) 3_554 7_566
Sr2 As2 Sr1 144.819(13) 3 7_565
Sr2 As2 Sr1 77.583(7) 3 7_566
Sr1 As2 Sr1 91.180(12) 7_565 7_566
In As1 In 107.798(14) 3_544 3_545
In As1 Sr2 74.633(9) 3_545 .
In As1 Sr2 74.633(9) 3_544 .
In As1 Sr1 159.682(14) 3_544 7_566
In As1 Sr1 112.574(9) 3_544 1_455
In As1 Sr1 78.783(7) 3_545 7_566
In As1 Sr1 76.378(9) 3_545 .
In As1 Sr1 78.783(7) 3_544 7_565
In As1 Sr1 112.574(9) 3_545 1_455
In As1 Sr1 159.682(14) 3_545 7_565
In As1 Sr1 76.378(9) 3_544 .
Sr2 As1 Sr1 129.711(12) . .
Sr2 As1 Sr1 67.384(8) . 1_455
Sr1 As1 Sr2 125.558(9) 7_565 .
Sr1 As1 Sr2 125.558(9) 7_566 .
Sr1 As1 Sr1 162.905(15) . 1_455
Sr1 As1 Sr1 86.929(9) 7_565 .
Sr1 As1 Sr1 80.913(9) 7_565 1_455
Sr1 As1 Sr1 86.929(9) 7_566 .
Sr1 As1 Sr1 88.966(11) 7_566 7_565
Sr1 As1 Sr1 80.913(9) 7_566 1_455
loop_
_geom_bond_atom_site_label_1
_geom_bond_atom_site_label_2
_geom_bond_distance
_geom_bond_site_symmetry_2
In Sr2 3.6472(2) 3
In Sr2 3.6472(2) 3_554
In Sr1 3.7779(3) 3_554
In Sr1 3.7779(3) 3
In Sr1 3.7587(4) 5_665
In As2 2.6764(4) .
In As2 2.6458(4) 5_565
In As1 2.7406(2) 3
In As1 2.7406(2) 3_554
Sr2 Sr1 3.8620(3) 1_455
Sr2 Sr1 3.8620(3) 5_655
Sr2 As2 3.0645(2) 7_566
Sr2 As2 3.0645(2) 3_545
Sr2 As2 3.0645(2) 7_565
Sr2 As2 3.0645(2) 3_544
Sr2 As1 3.2400(4) .
Sr2 As1 3.2400(4) 5
Sr1 Sr1 4.4287(2) 1_554
Sr1 Sr1 4.4287(2) 1_556
Sr1 As2 3.0998(3) 7_665
Sr1 As2 3.0998(3) 7_666
Sr1 As1 3.6892(5) 1_655
Sr1 As1 3.1602(3) 7_665
Sr1 As1 3.3247(5) .
Sr1 As1 3.1602(3) 7_666
