#------------------------------------------------------------------------------
#$Date: 2021-04-16 11:20:33 +0300 (Fri, 16 Apr 2021) $
#$Revision: 264238 $
#$URL: file:///home/coder/svn-repositories/cod/cif/1/56/18/1561848.cif $
#------------------------------------------------------------------------------
#
# This file is available in the Crystallography Open Database (COD),
# http://www.crystallography.net/
#
# All data on this site have been placed in the public domain by the
# contributors.
#
data_1561848
loop_
_publ_author_name
'Iyer, Abishek K.'
'Rudyk, Brent W.'
'Lin, Xinsong'
'Singh, Harpreet'
'Sharma, Arzoo Z.'
'Wiebe, Christopher R.'
'Mar, Arthur'
_publ_section_title
;
 Noncentrosymmetric rare-earth copper gallium chalcogenides RE3CuGaCh7
 (RE=La--Nd; Ch=S, Se): An unexpected combination
;
_journal_name_full               'Journal of Solid State Chemistry'
_journal_page_first              150
_journal_page_last               159
_journal_paper_doi               10.1016/j.jssc.2015.05.016
_journal_volume                  229
_journal_year                    2015
_chemical_formula_structural     'Nd3 Cu Ga Se7'
_chemical_formula_sum            'Cu Ga Nd3 Se7'
_chemical_formula_weight         1118.70
_chemical_name_common            'neodymium copper gallium selenide (3/1/1/7)'
_chemical_name_systematic        'neodymium copper gallium selenide (3/1/1/7)'
_space_group_crystal_system      hexagonal
_space_group_IT_number           173
_space_group_name_Hall           'P 6c'
_space_group_name_H-M_alt        'P 63'
_atom_sites_solution_hydrogens   .
_atom_sites_solution_primary     direct
_atom_sites_solution_secondary   difmap
_audit_creation_method           SHELXL-2013
_cell_angle_alpha                90
_cell_angle_beta                 90
_cell_angle_gamma                120
_cell_formula_units_Z            2
_cell_length_a                   10.3426(9)
_cell_length_b                   10.3426(9)
_cell_length_c                   6.3869(6)
_cell_measurement_reflns_used    3873
_cell_measurement_temperature    296(2)
_cell_measurement_theta_max      26.22
_cell_measurement_theta_min      3.92
_cell_volume                     591.67(9)
_computing_cell_refinement       'Bruker SAINT 8.34A (Bruker, 2013)'
_computing_data_collection       'Bruker APEX 2 (Bruker, 2008)'
_computing_data_reduction        'Bruker SAINT 8.34A'
_computing_molecular_graphics    'ATOMS 5.1 (Dowty, 1999)'
_computing_publication_material  'Bruker SHELXTL'
_computing_structure_refinement  'Bruker SHELXTL'
_computing_structure_solution    'Bruker SHELXTL'
_diffrn_ambient_temperature      296(2)
_diffrn_measured_fraction_theta_full 1.000
_diffrn_measured_fraction_theta_max 1.000
_diffrn_measurement_device_type  'Bruker PLATFORM/SMART APEX II CCD'
_diffrn_measurement_method       '\w and \f scans'
_diffrn_radiation_type           MoK\a
_diffrn_radiation_wavelength     0.71073
_diffrn_reflns_av_R_equivalents  0.0603
_diffrn_reflns_av_unetI/netI     0.0369
_diffrn_reflns_Laue_measured_fraction_full 1.000
_diffrn_reflns_Laue_measured_fraction_max 1.000
_diffrn_reflns_limit_h_max       15
_diffrn_reflns_limit_h_min       -15
_diffrn_reflns_limit_k_max       15
_diffrn_reflns_limit_k_min       -15
_diffrn_reflns_limit_l_max       9
_diffrn_reflns_limit_l_min       -9
_diffrn_reflns_number            8671
_diffrn_reflns_point_group_measured_fraction_full 1.000
_diffrn_reflns_point_group_measured_fraction_max 1.000
_diffrn_reflns_theta_full        25.242
_diffrn_reflns_theta_max         33.091
_diffrn_reflns_theta_min         2.274
_diffrn_source                   'fine-focus sealed tube'
_exptl_absorpt_coefficient_mu    38.417
_exptl_absorpt_correction_T_max  0.3755
_exptl_absorpt_correction_T_min  0.2027
_exptl_absorpt_correction_type   numerical
_exptl_absorpt_process_details   'Bruker SHELXTL (Sheldrick, 2013)'
_exptl_crystal_colour            grey
_exptl_crystal_density_diffrn    6.279
_exptl_crystal_density_method    'not measured'
_exptl_crystal_description       irregular
_exptl_crystal_F_000             956
_exptl_crystal_size_max          0.054
_exptl_crystal_size_mid          0.046
_exptl_crystal_size_min          0.043
_refine_diff_density_max         1.470
_refine_diff_density_min         -1.359
_refine_diff_density_rms         0.266
_refine_ls_abs_structure_details
;
 Flack x determined using 583 quotients [(I+)-(I-)]/[(I+)+(I-)]
 (Parsons and Flack (2004), Acta Cryst. A60, s61).
;
_refine_ls_abs_structure_Flack   0.00(3)
_refine_ls_extinction_coef       0.0019(4)
_refine_ls_extinction_expression Fc^*^=kFc[1+0.001xFc^2^\l^3^/sin(2\q)]^-1/4^
_refine_ls_extinction_method     SHELXL
_refine_ls_goodness_of_fit_ref   1.126
_refine_ls_hydrogen_treatment    undef
_refine_ls_matrix_type           full
_refine_ls_number_parameters     41
_refine_ls_number_reflns         1507
_refine_ls_number_restraints     1
_refine_ls_restrained_S_all      1.126
_refine_ls_R_factor_all          0.0358
_refine_ls_R_factor_gt           0.0300
_refine_ls_shift/su_max          0.000
_refine_ls_shift/su_mean         0.000
_refine_ls_structure_factor_coef Fsqd
_refine_ls_weighting_details
'w=1/[\s^2^(Fo^2^)+(0.0281P)^2^] where P=(Fo^2^+2Fc^2^)/3'
_refine_ls_weighting_scheme      calc
_refine_ls_wR_factor_gt          0.0612
_refine_ls_wR_factor_ref         0.0631
_reflns_Friedel_coverage         0.860
_reflns_Friedel_fraction_full    1.000
_reflns_Friedel_fraction_max     1.000
_reflns_number_gt                1371
_reflns_number_total             1507
_reflns_threshold_expression     'I > 2\s(I)'
_cod_data_source_file            JSSC-2015-229-150.cif
_cod_data_source_block           Nd3CuGaSe7
_cod_original_cell_volume        591.67(12)
_cod_database_code               1561848
_shelx_space_group_comment
;
The symmetry employed for this shelxl refinement is uniquely defined
by the following loop, which should always be used as a source of
symmetry information in preference to the above space-group names.
They are only intended as comments.
;
_shelx_estimated_absorpt_t_min   0.231
_shelx_estimated_absorpt_t_max   0.289
_shelxl_version_number           2013-4
_shelx_res_file
;
TITL Nd3CuGaSe7 P6(3) lsf final refinement
CELL 0.71073  10.34260  10.34260   6.38690  90.0000  90.0000 120.0000
ZERR    2.00   0.00090   0.00090   0.00060   0.0000   0.0000   0.0000
LATT -1
SYMM -Y, X-Y, Z
SYMM -X+Y, -X, Z
SYMM -X, -Y, 0.5+Z
SYMM Y, -X+Y, 0.5+Z
SYMM X-Y, X, 0.5+Z
SFAC CU GA SE ND
UNIT 2 2 14 6
TEMP 23
SIZE 0.043 0.046 0.054

L.S. 4
ACTA

TWIN 0 1 0 1 0 0 0 0 -1 2
EADP CU1A CU1B
WGHT    0.028100
EXTI    0.001877
BASF   0.15953
FVAR       0.07626   0.65945
ND    4    0.153285    0.374326    0.416819    11.00000    0.01837    0.01403 =
         0.03328   -0.00269   -0.00294    0.00822
CU1A  1    0.000000    0.000000    0.000000    20.33333    0.01338    0.01338 =
         0.06439    0.00000    0.00000    0.00669
CU1B  1    0.000000    0.000000    0.107492   -20.33333    0.01338    0.01338 =
         0.06439    0.00000    0.00000    0.00669
GA    2    0.333333    0.666667    0.833413    10.33333    0.01719    0.01719 =
         0.01405    0.00000    0.00000    0.00859
SE1   3    0.256681    0.148379    0.469337    11.00000    0.01690    0.01490 =
         0.02872   -0.00545   -0.00454    0.00938
SE2   3    0.521933    0.088560    0.183367    11.00000    0.01553    0.01473 =
         0.01693   -0.00007    0.00082    0.00452
SE3   3    0.333333    0.666667    0.204810    10.33333    0.01645    0.01645 =
         0.01338    0.00000    0.00000    0.00822
HKLF 4

REM  Nd3CuGaSe7 P6(3) lsf final refinement
REM R1 =  0.0300 for    1371 Fo > 4sig(Fo)  and  0.0358 for all    1507 data
REM     41 parameters refined using      1 restraints

END

WGHT      0.0282      0.0000

REM Highest difference peak  1.470,  deepest hole -1.359,  1-sigma level  0.266
Q1    1   0.0000  0.0000  0.2236  10.33333  0.05    1.47
Q2    1   0.2626  0.0388  0.4627  11.00000  0.05    1.25
Q3    1   0.0000  0.0000 -0.1486  10.33333  0.05    1.24
Q4    1   0.1509  0.3428  0.2349  11.00000  0.05    1.11
Q5    1   0.2794  0.1256  0.2669  11.00000  0.05    1.04
Q6    1   0.2548  0.1168  0.6815  11.00000  0.05    1.00
Q7    1   0.1205  0.3453  0.6066  11.00000  0.05    1.00
Q8    1   0.3333  0.6667  0.3860  10.33333  0.05    0.99
Q9    1   0.3556  0.7067  0.9641  11.00000  0.05    0.95
Q10   1   0.5381  0.0450  0.1975  11.00000  0.05    0.95
Q11   1   0.3071  0.7449  0.9257  11.00000  0.05    0.94
Q12   1   0.2265  0.3501  0.4174  11.00000  0.05    0.94
Q13   1   0.3333  0.6667  0.0968  10.33333  0.05    0.94
Q14   1   0.3333  0.6667  0.6041  10.33333  0.05    0.92
Q15   1   0.1842  0.3007  0.2925  11.00000  0.05    0.92
Q16   1   0.2607  0.1376  0.3752  11.00000  0.05    0.88
Q17   1   0.4708  0.0176  0.3363  11.00000  0.05    0.86
Q18   1   0.3666  0.1281  0.4620  11.00000  0.05    0.85
Q19   1   0.4776  0.0973  0.3560  11.00000  0.05    0.81
Q20   1   0.4217 -0.0557  0.2280  11.00000  0.05    0.80
;
_shelx_res_checksum              48946
_shelx_hkl_file
;
   2  -6  -9    0.04    2.28
   3  -6  -9    7.23    3.24
   2  -5  -9   -0.43    1.88
   3  -5  -9   -0.11    1.48
   4  -5  -9    4.57    1.86
   5  -5  -9   11.87    3.67
   1  -4  -9    0.60    2.21
   2  -4  -9    1.47    1.63
   3  -4  -9   -0.88    1.23
   4  -4  -9   -0.35    1.38
   5  -4  -9    1.52    1.72
   1  -3  -9   12.63    3.84
   2  -3  -9   15.05    2.87
   3  -3  -9    3.90    1.88
   4  -3  -9    1.01    1.59
   5  -3  -9    2.35    1.84
   6  -3  -9    2.40    2.67
   0  -2  -9   14.36    3.80
   1  -2  -9    0.55    1.52
   2  -2  -9    5.26    2.02
   3  -2  -9   10.02    2.37
   4  -2  -9   -0.62    1.44
   5  -2  -9    0.62    1.70
   6  -2  -9    1.79    2.40
  -4  -1  -9    7.98    3.33
  -2  -1  -9   11.84    3.61
  -1  -1  -9    0.94    2.49
   0  -1  -9    4.16    1.75
   1  -1  -9    1.50    1.65
   2  -1  -9    2.53    1.80
   3  -1  -9   15.90    3.03
   4  -1  -9    1.50    1.36
   5  -1  -9    3.34    1.91
  -5   0  -9    5.88    3.02
  -4   0  -9   -1.14    1.39
  -3   0  -9    4.90    2.87
  -2   0  -9    9.78    2.49
  -1   0  -9    3.99    2.81
   0   0  -9    1.29    1.49
   1   0  -9    0.27    1.57
   2   0  -9   10.85    2.38
   3   0  -9    3.18    1.97
   4   0  -9    0.36    1.67
   5   0  -9   12.26    3.97
  -5   1  -9    6.70    2.14
  -4   1  -9    1.08    2.20
  -3   1  -9   11.73    2.59
  -2   1  -9   -0.08    1.52
  -1   1  -9    1.89    1.75
   0   1  -9    0.87    1.68
   1   1  -9    3.09    1.76
   2   1  -9   16.58    3.17
   3   1  -9    0.80    1.67
   4   1  -9    9.97    4.24
  -6   2  -9   -1.79    2.29
  -5   2  -9    0.24    2.27
  -4   2  -9    0.30    1.62
  -3   2  -9    9.15    2.44
  -2   2  -9    9.94    2.53
  -1   2  -9    2.31    1.49
   0   2  -9    8.28    2.32
   1   2  -9    9.49    2.53
   2   2  -9    0.80    1.59
   3   2  -9    2.70    2.06
  -5   3  -9    3.65    1.98
  -4   3  -9    2.15    1.88
  -3   3  -9    3.60    2.07
  -2   3  -9   11.98    2.73
  -1   3  -9   10.10    2.60
   0   3  -9    4.24    2.10
   1   3  -9    0.15    1.73
   2   3  -9    0.09    1.64
  -6   4  -9    2.00    2.89
  -5   4  -9    0.04    1.62
  -4   4  -9    1.44    1.75
  -3   4  -9    0.51    1.50
  -2   4  -9    0.26    1.64
  -1   4  -9    2.35    2.00
   0   4  -9   -0.49    1.60
   1   4  -9    6.56    3.37
  -5   5  -9    9.93    3.92
  -4   5  -9    5.95    3.36
  -3   5  -9    0.36    1.60
  -2   5  -9    3.25    1.59
  -1   5  -9    3.55    2.88
   0   5  -9   13.74    4.12
  -2   6  -9    0.99    2.37
   1  -8  -8   18.37    3.36
   2  -8  -8    4.81    3.00
   3  -8  -8    2.68    1.74
   4  -8  -8    1.21    1.58
   5  -8  -8    5.55    2.03
   6  -8  -8    4.67    1.97
   7  -8  -8   12.07    3.65
  -1  -7  -8   16.77    4.83
   0  -7  -8    6.37    2.49
   1  -7  -8    1.23    1.74
   2  -7  -8    6.02    2.12
   3  -7  -8    7.59    2.24
   4  -7  -8    6.49    2.06
   5  -7  -8    2.82    1.69
   6  -7  -8    5.62    1.97
   7  -7  -8    3.28    1.80
   8  -7  -8   22.64    4.53
  -3  -6  -8    9.88    4.03
  -2  -6  -8    2.41    3.30
  -1  -6  -8    7.20    2.39
   0  -6  -8    0.88    1.84
   1  -6  -8   16.93    2.83
   2  -6  -8    4.81    1.82
   3  -6  -8   20.07    2.92
   4  -6  -8    1.93    1.46
   5  -6  -8    7.11    1.69
   6  -6  -8    1.80    1.20
   7  -6  -8    1.40    1.28
   8  -6  -8    0.11    1.69
  -4  -5  -8    3.59    3.18
  -3  -5  -8    4.20    2.14
  -2  -5  -8    4.77    3.33
  -1  -5  -8    5.57    2.19
   0  -5  -8    9.34    3.17
   1  -5  -8   15.53    2.72
   2  -5  -8   14.80    2.57
   3  -5  -8   10.47    1.87
   4  -5  -8   19.80    2.39
   5  -5  -8   14.01    2.11
   6  -5  -8   16.22    2.84
   7  -5  -8    3.49    1.86
   8  -5  -8    2.88    1.84
  -4  -4  -8    3.86    2.90
  -3  -4  -8    7.96    2.39
  -2  -4  -8    4.96    3.19
  -1  -4  -8   20.51    3.42
   0  -4  -8    1.52    1.56
   1  -4  -8    3.45    1.23
   2  -4  -8   13.50    2.43
   3  -4  -8    4.45    1.74
   4  -4  -8    1.19    1.33
   5  -4  -8    9.41    2.23
   6  -4  -8    3.45    1.87
   7  -4  -8    8.08    2.29
   8  -4  -8    1.77    1.69
  -6  -3  -8    4.13    2.93
  -5  -3  -8    5.35    2.09
  -4  -3  -8    4.39    2.77
  -3  -3  -8   16.42    4.19
  -2  -3  -8   14.10    2.56
   0  -3  -8    8.11    1.53
   1  -3  -8   11.45    2.30
   2  -3  -8   16.66    2.65
   3  -3  -8    8.38    2.02
   4  -3  -8    2.48    1.52
   5  -3  -8   15.01    2.70
   6  -3  -8   17.31    3.06
   7  -3  -8   10.84    2.61
   8  -3  -8   10.55    2.49
  -6  -2  -8    7.18    2.21
  -5  -2  -8    3.08    1.74
  -4  -2  -8    5.11    1.93
  -3  -2  -8   12.67    2.41
  -2  -2  -8   13.79    2.21
  -1  -2  -8   17.28    2.66
   0  -2  -8    0.38    1.20
   1  -2  -8    8.57    1.65
   2  -2  -8    0.61    1.04
   3  -2  -8    7.05    1.57
   4  -2  -8   15.34    2.64
   5  -2  -8   14.64    2.64
   6  -2  -8    3.94    1.76
   7  -2  -8    1.52    1.41
   8  -2  -8    3.74    2.01
  -7  -1  -8   19.59    4.64
  -6  -1  -8    2.37    1.75
  -5  -1  -8   18.52    2.97
  -4  -1  -8   14.03    2.07
  -3  -1  -8    3.12    1.61
  -2  -1  -8    9.51    1.67
  -1  -1  -8   10.12    1.68
   0  -1  -8    7.43    2.13
   1  -1  -8    6.21    1.46
   2  -1  -8   11.72    1.84
   3  -1  -8   11.10    1.76
   4  -1  -8    5.38    1.41
   5  -1  -8   25.28    3.38
   6  -1  -8    6.94    2.10
   7  -1  -8    5.55    2.09
   8  -1  -8   10.65    4.19
  -7   0  -8    1.53    1.80
  -6   0  -8    0.06    1.48
  -5   0  -8    6.98    2.09
  -4   0  -8    2.15    1.44
  -3   0  -8    9.75    1.73
  -2   0  -8   -0.16    1.21
  -1   0  -8    7.41    1.57
   0   0  -8   60.38    5.04
   1   0  -8    7.81    1.98
   2   0  -8    0.47    1.04
   3   0  -8    6.82    1.63
   4   0  -8    1.05    1.13
   5   0  -8   14.45    2.27
   6   0  -8    0.00    1.46
   7   0  -8    3.37    1.89
  -8   1  -8   11.49    2.73
  -7   1  -8    5.83    2.23
  -6   1  -8    8.31    2.13
  -5   1  -8   13.03    2.52
  -4   1  -8    3.68    1.40
  -3   1  -8   11.60    1.78
  -2   1  -8    7.60    2.06
  -1   1  -8    6.55    1.56
   0   1  -8    7.06    1.65
   1   1  -8    7.04    2.03
   2   1  -8    7.94    1.63
   3   1  -8    2.64    1.28
   4   1  -8    9.50    1.86
   5   1  -8   20.89    2.62
   6   1  -8    1.42    1.32
   7   1  -8   20.89    4.71
  -8   2  -8    6.40    2.18
  -7   2  -8   -0.59    1.40
  -6   2  -8    2.65    1.65
  -5   2  -8   14.44    2.16
  -4   2  -8   14.26    2.04
  -3   2  -8   10.51    2.36
  -2   2  -8    0.18    0.96
  -1   2  -8    8.02    1.65
   0   2  -8    0.12    1.27
   1   2  -8   14.19    2.73
   2   2  -8   14.15    2.82
   3   2  -8   14.55    2.20
   4   2  -8    1.60    1.30
   5   2  -8    4.47    1.61
   6   2  -8    3.95    1.67
  -8   3  -8    7.84    2.34
  -7   3  -8   13.81    2.73
  -6   3  -8   12.85    2.10
  -5   3  -8   16.32    2.22
  -4   3  -8    2.10    1.65
  -3   3  -8    6.70    2.02
  -2   3  -8   11.31    1.83
  -1   3  -8    7.06    1.56
   0   3  -8    6.81    2.10
   1   3  -8    2.91    1.75
   2   3  -8   10.90    2.40
   3   3  -8   12.39    2.72
   4   3  -8    2.43    1.34
   5   3  -8    3.12    1.52
   6   3  -8    5.17    3.04
  -8   4  -8    2.12    1.70
  -7   4  -8    2.92    1.74
  -6   4  -8    7.02    1.66
  -5   4  -8   11.77    2.67
  -4   4  -8    2.79    1.57
  -3   4  -8    2.29    1.58
  -2   4  -8   17.85    2.18
  -1   4  -8    2.31    1.22
   0   4  -8    0.18    1.33
   1   4  -8   17.17    3.01
   2   4  -8    4.49    1.98
   3   4  -8   13.87    2.76
   4   4  -8    1.25    1.69
   5   4  -8    2.39    2.36
  -8   5  -8    3.06    1.79
  -7   5  -8    2.76    1.43
  -6   5  -8   17.90    2.96
  -5   5  -8   11.59    2.55
  -4   5  -8   16.91    2.72
  -3   5  -8   17.20    2.37
  -2   5  -8   15.44    2.20
  -1   5  -8    8.85    1.86
   0   5  -8   13.69    2.75
   1   5  -8    6.10    2.23
   2   5  -8    0.05    1.55
   3   5  -8   10.58    2.67
  -8   6  -8    4.98    1.74
  -7   6  -8    3.40    1.87
  -6   6  -8   -0.45    1.45
  -5   6  -8    3.86    1.85
  -4   6  -8    3.28    1.91
  -3   6  -8   14.89    2.28
  -2   6  -8    1.24    1.25
  -1   6  -8   15.90    2.99
   0   6  -8    1.20    1.62
   1   6  -8    1.65    1.78
   2   6  -8    2.65    1.96
  -8   7  -8   25.05    5.30
  -7   7  -8    4.54    2.09
  -6   7  -8    4.68    2.12
  -5   7  -8    0.99    1.56
  -4   7  -8   10.59    2.57
  -3   7  -8    1.74    1.32
  -2   7  -8    5.86    1.73
  -1   7  -8    0.61    1.69
   0   7  -8    2.67    1.83
   1   7  -8   11.86    4.68
  -7   8  -8   16.15    4.78
  -6   8  -8    4.66    2.27
  -5   8  -8    5.70    2.25
  -4   8  -8    1.84    1.76
  -3   8  -8    1.60    1.33
  -2   8  -8    5.84    2.25
  -1   8  -8   20.15    4.87
  -3   9  -8    6.50    3.37
   5 -11  -7    6.12    3.27
   2 -10  -7    9.00    2.68
   3 -10  -7    1.63    1.74
   4 -10  -7   11.39    2.45
   5 -10  -7   -0.17    1.21
   6 -10  -7    3.17    1.75
   7 -10  -7    0.70    1.53
   8 -10  -7    8.96    3.37
   0  -9  -7   -1.39    1.88
   1  -9  -7   11.04    2.57
   2  -9  -7    1.97    1.95
   3  -9  -7    8.03    2.35
   4  -9  -7   19.97    2.47
   5  -9  -7   15.16    2.73
   6  -9  -7   15.90    2.71
   7  -9  -7    1.96    1.63
   8  -9  -7    1.69    1.58
   9  -9  -7   -0.15    1.40
  -2  -8  -7   12.40    2.93
  -1  -8  -7    5.86    2.42
   0  -8  -7    3.86    1.96
   1  -8  -7   14.66    2.87
   2  -8  -7    4.63    1.96
   3  -8  -7    3.88    1.46
   4  -8  -7    1.33    1.14
   5  -8  -7    5.35    1.81
   6  -8  -7   11.29    2.30
   7  -8  -7    2.68    1.55
   8  -8  -7    5.02    1.78
   9  -8  -7    5.34    1.86
  10  -8  -7    7.80    3.34
  -3  -7  -7    1.05    2.01
  -2  -7  -7    3.11    2.09
  -1  -7  -7    3.42    1.57
   0  -7  -7    2.24    1.75
   1  -7  -7    6.29    1.92
   2  -7  -7    3.06    1.26
   3  -7  -7    4.56    1.40
   4  -7  -7    4.46    1.57
   5  -7  -7    3.23    1.58
   6  -7  -7    9.92    2.12
   7  -7  -7    5.62    1.76
   8  -7  -7   12.75    2.13
   9  -7  -7    2.35    1.36
  10  -7  -7    0.40    1.28
  -4  -6  -7    3.19    2.39
  -3  -6  -7   19.59    3.31
  -2  -6  -7    6.03    2.16
  -1  -6  -7    9.05    1.77
   0  -6  -7   17.98    2.99
   1  -6  -7    4.26    1.38
   2  -6  -7   11.20    1.84
   3  -6  -7   10.55    2.05
   4  -6  -7    9.16    1.92
   5  -6  -7    3.46    1.24
   6  -6  -7   12.33    1.82
   7  -6  -7    7.45    1.59
   8  -6  -7    5.31    1.54
   9  -6  -7    6.43    1.66
  10  -6  -7   14.83    2.30
  11  -6  -7    6.60    2.96
  -5  -5  -7    0.77    1.88
  -4  -5  -7   13.08    2.99
  -3  -5  -7    6.98    2.28
  -2  -5  -7    2.75    1.68
  -1  -5  -7    3.88    1.39
   0  -5  -7    2.84    1.27
   1  -5  -7    6.57    1.38
   2  -5  -7   40.40    2.70
   3  -5  -7   14.72    1.96
   4  -5  -7    9.42    1.65
   5  -5  -7    2.12    1.15
   6  -5  -7    2.56    1.19
   7  -5  -7    3.83    1.29
   8  -5  -7    2.37    1.29
   9  -5  -7   14.77    2.22
  10  -5  -7    1.02    1.25
  -6  -4  -7   14.49    2.98
  -5  -4  -7   14.82    2.39
  -4  -4  -7    1.67    1.39
  -3  -4  -7    2.41    1.74
  -2  -4  -7    9.13    1.76
  -1  -4  -7   11.47    1.81
   0  -4  -7   13.81    1.88
   1  -4  -7   10.03    1.38
   2  -4  -7   -0.46    0.74
   3  -4  -7    3.62    1.15
   4  -4  -7   13.85    1.80
   5  -4  -7    6.43    1.39
   6  -4  -7   11.23    1.75
   7  -4  -7    6.57    1.47
   8  -4  -7    2.80    1.23
   9  -4  -7   14.56    2.84
  10  -4  -7    2.40    1.91
  -7  -3  -7   -1.39    1.51
  -6  -3  -7    6.18    2.21
  -5  -3  -7    1.34    1.41
  -4  -3  -7    5.96    1.62
  -3  -3  -7    5.69    1.47
  -2  -3  -7   17.34    1.85
  -1  -3  -7    5.40    0.76
   0  -3  -7   28.88    1.73
   1  -3  -7    2.08    0.87
   2  -3  -7    2.74    0.90
   3  -3  -7   26.87    2.45
   4  -3  -7    7.26    1.43
   5  -3  -7   38.96    2.97
   6  -3  -7    5.67    1.73
   7  -3  -7    3.24    1.55
   8  -3  -7    4.63    1.75
   9  -3  -7   17.24    3.09
  10  -3  -7    1.00    1.77
  -8  -2  -7    7.55    3.63
  -7  -2  -7    1.57    1.78
  -6  -2  -7    5.08    1.93
  -5  -2  -7    5.12    1.80
  -4  -2  -7   11.60    2.25
  -3  -2  -7   36.24    2.54
  -2  -2  -7    0.63    0.63
  -1  -2  -7    2.51    0.62
   0  -2  -7   52.59    2.45
   1  -2  -7    1.05    0.77
   2  -2  -7   46.06    3.23
   3  -2  -7    1.82    0.95
   4  -2  -7    0.60    0.84
   5  -2  -7   16.51    2.55
   6  -2  -7    8.98    1.99
   7  -2  -7    0.94    1.32
   8  -2  -7    9.32    2.33
   9  -2  -7    6.91    2.29
  10  -2  -7    9.31    3.28
  -8  -1  -7    6.50    2.25
  -7  -1  -7   10.21    2.42
  -6  -1  -7    6.71    2.02
  -5  -1  -7    3.15    1.24
  -4  -1  -7    6.37    1.47
  -3  -1  -7    8.74    1.31
  -2  -1  -7    1.43    0.74
  -1  -1  -7    2.47    0.77
   0  -1  -7   18.62    1.56
   1  -1  -7   17.46    1.94
   2  -1  -7    2.82    1.04
   3  -1  -7    4.62    1.27
   4  -1  -7    2.66    1.10
   5  -1  -7    8.01    1.57
   6  -1  -7   -0.28    1.14
   7  -1  -7   11.91    2.47
   8  -1  -7    5.13    1.99
   9  -1  -7    4.14    2.08
  10  -1  -7    0.49    2.57
  -9   0  -7    0.98    1.94
  -8   0  -7    2.98    1.89
  -7   0  -7    2.57    1.40
  -6   0  -7   15.91    2.22
  -5   0  -7    2.63    1.25
  -4   0  -7   15.70    1.65
  -3   0  -7   26.47    2.45
  -2   0  -7   50.63    2.65
  -1   0  -7   17.81    2.02
   0   0  -7   -0.01    0.65
   1   0  -7   17.24    1.95
   2   0  -7   48.64    3.34
   3   0  -7   21.66    2.28
   4   0  -7   11.91    1.76
   5   0  -7    2.92    1.22
   6   0  -7   15.24    2.18
   7   0  -7    2.42    1.63
   8   0  -7    8.31    2.18
   9   0  -7    0.36    1.57
  -9   1  -7    5.45    1.80
  -8   1  -7    2.09    1.42
  -7   1  -7    6.57    1.65
  -6   1  -7    1.54    1.09
  -5   1  -7   14.34    2.44
  -4   1  -7    4.72    1.28
  -3   1  -7    2.08    1.07
  -2   1  -7    4.00    0.99
  -1   1  -7   19.75    2.18
   0   1  -7   21.15    1.84
   1   1  -7    2.38    1.04
   2   1  -7    1.63    0.93
   3   1  -7    8.85    1.62
   4   1  -7    8.09    1.65
   5   1  -7    4.00    1.32
   6   1  -7    4.61    1.43
   7   1  -7    8.86    2.28
   8   1  -7   10.69    2.55
 -10   2  -7   11.47    3.61
  -9   2  -7    2.90    1.85
  -8   2  -7   10.72    2.35
  -7   2  -7    4.06    1.77
  -6   2  -7    7.73    1.89
  -5   2  -7   13.89    1.95
  -4   2  -7   -0.53    0.91
  -3   2  -7    2.51    0.90
  -2   2  -7   44.08    3.19
  -1   2  -7    1.79    1.01
   0   2  -7   45.44    3.36
   1   2  -7    3.03    1.12
   2   2  -7   -0.64    0.76
   3   2  -7   42.12    3.24
   4   2  -7    8.91    1.60
   5   2  -7    3.33    1.28
   6   2  -7    4.35    1.44
   7   2  -7   -0.61    1.38
   8   2  -7    8.75    2.42
 -10   3  -7    2.77    1.93
  -9   3  -7   13.66    2.67
  -8   3  -7    3.56    1.67
  -7   3  -7    1.01    1.39
  -6   3  -7    5.63    1.51
  -5   3  -7   37.93    3.09
  -4   3  -7    6.68    1.47
  -3   3  -7   21.40    2.26
  -2   3  -7    2.64    1.08
  -1   3  -7    2.69    1.10
   0   3  -7   23.42    2.42
   1   3  -7    0.99    1.17
   2   3  -7   15.17    1.94
   3   3  -7    6.75    1.44
   4   3  -7    5.14    1.41
   5   3  -7    1.48    1.13
   6   3  -7    8.04    1.78
   7   3  -7    0.58    1.55
 -10   4  -7    4.03    2.03
  -9   4  -7   13.22    2.90
  -8   4  -7   -0.71    1.17
  -7   4  -7    7.07    1.61
  -6   4  -7   10.95    1.84
  -5   4  -7    6.53    1.46
  -4   4  -7   12.32    2.32
  -3   4  -7    1.75    1.02
  -2   4  -7   -0.40    0.87
  -1   4  -7    5.39    1.27
   0   4  -7   14.47    2.00
   1   4  -7    8.81    2.13
   2   4  -7    7.97    1.58
   3   4  -7    2.42    1.21
   4   4  -7   -0.01    1.02
   5   4  -7   13.09    2.03
   6   4  -7   12.14    2.18
 -10   5  -7   -0.46    1.50
  -9   5  -7   12.08    2.74
  -8   5  -7    1.27    1.31
  -7   5  -7    6.17    1.62
  -6   5  -7    3.51    1.30
  -5   5  -7    0.98    1.19
  -4   5  -7   12.98    1.95
  -3   5  -7   13.59    1.98
  -2   5  -7   37.99    3.11
  -1   5  -7    5.32    1.40
   0   5  -7    2.02    1.32
   1   5  -7    1.83    1.35
   2   5  -7    0.95    1.48
   3   5  -7    5.22    1.47
   4   5  -7   15.33    2.25
   5   5  -7    0.37    1.27
   6   5  -7    5.76    2.95
 -10   6  -7   14.51    2.98
  -9   6  -7    5.96    1.72
  -8   6  -7    1.82    1.31
  -7   6  -7    5.51    1.53
  -6   6  -7   10.42    2.38
  -5   6  -7    1.47    1.44
  -4   6  -7    9.18    1.73
  -3   6  -7    4.45    1.29
  -2   6  -7    8.90    1.57
  -1   6  -7    2.18    1.20
   0   6  -7   16.69    2.92
   1   6  -7    5.84    1.93
   2   6  -7    6.28    1.87
   3   6  -7   15.33    2.93
   4   6  -7    1.98    1.70
   5   6  -7    1.00    2.56
 -10   7  -7    0.74    1.33
  -9   7  -7    1.70    1.35
  -8   7  -7    8.14    1.81
  -7   7  -7    3.09    1.65
  -6   7  -7    4.74    1.85
  -5   7  -7    2.38    1.69
  -4   7  -7    3.15    1.31
  -3   7  -7    6.53    1.69
  -2   7  -7    4.71    1.35
  -1   7  -7    7.25    1.66
   0   7  -7    1.57    1.54
   1   7  -7    2.88    1.66
   2   7  -7    3.61    1.90
   3   7  -7    0.76    1.57
 -10   8  -7    3.84    2.15
  -9   8  -7    5.31    2.26
  -8   8  -7    2.86    1.85
  -7   8  -7    3.01    1.70
  -6   8  -7    9.92    2.40
  -5   8  -7    2.90    1.84
  -4   8  -7    2.70    1.34
  -3   8  -7    3.49    1.36
  -2   8  -7    2.11    1.29
  -1   8  -7   16.68    2.90
   0   8  -7    4.19    1.98
   1   8  -7    5.87    2.03
   2   8  -7   11.37    4.15
  -9   9  -7   -0.83    1.54
  -8   9  -7   -0.04    1.65
  -7   9  -7    1.51    1.64
  -6   9  -7   21.25    3.33
  -5   9  -7   14.17    2.17
  -4   9  -7    9.57    1.85
  -3   9  -7    5.46    1.68
  -2   9  -7    1.51    1.58
  -1   9  -7    9.61    2.46
   0   9  -7    3.09    1.86
   1   9  -7    5.66    2.82
  -8  10  -7   15.14    3.10
  -7  10  -7    1.01    1.71
  -6  10  -7    5.50    2.18
  -5  10  -7    0.32    1.25
  -4  10  -7   14.28    2.31
  -3  10  -7    0.91    1.31
  -2  10  -7    1.61    1.72
  -6  11  -7    2.13    2.46
  -5  11  -7    7.98    2.34
  -4  11  -7    3.73    2.93
   4 -12  -6    9.90    3.66
   5 -12  -6    5.69    3.07
   6 -12  -6    8.00    2.41
   7 -12  -6    1.65    1.69
   8 -12  -6   11.66    3.77
   2 -11  -6    1.62    1.88
   3 -11  -6    0.51    1.61
   4 -11  -6   23.14    3.38
   5 -11  -6    2.76    1.76
   6 -11  -6    3.20    1.43
   7 -11  -6   13.04    2.22
   8 -11  -6    0.59    1.42
   9 -11  -6    2.12    1.68
  10 -11  -6    3.36    2.48
  -1 -10  -6    1.47    2.88
   0 -10  -6    1.64    1.54
   1 -10  -6    0.33    1.69
   2 -10  -6    5.51    2.16
   3 -10  -6    6.55    2.09
   4 -10  -6    4.79    1.85
   5 -10  -6    9.44    1.82
   6 -10  -6   14.61    2.06
   7 -10  -6    2.06    1.23
   8 -10  -6   13.47    2.44
   9 -10  -6    1.71    1.49
  10 -10  -6    0.18    1.40
  11 -10  -6   10.67    3.64
  -2  -9  -6    3.92    2.15
  -1  -9  -6    3.74    1.66
   0  -9  -6   13.44    2.21
   1  -9  -6   20.80    3.27
   2  -9  -6    2.69    1.66
   3  -9  -6   14.16    2.53
   4  -9  -6    3.65    1.21
   5  -9  -6    5.41    1.48
   6  -9  -6   12.94    1.93
   7  -9  -6    0.20    1.05
   8  -9  -6   22.24    2.98
   9  -9  -6   11.90    2.43
  10  -9  -6    1.24    1.51
  11  -9  -6   -0.13    1.52
  -4  -8  -6    7.34    3.67
  -3  -8  -6    0.47    1.74
  -2  -8  -6   12.06    2.74
  -1  -8  -6   22.53    2.74
   0  -8  -6   20.43    2.41
   1  -8  -6   17.95    2.91
   2  -8  -6    7.52    2.04
   3  -8  -6    6.31    1.47
   4  -8  -6    1.86    1.07
   5  -8  -6    2.69    1.11
   6  -8  -6    1.75    1.05
   7  -8  -6   19.18    2.63
   8  -8  -6   13.68    2.44
   9  -8  -6   19.68    2.96
  10  -8  -6    6.89    2.05
  11  -8  -6   -0.06    1.26
  12  -8  -6    5.26    2.04
  -5  -7  -6    3.46    3.12
  -4  -7  -6    9.81    2.67
  -3  -7  -6    0.05    1.60
  -2  -7  -6    2.30    1.73
  -1  -7  -6   18.69    2.39
   0  -7  -6    8.40    1.69
   1  -7  -6    5.26    1.40
   2  -7  -6   12.46    1.84
   3  -7  -6   17.67    2.08
   4  -7  -6   51.05    3.38
   5  -7  -6    5.65    1.26
   6  -7  -6    5.37    1.60
   7  -7  -6    8.37    1.93
   8  -7  -6   20.43    2.37
   9  -7  -6    0.77    1.03
  10  -7  -6    4.52    1.46
  11  -7  -6   27.43    3.31
  12  -7  -6    2.00    1.63
  -6  -6  -6   10.26    3.84
  -5  -6  -6    3.11    2.03
  -4  -6  -6   10.22    2.63
  -3  -6  -6   13.05    2.76
  -2  -6  -6    2.32    1.34
  -1  -6  -6    2.26    1.26
   0  -6  -6    2.39    1.16
   1  -6  -6   40.92    2.65
   2  -6  -6    5.18    1.32
   3  -6  -6   56.28    3.47
   4  -6  -6   10.78    1.62
   5  -6  -6   30.50    2.66
   6  -6  -6    2.43    1.09
   7  -6  -6    7.52    1.48
   8  -6  -6    8.98    1.70
   9  -6  -6   15.07    2.11
  10  -6  -6    4.79    1.51
  11  -6  -6    2.32    1.34
  12  -6  -6   11.41    2.14
  -7  -5  -6    3.23    3.04
  -6  -5  -6    3.36    1.66
  -5  -5  -6   14.02    2.29
  -4  -5  -6    4.64    1.46
  -3  -5  -6    5.37    1.45
  -2  -5  -6    5.79    1.56
  -1  -5  -6   38.17    3.07
   0  -5  -6   50.71    2.91
   1  -5  -6   24.86    1.98
   2  -5  -6   30.51    2.22
   3  -5  -6   36.21    2.39
   4  -5  -6   25.97    2.32
   5  -5  -6   49.98    3.09
   6  -5  -6   36.73    2.73
   7  -5  -6    9.96    1.62
   8  -5  -6    8.71    1.54
   9  -5  -6    2.25    1.17
  10  -5  -6    8.98    1.85
  11  -5  -6    4.62    1.53
  12  -5  -6    0.91    1.38
  -8  -4  -6    5.46    3.29
  -7  -4  -6   23.66    3.70
  -6  -4  -6    6.65    1.87
  -5  -4  -6    3.85    1.47
  -4  -4  -6    3.94    1.34
  -3  -4  -6   56.95    3.49
  -2  -4  -6   10.97    1.50
  -1  -4  -6   24.57    2.00
   0  -4  -6    3.04    0.69
   1  -4  -6    3.02    0.73
   2  -4  -6    2.90    0.84
   3  -4  -6    2.44    0.79
   4  -4  -6    3.11    0.95
   5  -4  -6   23.40    2.26
   6  -4  -6    5.28    1.22
   7  -4  -6   12.26    1.79
   8  -4  -6    2.28    1.07
   9  -4  -6    7.68    1.57
  10  -4  -6   17.60    2.25
  11  -4  -6   12.16    2.11
  12  -4  -6   11.35    2.66
  -8  -3  -6    0.99    1.89
  -7  -3  -6    6.32    2.17
  -6  -3  -6   11.44    2.03
  -5  -3  -6    4.77    1.48
  -4  -3  -6   14.77    2.39
  -3  -3  -6   54.95    3.61
  -2  -3  -6   35.79    2.11
  -1  -3  -6    2.35    0.54
   0  -3  -6    6.96    0.74
   1  -3  -6   30.37    1.63
   2  -3  -6   65.81    2.25
   3  -3  -6    5.32    1.08
   4  -3  -6    5.44    1.11
   5  -3  -6   27.61    2.35
   6  -3  -6   55.19    3.16
   7  -3  -6   52.08    3.12
   8  -3  -6    1.91    1.05
   9  -3  -6   12.55    1.88
  10  -3  -6    3.38    1.38
  11  -3  -6   -0.29    1.59
  -9  -2  -6    3.51    2.14
  -8  -2  -6    5.07    2.13
  -7  -2  -6    0.47    1.43
  -6  -2  -6    8.93    2.14
  -5  -2  -6   10.43    1.85
  -4  -2  -6    7.44    1.24
  -3  -2  -6   28.37    2.14
  -2  -2  -6    2.37    0.56
  -1  -2  -6   66.62    1.77
   0  -2  -6   43.70    1.53
   1  -2  -6   23.25    1.38
   2  -2  -6   43.81    2.25
   3  -2  -6   22.86    1.80
   4  -2  -6    2.37    0.81
   5  -2  -6   34.66    2.55
   6  -2  -6   14.41    1.79
   7  -2  -6    6.57    1.34
   8  -2  -6    3.64    1.19
   9  -2  -6    1.65    1.30
  10  -2  -6   19.23    3.12
  11  -2  -6    3.07    1.96
  -9  -1  -6    1.77    1.91
  -8  -1  -6   17.17    3.29
  -7  -1  -6   18.97    2.39
  -6  -1  -6   13.45    1.95
  -5  -1  -6   46.01    3.28
  -4  -1  -6   25.04    2.38
  -3  -1  -6    3.68    0.81
  -2  -1  -6   27.64    1.36
  -1  -1  -6   26.35    1.29
   0  -1  -6   27.37    1.51
   1  -1  -6   25.13    1.61
   2  -1  -6   23.28    1.74
   3  -1  -6   65.40    2.60
   4  -1  -6    1.92    0.72
   5  -1  -6   22.98    1.89
   6  -1  -6   37.59    3.71
   7  -1  -6    3.62    1.59
   8  -1  -6   19.69    2.70
   9  -1  -6   28.30    3.68
  10  -1  -6    1.35    1.65
  11  -1  -6    7.09    3.38
 -10   0  -6    0.65    1.74
  -9   0  -6    8.82    1.97
  -8   0  -6   21.43    2.55
  -7   0  -6    8.80    1.68
  -6   0  -6    1.80    1.08
  -5   0  -6   47.87    3.26
  -4   0  -6    4.12    0.90
  -3   0  -6    7.04    0.97
  -2   0  -6   43.44    1.75
  -1   0  -6   27.44    1.52
   0   0  -6    2.11    0.62
   1   0  -6   24.51    1.81
   2   0  -6   36.93    2.64
   3   0  -6    6.77    1.31
   4   0  -6    1.89    0.91
   5   0  -6   54.92    3.23
   6   0  -6    1.96    1.05
   7   0  -6    4.33    1.63
   8   0  -6   19.38    2.91
   9   0  -6    8.53    2.28
  10   0  -6    2.35    1.70
 -10   1  -6    2.08    1.33
  -9   1  -6   31.32    3.15
  -8   1  -6   16.53    2.28
  -7   1  -6    2.53    1.17
  -6   1  -6   32.31    2.80
  -5   1  -6   24.53    2.03
  -4   1  -6    1.11    0.77
  -3   1  -6   66.17    2.52
  -2   1  -6   21.95    1.75
  -1   1  -6   26.50    1.84
   0   1  -6   26.97    1.87
   1   1  -6   26.69    1.92
   2   1  -6   20.99    2.02
   3   1  -6    2.62    0.93
   4   1  -6   28.00    2.48
   5   1  -6   43.67    3.21
   6   1  -6   10.14    1.78
   7   1  -6   15.74    2.67
   8   1  -6   15.07    2.66
   9   1  -6   -0.17    1.28
  10   1  -6   16.91    4.75
 -11   2  -6    2.58    1.60
 -10   2  -6   12.14    2.25
  -9   2  -6    1.96    1.29
  -8   2  -6    3.94    1.28
  -7   2  -6    2.84    1.22
  -6   2  -6   11.89    1.72
  -5   2  -6   31.45    2.63
  -4   2  -6    2.03    0.93
  -3   2  -6   22.99    1.81
  -2   2  -6   42.36    2.27
  -1   2  -6   24.05    1.80
   0   2  -6   40.59    2.16
   1   2  -6   71.36    2.66
   2   2  -6    1.40    0.85
   3   2  -6   24.83    2.30
   4   2  -6    4.63    1.20
   5   2  -6   10.75    1.69
   6   2  -6   11.31    1.87
   7   2  -6    1.15    1.32
   8   2  -6    3.67    1.87
   9   2  -6    1.02    1.60
 -12   3  -6    0.54    2.97
 -11   3  -6   -0.73    1.44
 -10   3  -6    5.20    2.01
  -9   3  -6   11.69    2.44
  -8   3  -6    6.70    1.97
  -7   3  -6   49.14    3.50
  -6   3  -6   49.71    3.46
  -5   3  -6   28.10    2.55
  -4   3  -6    3.31    0.80
  -3   3  -6    6.38    1.06
  -2   3  -6   68.69    3.27
  -1   3  -6   18.54    2.05
   0   3  -6    6.98    1.09
   1   3  -6    1.26    0.77
   2   3  -6   33.52    2.66
   3   3  -6   52.87    3.22
   4   3  -6   10.69    1.67
   5   3  -6    6.67    1.56
   6   3  -6   17.56    2.28
   7   3  -6    7.92    1.67
   8   3  -6   -0.28    1.37
   9   3  -6    7.13    3.68
 -12   4  -6    6.27    3.26
 -11   4  -6   11.93    2.87
 -10   4  -6   15.11    2.82
  -9   4  -6    4.55    1.73
  -8   4  -6    1.40    1.00
  -7   4  -6   12.22    1.81
  -6   4  -6    3.76    1.20
  -5   4  -6   22.70    2.35
  -4   4  -6    1.54    0.77
  -3   4  -6    1.19    0.86
  -2   4  -6    1.29    0.87
  -1   4  -6    8.16    1.83
   0   4  -6    2.56    0.76
   1   4  -6   23.09    2.20
   2   4  -6   13.83    1.80
   3   4  -6   52.52    3.23
   4   4  -6    1.59    1.02
   5   4  -6    6.16    1.47
   6   4  -6    7.66    1.70
   7   4  -6   30.03    3.84
   8   4  -6   15.55    4.75
 -12   5  -6    1.40    1.87
 -11   5  -6    3.59    1.89
 -10   5  -6   11.61    2.52
  -9   5  -6    3.91    1.39
  -8   5  -6    4.80    1.38
  -7   5  -6   11.73    1.81
  -6   5  -6   39.16    3.06
  -5   5  -6   46.94    3.25
  -4   5  -6   20.99    2.14
  -3   5  -6   36.08    2.83
  -2   5  -6   28.54    2.52
  -1   5  -6   20.84    2.17
   0   5  -6   44.72    3.09
   1   5  -6   33.86    2.70
   2   5  -6    6.84    1.34
   3   5  -6    5.42    1.35
   4   5  -6    3.01    1.20
   5   5  -6   11.22    1.90
   6   5  -6    1.77    1.57
   7   5  -6    4.01    1.85
 -12   6  -6   15.83    3.31
 -11   6  -6    0.10    1.51
 -10   6  -6    3.61    1.40
  -9   6  -6   12.31    1.95
  -8   6  -6   10.13    1.72
  -7   6  -6   10.62    1.62
  -6   6  -6    0.82    1.02
  -5   6  -6   36.11    2.76
  -4   6  -6    9.38    1.53
  -3   6  -6   55.61    3.31
  -2   6  -6    5.28    1.19
  -1   6  -6   41.17    3.09
   0   6  -6    3.04    1.38
   1   6  -6    1.21    1.28
   2   6  -6    1.82    1.04
   3   6  -6    9.04    1.75
   4   6  -6   18.48    2.26
   5   6  -6    2.88    1.56
   6   6  -6   10.19    2.56
 -12   7  -6    1.15    2.44
 -11   7  -6   17.61    3.30
 -10   7  -6    7.84    1.74
  -9   7  -6    2.88    1.29
  -8   7  -6   18.58    2.38
  -7   7  -6    6.79    1.63
  -6   7  -6    2.44    1.46
  -5   7  -6    4.22    1.16
  -4   7  -6   53.95    3.26
  -3   7  -6   10.85    1.72
  -2   7  -6   11.78    1.83
  -1   7  -6   11.64    1.78
   0   7  -6    2.80    1.46
   1   7  -6   13.61    2.46
   2   7  -6    2.40    1.47
   3   7  -6    1.63    1.20
   4   7  -6    4.82    1.67
   5   7  -6    0.44    1.49
 -12   8  -6   10.55    4.00
 -11   8  -6    1.09    1.24
 -10   8  -6    9.20    1.96
  -9   8  -6   20.30    2.62
  -8   8  -6   19.04    2.94
  -7   8  -6   11.45    2.39
  -6   8  -6    1.33    1.44
  -5   8  -6    5.63    1.33
  -4   8  -6    2.94    1.19
  -3   8  -6    7.34    1.57
  -2   8  -6    9.81    1.76
  -1   8  -6   20.35    3.02
   0   8  -6   16.85    2.88
   1   8  -6   27.55    3.52
   2   8  -6   11.38    2.39
   3   8  -6    2.97    2.42
   4   8  -6   10.19    3.21
 -12   9  -6    2.59    2.03
 -11   9  -6    0.82    1.46
 -10   9  -6   -0.18    1.19
  -9   9  -6   10.09    2.48
  -8   9  -6   24.72    3.43
  -7   9  -6    2.30    1.61
  -6   9  -6   13.53    2.57
  -5   9  -6    6.57    1.52
  -4   9  -6    5.38    1.49
  -3   9  -6   16.02    2.15
  -2   9  -6    3.76    1.34
  -1   9  -6   18.50    2.98
   0   9  -6   12.97    2.61
   1   9  -6    3.35    1.82
   2   9  -6    1.18    2.28
 -11  10  -6   15.79    3.37
 -10  10  -6    2.43    2.07
  -9  10  -6    2.42    1.92
  -8  10  -6   18.54    3.04
  -7  10  -6    3.95    1.72
  -6  10  -6   14.30    2.13
  -5  10  -6   12.35    1.93
  -4  10  -6    4.09    1.36
  -3  10  -6    5.86    1.66
  -2  10  -6    6.80    2.05
  -1  10  -6    0.63    1.48
   0  10  -6    0.75    1.55
 -10  11  -6    2.21    2.68
  -9  11  -6    0.10    1.79
  -8  11  -6    1.02    1.59
  -7  11  -6   10.04    2.47
  -6  11  -6    4.91    1.70
  -5  11  -6    1.93    1.36
  -4  11  -6   18.40    3.13
  -3  11  -6   -0.80    1.48
  -2  11  -6    2.47    1.79
  -1  11  -6    8.62    3.55
  -9  12  -6    1.98    3.02
  -8  12  -6    7.82    3.27
  -7  12  -6    2.90    3.16
  -6  12  -6   12.40    2.60
  -5  12  -6    8.40    2.37
  -4  12  -6    8.01    2.33
  -3  12  -6    0.95    2.51
   5 -13  -5    0.33    1.54
   6 -13  -5    9.81    2.58
   7 -13  -5    2.24    1.67
   8 -13  -5    1.99    1.70
   9 -13  -5    6.74    2.12
  10 -13  -5    0.82    2.26
   1 -12  -5    1.42    2.51
   2 -12  -5    4.18    1.99
   3 -12  -5   -0.73    1.59
   4 -12  -5   14.73    2.76
   5 -12  -5    3.83    1.82
   6 -12  -5   19.30    3.01
   7 -12  -5    9.39    1.90
   8 -12  -5   27.43    2.88
   9 -12  -5    1.97    1.25
  10 -12  -5    5.62    1.60
  11 -12  -5    3.09    2.65
  -1 -11  -5    2.42    2.55
   0 -11  -5    9.69    2.06
   1 -11  -5   16.66    2.46
   2 -11  -5    5.28    2.05
   3 -11  -5   16.52    2.74
   4 -11  -5   11.38    2.34
   5 -11  -5   16.30    2.72
   6 -11  -5    6.74    1.52
   7 -11  -5   11.22    1.72
   8 -11  -5   31.68    2.87
   9 -11  -5    2.36    1.21
  10 -11  -5   12.25    2.54
  11 -11  -5    8.33    2.27
  12 -11  -5    2.62    2.30
  -2 -10  -5    2.64    1.83
  -1 -10  -5    9.70    2.44
   0 -10  -5   38.16    3.52
   1 -10  -5   22.85    2.63
   2 -10  -5    6.91    1.66
   3 -10  -5   13.07    2.31
   4 -10  -5   10.13    2.16
   5 -10  -5    0.16    0.88
   6 -10  -5    5.57    1.37
   7 -10  -5    6.91    1.48
   8 -10  -5   18.27    2.19
   9 -10  -5   11.78    1.91
  10 -10  -5   36.96    3.91
  11 -10  -5   13.84    2.65
  12 -10  -5    3.28    1.75
  13 -10  -5    1.85    2.30
  -3  -9  -5    1.60    1.72
  -2  -9  -5    1.98    1.69
  -1  -9  -5   13.37    2.16
   0  -9  -5    1.17    1.05
   1  -9  -5   12.97    1.92
   2  -9  -5    7.72    1.58
   3  -9  -5    3.69    1.63
   4  -9  -5   47.04    3.37
   5  -9  -5   18.44    2.15
   6  -9  -5   16.72    1.95
   7  -9  -5    3.43    1.14
   8  -9  -5   24.17    2.45
   9  -9  -5   -0.20    1.05
  10  -9  -5   25.88    3.31
  11  -9  -5    6.15    1.95
  12  -9  -5    2.28    1.58
  13  -9  -5   12.98    3.92
  -5  -8  -5    1.21    2.01
  -4  -8  -5   25.18    3.90
  -3  -8  -5   26.87    3.76
  -2  -8  -5   18.46    3.04
  -1  -8  -5   20.59    2.49
   0  -8  -5    2.24    1.15
   1  -8  -5    9.14    1.61
   2  -8  -5   46.96    3.27
   3  -8  -5   33.98    2.72
   4  -8  -5   47.62    3.25
   5  -8  -5   14.46    1.79
   6  -8  -5   43.27    3.02
   7  -8  -5    3.40    1.09
   8  -8  -5    2.87    1.01
   9  -8  -5   11.30    2.16
  10  -8  -5    7.59    1.84
  11  -8  -5   11.83    2.39
  12  -8  -5    8.98    2.26
  13  -8  -5    0.75    1.53
  -6  -7  -5    0.50    1.91
  -5  -7  -5    8.36    2.70
  -4  -7  -5   14.29    2.89
  -3  -7  -5    3.65    1.82
  -2  -7  -5    5.78    1.56
  -1  -7  -5    5.18    1.39
   0  -7  -5   16.99    2.08
   1  -7  -5   27.53    2.47
   2  -7  -5   40.08    2.50
   3  -7  -5    9.43    1.48
   4  -7  -5   16.54    1.80
   5  -7  -5   24.15    2.16
   6  -7  -5   90.26    3.54
   7  -7  -5   17.69    1.87
   8  -7  -5   11.54    2.02
   9  -7  -5    6.35    1.62
  10  -7  -5    9.86    1.91
  11  -7  -5    9.21    1.89
  12  -7  -5    6.93    1.95
  13  -7  -5    5.85    2.00
  -7  -6  -5    5.95    1.93
  -6  -6  -5   16.49    3.25
  -5  -6  -5    8.56    1.86
  -4  -6  -5    7.57    1.68
  -3  -6  -5   19.35    2.26
  -2  -6  -5   43.80    3.49
  -1  -6  -5   84.93    3.95
   0  -6  -5    1.48    0.97
   1  -6  -5   17.51    1.65
   2  -6  -5    5.85    1.01
   3  -6  -5   22.23    2.00
   4  -6  -5    0.73    0.74
   5  -6  -5    6.60    1.08
   6  -6  -5    1.30    0.64
   7  -6  -5   26.06    2.33
   8  -6  -5   49.04    3.31
   9  -6  -5    5.71    1.23
  10  -6  -5   10.32    1.68
  11  -6  -5   15.58    2.21
  12  -6  -5   14.49    2.23
  13  -6  -5    4.78    1.78
  -8  -5  -5    2.39    1.87
  -7  -5  -5    4.36    1.77
  -6  -5  -5   13.86    2.22
  -5  -5  -5    1.55    1.19
  -4  -5  -5   23.50    2.56
  -3  -5  -5   17.19    2.49
  -2  -5  -5   28.28    2.17
  -1  -5  -5    7.47    1.16
   0  -5  -5   71.10    2.38
   1  -5  -5   24.83    1.84
   2  -5  -5   74.41    2.58
   3  -5  -5   30.58    2.00
   4  -5  -5   73.28    2.60
   5  -5  -5   70.63    2.54
   6  -5  -5   17.59    1.89
   7  -5  -5   41.28    2.89
   8  -5  -5   35.92    2.85
   9  -5  -5   46.69    3.37
  10  -5  -5    0.25    0.90
  11  -5  -5    6.96    1.56
  12  -5  -5    7.61    1.99
  13  -5  -5    0.13    1.60
  -9  -4  -5    8.77    3.66
  -8  -4  -5   14.09    3.07
  -7  -4  -5    6.13    1.74
  -6  -4  -5    7.78    1.85
  -5  -4  -5   43.77    3.51
  -4  -4  -5   48.46    3.47
  -3  -4  -5   15.73    1.99
  -2  -4  -5    0.51    0.70
  -1  -4  -5   67.58    2.21
   0  -4  -5    0.21    0.43
   1  -4  -5   69.65    1.94
   2  -4  -5    6.68    0.84
   3  -4  -5   26.00    1.76
   4  -4  -5    0.26    0.52
   5  -4  -5   18.05    1.77
   6  -4  -5    4.95    1.10
   7  -4  -5    8.73    1.38
   8  -4  -5   47.57    3.20
   9  -4  -5   17.46    2.06
  10  -4  -5    6.81    1.52
  11  -4  -5   11.60    1.90
  12  -4  -5   32.69    3.77
  13  -4  -5    5.92    2.14
  -9  -3  -5    2.67    2.00
  -8  -3  -5   16.82    3.28
  -7  -3  -5   16.11    3.05
  -6  -3  -5    5.97    1.59
  -5  -3  -5   32.09    2.91
  -4  -3  -5    9.68    1.66
  -3  -3  -5   19.82    1.68
  -2  -3  -5   33.06    1.64
  -1  -3  -5   27.48    1.26
   0  -3  -5   49.36    1.43
   1  -3  -5   77.08    1.85
   2  -3  -5   83.56    2.08
   3  -3  -5   45.42    1.97
   4  -3  -5   64.18    2.26
   5  -3  -5   69.86    2.92
   6  -3  -5   18.24    1.84
   7  -3  -5   13.47    1.65
   8  -3  -5    9.42    1.50
   9  -3  -5   19.89    2.17
  10  -3  -5    4.44    1.26
  11  -3  -5   31.96    3.02
  12  -3  -5    2.00    1.56
  13  -3  -5    0.60    2.25
 -10  -2  -5    3.29    2.13
  -9  -2  -5    6.98    2.42
  -8  -2  -5    6.91    2.15
  -7  -2  -5   10.46    2.25
  -6  -2  -5   48.22    2.71
  -5  -2  -5   44.89    2.73
  -4  -2  -5    4.98    1.01
  -3  -2  -5   73.05    2.29
  -2  -2  -5    7.24    0.69
  -1  -2  -5   80.11    1.81
   0  -2  -5   44.54    1.35
   1  -2  -5   15.37    0.98
   2  -2  -5   49.89    1.72
   3  -2  -5   76.94    2.19
   4  -2  -5    7.05    0.99
   5  -2  -5   27.85    2.09
   6  -2  -5    1.04    0.73
   7  -2  -5   22.89    2.10
   8  -2  -5   35.91    2.78
   9  -2  -5    3.72    1.21
  10  -2  -5   13.78    1.97
  11  -2  -5    2.01    1.18
  12  -2  -5    2.66    1.66
 -10  -1  -5    8.87    2.64
  -9  -1  -5   25.76    3.78
  -8  -1  -5    8.69    1.75
  -7  -1  -5   14.09    2.00
  -6  -1  -5   26.13    2.43
  -5  -1  -5   18.97    1.83
  -4  -1  -5   25.08    1.65
  -3  -1  -5   66.68    1.95
  -2  -1  -5   81.34    1.81
  -1  -1  -5   16.72    0.96
   0  -1  -5   52.03    1.35
   1  -1  -5   49.04    1.52
   2  -1  -5   14.08    1.05
   3  -1  -5   77.67    2.55
   4  -1  -5   23.99    1.69
   5  -1  -5   68.20    2.51
   6  -1  -5    7.30    1.15
   7  -1  -5   92.76    3.61
   8  -1  -5    5.91    1.26
   9  -1  -5   18.70    2.13
  10  -1  -5   11.98    1.90
  11  -1  -5    7.19    3.03
 -11   0  -5    4.86    1.99
 -10   0  -5   39.69    3.68
  -9   0  -5    1.36    1.19
  -8   0  -5    2.48    1.19
  -7   0  -5   15.93    2.04
  -6   0  -5    0.67    0.80
  -5   0  -5   69.90    2.62
  -4   0  -5    0.25    0.57
  -3   0  -5   48.20    1.65
  -2   0  -5   47.58    1.41
  -1   0  -5   48.08    1.32
   0   0  -5   -0.10    0.34
   1   0  -5   48.68    1.68
   2   0  -5   47.87    1.93
   3   0  -5   45.99    2.03
   4   0  -5    1.07    0.55
   5   0  -5   72.63    2.57
   6   0  -5    0.13    0.56
   7   0  -5   19.60    1.95
   8   0  -5    3.75    1.21
   9   0  -5   -1.14    1.00
  10   0  -5   35.65    3.91
  11   0  -5    7.41    3.16
 -12   1  -5    2.52    3.37
 -11   1  -5    7.63    1.93
 -10   1  -5   10.82    2.05
  -9   1  -5   18.68    2.42
  -8   1  -5    3.31    1.22
  -7   1  -5   84.00    3.80
  -6   1  -5    7.59    1.18
  -5   1  -5   69.19    2.62
  -4   1  -5   24.57    1.50
  -3   1  -5   82.81    2.06
  -2   1  -5   16.69    1.18
  -1   1  -5   49.60    1.54
   0   1  -5   46.47    1.65
   1   1  -5   16.87    1.18
   2   1  -5   76.59    2.41
   3   1  -5   70.14    2.33
   4   1  -5   18.81    1.88
   5   1  -5   17.28    1.94
   6   1  -5   21.29    2.10
   7   1  -5   12.86    2.30
   8   1  -5    7.53    1.88
   9   1  -5   23.93    3.30
  10   1  -5   17.55    4.07
 -12   2  -5    1.30    1.55
 -11   2  -5    1.58    1.36
 -10   2  -5   16.09    2.30
  -9   2  -5    1.19    1.11
  -8   2  -5   39.66    3.10
  -7   2  -5   19.40    1.79
  -6   2  -5    0.63    0.67
  -5   2  -5   25.56    1.91
  -4   2  -5    3.93    0.82
  -3   2  -5   77.37    2.53
  -2   2  -5   44.31    1.70
  -1   2  -5   14.27    1.23
   0   2  -5   46.13    1.96
   1   2  -5   84.13    2.65
   2   2  -5    6.44    1.12
   3   2  -5   76.75    3.17
   4   2  -5    3.66    1.01
   5   2  -5   44.81    3.12
   6   2  -5   50.85    3.40
   7   2  -5    5.27    1.65
   8   2  -5    6.73    1.93
   9   2  -5    6.61    2.01
  10   2  -5    2.61    2.34
 -12   3  -5   -0.53    1.38
 -11   3  -5   23.60    2.90
 -10   3  -5    6.84    1.70
  -9   3  -5   19.71    2.42
  -8   3  -5   11.26    1.83
  -7   3  -5   15.92    1.81
  -6   3  -5   21.54    2.06
  -5   3  -5   73.20    3.12
  -4   3  -5   67.98    2.41
  -3   3  -5   48.18    2.18
  -2   3  -5   81.47    2.44
  -1   3  -5   75.27    2.42
   0   3  -5   52.72    2.06
   1   3  -5   22.56    1.68
   2   3  -5   21.88    1.95
   3   3  -5   16.26    1.74
   4   3  -5   10.24    1.52
   5   3  -5   32.17    2.64
   6   3  -5    7.57    1.53
   7   3  -5   14.96    2.03
   8   3  -5   12.81    2.55
   9   3  -5    2.81    1.73
 -13   4  -5    7.78    3.88
 -12   4  -5   32.09    4.18
 -11   4  -5   11.79    2.68
 -10   4  -5    4.81    1.89
  -9   4  -5   16.27    2.59
  -8   4  -5   48.49    3.34
  -7   4  -5   10.17    1.57
  -6   4  -5    3.90    1.06
  -5   4  -5   18.97    1.58
  -4   4  -5    0.30    0.51
  -3   4  -5   22.78    1.67
  -2   4  -5    6.52    1.18
  -1   4  -5   70.37    2.35
   0   4  -5    0.53    0.52
   1   4  -5   72.00    2.95
   2   4  -5    1.80    0.81
   3   4  -5   14.88    1.66
   4   4  -5   49.55    2.97
   5   4  -5   46.06    3.29
   6   4  -5   11.96    1.80
   7   4  -5   10.33    2.29
   8   4  -5   11.15    2.46
 -13   5  -5    0.91    1.93
 -12   5  -5    3.94    1.97
 -11   5  -5    8.12    2.28
 -10   5  -5    1.53    1.36
  -9   5  -5   47.26    3.41
  -8   5  -5   34.36    2.82
  -7   5  -5   39.10    2.85
  -6   5  -5   15.97    1.85
  -5   5  -5   68.73    2.52
  -4   5  -5   68.43    2.51
  -3   5  -5   25.65    2.07
  -2   5  -5   72.60    3.09
  -1   5  -5   21.27    1.61
   0   5  -5   67.62    2.47
   1   5  -5    5.47    1.12
   2   5  -5   23.06    2.19
   3   5  -5   12.24    1.68
   4   5  -5   12.70    1.77
   5   5  -5    0.63    0.92
   6   5  -5   15.66    2.66
   7   5  -5    3.26    1.71
   8   5  -5   -1.17    1.49
 -13   6  -5   -0.04    1.72
 -12   6  -5    9.73    2.59
 -11   6  -5   17.06    3.02
 -10   6  -5    6.76    1.61
  -9   6  -5    5.50    1.38
  -8   6  -5   53.57    3.54
  -7   6  -5   21.75    2.23
  -6   6  -5    0.99    0.79
  -5   6  -5    7.19    1.04
  -4   6  -5    1.65    0.84
  -3   6  -5   19.08    1.96
  -2   6  -5    4.73    1.07
  -1   6  -5   18.35    1.93
   0   6  -5    0.47    0.63
   1   6  -5   93.87    3.61
   2   6  -5   43.34    2.79
   3   6  -5   22.14    2.28
   4   6  -5    8.20    1.49
   5   6  -5    5.55    1.71
   6   6  -5   11.14    2.50
   7   6  -5    6.14    2.10
 -13   7  -5    9.77    2.71
 -12   7  -5    4.12    1.98
 -11   7  -5    6.22    1.65
 -10   7  -5   13.64    2.04
  -9   7  -5    9.93    1.73
  -8   7  -5   13.19    1.86
  -7   7  -5   19.76    2.17
  -6   7  -5   91.08    3.59
  -5   7  -5   21.05    2.09
  -4   7  -5   15.27    1.73
  -3   7  -5    7.80    1.41
  -2   7  -5   42.44    3.04
  -1   7  -5   23.36    2.23
   0   7  -5   18.38    1.98
   1   7  -5    2.65    1.03
   2   7  -5    4.31    1.21
   3   7  -5    4.19    1.24
   4   7  -5   11.45    2.31
   5   7  -5    7.37    2.11
   6   7  -5    2.01    1.60
 -13   8  -5    2.04    1.91
 -12   8  -5   10.10    2.03
 -11   8  -5   18.63    2.49
 -10   8  -5    5.70    1.52
  -9   8  -5   11.28    1.78
  -8   8  -5    3.83    1.25
  -7   8  -5    1.98    1.36
  -6   8  -5   41.17    2.94
  -5   8  -5    9.61    1.50
  -4   8  -5   49.64    3.19
  -3   8  -5   32.01    2.64
  -2   8  -5   48.08    3.31
  -1   8  -5   16.24    2.04
   0   8  -5    3.97    1.58
   1   8  -5   21.00    2.31
   2   8  -5   16.99    2.16
   3   8  -5   28.34    3.38
   4   8  -5   34.17    3.86
   5   8  -5    1.75    1.75
 -13   9  -5   13.88    4.41
 -12   9  -5    1.13    1.38
 -11   9  -5    7.75    1.74
 -10   9  -5   33.56    3.16
  -9   9  -5    0.10    0.98
  -8   9  -5   19.81    2.96
  -7   9  -5    2.00    1.46
  -6   9  -5   20.73    2.19
  -5   9  -5   14.01    1.78
  -4   9  -5   47.60    3.32
  -3   9  -5    2.72    1.07
  -2   9  -5    6.78    1.39
  -1   9  -5    8.80    2.01
   0   9  -5    0.27    0.99
   1   9  -5    8.83    2.14
   2   9  -5    2.60    1.51
   3   9  -5   -0.41    1.22
   4   9  -5    5.40    2.01
 -13  10  -5    3.25    2.90
 -12  10  -5    3.14    1.54
 -11  10  -5   10.37    2.04
 -10  10  -5   39.28    4.38
  -9  10  -5    7.51    2.24
  -8  10  -5   15.71    2.80
  -7  10  -5    6.51    1.47
  -6  10  -5    5.65    1.41
  -5  10  -5    0.72    0.92
  -4  10  -5   10.35    1.68
  -3  10  -5   13.74    1.94
  -2  10  -5    3.53    1.60
  -1  10  -5   33.15    3.80
   0  10  -5   31.21    3.77
   1  10  -5    6.32    2.87
   2  10  -5    5.79    2.97
 -12  11  -5    1.12    1.87
 -11  11  -5    8.95    2.51
 -10  11  -5    6.69    2.26
  -9  11  -5    2.05    1.59
  -8  11  -5   29.83    3.71
  -7  11  -5   11.44    1.90
  -6  11  -5    3.54    1.34
  -5  11  -5   16.17    2.12
  -4  11  -5   10.09    2.08
  -3  11  -5   12.36    2.31
  -2  11  -5    8.46    2.06
  -1  11  -5   13.25    2.71
   0  11  -5    4.69    2.55
 -11  12  -5    2.96    3.01
 -10  12  -5    2.56    1.96
  -9  12  -5    0.73    1.70
  -8  12  -5   29.18    3.85
  -7  12  -5    6.52    1.99
  -6  12  -5   16.28    2.91
  -5  12  -5    3.71    1.77
  -4  12  -5   15.42    2.85
  -3  12  -5    1.69    1.49
  -2  12  -5    6.42    2.15
  -8  13  -5    0.14    2.13
  -7  13  -5    3.05    1.84
  -6  13  -5    9.31    2.38
  -5  13  -5   -1.48    1.32
  -4  13  -5    4.84    2.05
   5 -14  -4    2.25    2.62
   6 -14  -4   14.22    2.81
   7 -14  -4    8.84    2.22
   8 -14  -4   33.35    3.74
   9 -14  -4    1.32    1.68
   1 -13  -4   12.29    3.75
   2 -13  -4    1.43    1.49
   3 -13  -4   12.52    2.73
   4 -13  -4   22.14    3.21
   5 -13  -4   11.04    2.40
   6 -13  -4    2.44    1.60
   7 -13  -4    9.75    2.27
   8 -13  -4    3.13    1.57
   9 -13  -4   15.92    2.26
  10 -13  -4    1.88    1.31
  11 -13  -4    2.62    1.38
  12 -13  -4    2.37    2.40
   0 -12  -4    0.50    1.64
   1 -12  -4    2.10    1.39
   2 -12  -4   19.74    2.52
   3 -12  -4    4.89    1.54
   4 -12  -4    1.51    1.43
   5 -12  -4    3.54    1.67
   6 -12  -4    8.34    2.05
   7 -12  -4    2.11    1.40
   8 -12  -4    2.85    1.22
   9 -12  -4    2.20    1.21
  10 -12  -4   57.95    4.02
  11 -12  -4    4.72    1.49
  12 -12  -4    1.39    1.29
  -2 -11  -4    2.04    2.04
  -1 -11  -4    7.69    2.31
   0 -11  -4   -0.46    1.07
   1 -11  -4   18.02    2.41
   2 -11  -4   12.57    1.99
   3 -11  -4   32.73    2.91
   4 -11  -4    3.89    1.54
   5 -11  -4   32.63    3.47
   6 -11  -4   36.13    3.04
   7 -11  -4    3.58    1.16
   8 -11  -4   16.84    2.03
   9 -11  -4    4.72    1.36
  10 -11  -4    8.66    1.64
  11 -11  -4    0.86    1.02
  12 -11  -4    5.17    1.87
  13 -11  -4    2.67    2.28
  -3 -10  -4    1.38    1.88
  -2 -10  -4   60.88    7.94
  -1 -10  -4    8.15    2.06
   0 -10  -4    3.11    1.26
   1 -10  -4   12.64    2.02
   2 -10  -4   17.60    2.22
   3 -10  -4    3.42    1.21
   4 -10  -4   21.25    2.77
   5 -10  -4   12.67    1.84
   6 -10  -4   42.27    3.09
   7 -10  -4    5.38    1.32
   8 -10  -4    8.77    1.53
   9 -10  -4    7.47    1.41
  10 -10  -4    6.00    1.25
  11 -10  -4   16.68    2.13
  12 -10  -4   21.41    3.10
  13 -10  -4   11.80    2.55
  -5  -9  -4    1.00    2.87
  -4  -9  -4   16.53    3.07
  -3  -9  -4    2.21    1.90
  -2  -9  -4    4.52    1.78
  -1  -9  -4   13.33    2.09
   0  -9  -4    2.33    1.16
   1  -9  -4   15.63    2.01
   2  -9  -4   40.84    3.04
   3  -9  -4   41.49    2.97
   4  -9  -4   11.06    1.40
   5  -9  -4   18.30    1.99
   6  -9  -4   22.93    2.14
   7  -9  -4   20.50    2.08
   8  -9  -4   12.81    1.71
   9  -9  -4    0.68    0.83
  10  -9  -4   11.38    1.65
  11  -9  -4    5.39    1.71
  12  -9  -4    4.37    1.77
  13  -9  -4   16.77    2.81
  -6  -8  -4   14.25    4.32
  -5  -8  -4    3.79    2.05
  -4  -8  -4    3.55    1.87
  -3  -8  -4   20.17    3.03
  -2  -8  -4    7.35    1.97
  -1  -8  -4   11.47    1.85
   0  -8  -4   19.92    2.19
   1  -8  -4   42.55    3.10
   2  -8  -4   12.62    1.73
   3  -8  -4   10.34    1.27
   4  -8  -4   18.74    1.63
   5  -8  -4   24.55    2.12
   6  -8  -4   33.31    2.53
   7  -8  -4   65.90    2.99
   8  -8  -4   16.21    1.79
   9  -8  -4   14.73    1.73
  10  -8  -4   13.97    2.18
  11  -8  -4   25.20    3.09
  12  -8  -4    0.61    1.20
  13  -8  -4   15.27    2.74
  14  -8  -4   10.25    2.52
  -7  -7  -4    7.28    2.09
  -6  -7  -4    7.84    1.95
  -5  -7  -4    5.38    1.62
  -4  -7  -4    7.49    1.65
  -3  -7  -4    4.04    1.28
  -2  -7  -4   16.97    1.84
  -1  -7  -4   64.34    3.74
   0  -7  -4   15.81    1.92
   1  -7  -4   24.12    2.20
   2  -7  -4   22.74    1.78
   3  -7  -4   21.16    1.66
   4  -7  -4   49.49    2.19
   5  -7  -4    7.46    1.22
   6  -7  -4   50.67    2.61
   7  -7  -4   16.48    1.74
   8  -7  -4   37.87    2.62
   9  -7  -4   38.15    2.68
  10  -7  -4    5.16    1.51
  11  -7  -4    1.99    1.17
  12  -7  -4    2.23    1.55
  13  -7  -4    1.86    1.65
  14  -7  -4    9.22    2.46
  -8  -6  -4   11.23    2.84
  -7  -6  -4    6.00    1.83
  -6  -6  -4    6.67    1.74
  -5  -6  -4   39.05    3.38
  -4  -6  -4   41.16    3.18
  -3  -6  -4   21.52    2.25
  -2  -6  -4   32.69    2.35
  -1  -6  -4   52.98    2.57
   0  -6  -4    5.80    0.95
   1  -6  -4   62.27    2.44
   2  -6  -4   22.63    1.71
   3  -6  -4   50.58    1.99
   4  -6  -4   12.77    1.46
   5  -6  -4   16.90    1.62
   6  -6  -4    4.83    0.86
   7  -6  -4   22.52    1.68
   8  -6  -4   11.06    1.21
   9  -6  -4   36.17    2.77
  10  -6  -4   19.57    2.15
  11  -6  -4   33.36    2.92
  12  -6  -4    7.12    1.92
  13  -6  -4    8.02    2.17
  14  -6  -4   27.22    3.56
  -9  -5  -4    7.69    3.51
  -8  -5  -4   11.17    2.73
  -7  -5  -4    2.90    1.49
  -6  -5  -4   34.41    3.22
  -5  -5  -4   14.46    2.07
  -4  -5  -4   21.64    2.28
  -3  -5  -4   24.74    2.34
  -2  -5  -4    9.25    1.19
  -1  -5  -4   19.75    1.61
   0  -5  -4   18.99    1.46
   1  -5  -4   29.50    1.46
   2  -5  -4   70.24    1.93
   3  -5  -4   56.18    1.80
   4  -5  -4   49.72    1.97
   5  -5  -4   18.50    1.43
   6  -5  -4   54.36    2.13
   7  -5  -4   24.40    1.73
   8  -5  -4   12.70    1.65
   9  -5  -4   11.55    1.65
  10  -5  -4   13.96    1.92
  11  -5  -4   37.82    3.07
  12  -5  -4    5.55    1.84
  13  -5  -4    2.37    1.60
  14  -5  -4    2.85    1.83
  -9  -4  -4   19.40    3.48
  -8  -4  -4    1.78    1.62
  -7  -4  -4    2.12    1.30
  -6  -4  -4   21.29    2.46
  -5  -4  -4    7.66    1.58
  -4  -4  -4   13.95    1.82
  -3  -4  -4   45.60    2.80
  -2  -4  -4   12.67    1.14
  -1  -4  -4   48.30    1.77
   0  -4  -4   26.83    1.22
   1  -4  -4   34.73    1.37
   2  -4  -4  134.63    2.54
   3  -4  -4   59.10    1.75
   4  -4  -4   26.34    1.63
   5  -4  -4   28.69    1.68
   6  -4  -4   24.19    1.58
   7  -4  -4   17.14    1.72
   8  -4  -4   17.83    1.86
   9  -4  -4   20.45    2.03
  10  -4  -4   48.62    3.35
  11  -4  -4    3.86    1.31
  12  -4  -4    1.92    1.38
  13  -4  -4   13.15    2.60
  14  -4  -4    2.06    2.42
 -10  -3  -4    8.52    2.80
  -9  -3  -4    3.26    1.95
  -8  -3  -4   29.94    3.88
  -7  -3  -4    1.46    1.17
  -6  -3  -4   36.95    3.18
  -5  -3  -4   10.68    1.75
  -4  -3  -4   19.74    1.65
  -3  -3  -4   50.13    2.21
  -2  -3  -4   58.89    1.68
  -1  -3  -4   58.60    1.52
   0  -3  -4   74.51    1.57
   1  -3  -4   14.71    0.80
   2  -3  -4   30.73    1.30
   3  -3  -4   77.61    1.89
   4  -3  -4   34.00    1.62
   5  -3  -4   68.70    2.17
   6  -3  -4   50.47    2.35
   7  -3  -4   50.08    2.55
   8  -3  -4   25.53    2.20
   9  -3  -4   20.80    2.05
  10  -3  -4    5.74    1.25
  11  -3  -4   19.65    2.60
  12  -3  -4    5.76    1.83
  13  -3  -4    3.37    1.71
 -11  -2  -4   -0.01    1.88
 -10  -2  -4   19.03    3.54
  -9  -2  -4    8.12    2.40
  -8  -2  -4   11.12    2.52
  -7  -2  -4   37.86    2.97
  -6  -2  -4   13.95    1.57
  -5  -2  -4   22.69    1.84
  -4  -2  -4   20.20    1.64
  -3  -2  -4   70.45    2.06
  -2  -2  -4  135.19    2.59
  -1  -2  -4   29.24    1.13
   0  -2  -4    4.32    0.46
   1  -2  -4   36.87    1.02
   2  -2  -4    3.71    0.48
   3  -2  -4   14.47    1.01
   4  -2  -4  127.97    2.74
   5  -2  -4   53.00    2.30
   6  -2  -4    9.95    1.28
   7  -2  -4    7.59    1.20
   8  -2  -4   30.45    2.33
   9  -2  -4   16.53    1.89
  10  -2  -4    9.60    1.62
  11  -2  -4    6.96    1.91
  12  -2  -4   68.84    4.85
  13  -2  -4    5.71    1.96
 -11  -1  -4    2.23    2.19
 -10  -1  -4   19.12    3.33
  -9  -1  -4   15.07    2.16
  -8  -1  -4   19.13    2.17
  -7  -1  -4   40.06    3.08
  -6  -1  -4   20.89    2.07
  -5  -1  -4   58.40    2.50
  -4  -1  -4   32.28    1.58
  -3  -1  -4   33.09    1.32
  -2  -1  -4   13.79    0.81
  -1  -1  -4   35.31    1.11
   0  -1  -4   13.52    0.74
   1  -1  -4   14.44    0.80
   2  -1  -4   35.65    1.28
   3  -1  -4   29.25    1.29
   4  -1  -4   56.15    2.02
   5  -1  -4   46.59    1.91
   6  -1  -4   16.89    1.64
   7  -1  -4   47.48    2.63
   8  -1  -4   69.34    3.08
   9  -1  -4   12.24    1.74
  10  -1  -4    9.21    1.68
  11  -1  -4    6.75    1.92
  12  -1  -4    5.72    1.96
  13  -1  -4    6.22    2.84
 -12   0  -4    1.19    2.09
 -11   0  -4    0.37    1.16
 -10   0  -4    4.46    1.53
  -9   0  -4    1.95    1.15
  -8   0  -4   21.35    2.37
  -7   0  -4   17.00    1.92
  -6   0  -4    3.46    0.95
  -5   0  -4   17.30    1.43
  -4   0  -4   26.05    1.31
  -3   0  -4   76.74    1.87
  -2   0  -4    4.06    0.47
  -1   0  -4   14.82    0.79
   0   0  -4  700.69    7.97
   1   0  -4   14.32    0.84
   2   0  -4    4.41    0.51
   3   0  -4   72.78    2.21
   4   0  -4   30.19    1.62
   5   0  -4   18.19    1.42
   6   0  -4    7.08    1.10
   7   0  -4   16.28    1.74
   8   0  -4   19.97    1.99
   9   0  -4    1.43    0.88
  10   0  -4    3.06    1.50
  11   0  -4    2.38    1.51
  12   0  -4    2.60    1.80
 -13   1  -4    2.90    2.22
 -12   1  -4    5.50    1.96
 -11   1  -4    5.59    1.78
 -10   1  -4    8.77    1.72
  -9   1  -4   11.51    1.93
  -8   1  -4   64.80    3.62
  -7   1  -4   49.00    3.24
  -6   1  -4   18.93    1.58
  -5   1  -4   44.96    1.98
  -4   1  -4   61.19    1.80
  -3   1  -4   29.80    1.19
  -2   1  -4   35.59    1.22
  -1   1  -4   16.23    0.91
   0   1  -4   14.86    0.97
   1   1  -4   35.33    1.30
   2   1  -4   14.07    1.07
   3   1  -4   32.85    1.53
   4   1  -4   29.59    1.62
   5   1  -4   61.13    2.19
   6   1  -4   20.86    1.59
   7   1  -4   39.94    2.47
   8   1  -4   17.14    1.89
   9   1  -4   11.23    1.74
  10   1  -4   18.39    2.66
  11   1  -4    6.27    2.68
 -13   2  -4    3.10    1.78
 -12   2  -4   48.17    4.11
 -11   2  -4    3.46    1.47
 -10   2  -4    6.00    1.56
  -9   2  -4   17.16    2.19
  -8   2  -4   30.51    2.59
  -7   2  -4    8.97    1.17
  -6   2  -4   12.11    1.26
  -5   2  -4   56.70    2.15
  -4   2  -4  127.85    2.81
  -3   2  -4   13.22    0.93
  -2   2  -4    4.16    0.54
  -1   2  -4   36.61    1.27
   0   2  -4    2.76    0.47
   1   2  -4   31.60    1.27
   2   2  -4  131.85    3.01
   3   2  -4   70.35    2.17
   4   2  -4   23.73    1.54
   5   2  -4   23.78    1.66
   6   2  -4   11.91    1.23
   7   2  -4   38.39    2.75
   8   2  -4   16.04    2.54
   9   2  -4   12.51    2.48
  10   2  -4   13.75    3.80
  11   2  -4    1.78    2.19
 -13   3  -4    2.88    1.77
 -12   3  -4    0.37    1.23
 -11   3  -4   18.87    2.52
 -10   3  -4    5.30    1.50
  -9   3  -4   16.76    2.09
  -8   3  -4   23.69    1.92
  -7   3  -4   44.47    2.30
  -6   3  -4   46.25    2.15
  -5   3  -4   68.38    2.18
  -4   3  -4   29.26    1.54
  -3   3  -4   71.42    1.82
  -2   3  -4   32.76    1.30
  -1   3  -4   11.95    1.03
   0   3  -4   73.07    2.23
   1   3  -4   61.70    2.09
   2   3  -4   54.03    2.38
   3   3  -4   47.87    2.43
   4   3  -4   16.70    1.71
   5   3  -4   12.11    1.59
   6   3  -4   41.87    2.94
   7   3  -4    2.06    1.29
   8   3  -4   27.23    3.30
   9   3  -4    5.06    2.48
  10   3  -4    9.52    3.45
 -13   4  -4   12.17    2.74
 -12   4  -4    3.51    1.82
 -11   4  -4    5.50    1.82
 -10   4  -4   46.18    4.20
  -9   4  -4   20.31    2.11
  -8   4  -4   14.71    1.75
  -7   4  -4   15.27    1.67
  -6   4  -4   22.48    1.92
  -5   4  -4   27.98    1.54
  -4   4  -4   25.99    1.54
  -3   4  -4   59.71    1.65
  -2   4  -4  127.25    2.99
  -1   4  -4   28.18    1.49
   0   4  -4   26.00    1.50
   1   4  -4   49.12    2.32
   2   4  -4    9.44    1.30
   3   4  -4   47.73    2.51
   4   4  -4   16.93    1.83
   5   4  -4   11.87    1.60
   6   4  -4   20.59    2.69
   7   4  -4    0.03    0.98
   8   4  -4    1.38    1.36
   9   4  -4   16.43    4.03
 -14   5  -4    3.22    3.20
 -13   5  -4    6.01    2.14
 -12   5  -4    2.61    1.59
 -11   5  -4   29.25    3.71
 -10   5  -4   13.96    1.90
  -9   5  -4    5.67    1.21
  -8   5  -4    7.41    1.39
  -7   5  -4   24.07    2.14
  -6   5  -4   57.41    2.11
  -5   5  -4   18.22    1.43
  -4   5  -4   43.65    1.99
  -3   5  -4   52.97    2.35
  -2   5  -4   72.84    2.16
  -1   5  -4   27.56    1.52
   0   5  -4   18.37    1.37
   1   5  -4   15.20    1.55
   2   5  -4    8.79    1.30
   3   5  -4   25.25    2.18
   4   5  -4   24.87    2.27
   5   5  -4    9.36    1.92
   6   5  -4   35.81    3.58
   7   5  -4    1.77    1.39
   8   5  -4    8.42    3.09
 -14   6  -4   24.06    3.91
 -13   6  -4    7.99    2.46
 -12   6  -4    5.01    1.93
 -11   6  -4   28.38    2.62
 -10   6  -4   20.23    2.26
  -9   6  -4   37.97    2.91
  -8   6  -4    9.04    1.41
  -7   6  -4   15.44    1.74
  -6   6  -4    3.61    0.79
  -5   6  -4   13.67    1.25
  -4   6  -4    9.73    1.30
  -3   6  -4   48.98    2.57
  -2   6  -4   23.62    1.40
  -1   6  -4   58.33    2.11
   0   6  -4    3.95    0.76
   1   6  -4   54.26    2.67
   2   6  -4   33.83    2.49
   3   6  -4   20.29    2.06
   4   6  -4   50.39    4.15
   5   6  -4   37.46    3.67
   6   6  -4    7.40    1.71
   7   6  -4    1.64    1.47
   8   6  -4   11.38    3.81
 -14   7  -4    5.23    2.45
 -13   7  -4    0.95    1.77
 -12   7  -4    1.57    1.14
 -11   7  -4    1.93    1.19
 -10   7  -4    2.24    1.15
  -9   7  -4   43.56    3.24
  -8   7  -4   33.53    2.75
  -7   7  -4   12.45    1.65
  -6   7  -4   55.38    2.39
  -5   7  -4    7.88    1.23
  -4   7  -4   48.19    2.69
  -3   7  -4   16.00    1.71
  -2   7  -4   23.22    2.05
  -1   7  -4   17.01    1.41
   0   7  -4   15.50    1.66
   1   7  -4   68.97    3.01
   2   7  -4   18.06    1.95
   3   7  -4    3.90    1.28
   4   7  -4    3.27    1.38
   5   7  -4    4.81    1.71
   6   7  -4    6.68    2.11
   7   7  -4    9.44    2.35
 -14   8  -4    8.73    2.76
 -13   8  -4   19.28    3.27
 -12   8  -4    1.85    1.28
 -11   8  -4   29.54    3.00
 -10   8  -4   15.93    2.13
  -9   8  -4   14.27    1.97
  -8   8  -4   17.19    2.05
  -7   8  -4   65.37    2.63
  -6   8  -4   31.84    2.44
  -5   8  -4   25.12    2.15
  -4   8  -4   17.51    1.85
  -3   8  -4    7.59    1.25
  -2   8  -4    7.25    1.28
  -1   8  -4   35.78    2.17
   0   8  -4   15.87    1.84
   1   8  -4    9.86    1.46
   2   8  -4    7.36    1.73
   3   8  -4   21.73    2.85
   4   8  -4    1.87    1.36
   5   8  -4    0.39    1.31
   6   8  -4   28.63    3.77
 -13   9  -4   20.28    3.35
 -12   9  -4    5.32    1.57
 -11   9  -4    8.75    1.78
 -10   9  -4   13.28    2.01
  -9   9  -4    2.32    1.05
  -8   9  -4   13.91    2.41
  -7   9  -4   16.24    1.82
  -6   9  -4   18.20    1.97
  -5   9  -4   23.50    2.18
  -4   9  -4    8.94    1.40
  -3   9  -4   41.52    2.88
  -2   9  -4   38.93    2.73
  -1   9  -4   11.89    2.12
   0   9  -4    1.02    0.88
   1   9  -4    9.71    1.94
   2   9  -4    4.05    1.53
   3   9  -4    4.11    1.70
   4   9  -4   17.33    2.81
   5   9  -4    0.65    1.53
 -14  10  -4    3.17    2.92
 -13  10  -4    6.30    2.25
 -12  10  -4    8.83    2.40
 -11  10  -4   21.04    3.21
 -10  10  -4    3.01    1.27
  -9  10  -4    5.20    1.89
  -8  10  -4    6.56    1.86
  -7  10  -4    3.55    1.18
  -6  10  -4   46.14    3.23
  -5  10  -4   13.36    1.77
  -4  10  -4   17.25    2.01
  -3  10  -4    2.95    1.39
  -2  10  -4   15.05    2.36
  -1  10  -4   10.32    2.17
   0  10  -4    3.38    1.91
   1  10  -4    4.19    1.61
   2  10  -4   52.43    4.62
   3  10  -4    1.72    1.43
   4  10  -4   -0.14    2.01
 -13  11  -4    3.38    2.03
 -12  11  -4    1.12    1.85
 -11  11  -4    1.36    1.56
 -10  11  -4    7.88    2.25
  -9  11  -4    3.75    1.90
  -8  11  -4   18.28    2.29
  -7  11  -4    3.77    1.29
  -6  11  -4   41.03    3.11
  -5  11  -4   29.56    3.39
  -4  11  -4    1.39    1.27
  -3  11  -4   17.88    2.70
  -2  11  -4    9.46    2.11
  -1  11  -4   17.43    4.11
   0  11  -4    0.53    1.95
   1  11  -4    5.41    2.82
   2  11  -4    6.16    1.98
 -13  12  -4   10.28    4.23
 -12  12  -4    2.46    1.93
 -11  12  -4    6.84    2.45
 -10  12  -4   59.61    5.46
  -9  12  -4    0.98    1.58
  -8  12  -4    2.26    1.58
  -7  12  -4    7.53    1.98
  -6  12  -4    9.59    2.24
  -5  12  -4    1.58    1.28
  -4  12  -4    4.09    1.66
  -3  12  -4    3.52    1.68
  -2  12  -4    8.77    3.25
  -1  12  -4    4.57    2.71
   0  12  -4   -0.27    2.05
 -11  13  -4    0.15    2.44
 -10  13  -4    1.13    2.38
  -9  13  -4   12.14    3.69
  -8  13  -4    3.43    1.83
  -7  13  -4    7.57    2.32
  -6  13  -4    0.82    1.42
  -5  13  -4   21.02    3.26
  -4  13  -4   24.45    3.50
  -3  13  -4   12.02    3.67
  -2  13  -4   -1.45    1.88
  -8  14  -4   36.18    4.33
  -7  14  -4    5.97    2.20
  -6  14  -4   10.69    2.64
  -5  14  -4    1.77    1.79
   6 -15  -3    4.89    2.87
   7 -15  -3    4.44    2.93
   8 -15  -3    4.96    2.90
   9 -15  -3    2.21    2.33
   3 -14  -3    3.54    1.78
   4 -14  -3    7.53    1.78
   5 -14  -3   12.02    2.53
   6 -14  -3   17.79    2.88
   7 -14  -3   26.97    3.55
   8 -14  -3    4.91    1.86
   9 -14  -3    7.13    2.14
  10 -14  -3   16.87    2.84
  11 -14  -3    0.51    1.48
   1 -13  -3   21.46    3.26
   2 -13  -3   14.54    2.22
   3 -13  -3   27.66    2.78
   4 -13  -3    7.11    1.55
   5 -13  -3    1.65    1.31
   6 -13  -3    7.94    2.04
   7 -13  -3   37.89    3.98
   8 -13  -3    2.81    1.57
   9 -13  -3    6.37    1.85
  10 -13  -3   11.72    2.33
  11 -13  -3    4.99    1.80
  12 -13  -3   12.63    2.45
  13 -13  -3    1.13    2.32
  -1 -12  -3   11.27    2.68
   0 -12  -3    8.32    2.20
   1 -12  -3   11.62    2.10
   2 -12  -3    7.04    1.57
   3 -12  -3    1.63    1.04
   4 -12  -3   13.35    1.83
   5 -12  -3    6.16    1.34
   6 -12  -3   12.58    2.30
   7 -12  -3   15.69    2.50
   8 -12  -3   12.64    1.83
   9 -12  -3    2.78    1.15
  10 -12  -3    5.09    1.36
  11 -12  -3   29.74    3.49
  12 -12  -3    8.64    2.15
  13 -12  -3   24.42    3.26
  -3 -11  -3    0.44    2.32
  -2 -11  -3    8.30    2.43
  -1 -11  -3   30.62    3.88
   0 -11  -3   11.90    1.96
   1 -11  -3    7.81    1.64
   2 -11  -3    5.70    1.43
   3 -11  -3   69.16    3.56
   4 -11  -3    8.46    1.41
   5 -11  -3   24.63    2.26
   6 -11  -3   10.48    1.92
   7 -11  -3    9.00    1.48
   8 -11  -3   30.20    2.65
   9 -11  -3   30.92    2.67
  10 -11  -3   12.84    1.86
  11 -11  -3   14.26    1.96
  12 -11  -3    8.25    2.02
  13 -11  -3   17.30    2.72
  -4 -10  -3   15.58    3.19
  -3 -10  -3   11.82    2.66
  -2 -10  -3    4.50    1.80
  -1 -10  -3   16.64    2.75
   0 -10  -3   12.57    1.98
   1 -10  -3   64.30    3.72
   2 -10  -3   15.71    1.95
   3 -10  -3   21.61    2.13
   4 -10  -3   12.99    1.68
   5 -10  -3    0.40    0.74
   6 -10  -3   14.26    1.69
   7 -10  -3   18.56    2.05
   8 -10  -3   27.13    2.28
   9 -10  -3   51.33    3.26
  10 -10  -3   14.86    1.85
  11 -10  -3    6.98    1.41
  12 -10  -3    6.98    1.53
  13 -10  -3   35.01    5.42
  14 -10  -3    8.32    3.31
  -6  -9  -3    3.80    3.56
  -5  -9  -3    3.30    2.24
  -4  -9  -3    4.15    1.89
  -3  -9  -3    1.41    1.53
  -2  -9  -3   29.94    3.64
  -1  -9  -3   52.70    3.75
   0  -9  -3    1.03    0.91
   1  -9  -3   58.21    3.39
   2  -9  -3    8.74    1.39
   3  -9  -3   19.82    1.91
   4  -9  -3   36.42    2.52
   5  -9  -3   71.22    2.59
   6  -9  -3   51.48    2.77
   7  -9  -3    7.05    1.21
   8  -9  -3   15.92    1.72
   9  -9  -3    0.87    0.78
  10  -9  -3   70.77    3.16
  11  -9  -3    6.97    1.46
  12  -9  -3    1.17    0.99
  13  -9  -3    5.51    2.59
  14  -9  -3   13.83    3.91
  -7  -8  -3    4.86    2.15
  -6  -8  -3    3.06    1.55
  -5  -8  -3    1.89    1.45
  -4  -8  -3    9.87    1.94
  -3  -8  -3   33.00    2.96
  -2  -8  -3   24.84    2.44
  -1  -8  -3   22.38    2.29
   0  -8  -3    0.27    0.79
   1  -8  -3   51.40    2.97
   2  -8  -3   49.45    2.66
   3  -8  -3   96.67    3.44
   4  -8  -3    1.05    0.57
   5  -8  -3   55.43    2.09
   6  -8  -3   12.44    1.50
   7  -8  -3   17.43    1.76
   8  -8  -3    1.21    0.74
   9  -8  -3   59.75    2.82
  10  -8  -3   16.48    1.80
  11  -8  -3   71.04    3.25
  12  -8  -3    9.22    2.01
  13  -8  -3    5.15    1.66
  14  -8  -3    9.62    3.25
  -8  -7  -3    3.12    1.99
  -7  -7  -3   18.97    2.71
  -6  -7  -3   30.00    3.13
  -5  -7  -3   11.54    1.97
  -4  -7  -3    6.03    1.51
  -3  -7  -3   21.38    2.32
  -2  -7  -3    7.83    1.42
  -1  -7  -3   18.65    1.69
   0  -7  -3    6.83    0.99
   1  -7  -3   96.55    3.51
   2  -7  -3   77.52    2.94
   3  -7  -3   78.87    2.53
   4  -7  -3   50.94    1.92
   5  -7  -3   57.05    1.97
   6  -7  -3  141.14    4.15
   7  -7  -3    8.85    1.22
   8  -7  -3   46.98    2.46
   9  -7  -3    7.37    1.22
  10  -7  -3   24.45    2.09
  11  -7  -3   10.26    1.94
  12  -7  -3    2.76    1.38
  13  -7  -3    8.68    2.09
  14  -7  -3   23.68    4.84
  -8  -6  -3    8.84    2.03
  -7  -6  -3   11.29    2.10
  -6  -6  -3    8.49    1.74
  -5  -6  -3   11.08    1.92
  -4  -6  -3   15.33    2.02
  -3  -6  -3   58.27    3.38
  -2  -6  -3   13.46    1.47
  -1  -6  -3  147.59    3.89
   0  -6  -3   40.71    1.98
   1  -6  -3   58.03    2.00
   2  -6  -3   31.76    1.29
   3  -6  -3   35.39    1.61
   4  -6  -3   65.61    2.06
   5  -6  -3   36.32    1.52
   6  -6  -3   39.38    2.04
   7  -6  -3   92.32    3.10
   8  -6  -3   46.32    2.22
   9  -6  -3   17.20    1.67
  10  -6  -3   13.82    1.57
  11  -6  -3   20.63    2.71
  12  -6  -3    7.20    1.95
  13  -6  -3   29.62    3.43
  14  -6  -3    2.67    1.64
  -9  -5  -3   13.43    2.98
  -8  -5  -3    2.30    1.41
  -7  -5  -3    3.91    1.56
  -6  -5  -3   20.45    2.41
  -5  -5  -3    1.79    0.99
  -4  -5  -3   62.48    3.51
  -3  -5  -3   58.21    3.15
  -2  -5  -3   55.95    2.50
  -1  -5  -3   38.27    1.97
   0  -5  -3   78.69    2.39
   1  -5  -3   52.61    1.59
   2  -5  -3  105.58    2.28
   3  -5  -3   30.06    1.39
   4  -5  -3  119.26    2.86
   5  -5  -3   69.62    2.23
   6  -5  -3   54.80    1.97
   7  -5  -3   74.95    2.38
   8  -5  -3   97.52    2.86
   9  -5  -3   34.72    1.92
  10  -5  -3    0.62    0.80
  11  -5  -3    7.86    1.64
  12  -5  -3   14.10    2.29
  13  -5  -3    4.88    1.74
  14  -5  -3    7.31    2.19
 -10  -4  -3   10.70    2.95
  -9  -4  -3    3.44    1.87
  -8  -4  -3    7.30    2.14
  -7  -4  -3    8.18    1.76
  -6  -4  -3   12.86    1.96
  -5  -4  -3   38.34    2.96
  -4  -4  -3    1.07    0.83
  -3  -4  -3   49.82    1.98
  -2  -4  -3   62.34    1.92
  -1  -4  -3  130.88    2.73
   0  -4  -3  114.48    2.21
   1  -4  -3   93.44    2.13
   2  -4  -3    0.67    0.29
   3  -4  -3   54.25    1.51
   4  -4  -3  112.64    2.29
   5  -4  -3   48.65    1.71
   6  -4  -3   29.08    1.54
   7  -4  -3   76.86    2.37
   8  -4  -3    0.83    0.52
   9  -4  -3   71.80    3.06
  10  -4  -3   17.86    1.94
  11  -4  -3   11.45    2.07
  12  -4  -3   11.22    2.17
  13  -4  -3    2.49    1.57
  14  -4  -3   17.65    3.06
 -11  -3  -3    1.66    3.18
 -10  -3  -3   33.93    4.43
  -9  -3  -3   -0.28    1.59
  -8  -3  -3   61.25    5.32
  -7  -3  -3   23.30    2.52
  -6  -3  -3   20.51    1.81
  -5  -3  -3  102.71    3.18
  -4  -3  -3   74.38    2.53
  -3  -3  -3   36.15    1.75
  -2  -3  -3   29.04    1.46
  -1  -3  -3   54.06    1.58
   0  -3  -3  233.89    3.47
   1  -3  -3   50.45    1.28
   2  -3  -3   90.11    2.01
   3  -3  -3  226.94    3.67
   4  -3  -3   93.38    2.37
   5  -3  -3  100.68    2.58
   6  -3  -3   33.11    1.51
   7  -3  -3   48.99    1.76
   8  -3  -3   57.25    2.55
   9  -3  -3   57.52    2.75
  10  -3  -3   18.75    2.02
  11  -3  -3   37.57    3.58
  12  -3  -3    2.45    1.26
  13  -3  -3    9.67    2.30
  14  -3  -3    3.13    1.82
 -11  -2  -3    9.89    2.86
 -10  -2  -3    8.20    2.63
  -9  -2  -3    6.37    2.16
  -8  -2  -3   12.91    1.89
  -7  -2  -3    7.53    1.39
  -6  -2  -3   44.43    2.40
  -5  -2  -3   75.24    2.66
  -4  -2  -3   32.67    1.92
  -3  -2  -3  103.68    2.35
  -2  -2  -3    1.33    0.36
  -1  -2  -3   91.28    1.62
   0  -2  -3  226.24    2.92
   1  -2  -3   11.66    0.60
   2  -2  -3  224.63    3.31
   3  -2  -3   49.96    1.39
   4  -2  -3    1.30    0.39
   5  -2  -3   25.69    1.23
   6  -2  -3   63.31    1.92
   7  -2  -3   55.06    2.42
   8  -2  -3   10.88    1.43
   9  -2  -3    9.05    1.41
  10  -2  -3   25.21    2.81
  11  -2  -3   28.84    3.32
  12  -2  -3    2.58    1.44
  13  -2  -3    7.43    2.11
 -12  -1  -3   27.93    4.14
 -11  -1  -3    5.88    2.37
 -10  -1  -3    7.62    1.77
  -9  -1  -3   66.47    4.17
  -7  -1  -3   51.04    2.93
  -6  -1  -3   91.86    3.06
  -5  -1  -3   56.67    2.24
  -4  -1  -3   50.48    1.61
  -3  -1  -3   92.54    2.18
  -2  -1  -3   50.56    1.23
  -1  -1  -3   11.33    0.63
   0  -1  -3   22.79    0.79
   1  -1  -3   23.15    0.78
   2  -1  -3    9.64    0.69
   3  -1  -3   90.64    1.92
   4  -1  -3   52.15    1.38
   5  -1  -3  128.44    2.78
   6  -1  -3   34.98    2.06
   7  -1  -3  147.60    4.25
   8  -1  -3   13.72    1.59
   9  -1  -3   17.53    1.89
  10  -1  -3   59.74    4.06
  11  -1  -3   16.95    2.47
  12  -1  -3   35.09    3.81
  13  -1  -3   10.79    2.28
 -13   0  -3    1.49    3.45
 -12   0  -3    4.71    1.75
 -11   0  -3   11.14    2.07
 -10   0  -3   10.54    1.75
  -9   0  -3    0.09    0.94
  -8   0  -3    0.97    0.76
  -7   0  -3    6.55    1.29
  -6   0  -3   36.20    2.49
  -5   0  -3   72.30    2.23
  -4   0  -3  113.42    2.80
  -3   0  -3  224.16    3.47
  -2   0  -3  222.44    2.94
  -1   0  -3   22.42    0.78
   0   0  -3    0.32    0.20
   1   0  -3   23.33    0.83
   2   0  -3  222.70    3.51
   3   0  -3  226.08    4.26
   4   0  -3  114.18    2.78
   5   0  -3   78.14    2.30
   6   0  -3   42.53    2.13
   7   0  -3    7.40    1.15
   8   0  -3    1.27    0.77
   9   0  -3    1.62    0.87
  10   0  -3   12.91    2.16
  11   0  -3   13.07    2.37
  12   0  -3    6.93    1.95
  13   0  -3    1.06    2.43
 -13   1  -3    8.74    2.28
 -12   1  -3   27.06    3.20
 -11   1  -3   13.33    2.20
 -10   1  -3   52.54    3.79
  -9   1  -3   18.76    2.09
  -8   1  -3   14.15    1.80
  -7   1  -3  143.01    3.72
  -6   1  -3   31.52    1.71
  -5   1  -3  129.69    3.17
  -4   1  -3   49.77    1.41
  -3   1  -3   92.14    2.03
  -2   1  -3   11.44    0.69
  -1   1  -3   21.96    0.83
   0   1  -3   21.85    0.91
   1   1  -3   10.54    0.70
   2   1  -3   48.44    1.49
   3   1  -3   94.76    2.36
   4   1  -3   51.76    1.73
   5   1  -3   55.37    1.96
   6   1  -3   90.59    3.13
   7   1  -3   52.80    2.62
   8   1  -3   64.64    2.93
   9   1  -3   63.89    3.78
  10   1  -3    6.39    1.72
  11   1  -3    6.47    1.80
  12   1  -3   26.39    3.51
 -13   2  -3    8.31    2.20
 -12   2  -3    2.55    1.56
 -11   2  -3   29.00    3.04
 -10   2  -3   20.41    2.45
  -9   2  -3    9.81    1.65
  -8   2  -3    8.91    1.13
  -7   2  -3   54.02    2.12
  -6   2  -3   65.23    2.21
  -5   2  -3   22.05    1.45
  -4   2  -3    0.50    0.33
  -3   2  -3   48.02    1.17
  -2   2  -3  222.55    3.59
  -1   2  -3   10.72    0.72
   0   2  -3  227.35    3.54
   1   2  -3   93.77    1.91
   2   2  -3    0.80    0.34
   3   2  -3  106.86    2.62
   4   2  -3   27.58    1.46
   5   2  -3   73.60    2.32
   6   2  -3   46.37    2.03
   7   2  -3    7.75    1.25
   8   2  -3   11.98    1.64
   9   2  -3    7.12    1.79
  10   2  -3    6.14    1.78
  11   2  -3   15.91    2.72
 -14   3  -3    0.55    1.85
 -13   3  -3    9.55    2.18
 -12   3  -3    1.90    1.33
 -11   3  -3   33.19    3.18
 -10   3  -3   15.26    2.03
  -9   3  -3   56.69    2.73
  -8   3  -3   47.43    2.37
  -7   3  -3   43.26    2.32
  -6   3  -3   33.77    1.77
  -5   3  -3  103.74    2.53
  -4   3  -3   91.17    2.33
  -3   3  -3  225.75    4.88
  -2   3  -3   90.57    1.91
  -1   3  -3   47.21    1.48
   0   3  -3  228.28    4.24
   1   3  -3   53.11    1.36
   2   3  -3   20.85    1.11
   3   3  -3   34.42    1.58
   4   3  -3   78.63    2.34
   5   3  -3  105.13    2.90
   6   3  -3   19.77    1.54
   7   3  -3   21.31    1.96
   8   3  -3   67.28    3.32
   9   3  -3    1.29    1.18
  10   3  -3   35.70    5.62
  11   3  -3    3.00    2.81
 -14   4  -3   21.27    3.78
 -13   4  -3    4.20    1.88
 -12   4  -3   13.98    2.69
 -11   4  -3    7.17    1.64
 -10   4  -3   15.93    1.71
  -9   4  -3   73.75    2.80
  -8   4  -3    1.78    0.79
  -7   4  -3   77.22    2.97
  -6   4  -3   27.00    1.37
  -5   4  -3   45.41    1.63
  -4   4  -3  107.49    2.70
  -3   4  -3   51.30    1.31
  -2   4  -3    0.68    0.33
  -1   4  -3   92.40    2.31
   0   4  -3  111.23    2.71
   1   4  -3  134.17    2.79
   2   4  -3   66.22    1.93
   3   4  -3   48.25    1.75
   4   4  -3    0.94    0.48
   5   4  -3   34.85    1.87
   6   4  -3   15.50    1.75
   7   4  -3    9.70    2.01
   8   4  -3   14.49    3.77
   9   4  -3    4.30    2.39
  10   4  -3    5.99    2.58
 -14   5  -3    4.75    2.32
 -13   5  -3    4.04    1.98
 -12   5  -3   15.48    2.89
 -11   5  -3   12.18    2.32
 -10   5  -3    0.56    0.84
  -9   5  -3   32.04    2.53
  -8   5  -3   96.88    3.58
  -7   5  -3   73.84    2.94
  -6   5  -3   56.30    1.94
  -5   5  -3   70.98    2.20
  -4   5  -3  132.00    3.10
  -3   5  -3   21.84    1.06
  -2   5  -3  107.52    2.57
  -1   5  -3   44.77    1.60
   0   5  -3   77.24    2.23
   1   5  -3   33.59    2.00
   2   5  -3   51.36    2.33
   3   5  -3   49.43    2.35
   4   5  -3   76.34    3.06
   5   5  -3    1.10    0.94
   6   5  -3   30.12    3.21
   7   5  -3    5.05    1.51
   8   5  -3    5.73    2.46
   9   5  -3   17.50    4.27
 -15   6  -3    3.95    3.32
 -14   6  -3    6.16    2.36
 -13   6  -3   23.62    3.60
 -12   6  -3    6.82    2.07
 -11   6  -3   22.89    2.40
 -10   6  -3   11.58    1.63
  -9   6  -3   14.28    1.78
  -8   6  -3   43.84    2.86
  -7   6  -3   90.92    2.69
  -6   6  -3   39.48    1.91
  -5   6  -3   32.06    1.83
  -4   6  -3   64.21    2.50
  -3   6  -3   33.38    1.42
  -2   6  -3   26.37    1.38
  -1   6  -3   58.49    1.96
   0   6  -3   38.61    1.78
   1   6  -3  147.21    4.26
   2   6  -3    9.34    1.30
   3   6  -3   58.00    2.67
   4   6  -3   19.97    2.45
   5   6  -3    3.95    1.40
   6   6  -3   11.54    2.22
   7   6  -3    6.58    1.84
   8   6  -3   15.16    3.93
 -14   7  -3   25.30    3.83
 -13   7  -3    6.57    2.14
 -12   7  -3    3.99    1.39
 -11   7  -3    8.81    1.66
 -10   7  -3   22.74    2.32
  -9   7  -3    6.66    1.29
  -8   7  -3   53.16    2.97
  -7   7  -3    8.44    1.07
  -6   7  -3  152.22    3.70
  -5   7  -3   54.79    2.40
  -4   7  -3   45.65    2.25
  -3   7  -3   80.20    2.28
  -2   7  -3   75.56    2.30
  -1   7  -3   93.07    2.67
   0   7  -3    8.16    1.15
   1   7  -3   11.91    1.50
   2   7  -3    9.75    1.37
   3   7  -3   16.72    2.32
   4   7  -3   10.15    1.91
   5   7  -3   11.52    2.24
   6   7  -3   34.72    3.69
   7   7  -3   25.50    4.70
 -14   8  -3   13.63    4.18
 -13   8  -3    1.45    1.32
 -12   8  -3   13.77    2.00
 -11   8  -3   72.67    4.14
 -10   8  -3   15.82    2.03
  -9   8  -3   64.16    3.49
  -8   8  -3    0.13    0.69
  -7   8  -3   13.10    1.33
  -6   8  -3    9.15    1.33
  -5   8  -3   50.35    2.58
  -4   8  -3    0.21    0.57
  -3   8  -3   97.95    2.73
  -2   8  -3   49.25    2.04
  -1   8  -3   49.63    2.07
   0   8  -3    0.90    0.72
   1   8  -3   15.20    1.75
   2   8  -3   24.08    2.80
   3   8  -3   28.26    3.13
   4   8  -3   10.49    2.00
   5   8  -3    5.27    1.82
   6   8  -3    2.08    1.50
 -14   9  -3   11.19    2.73
 -13   9  -3    6.72    2.06
 -12   9  -3   -0.52    1.27
 -11   9  -3    7.02    1.60
 -10   9  -3   68.12    3.75
  -9   9  -3    1.47    0.95
  -8   9  -3   14.71    1.47
  -7   9  -3    9.79    1.47
  -6   9  -3   59.51    2.98
  -5   9  -3   76.97    3.14
  -4   9  -3   30.81    2.32
  -3   9  -3   16.98    1.74
  -2   9  -3    8.26    0.99
  -1   9  -3   65.37    2.92
   0   9  -3    0.84    0.79
   1   9  -3   47.44    3.96
   2   9  -3   35.99    3.66
   3   9  -3    0.31    1.06
   4   9  -3    4.00    1.48
   5   9  -3    7.06    2.07
 -14  10  -3    5.98    2.27
 -13  10  -3   35.64    4.32
 -12  10  -3    8.32    2.26
 -11  10  -3    6.36    2.00
 -10  10  -3    6.73    1.89
  -9  10  -3   49.39    4.33
  -8  10  -3   20.58    2.15
  -7  10  -3   20.82    2.17
  -6  10  -3   18.32    1.95
  -5  10  -3    0.78    0.78
  -4  10  -3   10.23    1.88
  -3  10  -3   21.92    2.71
  -2  10  -3    9.74    1.94
  -1  10  -3   66.98    3.13
   0  10  -3   13.00    2.09
   1  10  -3   16.71    2.50
   2  10  -3    2.14    1.36
   3  10  -3   12.47    2.47
   4  10  -3   13.83    2.53
 -14  11  -3    2.58    2.12
 -13  11  -3    9.51    2.59
 -12  11  -3    8.06    2.37
 -11  11  -3   17.56    3.02
 -10  11  -3   12.40    2.56
  -9  11  -3   26.72    3.32
  -8  11  -3   30.64    2.75
  -7  11  -3    9.13    1.57
  -6  11  -3    5.01    1.67
  -5  11  -3   24.35    3.06
  -4  11  -3    5.12    1.55
  -3  11  -3   73.79    4.22
  -2  11  -3    4.04    1.50
  -1  11  -3    6.18    1.62
   0  11  -3   17.59    2.63
   1  11  -3   28.84    3.41
   2  11  -3   10.86    2.33
   3  11  -3    2.41    1.55
 -13  12  -3   25.17    3.92
 -12  12  -3    9.91    2.57
 -11  12  -3   33.54    4.04
 -10  12  -3    0.48    1.54
  -9  12  -3    0.64    1.45
  -8  12  -3   14.60    2.63
  -7  12  -3   13.93    2.39
  -6  12  -3   12.75    2.23
  -5  12  -3    3.87    1.54
  -4  12  -3   10.93    2.23
  -3  12  -3    1.26    1.25
  -2  12  -3    8.76    2.96
  -1  12  -3    4.31    2.38
   0  12  -3   10.63    3.43
   1  12  -3    8.81    2.31
 -12  13  -3   11.11    3.91
 -11  13  -3    4.86    3.22
 -10  13  -3    7.02    3.34
  -9  13  -3    5.52    2.09
  -8  13  -3   10.55    2.39
  -7  13  -3   35.69    3.96
  -6  13  -3    6.09    2.00
  -5  13  -3    3.64    1.59
  -4  13  -3    4.77    1.78
  -3  13  -3   24.07    4.94
  -2  13  -3    7.78    3.12
  -1  13  -3   18.25    4.61
 -10  14  -3   12.68    4.23
  -9  14  -3    6.64    2.18
  -8  14  -3    2.98    1.79
  -7  14  -3   27.79    3.68
  -6  14  -3   16.83    3.04
  -5  14  -3   15.21    2.77
  -4  14  -3    4.19    2.63
  -9  15  -3    1.82    2.64
  -8  15  -3    1.90    2.76
  -7  15  -3    1.47    2.19
  -6  15  -3    6.98    3.73
   4 -15  -2    2.03    2.49
   5 -15  -2    3.85    2.55
   6 -15  -2    9.87    3.42
   7 -15  -2    4.34    2.67
   8 -15  -2    6.70    3.07
   9 -15  -2    9.06    3.53
  11 -15  -2    5.31    2.81
   2 -14  -2    4.13    1.80
   3 -14  -2    6.41    1.95
   4 -14  -2   12.12    2.42
   5 -14  -2    7.02    1.62
   6 -14  -2    7.40    1.66
   7 -14  -2    2.85    1.62
   8 -14  -2   22.15    3.00
   9 -14  -2   14.90    2.62
  10 -14  -2   49.35    4.55
  11 -14  -2    3.46    1.75
  12 -14  -2   10.59    2.53
   0 -13  -2   15.87    3.01
   1 -13  -2    1.99    1.63
   2 -13  -2   30.11    3.00
   3 -13  -2   12.96    2.00
   4 -13  -2   10.88    1.90
   5 -13  -2   37.56    3.06
   6 -13  -2   10.48    1.69
   7 -13  -2    4.39    1.54
   8 -13  -2   11.81    2.34
   9 -13  -2    7.12    1.96
  10 -13  -2    8.74    2.04
  11 -13  -2    9.69    2.19
  12 -13  -2   10.30    2.31
  13 -13  -2   15.82    2.71
  -2 -12  -2    3.96    2.88
  -1 -12  -2    9.32    2.32
   0 -12  -2   12.89    2.50
   1 -12  -2    3.97    1.36
   2 -12  -2   18.27    2.20
   3 -12  -2   -0.15    0.85
   4 -12  -2   35.68    2.85
   5 -12  -2    8.21    1.43
   6 -12  -2   26.48    2.40
   7 -12  -2    6.49    1.69
   8 -12  -2   39.90    3.73
   9 -12  -2    4.73    1.30
  10 -12  -2   35.64    3.60
  11 -12  -2   21.96    2.83
  12 -12  -2   14.41    2.58
  13 -12  -2    5.59    1.93
  14 -12  -2    2.71    1.77
  -4 -11  -2   -1.19    2.62
  -3 -11  -2    4.33    2.07
  -2 -11  -2    8.28    2.37
  -1 -11  -2   14.82    2.62
   0 -11  -2    6.08    1.83
   1 -11  -2   32.39    2.87
   2 -11  -2    4.26    1.22
   3 -11  -2   13.61    1.81
   4 -11  -2   92.20    3.75
   5 -11  -2   17.73    1.89
   6 -11  -2   54.68    2.96
   7 -11  -2   77.75    4.09
   8 -11  -2    9.05    1.42
   9 -11  -2    3.22    1.08
  10 -11  -2   10.50    2.05
  11 -11  -2    2.61    1.39
  12 -11  -2    4.18    1.58
  13 -11  -2   30.47    3.54
  14 -11  -2   13.14    2.58
  -5 -10  -2    3.71    3.33
  -4 -10  -2   51.23    5.18
  -3 -10  -2    6.62    2.09
  -2 -10  -2   33.30    3.87
  -1 -10  -2    6.81    1.77
   0 -10  -2   14.17    1.90
   1 -10  -2    8.26    1.47
   2 -10  -2   25.46    2.33
   3 -10  -2    8.39    1.36
   4 -10  -2   37.92    2.60
   5 -10  -2    0.88    0.67
   6 -10  -2  140.60    3.83
   7 -10  -2   11.22    1.46
   8 -10  -2   57.22    2.77
   9 -10  -2   28.09    2.33
  10 -10  -2   19.53    2.09
  11 -10  -2   41.67    3.75
  12 -10  -2   19.78    2.73
  13 -10  -2    9.88    2.17
  14 -10  -2   11.86    2.43
  -6  -9  -2    8.24    1.97
  -5  -9  -2   14.88    2.33
  -4  -9  -2    6.68    1.63
  -3  -9  -2    4.38    1.34
  -2  -9  -2    2.81    1.14
  -1  -9  -2   27.84    3.14
   0  -9  -2   10.41    1.56
   1  -9  -2   40.66    2.82
   2  -9  -2   29.88    2.33
   3  -9  -2   52.38    2.70
   4  -9  -2   34.85    2.18
   5  -9  -2   21.09    1.59
   6  -9  -2   25.44    1.69
   7  -9  -2    8.54    1.25
   8  -9  -2   82.42    3.25
   9  -9  -2   12.36    1.54
  10  -9  -2    6.95    1.26
  11  -9  -2    6.36    1.33
  12  -9  -2    0.62    1.07
  13  -9  -2    5.71    1.75
  14  -9  -2    9.29    3.32
  15  -9  -2    7.78    3.26
  -7  -8  -2    2.84    1.94
  -6  -8  -2   21.21    2.79
  -5  -8  -2   11.81    1.92
  -4  -8  -2   47.65    3.58
  -3  -8  -2    8.49    1.60
  -2  -8  -2   57.79    3.27
  -1  -8  -2   88.27    3.08
   0  -8  -2  138.12    3.75
   1  -8  -2    7.68    1.23
   2  -8  -2   40.95    2.63
   3  -8  -2   60.84    2.57
   4  -8  -2    6.52    0.90
   5  -8  -2   40.83    1.78
   6  -8  -2   22.76    1.51
   7  -8  -2    6.49    1.10
   8  -8  -2  133.29    4.07
   9  -8  -2   42.15    2.69
  10  -8  -2   20.34    1.96
  11  -8  -2   13.89    1.78
  12  -8  -2   33.11    3.36
  13  -8  -2   44.35    3.97
  14  -8  -2    8.00    3.04
  15  -8  -2    3.98    3.03
  -8  -7  -2    4.95    2.12
  -7  -7  -2    1.94    1.36
  -6  -7  -2    3.10    1.45
  -5  -7  -2    5.80    1.50
  -4  -7  -2   82.31    3.79
  -3  -7  -2   13.51    1.82
  -2  -7  -2   11.80    1.45
  -1  -7  -2    7.55    1.04
   0  -7  -2   25.45    1.71
   1  -7  -2   44.18    1.88
   2  -7  -2   46.67    1.66
   3  -7  -2   59.00    2.01
   4  -7  -2  212.92    4.47
   5  -7  -2   20.20    1.35
   6  -7  -2   37.57    1.63
   7  -7  -2   22.95    1.81
   8  -7  -2    5.73    0.99
   9  -7  -2   30.32    2.23
  10  -7  -2    7.26    1.24
  11  -7  -2   91.99    3.61
  12  -7  -2    7.95    1.48
  13  -7  -2    7.98    2.80
  14  -7  -2    4.11    2.45
  15  -7  -2    5.45    2.78
  -9  -6  -2    6.31    2.40
  -8  -6  -2    9.38    2.07
  -7  -6  -2   14.23    2.24
  -6  -6  -2   29.10    2.89
  -5  -6  -2   56.23    3.72
  -4  -6  -2  142.68    5.00
  -3  -6  -2   24.03    2.24
  -2  -6  -2   24.93    2.09
  -1  -6  -2   38.34    2.13
   0  -6  -2   11.50    1.10
   1  -6  -2   99.13    2.55
   2  -6  -2   30.73    1.19
   3  -6  -2   25.37    1.47
   4  -6  -2   77.29    2.18
   5  -6  -2  150.56    3.23
   6  -6  -2   11.61    0.92
   7  -6  -2   39.23    1.91
   8  -6  -2   42.10    2.16
   9  -6  -2   52.14    2.38
  10  -6  -2   32.53    2.32
  11  -6  -2   19.25    1.94
  12  -6  -2   25.54    2.38
  13  -6  -2    5.37    2.47
  14  -6  -2   17.55    4.02
  15  -6  -2   13.55    4.09
 -10  -5  -2    2.47    3.16
  -9  -5  -2    8.41    2.60
  -8  -5  -2   39.75    3.54
  -7  -5  -2    6.86    1.67
  -6  -5  -2   22.46    2.45
  -5  -5  -2    0.33    0.84
  -4  -5  -2   21.03    2.05
  -3  -5  -2   40.87    2.74
  -2  -5  -2   21.71    1.63
  -1  -5  -2  151.03    3.60
   0  -5  -2  104.92    2.68
   1  -5  -2   28.77    1.32
   2  -5  -2   82.13    2.22
   3  -5  -2  124.47    2.78
   4  -5  -2   18.86    1.02
   5  -5  -2  102.56    2.38
   6  -5  -2   95.43    2.23
   7  -5  -2   44.93    1.73
   8  -5  -2   58.61    2.07
   9  -5  -2   33.69    1.97
  10  -5  -2    0.22    0.51
  11  -5  -2   53.56    2.81
  12  -5  -2    5.93    1.66
  13  -5  -2   13.09    2.42
  14  -5  -2   19.59    4.59
 -11  -4  -2    5.23    4.28
 -10  -4  -2   10.57    3.06
  -9  -4  -2   11.56    2.78
  -8  -4  -2   35.20    4.19
  -7  -4  -2   87.92    4.25
  -6  -4  -2   42.36    3.14
  -5  -4  -2   28.70    2.52
  -4  -4  -2    6.90    0.92
  -3  -4  -2  222.11    4.52
  -2  -4  -2   77.92    2.52
  -1  -4  -2   19.73    1.35
   0  -4  -2   64.75    1.86
   1  -4  -2   64.75    1.56
   2  -4  -2  127.11    2.73
   3  -4  -2   47.07    1.41
   4  -4  -2   60.33    1.45
   5  -4  -2   28.67    0.93
   6  -4  -2   29.73    1.46
   7  -4  -2   57.85    1.87
   8  -4  -2    8.08    0.94
   9  -4  -2   20.90    1.54
  10  -4  -2  152.40    4.41
  11  -4  -2   77.78    4.15
  12  -4  -2   42.41    3.88
  13  -4  -2    5.46    1.87
  14  -4  -2   45.85    6.57
 -11  -3  -2    8.82    2.84
 -10  -3  -2    8.87    2.67
  -9  -3  -2   -0.18    1.45
  -8  -3  -2   11.01    2.49
  -7  -3  -2    6.42    1.15
  -6  -3  -2   50.81    2.53
  -5  -3  -2   65.20    2.46
  -4  -3  -2   57.68    2.03
  -3  -3  -2   25.32    1.39
  -2  -3  -2  119.30    2.55
  -1  -3  -2   48.14    1.32
   0  -3  -2   46.81    1.09
   1  -3  -2   60.73    1.32
   2  -3  -2  223.98    3.59
   3  -3  -2   43.99    1.10
   4  -3  -2   63.75    1.74
   5  -3  -2   80.65    2.07
   6  -3  -2   24.92    1.30
   7  -3  -2  215.80    4.33
   8  -3  -2   40.41    1.66
   9  -3  -2   24.80    1.68
  10  -3  -2   10.73    1.90
  11  -3  -2    7.53    1.71
  12  -3  -2    1.91    1.26
  13  -3  -2    9.40    2.19
  14  -3  -2    3.46    1.84
 -12  -2  -2    0.92    3.66
 -11  -2  -2   28.26    4.15
 -10  -2  -2   20.70    3.35
  -9  -2  -2    4.90    1.27
  -8  -2  -2   17.57    2.10
  -7  -2  -2   32.26    2.59
  -6  -2  -2   41.16    2.22
  -5  -2  -2   46.80    2.20
  -4  -2  -2   31.96    1.65
  -3  -2  -2   82.96    2.27
  -2  -2  -2  129.88    2.18
  -1  -2  -2  226.73    3.26
   0  -2  -2  350.92    3.84
   1  -2  -2   72.82    1.25
   2  -2  -2  346.56    5.36
   3  -2  -2   54.04    1.42
   4  -2  -2  122.65    2.56
   5  -2  -2  115.90    2.61
   6  -2  -2   73.91    2.07
   7  -2  -2   17.72    1.22
   8  -2  -2   23.47    1.53
   9  -2  -2    9.17    1.29
  10  -2  -2   55.97    3.44
  11  -2  -2    4.49    1.41
  12  -2  -2   36.05    3.66
  13  -2  -2    6.17    1.95
  14  -2  -2    9.34    2.45
 -12  -1  -2    6.35    2.48
 -11  -1  -2    5.26    1.69
 -10  -1  -2   34.04    3.16
  -9  -1  -2    4.03    1.30
  -8  -1  -2   41.36    3.02
  -7  -1  -2    6.88    1.28
  -6  -1  -2   41.07    2.40
  -5  -1  -2   97.06    2.82
  -4  -1  -2   31.31    1.15
  -3  -1  -2   67.06    1.59
  -2  -1  -2   52.69    1.44
  -1  -1  -2   71.02    1.20
   0  -1  -2  183.59    2.24
   1  -1  -2  182.34    2.20
   2  -1  -2   70.63    1.45
   3  -1  -2  222.42    3.48
   4  -1  -2   46.30    1.32
   5  -1  -2   15.71    0.90
   6  -1  -2  154.47    3.21
   7  -1  -2   36.68    1.54
   8  -1  -2    8.42    1.20
   9  -1  -2   89.37    4.20
  10  -1  -2   30.75    3.12
  11  -1  -2    5.59    1.65
  12  -1  -2   19.75    2.90
  13  -1  -2    5.42    1.92
 -13   0  -2    7.39    2.48
 -12   0  -2   11.22    2.25
 -11   0  -2    6.25    1.69
 -10   0  -2   14.76    2.09
  -9   0  -2   11.14    1.70
  -8   0  -2  127.29    4.49
  -7   0  -2   25.92    2.21
  -6   0  -2    9.42    0.91
  -5   0  -2  106.09    2.57
  -4   0  -2   58.51    1.57
  -3   0  -2   41.92    1.35
  -2   0  -2  343.29    4.44
  -1   0  -2  179.73    2.24
   0   0  -2  287.61    3.19
   1   0  -2  182.16    2.72
   2   0  -2  343.91    5.45
   3   0  -2   39.10    0.99
   4   0  -2   58.93    1.38
   5   0  -2  102.31    2.35
   6   0  -2    9.92    0.86
   7   0  -2   25.85    1.42
   8   0  -2  140.93    4.19
   9   0  -2   11.81    1.91
  10   0  -2   15.31    2.35
  11   0  -2    5.43    1.62
  12   0  -2   17.68    2.77
  13   0  -2   24.92    3.44
 -13   1  -2    7.53    2.41
 -12   1  -2   13.87    2.37
 -11   1  -2   10.32    1.90
 -10   1  -2   21.46    2.41
  -9   1  -2   87.55    3.78
  -8   1  -2    9.01    1.44
  -7   1  -2   37.69    1.82
  -6   1  -2  151.46    3.45
  -5   1  -2   14.31    1.08
  -4   1  -2   45.87    1.52
  -3   1  -2  229.95    3.51
  -2   1  -2   71.31    1.31
  -1   1  -2  180.53    2.52
   0   1  -2  179.70    2.74
   1   1  -2   70.63    1.43
   2   1  -2   49.48    1.54
   3   1  -2   65.62    1.74
   4   1  -2   29.45    0.97
   5   1  -2   96.42    2.06
   6   1  -2   42.69    1.55
   7   1  -2    7.91    1.19
   8   1  -2   39.27    2.63
   9   1  -2    4.82    1.40
  10   1  -2   32.78    3.40
  11   1  -2    3.37    1.52
  12   1  -2    2.23    1.65
 -14   2  -2    9.77    2.77
 -13   2  -2    7.43    2.27
 -12   2  -2   28.26    3.03
 -11   2  -2    0.77    1.08
 -10   2  -2   52.03    3.61
  -9   2  -2    8.63    1.44
  -8   2  -2   26.46    1.74
  -7   2  -2   17.55    1.38
  -6   2  -2   78.54    2.33
  -5   2  -2  117.36    2.84
  -4   2  -2  123.99    2.29
  -3   2  -2   46.60    1.37
  -2   2  -2  339.49    4.71
  -1   2  -2   72.00    1.45
   0   2  -2  349.32    5.42
   1   2  -2  232.86    3.49
   2   2  -2  129.17    2.63
   3   2  -2   79.23    1.68
   4   2  -2   30.67    1.05
   5   2  -2   45.49    1.39
   6   2  -2   44.89    2.13
   7   2  -2   33.30    2.32
   8   2  -2   22.88    2.57
   9   2  -2    4.17    1.44
  10   2  -2   13.61    2.33
  11   2  -2   27.34    3.42
  12   2  -2    2.63    1.67
 -14   3  -2    6.78    2.38
 -13   3  -2    8.37    2.43
 -12   3  -2    4.71    1.52
 -11   3  -2   11.53    1.92
 -10   3  -2   11.90    1.70
  -9   3  -2   21.21    1.69
  -8   3  -2   37.81    2.03
  -7   3  -2  212.42    4.59
  -6   3  -2   22.77    1.46
  -5   3  -2   75.13    1.77
  -4   3  -2   64.97    1.72
  -3   3  -2   40.04    1.31
  -2   3  -2  235.69    3.47
  -1   3  -2   47.51    1.35
   0   3  -2   41.35    1.30
   1   3  -2   46.96    1.34
   2   3  -2  120.71    2.66
   3   3  -2   24.61    1.27
   4   3  -2   52.22    1.77
   5   3  -2   64.15    2.09
   6   3  -2   52.97    2.54
   7   3  -2    7.22    1.19
   8   3  -2   15.69    2.23
   9   3  -2    0.50    1.11
  10   3  -2   10.75    2.30
  11   3  -2   10.41    2.36
 -15   4  -2    3.79    3.80
 -14   4  -2   45.08    4.99
 -13   4  -2    1.67    1.61
 -12   4  -2   39.88    3.50
 -11   4  -2   78.28    4.01
 -10   4  -2  144.69    4.13
  -9   4  -2   21.06    1.69
  -8   4  -2    6.88    1.07
  -7   4  -2   51.42    3.79
  -6   4  -2   25.02    1.27
  -5   4  -2   28.29    1.32
  -4   4  -2   58.46    1.71
  -3   4  -2   45.62    1.12
  -2   4  -2  125.34    2.56
  -1   4  -2   66.11    1.72
   0   4  -2   60.17    1.37
   1   4  -2   16.86    0.94
   2   4  -2   81.14    2.14
   3   4  -2  219.28    4.32
   4   4  -2    6.41    0.82
   5   4  -2   36.43    2.17
   6   4  -2   33.67    2.37
   7   4  -2   97.41    3.68
   8   4  -2   32.45    3.38
   9   4  -2    8.31    1.94
  10   4  -2   10.74    2.38
 -15   5  -2    1.64    2.99
 -14   5  -2   12.50    2.89
 -13   5  -2    6.61    2.19
 -12   5  -2    4.19    1.78
 -11   5  -2   57.51    3.36
 -10   5  -2    0.29    0.73
  -9   5  -2   34.42    2.55
  -8   5  -2   62.27    2.68
  -7   5  -2   47.74    1.72
  -6   5  -2   89.69    2.44
  -5   5  -2  103.45    2.57
  -4   5  -2   17.31    1.14
  -3   5  -2  120.40    2.56
  -2   5  -2   77.98    2.00
  -1   5  -2   30.72    0.99
   0   5  -2  104.25    2.11
   1   5  -2  153.13    3.21
   2   5  -2   17.47    1.25
   3   5  -2   39.99    1.68
   4   5  -2   17.75    1.65
   5   5  -2    0.29    0.57
   6   5  -2   18.83    1.87
   7   5  -2    9.18    1.89
   8   5  -2   42.15    3.80
   9   5  -2    3.97    2.42
 -15   6  -2    6.57    3.65
 -14   6  -2   15.87    3.20
 -13   6  -2    3.60    1.81
 -12   6  -2   23.15    2.44
 -11   6  -2   19.46    2.08
 -10   6  -2   31.78    2.56
  -9   6  -2   54.38    2.99
  -8   6  -2   43.58    2.55
  -7   6  -2   44.07    1.79
  -6   6  -2   11.47    1.04
  -5   6  -2  148.07    3.34
  -4   6  -2   82.84    2.07
  -3   6  -2   25.38    1.25
  -2   6  -2   26.29    1.28
  -1   6  -2   95.23    2.07
   0   6  -2   13.28    1.01
   1   6  -2   35.07    1.63
   2   6  -2   25.15    1.59
   3   6  -2   21.46    1.80
   4   6  -2  157.72    4.50
   5   6  -2   60.79    2.96
   6   6  -2   23.87    2.91
   7   6  -2    9.60    3.02
   8   6  -2    8.34    3.06
   9   6  -2    9.16    3.36
 -15   7  -2    7.08    4.13
 -14   7  -2    0.48    2.42
 -13   7  -2    5.18    1.65
 -12   7  -2    9.50    1.68
 -11   7  -2   85.40    3.86
 -10   7  -2    5.77    1.30
  -9   7  -2   30.63    2.46
  -8   7  -2    6.93    0.98
  -7   7  -2   24.00    1.61
  -6   7  -2   37.11    1.76
  -5   7  -2   17.18    1.09
  -4   7  -2  221.12    4.29
  -3   7  -2   49.97    1.95
  -2   7  -2   49.30    1.73
  -1   7  -2   42.24    1.41
   0   7  -2   26.45    2.00
   1   7  -2    8.13    1.20
   2   7  -2    8.32    1.63
   3   7  -2   10.33    1.88
   4   7  -2   77.24    4.14
   5   7  -2    4.61    1.49
   6   7  -2    2.51    1.34
   7   7  -2    2.78    2.07
   8   7  -2    1.12    2.25
 -15   8  -2    5.83    3.67
 -14   8  -2    8.99    3.65
 -13   8  -2   41.98    4.47
 -12   8  -2   42.99    4.37
 -11   8  -2   13.17    1.85
 -10   8  -2   15.47    1.90
  -9   8  -2   37.33    2.70
  -8   8  -2  130.79    3.53
  -7   8  -2    6.81    0.95
  -6   8  -2   23.08    1.93
  -5   8  -2   38.42    2.40
  -4   8  -2    7.65    0.87
  -3   8  -2   66.21    2.13
  -2   8  -2   45.84    1.83
  -1   8  -2    5.97    1.04
   0   8  -2  140.50    4.15
   1   8  -2   88.13    3.39
   2   8  -2   58.63    3.85
   3   8  -2    5.44    1.49
   4   8  -2   48.81    4.19
   5   8  -2   11.01    2.20
   6   8  -2   15.72    3.71
   7   8  -2    3.96    2.37
 -15   9  -2   10.73    4.10
 -14   9  -2    6.55    2.28
 -13   9  -2    6.03    2.19
 -12   9  -2    1.75    1.44
 -11   9  -2    3.79    1.54
 -10   9  -2    5.48    1.78
  -9   9  -2   11.71    2.19
  -8   9  -2   90.06    2.89
  -7   9  -2    6.89    1.19
  -6   9  -2   21.41    1.95
  -5   9  -2   20.14    1.88
  -4   9  -2   36.20    1.86
  -3   9  -2   50.39    2.50
  -2   9  -2   31.35    2.25
  -1   9  -2   31.41    2.34
   0   9  -2   10.28    1.45
   1   9  -2   34.37    3.29
   2   9  -2    2.58    1.16
   3   9  -2    3.51    1.47
   4   9  -2    4.91    1.62
   5   9  -2   17.99    2.85
   6   9  -2    9.51    3.25
 -15  10  -2    1.99    2.17
 -14  10  -2   10.25    3.56
 -13  10  -2   10.16    2.49
 -12  10  -2   16.39    2.92
 -11  10  -2   35.02    3.95
 -10  10  -2   13.02    2.37
  -9  10  -2   31.02    2.61
  -8  10  -2   59.18    3.09
  -7  10  -2    8.15    1.41
  -6  10  -2  151.30    4.67
  -5  10  -2   -0.63    0.68
  -4  10  -2   27.23    2.89
  -3  10  -2    5.73    1.11
  -2  10  -2   14.35    1.69
  -1  10  -2    7.93    1.35
   0  10  -2   14.80    2.31
   1  10  -2    7.06    1.73
   2  10  -2   37.51    3.73
   3  10  -2    6.60    1.77
   4  10  -2   46.38    4.43
 -14  11  -2    8.82    2.63
 -13  11  -2   29.35    3.93
 -12  11  -2    5.25    2.01
 -11  11  -2    5.44    1.87
 -10  11  -2    6.72    1.93
  -9  11  -2    1.86    1.07
  -8  11  -2    5.10    1.37
  -7  11  -2   72.15    4.30
  -6  11  -2   69.14    4.04
  -5  11  -2   14.56    2.37
  -4  11  -2   95.30    4.70
  -3  11  -2   14.28    1.68
  -2  11  -2    6.23    1.27
  -1  11  -2   37.40    3.56
   0  11  -2    4.81    1.53
   1  11  -2   17.08    2.60
   2  11  -2    5.40    1.80
   3  11  -2    4.34    1.83
   4  11  -2    2.49    2.27
 -14  12  -2    2.08    2.04
 -13  12  -2    3.66    1.99
 -12  12  -2    9.51    2.49
 -11  12  -2   23.90    5.15
 -10  12  -2   32.74    5.79
  -9  12  -2    3.01    1.68
  -8  12  -2   51.86    4.56
  -7  12  -2    5.19    1.68
  -6  12  -2   28.19    3.26
  -5  12  -2   10.21    2.07
  -4  12  -2   30.74    3.39
  -3  12  -2    0.08    0.96
  -2  12  -2   11.75    2.15
  -1  12  -2    1.33    1.28
   0  12  -2   15.42    2.58
   1  12  -2    7.36    2.01
   2  12  -2   14.27    2.71
 -13  13  -2   11.35    4.48
 -12  13  -2    4.34    3.25
 -11  13  -2    2.84    2.97
 -10  13  -2    6.77    3.16
  -9  13  -2    6.79    2.09
  -8  13  -2   10.91    2.43
  -7  13  -2    4.53    1.81
  -6  13  -2    7.89    1.98
  -5  13  -2   50.48    4.46
  -4  13  -2    9.30    3.41
  -3  13  -2    7.44    2.98
  -2  13  -2   23.59    4.64
  -1  13  -2    4.24    1.76
   0  13  -2   16.31    2.73
 -11  14  -2    7.81    3.15
 -10  14  -2   52.47    5.25
  -9  14  -2   20.79    3.31
  -8  14  -2   23.47    3.45
  -7  14  -2    1.30    1.47
  -6  14  -2    6.24    1.87
  -5  14  -2    5.13    2.85
  -4  14  -2   15.15    4.15
  -3  14  -2   11.86    3.76
  -2  14  -2    1.25    2.60
 -10  15  -2    2.95    3.05
  -9  15  -2    9.78    2.62
  -8  15  -2    5.51    2.08
  -7  15  -2    3.63    1.74
  -6  15  -2   12.29    3.89
   4 -15  -1    2.98    1.88
   5 -15  -1   18.47    2.86
   6 -15  -1   10.27    2.18
   7 -15  -1    5.25    1.86
   8 -15  -1    3.48    2.41
   9 -15  -1    2.42    2.45
  10 -15  -1   13.49    3.70
   1 -14  -1    0.92    2.23
   2 -14  -1    9.57    2.41
   3 -14  -1    2.91    1.58
   4 -14  -1    8.65    2.20
   5 -14  -1   15.82    2.61
   6 -14  -1   12.32    2.30
   7 -14  -1   44.06    4.13
   8 -14  -1    6.20    2.65
   9 -14  -1    9.55    3.08
  10 -14  -1   24.56    4.81
  11 -14  -1    5.37    2.63
  12 -14  -1   16.98    4.15
   0 -13  -1    0.39    1.51
   1 -13  -1   42.37    4.32
   2 -13  -1   21.03    3.00
   3 -13  -1   36.01    3.85
   4 -13  -1    5.06    1.67
   5 -13  -1    1.39    1.15
   6 -13  -1   10.76    1.68
   7 -13  -1   16.21    1.87
   8 -13  -1   -0.03    0.93
   9 -13  -1    4.49    1.64
  10 -13  -1   16.06    2.55
  11 -13  -1    9.44    2.12
  12 -13  -1   13.76    2.61
  13 -13  -1    1.60    1.65
  14 -13  -1    0.69    2.42
  -2 -12  -1   15.89    4.25
  -1 -12  -1   14.78    2.91
   0 -12  -1    5.94    1.82
   1 -12  -1    5.87    1.73
   2 -12  -1    4.83    1.27
   3 -12  -1    1.45    0.89
   4 -12  -1    6.89    1.40
   5 -12  -1    1.79    0.87
   6 -12  -1   10.86    1.57
   7 -12  -1    7.61    1.31
   8 -12  -1   12.45    1.64
   9 -12  -1   -0.05    0.97
  10 -12  -1    1.73    1.32
  11 -12  -1   25.62    3.14
  12 -12  -1   13.81    2.43
  13 -12  -1   48.21    4.45
  14 -12  -1   13.39    2.65
  -3 -11  -1    5.24    2.86
  -2 -11  -1   13.95    2.77
  -1 -11  -1   25.58    3.30
   0 -11  -1   19.12    2.81
   1 -11  -1   27.24    2.56
   2 -11  -1    2.71    1.02
   3 -11  -1  116.52    4.16
   4 -11  -1    5.92    1.12
   5 -11  -1   51.67    2.94
   6 -11  -1   13.31    1.59
   7 -11  -1   16.11    1.75
   8 -11  -1   45.57    2.62
   9 -11  -1    3.87    1.37
  10 -11  -1   23.54    2.78
  11 -11  -1   12.88    2.15
  12 -11  -1    6.00    1.77
  13 -11  -1   17.49    2.75
  14 -11  -1    0.15    1.41
  15 -11  -1    3.80    1.86
  -5 -10  -1    7.96    2.40
  -4 -10  -1   21.28    3.29
  -3 -10  -1   17.95    2.34
  -2 -10  -1    1.89    1.10
  -1 -10  -1   26.50    3.14
   0 -10  -1   19.55    2.65
   1 -10  -1   62.05    3.34
   2 -10  -1   10.75    1.44
   3 -10  -1   17.42    1.79
   4 -10  -1    5.52    1.05
   5 -10  -1    0.84    0.68
   6 -10  -1    7.20    1.13
   7 -10  -1   10.43    1.32
   8 -10  -1    7.34    1.00
   9 -10  -1   92.34    4.32
  10 -10  -1   23.19    2.66
  11 -10  -1   22.49    2.74
  12 -10  -1    8.40    1.90
  13 -10  -1   38.86    3.86
  14 -10  -1   12.42    2.44
  15 -10  -1   13.66    2.76
  -6  -9  -1    5.37    2.06
  -5  -9  -1   12.69    2.59
  -4  -9  -1    6.15    1.55
  -3  -9  -1    0.23    0.91
  -2  -9  -1    3.97    1.17
  -1  -9  -1   90.40    3.62
   0  -9  -1    0.01    0.55
   1  -9  -1   82.66    2.72
   2  -9  -1   10.09    1.39
   3  -9  -1   13.06    1.47
   4  -9  -1   35.91    2.34
   5  -9  -1   50.01    2.27
   6  -9  -1   42.14    1.91
   7  -9  -1   23.08    1.57
   8  -9  -1   34.89    1.82
   9  -9  -1    1.57    0.76
  10  -9  -1   69.92    3.72
  11  -9  -1    3.10    1.28
  12  -9  -1   -0.61    1.00
  13  -9  -1    4.64    1.61
  14  -9  -1   14.92    2.66
  15  -9  -1   11.61    2.51
  -7  -8  -1    3.52    2.00
  -6  -8  -1    4.84    1.95
  -5  -8  -1   -0.20    1.07
  -4  -8  -1   13.14    1.90
  -3  -8  -1   49.52    3.34
  -2  -8  -1    6.01    1.22
  -1  -8  -1   39.28    2.64
   0  -8  -1   10.83    1.17
   1  -8  -1   57.82    2.08
   2  -8  -1   56.26    1.95
   3  -8  -1   87.84    3.01
   4  -8  -1   39.77    1.93
   5  -8  -1   21.89    1.43
   6  -8  -1   26.50    1.59
   7  -8  -1   20.11    1.37
   8  -8  -1   10.57    1.05
   9  -8  -1   88.66    3.17
  10  -8  -1   10.97    1.42
  11  -8  -1  123.48    5.08
  12  -8  -1    8.55    1.86
  13  -8  -1    1.80    1.41
  14  -8  -1   10.56    2.00
  15  -8  -1    6.67    3.15
  -8  -7  -1    6.56    2.39
  -7  -7  -1   43.25    4.64
  -6  -7  -1   14.43    2.00
  -5  -7  -1    8.45    1.57
  -4  -7  -1   17.75    2.11
  -3  -7  -1   11.27    1.53
  -2  -7  -1   16.51    1.73
  -1  -7  -1   21.21    1.62
   0  -7  -1    4.29    0.74
   1  -7  -1  127.46    3.12
   2  -7  -1  147.19    3.25
   3  -7  -1  152.23    3.17
   4  -7  -1   44.30    1.59
   5  -7  -1  102.95    2.62
   6  -7  -1  194.63    4.02
   7  -7  -1    5.20    0.70
   8  -7  -1   56.34    1.89
   9  -7  -1    8.11    1.20
  10  -7  -1   23.97    1.99
  11  -7  -1   10.22    1.85
  12  -7  -1    3.16    1.31
  13  -7  -1   15.01    2.45
  14  -7  -1   43.78    4.15
  15  -7  -1    2.65    2.86
  -9  -6  -1   10.04    2.73
  -8  -6  -1   11.94    2.60
  -7  -6  -1   11.30    2.02
  -6  -6  -1   10.37    1.92
  -5  -6  -1   12.18    1.77
  -4  -6  -1    7.46    1.36
  -3  -6  -1   41.48    2.53
  -2  -6  -1   24.74    1.97
  -1  -6  -1  199.89    4.42
   0  -6  -1   11.69    1.04
   1  -6  -1   16.31    1.13
   2  -6  -1   66.28    1.81
   3  -6  -1   49.67    1.64
   4  -6  -1   47.48    1.55
   5  -6  -1   11.51    0.90
   6  -6  -1    9.75    0.83
   7  -6  -1  130.42    2.93
   8  -6  -1   62.06    1.91
   9  -6  -1   13.64    1.42
  10  -6  -1    6.01    1.07
  11  -6  -1   50.42    2.71
  12  -6  -1    9.02    1.81
  13  -6  -1   13.91    2.31
  14  -6  -1    2.67    2.25
  15  -6  -1    4.63    2.83
 -10  -5  -1    6.09    2.60
  -9  -5  -1   14.75    2.95
  -8  -5  -1    1.06    1.46
  -7  -5  -1    1.91    1.16
  -6  -5  -1   52.57    3.60
  -5  -5  -1    0.98    0.87
  -4  -5  -1   54.82    2.87
  -3  -5  -1   21.95    1.44
  -2  -5  -1  102.40    3.36
  -1  -5  -1   14.24    1.17
   0  -5  -1  192.33    3.83
   1  -5  -1   80.80    1.95
   2  -5  -1  150.72    2.64
   3  -5  -1   38.25    1.27
   4  -5  -1  246.60    4.41
   5  -5  -1  187.77    3.55
   6  -5  -1   16.26    0.94
   7  -5  -1  142.47    3.08
   8  -5  -1   88.61    2.32
   9  -5  -1   29.92    2.06
  10  -5  -1    0.66    0.66
  11  -5  -1   10.49    1.39
  12  -5  -1    7.31    1.68
  13  -5  -1   -0.66    1.60
  14  -5  -1   12.16    3.78
  15  -5  -1    8.62    3.58
 -10  -4  -1    8.89    2.50
  -9  -4  -1    3.53    1.78
  -8  -4  -1    5.65    1.85
  -7  -4  -1    6.64    1.54
  -6  -4  -1    6.68    1.06
  -5  -4  -1   32.24    2.01
  -4  -4  -1   38.68    1.85
  -3  -4  -1   44.80    1.62
  -2  -4  -1   52.24    1.57
  -1  -4  -1  252.38    4.77
   0  -4  -1  100.23    2.29
   1  -4  -1  138.39    2.67
   2  -4  -1    7.66    0.66
   3  -4  -1   29.30    1.00
   4  -4  -1   96.98    2.05
   5  -4  -1   71.79    1.72
   6  -4  -1   64.29    1.70
   7  -4  -1  156.06    2.85
   8  -4  -1   40.86    1.35
   9  -4  -1   55.74    1.97
  10  -4  -1    8.25    1.21
  11  -4  -1   16.06    1.75
  12  -4  -1   11.35    1.59
  13  -4  -1    6.68    2.85
  14  -4  -1   27.71    5.10
 -11  -3  -1    1.40    2.39
 -10  -3  -1   23.37    3.59
  -9  -3  -1    0.55    1.32
  -8  -3  -1  111.67    4.29
  -7  -3  -1   23.57    1.88
  -6  -3  -1   16.88    1.57
  -5  -3  -1   82.51    2.67
  -4  -3  -1  151.77    3.58
  -3  -3  -1   51.04    1.69
  -2  -3  -1   35.76    1.37
  -1  -3  -1   32.17    1.20
   0  -3  -1  383.73    5.98
   1  -3  -1  140.76    2.25
   2  -3  -1  139.41    2.53
   3  -3  -1  371.99    6.56
   4  -3  -1  131.53    2.25
   5  -3  -1  147.31    2.54
   6  -3  -1   50.80    1.30
   7  -3  -1   42.37    1.27
   8  -3  -1   19.48    1.12
   9  -3  -1   43.89    2.19
  10  -3  -1   11.17    1.42
  11  -3  -1   43.95    2.90
  12  -3  -1    0.04    0.98
  13  -3  -1   13.03    3.75
  14  -3  -1    7.27    2.99
 -12  -2  -1   12.52    4.40
 -11  -2  -1   11.36    2.77
 -10  -2  -1    3.54    1.33
  -9  -2  -1    1.59    1.03
  -8  -2  -1    7.90    1.44
  -7  -2  -1    7.54    1.22
  -6  -2  -1   56.90    2.31
  -5  -2  -1  141.73    3.57
  -4  -2  -1   64.00    2.06
  -3  -2  -1  150.96    3.21
  -2  -2  -1    8.25    0.70
  -1  -2  -1  141.26    2.53
   0  -2  -1  134.76    2.17
   1  -2  -1   28.86    0.69
   2  -2  -1  128.53    2.04
   3  -2  -1  132.60    2.10
   4  -2  -1    7.89    0.45
   5  -2  -1   36.47    1.20
   6  -2  -1   46.67    1.49
   7  -2  -1  106.68    2.59
   8  -2  -1   24.12    1.50
   9  -2  -1   20.63    1.74
  10  -2  -1    8.01    1.28
  11  -2  -1    5.35    1.49
  12  -2  -1    1.52    1.30
  13  -2  -1   13.48    2.48
  14  -2  -1   12.62    3.84
 -12  -1  -1   40.40    4.42
 -11  -1  -1    5.62    1.64
 -10  -1  -1   24.43    2.65
  -9  -1  -1   62.74    3.39
  -8  -1  -1   88.59    3.59
  -7  -1  -1   60.94    2.92
  -6  -1  -1  135.99    3.99
  -5  -1  -1   16.77    0.83
  -4  -1  -1   67.92    1.55
  -3  -1  -1  131.13    2.83
  -2  -1  -1  133.72    2.63
  -1  -1  -1   27.84    0.68
   0  -1  -1   23.25    0.48
   1  -1  -1   23.18    0.53
   2  -1  -1   26.13    0.77
   3  -1  -1  136.35    2.45
   4  -1  -1   26.92    0.95
   5  -1  -1  248.22    4.38
   6  -1  -1   14.44    1.01
   7  -1  -1  200.78    4.05
   8  -1  -1   18.58    1.37
   9  -1  -1   38.37    2.27
  10  -1  -1   87.15    4.30
  11  -1  -1   24.65    3.00
  12  -1  -1   21.43    2.97
  13  -1  -1    8.30    2.22
 -13   0  -1   -0.41    1.69
 -12   0  -1    8.09    2.37
 -11   0  -1   15.27    2.31
 -10   0  -1   18.82    2.30
  -9   0  -1    0.55    0.83
  -8   0  -1    6.95    1.29
  -7   0  -1    4.66    1.01
  -6   0  -1   11.50    0.97
  -5   0  -1  187.16    3.68
  -4   0  -1   94.59    2.13
  -3   0  -1  371.28    5.23
  -2   0  -1  128.47    2.11
  -1   0  -1   22.45    0.47
   0   0  -1   -0.07    0.11
   1   0  -1   21.93    0.66
   2   0  -1  129.83    1.99
   3   0  -1  370.54    5.10
   4   0  -1   97.13    2.07
   5   0  -1  190.82    3.61
   6   0  -1   11.01    0.92
   7   0  -1    6.83    0.83
   8   0  -1    9.42    1.22
   9   0  -1    1.69    0.75
  10   0  -1   18.77    2.45
  11   0  -1   14.91    2.39
  12   0  -1   11.25    2.29
  13   0  -1    2.20    1.72
 -14   1  -1    2.89    2.89
 -13   1  -1    8.88    2.52
 -12   1  -1   20.71    3.29
 -11   1  -1   26.61    2.80
 -10   1  -1   94.80    4.09
  -9   1  -1   34.36    2.70
  -8   1  -1   18.92    1.48
  -7   1  -1  198.27    4.26
  -6   1  -1   11.24    1.00
  -5   1  -1  239.35    4.52
  -4   1  -1   27.72    1.75
  -3   1  -1  132.50    2.56
  -2   1  -1   26.54    0.69
  -1   1  -1   22.87    0.69
   0   1  -1   22.05    0.67
   1   1  -1   29.28    0.82
   2   1  -1  138.31    2.50
   3   1  -1  137.78    2.30
   4   1  -1   69.55    2.01
   5   1  -1   15.81    1.06
   6   1  -1  137.72    3.07
   7   1  -1   60.69    2.03
   8   1  -1   89.51    3.17
   9   1  -1   65.43    3.75
  10   1  -1   26.87    3.11
  11   1  -1    4.79    1.58
  12   1  -1   45.34    4.39
  13   1  -1    1.00    2.21
 -14   2  -1    9.51    2.83
 -13   2  -1   14.25    2.88
 -12   2  -1    1.29    1.41
 -11   2  -1    2.23    1.19
 -10   2  -1    4.04    1.17
  -9   2  -1   21.92    1.70
  -8   2  -1   22.35    1.61
  -7   2  -1  103.42    2.81
  -6   2  -1   49.03    1.71
  -5   2  -1   31.42    1.47
  -4   2  -1    7.81    0.52
  -3   2  -1  131.23    2.20
  -2   2  -1  128.09    2.31
  -1   2  -1   28.11    0.79
   0   2  -1  133.72    2.01
   1   2  -1  140.84    2.51
   2   2  -1    8.08    0.66
   3   2  -1  152.30    2.97
   4   2  -1   63.36    1.79
   5   2  -1  147.41    3.24
   6   2  -1   62.68    2.02
   7   2  -1    9.32    1.01
   8   2  -1    9.09    1.70
   9   2  -1    1.68    1.12
  10   2  -1    3.81    1.45
  11   2  -1   21.31    3.04
  12   2  -1    8.55    2.28
 -14   3  -1    4.94    2.15
 -13   3  -1   20.31    3.44
 -12   3  -1    1.59    1.54
 -11   3  -1   39.63    3.16
 -10   3  -1    9.73    1.25
  -9   3  -1   43.15    2.22
  -8   3  -1   19.19    1.47
  -7   3  -1   40.72    1.91
  -6   3  -1   47.87    1.36
  -5   3  -1  150.72    2.99
  -4   3  -1  131.82    2.63
  -3   3  -1  381.00    5.08
  -2   3  -1  137.60    2.19
  -1   3  -1  137.97    2.47
   0   3  -1  383.52    5.10
   1   3  -1   24.56    0.95
   2   3  -1   30.33    1.15
   3   3  -1   49.91    1.54
   4   3  -1  156.21    3.27
   5   3  -1   89.78    2.95
   6   3  -1   11.65    1.12
   7   3  -1   21.57    2.47
   8   3  -1  112.58    5.01
   9   3  -1    1.03    1.13
  10   3  -1   34.58    3.73
  11   3  -1    0.56    1.45
 -15   4  -1    1.63    3.49
 -14   4  -1   23.69    3.82
 -13   4  -1    4.56    1.89
 -12   4  -1   16.18    2.78
 -11   4  -1   17.24    1.76
 -10   4  -1    8.73    1.22
  -9   4  -1   52.39    2.38
  -8   4  -1   37.16    2.43
  -7   4  -1  152.18    3.34
  -6   4  -1   64.98    1.90
  -5   4  -1   68.83    2.10
  -4   4  -1   94.33    2.16
  -3   4  -1   27.02    1.47
  -2   4  -1    7.24    0.60
  -1   4  -1  144.26    2.65
   0   4  -1   98.30    1.86
   1   4  -1  258.73    4.46
   2   4  -1   47.24    1.54
   3   4  -1   43.45    1.54
   4   4  -1   42.08    1.58
   5   4  -1   30.60    2.12
   6   4  -1    7.07    1.18
   7   4  -1    4.45    1.41
   8   4  -1    5.85    1.54
   9   4  -1    2.66    1.43
  10   4  -1    5.85    1.88
  11   4  -1    1.53    1.73
 -15   5  -1    2.51    3.11
 -14   5  -1    9.41    2.59
 -13   5  -1   -0.45    1.35
 -12   5  -1    4.84    1.71
 -11   5  -1    7.51    1.32
 -10   5  -1    0.22    0.79
  -9   5  -1   31.37    2.37
  -8   5  -1   86.07    2.53
  -7   5  -1  143.98    3.34
  -6   5  -1   17.42    1.19
  -5   5  -1  195.08    3.73
  -4   5  -1  254.72    3.90
  -3   5  -1   32.52    1.30
  -2   5  -1  159.66    3.03
  -1   5  -1   68.62    1.79
   0   5  -1  197.56    3.70
   1   5  -1   14.43    1.07
   2   5  -1  105.54    2.65
   3   5  -1   17.21    1.25
   4   5  -1   52.50    2.32
   5   5  -1    0.96    0.69
   6   5  -1   51.83    2.85
   7   5  -1    1.88    1.09
   8   5  -1    0.29    0.97
   9   5  -1   26.65    4.60
  10   5  -1   17.94    2.90
 -15   6  -1    2.38    2.78
 -14   6  -1    2.69    2.50
 -13   6  -1   14.79    2.85
 -12   6  -1   13.40    1.99
 -11   6  -1   53.57    3.56
 -10   6  -1    4.88    1.19
  -9   6  -1   14.35    1.63
  -8   6  -1   58.66    2.09
  -7   6  -1  132.62    3.21
  -6   6  -1   11.39    1.00
  -5   6  -1   15.04    0.90
  -4   6  -1   48.19    1.55
  -3   6  -1   52.30    1.60
  -2   6  -1   68.34    1.86
  -1   6  -1   17.66    1.11
   0   6  -1    9.33    0.88
   1   6  -1  206.15    4.14
   2   6  -1   27.18    1.62
   3   6  -1   47.57    2.25
   4   6  -1    8.57    1.28
   5   6  -1    8.44    1.35
   6   6  -1   12.33    2.05
   7   6  -1   12.59    2.28
   8   6  -1   12.28    2.35
   9   6  -1    9.62    2.42
 -15   7  -1    2.67    3.27
 -14   7  -1   45.21    7.08
 -13   7  -1   13.71    2.57
 -12   7  -1    2.06    1.44
 -11   7  -1    4.10    1.20
 -10   7  -1   20.40    2.08
  -9   7  -1    8.27    1.29
  -8   7  -1   62.04    2.20
  -7   7  -1    4.09    0.71
  -6   7  -1  200.82    3.59
  -5   7  -1  103.98    2.61
  -4   7  -1   36.77    1.51
  -3   7  -1  162.12    3.36
  -2   7  -1  146.05    3.18
  -1   7  -1  128.41    3.63
   0   7  -1    5.94    0.79
   1   7  -1   18.57    1.37
   2   7  -1   22.71    1.91
   3   7  -1   12.09    1.50
   4   7  -1   21.12    2.01
   5   7  -1    7.13    1.34
   6   7  -1   13.96    2.07
   7   7  -1   39.58    5.82
   8   7  -1    1.67    1.98
 -15   8  -1   -0.02    2.45
 -14   8  -1   16.01    3.03
 -13   8  -1    1.47    1.59
 -12   8  -1    4.54    1.68
 -11   8  -1  114.68    5.52
 -10   8  -1   10.16    2.02
  -9   8  -1   85.37    3.35
  -8   8  -1   10.43    1.13
  -7   8  -1   21.23    1.49
  -6   8  -1   24.71    1.53
  -5   8  -1   16.14    1.24
  -4   8  -1   39.48    1.67
  -3   8  -1   88.06    2.42
  -2   8  -1   59.22    2.43
  -1   8  -1   57.43    2.03
   0   8  -1   10.19    1.08
   1   8  -1   35.08    2.37
   2   8  -1    6.37    1.15
   3   8  -1   37.84    2.78
   4   8  -1   11.21    2.05
   5   8  -1    0.17    0.99
   6   8  -1    3.64    2.13
   7   8  -1    4.02    2.58
 -15   9  -1   13.57    3.02
 -14   9  -1   19.85    3.32
 -13   9  -1    6.34    2.06
 -12   9  -1    2.41    1.65
 -11   9  -1    2.59    1.45
 -10   9  -1   60.60    4.75
  -9   9  -1    1.11    0.83
  -8   9  -1   35.45    2.59
  -7   9  -1   19.58    1.85
  -6   9  -1   44.70    1.96
  -5   9  -1   52.67    1.98
  -4   9  -1   30.29    2.16
  -3   9  -1   13.32    1.51
  -2   9  -1    5.92    1.05
  -1   9  -1   90.03    2.72
   0   9  -1    0.51    0.82
   1   9  -1   88.16    4.38
   2   9  -1    4.56    1.34
   3   9  -1    0.23    1.06
   4   9  -1    3.00    1.41
   5   9  -1   13.39    3.57
   6   9  -1    3.69    2.27
 -15  10  -1   14.74    3.14
 -14  10  -1    6.66    2.35
 -13  10  -1   33.36    4.13
 -12  10  -1    5.15    1.94
 -11  10  -1   23.26    3.19
 -10  10  -1   19.46    2.24
  -9  10  -1   93.86    3.76
  -8  10  -1    6.43    1.32
  -7  10  -1   10.32    1.47
  -6  10  -1    9.72    1.90
  -5  10  -1    1.02    0.73
  -4  10  -1    7.03    1.18
  -3  10  -1   20.89    1.93
  -2  10  -1   11.34    1.44
  -1  10  -1   63.32    3.90
   0  10  -1   17.01    2.42
   1  10  -1   25.46    2.98
   2  10  -1    0.53    1.03
   3  10  -1   11.26    2.31
   4  10  -1   26.44    3.33
   5  10  -1    9.52    3.21
 -15  11  -1    2.27    2.08
 -14  11  -1   -0.19    1.69
 -13  11  -1   16.95    3.25
 -12  11  -1    4.69    1.91
 -11  11  -1   14.72    2.64
 -10  11  -1   25.08    2.45
  -9  11  -1    4.38    1.62
  -8  11  -1   47.11    4.13
  -7  11  -1   22.74    2.97
  -6  11  -1   10.03    1.93
  -5  11  -1   57.22    3.14
  -4  11  -1    4.70    1.14
  -3  11  -1  114.73    4.06
  -2  11  -1    2.26    1.14
  -1  11  -1   25.45    2.95
   0  11  -1   18.96    2.64
   1  11  -1   26.47    3.20
   2  11  -1    8.05    2.02
   3  11  -1    3.21    1.60
 -14  12  -1   11.29    2.91
 -13  12  -1   45.90    4.95
 -12  12  -1    9.51    3.44
 -11  12  -1   18.04    4.43
 -10  12  -1    1.63    1.55
  -9  12  -1   -0.69    1.12
  -8  12  -1   14.22    2.47
  -7  12  -1   10.30    2.18
  -6  12  -1    9.16    2.02
  -5  12  -1    2.48    1.32
  -4  12  -1    3.37    1.05
  -3  12  -1    0.16    1.02
  -2  12  -1    3.29    1.37
  -1  12  -1    2.90    1.53
   0  12  -1    7.93    2.00
   1  12  -1   10.13    2.27
   2  12  -1   11.30    2.40
 -13  13  -1    3.07    2.92
 -12  13  -1    8.32    3.49
 -11  13  -1   11.46    3.83
 -10  13  -1   18.53    3.08
  -9  13  -1    4.65    1.84
  -8  13  -1    0.96    1.34
  -7  13  -1   13.82    2.58
  -6  13  -1    9.39    2.22
  -5  13  -1    1.05    1.25
  -4  13  -1    6.47    2.69
  -3  13  -1   36.26    3.80
  -2  13  -1   19.55    2.89
  -1  13  -1   46.23    4.38
   0  13  -1    1.47    1.41
   1  13  -1    6.65    2.05
 -12  14  -1   11.59    4.12
 -11  14  -1    4.98    2.99
 -10  14  -1   22.77    3.42
  -9  14  -1   13.30    2.78
  -8  14  -1    0.98    1.45
  -7  14  -1   42.15    4.38
  -6  14  -1   10.48    2.34
  -5  14  -1   12.40    3.61
  -4  14  -1    6.78    3.14
  -3  14  -1    2.95    2.24
  -2  14  -1    8.40    2.22
  -1  14  -1    2.29    2.33
 -10  15  -1    8.70    2.40
  -9  15  -1    1.81    1.83
  -8  15  -1    1.34    1.64
  -7  15  -1    7.13    2.24
  -6  15  -1    9.67    3.54
  -5  15  -1    7.44    3.35
   3 -15   0    9.77    3.43
   4 -15   0   12.17    2.45
   5 -15   0    3.06    1.60
   6 -15   0   13.95    2.76
   7 -15   0    1.86    1.49
   8 -15   0    2.20    1.47
   9 -15   0   37.12    5.77
  10 -15   0   10.26    3.27
   2 -14   0    7.15    2.18
   3 -14   0   16.85    2.83
   4 -14   0    7.05    1.97
   5 -14   0    1.78    1.46
   6 -14   0   19.06    2.84
   7 -14   0    1.11    1.30
   8 -14   0   65.26    4.48
   9 -14   0    2.57    1.60
  10 -14   0    3.55    2.35
  11 -14   0   12.49    3.50
  12 -14   0    5.22    2.74
   0 -13   0   15.17    4.17
   1 -13   0   23.21    3.11
   2 -13   0    8.74    2.10
   3 -13   0    4.82    1.64
   4 -13   0   41.64    3.97
   5 -13   0   71.71    4.28
   6 -13   0    5.65    1.68
   7 -13   0   16.80    2.44
   8 -13   0   22.93    2.63
   9 -13   0   33.41    3.35
  10 -13   0   -0.69    1.63
  11 -13   0   20.79    4.22
  12 -13   0    8.05    3.12
  13 -13   0   19.04    4.44
  -2 -12   0    1.14    2.40
  -1 -12   0    1.23    2.33
   0 -12   0    5.79    1.70
   1 -12   0    3.03    1.34
   2 -12   0   30.43    3.34
   3 -12   0    7.89    1.85
   4 -12   0    4.12    1.38
   5 -12   0    0.92    0.94
   6 -12   0    0.09    0.86
   7 -12   0    5.50    1.43
   8 -12   0    6.58    1.28
   9 -12   0   24.72    2.25
  10 -12   0  140.25    5.80
  11 -12   0   -0.09    1.09
  12 -12   0    8.27    2.03
  13 -12   0   26.08    3.38
  14 -12   0    8.53    2.32
  15 -12   0    8.29    3.38
  -4 -11   0    3.20    1.99
  -3 -11   0   13.66    4.07
  -2 -11   0   19.90    4.50
  -1 -11   0    2.19    1.42
   0 -11   0   -0.95    0.92
   1 -11   0   65.75    4.26
   2 -11   0   10.81    1.98
   3 -11   0   61.86    3.05
   4 -11   0   29.09    2.35
   5 -11   0   57.73    2.69
   6 -11   0  111.55    3.82
   7 -11   0   81.77    3.25
   8 -11   0   45.02    2.84
   9 -11   0    4.05    1.02
  10 -11   0   12.48    2.08
  11 -11   0   -1.01    0.85
  12 -11   0    4.78    1.62
  13 -11   0   11.03    2.33
  14 -11   0   16.92    2.82
  15 -11   0   20.27    3.25
  -5 -10   0    5.25    2.02
  -4 -10   0    6.66    2.08
  -3 -10   0    1.49    1.40
  -2 -10   0  124.23    4.79
  -1 -10   0   18.79    2.11
   0 -10   0   12.75    1.67
   1 -10   0   24.22    1.85
   2 -10   0    0.42    0.67
   3 -10   0    1.69    0.77
   4 -10   0   54.63    2.49
   5 -10   0  119.41    3.81
   6 -10   0  146.53    4.31
   7 -10   0    5.72    1.04
   8 -10   0   -0.29    0.49
   9 -10   0   28.63    2.20
  10 -10   0    8.98    1.74
  11 -10   0   65.38    3.84
  12 -10   0   37.42    3.59
  13 -10   0    4.29    1.62
  14 -10   0    6.37    1.88
  15 -10   0    2.14    1.62
  -6  -9   0   42.53    4.66
  -5  -9   0    1.46    1.55
  -4  -9   0   35.11    3.78
  -3  -9   0   21.91    2.40
  -2  -9   0    6.25    1.32
  -1  -9   0   24.38    2.18
   0  -9   0   34.51    2.41
   1  -9   0    2.20    0.65
   2  -9   0  102.87    2.90
   3  -9   0  160.57    3.71
   4  -9   0   20.41    1.71
   5  -9   0   28.86    2.03
   6  -9   0   36.33    2.09
   7  -9   0   36.43    2.09
   8  -9   0   13.51    1.39
   9  -9   0   31.25    2.20
  10  -9   0   22.47    2.46
  11  -9   0   14.72    2.24
  12  -9   0    7.99    1.79
  13  -9   0   44.03    3.99
  14  -9   0    3.87    1.60
  15  -9   0    7.39    2.18
  -7  -8   0    1.81    1.88
  -6  -8   0   55.30    5.11
  -5  -8   0   18.76    2.81
  -4  -8   0    5.91    1.42
  -3  -8   0   42.58    2.99
  -2  -8   0   -0.35    0.65
  -1  -8   0   16.42    1.71
   0  -8   0   65.55    2.30
   1  -8   0  105.97    2.86
   2  -8   0   23.05    1.47
   3  -8   0   24.72    1.33
   4  -8   0    0.48    0.34
   5  -8   0   34.61    1.37
   6  -8   0   86.13    2.43
   7  -8   0  299.92    5.59
   8  -8   0   64.79    2.10
   9  -8   0    3.82    0.81
  10  -8   0   -0.31    0.76
  11  -8   0   66.75    3.68
  12  -8   0    4.32    1.38
  13  -8   0   78.54    4.53
  14  -8   0   20.59    3.03
  15  -8   0    1.73    1.61
  -8  -7   0    1.66    1.94
  -7  -7   0   -0.80    1.42
  -6  -7   0   20.35    2.99
  -5  -7   0    8.71    1.97
  -4  -7   0   81.31    3.61
  -3  -7   0    4.19    1.05
  -2  -7   0   37.80    2.56
  -1  -7   0  294.14    6.82
   0  -7   0    3.60    0.63
   1  -7   0   31.36    1.49
   2  -7   0    7.29    0.77
   3  -7   0   41.14    1.41
   4  -7   0  126.38    2.72
   5  -7   0   22.65    1.01
   6  -7   0  126.65    2.49
   7  -7   0    2.31    0.51
   8  -7   0  114.17    2.77
   9  -7   0  106.18    3.32
  10  -7   0    1.67    0.92
  11  -7   0   23.30    2.67
  12  -7   0    1.63    1.18
  13  -7   0    5.47    1.81
  14  -7   0    0.80    1.35
  15  -7   0    2.12    1.63
  -9  -6   0    9.13    2.65
  -8  -6   0   26.86    3.82
  -7  -6   0    2.70    1.65
  -6  -6   0   -0.74    0.93
  -5  -6   0  108.12    4.21
  -4  -6   0  148.13    4.76
  -3  -6   0   37.63    2.58
  -2  -6   0   85.82    3.12
  -1  -6   0  124.64    3.65
   0  -6   0   27.06    1.53
   1  -6   0   83.67    2.22
   2  -6   0   42.96    1.40
   3  -6   0  383.70    6.14
   4  -6   0   15.09    0.76
   5  -6   0   19.32    0.84
   6  -6   0   25.06    1.15
   7  -6   0   32.67    1.35
   8  -6   0   20.19    1.31
   9  -6   0  169.10    3.72
  10  -6   0   54.84    3.17
  11  -6   0   57.56    3.78
  12  -6   0   -0.08    0.91
  13  -6   0   20.77    2.86
  14  -6   0   63.05    5.07
  15  -6   0   43.23    6.57
 -10  -5   0    6.09    3.07
  -9  -5   0    2.49    1.94
  -8  -5   0   66.09    5.57
  -7  -5   0    3.78    1.51
  -6  -5   0   53.47    3.56
  -5  -5   0  119.66    4.24
  -4  -5   0   29.56    1.67
  -3  -5   0   36.67    1.63
  -2  -5   0   23.80    1.22
  -1  -5   0   19.51    0.98
   0  -5   0    1.41    0.40
   1  -5   0  195.12    3.62
   2  -5   0   53.43    1.43
   3  -5   0   20.06    0.82
   4  -5   0   42.10    1.26
   5  -5   0    1.37    0.37
   6  -5   0   85.76    2.12
   7  -5   0    6.83    0.72
   8  -5   0   27.04    1.32
   9  -5   0   20.21    1.39
  10  -5   0  122.48    3.80
  11  -5   0  117.91    4.99
  12  -5   0    6.48    1.65
  13  -5   0   20.90    2.87
  14  -5   0    3.64    1.81
  15  -5   0    2.19    2.65
 -10  -4   0    7.21    3.23
  -9  -4   0   35.18    4.09
  -8  -4   0    4.88    1.83
  -7  -4   0   23.62    1.92
  -6  -4   0   52.25    2.50
  -5  -4   0   22.97    1.64
  -4  -4   0   -0.27    0.41
  -3  -4   0  127.56    3.01
  -2  -4   0   16.53    1.07
  -1  -4   0   41.44    1.24
   0  -4   0   88.87    2.06
   1  -4   0   94.09    1.96
   2  -4   0  971.71   13.42
   3  -4   0  192.69    2.92
   4  -4   0   87.18    1.89
   5  -4   0  195.81    3.50
   6  -4   0   45.31    1.41
   7  -4   0   39.43    1.40
   8  -4   0    0.55    0.40
   9  -4   0   31.43    1.63
  10  -4   0  144.14    3.64
  11  -4   0   82.75    4.25
  12  -4   0    7.78    1.78
  13  -4   0   38.89    3.80
  14  -4   0    6.38    3.06
 -11  -3   0    8.86    3.68
 -10  -3   0    7.59    3.37
  -9  -3   0    7.43    1.56
  -8  -3   0   64.68    3.53
  -7  -3   0    1.85    0.85
  -6  -3   0  160.06    4.10
  -5  -3   0   23.85    1.62
  -4  -3   0   43.48    1.23
  -3  -3   0  375.41    6.39
  -2  -3   0   21.05    1.05
  -1  -3   0  195.71    3.37
   0  -3   0   24.36    0.89
   1  -3   0   18.51    0.68
   2  -3   0   46.12    0.95
   3  -3   0   23.42    0.78
   4  -3   0   92.18    1.87
   5  -3   0   52.46    1.42
   6  -3   0  375.85    6.14
   7  -3   0  124.20    3.30
   8  -3   0   35.63    1.83
   9  -3   0   30.51    2.51
  10  -3   0    6.17    1.12
  11  -3   0   38.65    2.72
  12  -3   0   23.06    2.88
  13  -3   0    0.60    1.29
  14  -3   0   16.29    4.21
 -12  -2   0    4.58    3.29
 -11  -2   0    7.60    2.17
 -10  -2   0   27.99    3.42
  -9  -2   0   16.49    2.11
  -8  -2   0    0.58    0.80
  -7  -2   0   99.50    3.69
  -6  -2   0   21.69    1.90
  -5  -2   0    7.49    0.71
  -4  -2   0   45.96    1.28
  -3  -2   0   52.54    1.28
  -2  -2   0  965.47   13.51
  -1  -2   0   46.02    1.16
   0  -2   0   38.70    0.78
   1  -2   0    2.51    0.26
   2  -2   0   37.67    0.87
   3  -2   0   17.22    0.63
   4  -2   0  945.26   13.37
   5  -2   0   20.21    0.86
   6  -2   0   14.92    0.94
   7  -2   0   22.93    1.20
   8  -2   0   90.49    2.98
   9  -2   0   39.71    2.46
  10  -2   0   -0.20    0.63
  11  -2   0    4.16    1.10
  12  -2   0  136.32    5.94
  13  -2   0   23.74    4.74
  14  -2   0    0.17    2.22
 -13  -1   0    3.21    3.36
 -12  -1   0   21.96    3.51
 -11  -1   0    2.92    1.63
 -10  -1   0   60.67    4.95
  -9  -1   0   27.13    2.55
  -8  -1   0    4.41    1.12
  -7  -1   0  100.18    3.59
  -6  -1   0   28.67    1.44
  -5  -1   0   86.58    2.22
  -4  -1   0  191.22    3.23
  -3  -1   0   90.68    1.73
  -2  -1   0   19.52    0.68
  -1  -1   0    2.27    0.33
   0  -1   0    2.20    0.19
   1  -1   0    2.20    0.17
   2  -1   0    2.04    0.28
   3  -1   0   45.03    1.07
   4  -1   0  189.30    3.30
   5  -1   0   40.19    1.51
   6  -1   0   19.61    1.05
   7  -1   0  130.52    2.92
   8  -1   0  300.50    6.70
   9  -1   0   13.23    1.52
  10  -1   0   29.57    2.26
  11  -1   0   14.88    1.80
  12  -1   0    0.16    1.13
  13  -1   0    6.66    2.84
 -13   0   0    9.78    2.72
 -12   0   0    3.19    1.80
 -11   0   0   -0.24    1.11
 -10   0   0    9.39    2.06
  -9   0   0   30.21    2.62
  -8   0   0   61.49    2.90
  -7   0   0    2.52    0.65
  -6   0   0   24.38    1.35
  -5   0   0    1.39    0.39
  -4   0   0   86.13    2.02
  -3   0   0   22.76    0.86
  -2   0   0   35.27    0.91
  -1   0   0    2.39    0.20
   1   0   0    2.14    0.21
   2   0   0   36.76    0.87
   3   0   0   24.23    0.81
   4   0   0   85.94    1.90
   5   0   0    1.49    0.39
   6   0   0   23.05    1.23
   7   0   0    3.42    0.78
   8   0   0   65.56    2.63
   9   0   0   34.43    2.41
  10   0   0    9.63    1.47
  11   0   0    0.31    1.00
  12   0   0    4.77    1.74
  13   0   0   13.52    4.08
 -14   1   0    7.40    2.63
 -13   1   0    3.10    1.87
 -12   1   0    1.50    1.43
 -11   1   0   12.13    2.31
 -10   1   0   25.24    3.10
  -9   1   0   13.68    1.79
  -8   1   0  295.73    5.87
  -7   1   0  126.34    3.16
  -6   1   0   16.13    1.15
  -5   1   0   38.25    1.81
  -4   1   0  192.84    3.48
  -3   1   0   43.62    1.18
  -2   1   0    2.12    0.33
  -1   1   0    1.81    0.21
   0   1   0    2.60    0.25
   1   1   0    1.91    0.37
   2   1   0   16.49    0.83
   3   1   0   86.22    2.21
   4   1   0  200.49    3.62
   5   1   0   89.96    2.21
   6   1   0   27.73    1.42
   7   1   0   96.83    3.27
   8   1   0    3.00    0.84
   9   1   0   28.13    2.31
  10   1   0   65.27    3.15
  11   1   0    5.69    1.68
  12   1   0   20.80    3.02
 -14   2   0   -1.16    1.86
 -13   2   0   14.57    2.81
 -12   2   0  128.94    6.59
 -11   2   0    2.64    1.42
 -10   2   0    0.37    1.04
  -9   2   0   35.89    2.16
  -8   2   0   89.11    2.67
  -7   2   0   24.33    1.52
  -6   2   0   13.12    1.03
  -5   2   0   20.18    1.09
  -4   2   0  946.79   11.91
  -3   2   0   17.49    0.75
  -2   2   0   37.51    0.90
  -1   2   0    3.21    0.34
   0   2   0   36.66    1.05
   1   2   0   48.28    1.13
   2   2   0  947.58   13.31
   3   2   0   49.41    1.71
   4   2   0   44.44    1.72
   5   2   0    6.23    0.84
   6   2   0   19.44    1.36
   7   2   0  103.63    3.51
   8   2   0    0.02    0.64
   9   2   0   14.66    1.65
  10   2   0   25.15    3.03
  11   2   0    4.86    1.74
  12   2   0    3.62    1.91
 -15   3   0   14.50    5.17
 -14   3   0    9.30    2.73
 -13   3   0    1.60    1.52
 -12   3   0   22.39    3.30
 -11   3   0   47.75    4.38
 -10   3   0    4.27    1.11
  -9   3   0   32.13    2.19
  -8   3   0   35.56    1.47
  -7   3   0  121.14    2.58
  -6   3   0  378.10    5.57
  -5   3   0   51.35    1.52
  -4   3   0   90.22    1.98
  -3   3   0   24.13    0.84
  -2   3   0   48.57    1.37
  -1   3   0   17.02    0.67
   0   3   0   23.91    0.98
   1   3   0  206.66    3.44
   2   3   0   18.97    0.92
   3   3   0  381.52    6.06
   4   3   0   34.17    1.86
   5   3   0   25.14    1.79
   6   3   0  166.70    3.85
   7   3   0    0.16    0.58
   8   3   0   56.63    2.83
   9   3   0    6.71    1.69
  10   3   0    4.67    1.63
  11   3   0    8.69    2.17
  12   3   0   16.44    4.16
 -14   4   0    5.75    2.27
 -13   4   0   26.40    3.65
 -12   4   0    4.58    1.65
 -11   4   0   84.27    3.63
 -10   4   0  145.02    4.66
  -9   4   0   25.43    2.13
  -8   4   0    0.27    0.43
  -7   4   0   38.24    1.54
  -6   4   0   43.27    1.52
  -5   4   0  193.52    3.64
  -4   4   0   89.77    1.98
  -3   4   0  196.01    3.33
  -2   4   0  957.51   13.26
  -1   4   0   87.51    2.32
   0   4   0   90.16    2.33
   1   4   0   35.16    1.22
   2   4   0   14.85    0.97
   3   4   0  128.43    2.71
   4   4   0   -0.02    0.43
   5   4   0   21.80    1.79
   6   4   0   44.94    3.46
   7   4   0   23.54    2.14
   8   4   0    4.78    1.48
   9   4   0   45.20    4.02
  10   4   0    6.12    1.80
  11   4   0   20.93    3.25
 -15   5   0    5.49    3.77
 -14   5   0    2.83    2.85
 -13   5   0   20.78    3.38
 -12   5   0    3.09    1.20
 -11   5   0  110.67    4.20
 -10   5   0  115.68    4.08
  -9   5   0   17.44    1.81
  -8   5   0   22.40    1.51
  -7   5   0    6.46    0.79
  -6   5   0   90.16    2.31
  -5   5   0    1.90    0.41
  -4   5   0   37.62    1.33
  -3   5   0   19.73    0.98
  -2   5   0   54.46    1.44
  -1   5   0  200.52    4.26
   0   5   0    1.72    0.49
   1   5   0   14.47    1.01
   2   5   0   24.02    1.22
   3   5   0   33.94    2.17
   4   5   0   28.38    2.07
   5   5   0  122.89    3.92
   6   5   0   48.73    3.89
   7   5   0    1.55    0.87
   8   5   0   75.79    4.46
   9   5   0    2.65    1.54
  10   5   0    3.68    1.67
 -15   6   0   40.15    7.00
 -14   6   0   63.68    8.72
 -13   6   0   20.11    3.03
 -12   6   0    1.46    1.34
 -11   6   0   56.02    3.30
 -10   6   0   53.04    2.95
  -9   6   0  164.01    3.96
  -8   6   0   18.64    1.42
  -7   6   0   27.73    1.63
  -6   6   0   25.52    1.31
  -5   6   0   16.00    0.95
  -4   6   0   15.46    1.05
  -3   6   0  379.36    6.16
  -2   6   0   42.73    1.79
  -1   6   0   85.32    2.63
   0   6   0   25.56    1.52
   1   6   0  134.23    3.01
   2   6   0   92.51    3.10
   3   6   0   26.78    2.08
   4   6   0  150.14    4.47
   5   6   0  114.36    3.95
   6   6   0    0.76    0.94
   7   6   0    1.16    1.17
   8   6   0   22.44    2.93
   9   6   0    6.20    1.92
 -15   7   0    1.66    2.92
 -14   7   0    0.31    1.62
 -13   7   0    6.27    2.02
 -12   7   0   -0.02    1.20
 -11   7   0   27.18    3.27
 -10   7   0    1.63    1.03
  -9   7   0  106.55    3.73
  -8   7   0  100.66    2.86
  -7   7   0    2.57    0.58
  -6   7   0  128.87    3.69
  -5   7   0   26.01    1.52
  -4   7   0  125.24    2.88
  -3   7   0   38.87    1.44
  -2   7   0    5.86    0.84
  -1   7   0   26.27    1.83
   0   7   0    3.27    0.72
   1   7   0  304.55    6.81
   2   7   0   30.63    2.25
   3   7   0    6.46    1.10
   4   7   0   84.36    3.37
   5   7   0    4.68    1.44
   6   7   0   17.38    2.58
   7   7   0    0.67    1.11
   8   7   0    0.56    1.26
 -15   8   0    2.06    2.86
 -14   8   0   23.51    3.51
 -13   8   0   82.40    6.31
 -12   8   0    4.15    1.70
 -11   8   0   60.22    4.81
 -10   8   0    0.44    0.73
  -9   8   0    3.77    1.00
  -8   8   0   65.30    2.84
  -7   8   0  309.12    6.91
  -6   8   0   93.87    2.64
  -5   8   0   35.49    1.63
  -4   8   0    0.01    0.36
  -3   8   0   25.82    1.90
  -2   8   0   20.27    1.71
  -1   8   0   96.16    3.23
   0   8   0   60.65    2.63
   1   8   0   18.04    1.74
   2   8   0   -0.07    0.63
   3   8   0   39.09    2.75
   4   8   0    7.56    1.38
   5   8   0   15.08    2.35
   6   8   0   59.78    4.84
   7   8   0    1.31    1.27
 -15   9   0    7.74    2.62
 -14   9   0    1.28    1.67
 -13   9   0   44.68    4.76
 -12   9   0    3.32    1.60
 -11   9   0   16.66    2.74
 -10   9   0   23.31    2.33
  -9   9   0   33.92    2.66
  -8   9   0   15.06    1.75
  -7   9   0   36.90    2.10
  -6   9   0   27.85    1.75
  -5   9   0   28.64    2.14
  -4   9   0   19.89    1.84
  -3   9   0  157.31    4.55
  -2   9   0  111.16    3.59
  -1   9   0    3.34    1.14
   0   9   0   33.50    2.46
   1   9   0   28.86    2.35
   2   9   0    2.96    0.98
   3   9   0   22.50    2.30
   4   9   0   29.02    2.60
   5   9   0    2.07    1.31
   6   9   0   39.19    6.05
 -15  10   0    3.40    2.28
 -14  10   0    7.63    2.50
 -13  10   0    4.84    2.13
 -12  10   0   24.09    3.42
 -11  10   0   71.22    5.34
 -10  10   0    9.83    1.56
  -9  10   0   24.73    2.35
  -8  10   0    1.03    0.78
  -7  10   0    5.86    1.14
  -6  10   0  151.48    4.62
  -5  10   0  119.10    4.01
  -4  10   0   49.24    2.79
  -3  10   0    0.82    0.75
  -2  10   0    0.17    0.62
  -1  10   0   29.12    2.40
   0  10   0    9.10    1.38
   1  10   0   11.84    1.59
   2  10   0  140.08    4.79
   3  10   0   -0.32    1.00
   4  10   0    1.12    1.69
   5  10   0    4.91    2.51
 -15  11   0   14.85    3.28
 -14  11   0   13.50    2.98
 -13  11   0    5.24    2.11
 -12  11   0    4.71    1.80
 -11  11   0   -0.18    1.21
 -10  11   0   12.76    2.47
  -9  11   0    3.35    1.51
  -8  11   0   40.70    3.83
  -7  11   0   86.96    4.64
  -6  11   0  106.50    3.98
  -5  11   0   57.28    3.18
  -4  11   0   24.76    2.24
  -3  11   0   64.75    3.01
  -2  11   0   16.27    2.26
  -1  11   0   67.66    4.03
   0  11   0    0.73    1.04
   1  11   0    0.07    1.00
   2  11   0   16.33    2.66
   3  11   0   12.55    2.42
 -15  12   0   19.79    5.30
 -14  12   0    7.37    3.68
 -13  12   0   21.26    5.20
 -12  12   0    7.00    3.13
 -11  12   0   -0.11    1.35
 -10  12   0  144.07    6.64
  -9  12   0   23.75    3.24
  -8  12   0   10.11    2.20
  -7  12   0    5.09    1.65
  -6  12   0    0.97    0.85
  -5  12   0    0.35    0.80
  -4  12   0    4.26    1.14
  -3  12   0    5.43    1.62
  -2  12   0   22.66    2.92
  -1  12   0    5.04    1.67
   0  12   0    5.38    1.70
   1  12   0    5.00    1.63
   2  12   0    0.43    1.40
 -13  13   0   14.02    4.91
 -12  13   0    4.33    2.99
 -11  13   0   20.93    3.37
 -10  13   0    1.82    1.64
  -9  13   0   32.77    3.84
  -8  13   0   14.20    2.63
  -7  13   0   15.55    2.67
  -6  13   0    2.40    1.40
  -5  13   0   76.10    4.79
  -4  13   0   55.97    4.68
  -3  13   0    3.52    1.43
  -2  13   0    7.48    1.88
  -1  13   0   28.56    3.44
   0  13   0   15.38    2.71
   1  13   0    9.39    2.38
 -12  14   0    2.34    2.92
 -11  14   0   12.45    2.78
 -10  14   0    3.05    1.74
  -9  14   0    2.56    1.69
  -8  14   0   72.17    5.83
  -7  14   0   -0.75    1.24
  -6  14   0   20.56    4.54
  -5  14   0    1.87    2.05
  -4  14   0    6.34    1.82
  -3  14   0   16.39    2.84
  -2  14   0    5.54    1.89
  -1  14   0    9.70    2.34
 -11  15   0    1.41    1.88
 -10  15   0    6.53    2.39
  -9  15   0   44.31    4.73
  -8  15   0    0.92    1.64
  -7  15   0    1.54    2.17
  -6  15   0   10.07    3.58
  -5  15   0    2.01    2.35
   5 -15   1   13.12    2.42
   6 -15   1    8.87    2.20
   7 -15   1    4.06    1.77
   8 -15   1    3.11    1.56
   9 -15   1    3.52    1.65
  10 -15   1   11.39    3.49
   2 -14   1    7.21    3.15
   3 -14   1    3.40    2.47
   4 -14   1    8.55    2.12
   5 -14   1   20.42    2.90
   6 -14   1   18.40    2.83
   7 -14   1   33.24    3.58
   8 -14   1    2.26    1.39
   9 -14   1   14.23    2.51
  10 -14   1   22.62    3.13
  11 -14   1    3.50    2.35
  12 -14   1   10.65    3.47
   0 -13   1    0.21    1.96
   1 -13   1   46.60    6.39
   2 -13   1   19.75    4.25
   3 -13   1   38.50    3.82
   4 -13   1    5.10    1.55
   5 -13   1    3.34    1.42
   6 -13   1   10.79    2.02
   7 -13   1   10.89    2.06
   8 -13   1    2.43    1.27
   9 -13   1    7.61    1.81
  10 -13   1   18.38    2.72
  11 -13   1   16.18    3.82
  12 -13   1   11.44    3.47
  13 -13   1   -0.39    2.02
  -2 -12   1   13.17    3.89
  -1 -12   1   13.72    3.77
   0 -12   1   10.02    3.27
   1 -12   1    3.33    2.26
   2 -12   1    3.73    1.35
   3 -12   1    1.53    1.04
   4 -12   1    9.11    1.97
   5 -12   1    1.23    0.96
   6 -12   1   11.86    1.98
   7 -12   1    5.98    1.53
   8 -12   1   17.58    2.49
   9 -12   1   -0.15    0.94
  10 -12   1    2.25    1.22
  11 -12   1   27.68    4.70
  12 -12   1   10.85    3.34
  13 -12   1   44.60    6.22
  14 -12   1   13.07    3.80
  -4 -11   1    3.56    2.04
  -3 -11   1    6.41    1.94
  -2 -11   1   13.70    2.49
  -1 -11   1   25.73    3.16
   0 -11   1   22.63    2.88
   1 -11   1   23.00    2.23
   2 -11   1    1.52    1.01
   3 -11   1  108.61    4.96
   4 -11   1    7.43    1.57
   5 -11   1   52.02    3.24
   6 -11   1   10.81    1.83
   7 -11   1   20.74    2.49
   8 -11   1   47.25    3.79
   9 -11   1    4.69    1.35
  10 -11   1   23.14    2.59
  11 -11   1   15.22    3.45
  12 -11   1    5.73    2.30
  13 -11   1   20.48    4.15
  14 -11   1    3.55    2.48
  -5 -10   1    7.30    2.26
  -4 -10   1   31.81    3.90
  -3 -10   1   15.44    2.58
  -2 -10   1    2.34    1.29
  -1 -10   1   20.59    2.71
   0 -10   1   21.35    2.08
   1 -10   1   63.06    2.83
   2 -10   1   10.76    1.40
   3 -10   1   25.06    1.96
   4 -10   1    4.31    0.86
   5 -10   1    0.08    0.72
   6 -10   1    9.26    1.58
   7 -10   1   10.46    1.31
   8 -10   1    7.00    1.08
   9 -10   1   92.40    3.38
  10 -10   1   19.13    1.90
  11 -10   1   26.47    2.32
  12 -10   1    4.30    1.59
  13 -10   1   34.95    3.65
  14 -10   1    7.15    2.01
  15 -10   1   16.69    3.00
  -6  -9   1    1.85    1.95
  -5  -9   1   13.78    2.75
  -4  -9   1    2.90    1.56
  -3  -9   1    1.30    1.19
  -2  -9   1    4.20    1.45
  -1  -9   1   86.13    3.49
   0  -9   1    0.42    0.66
   1  -9   1   82.36    3.11
   2  -9   1    7.77    1.11
   3  -9   1   13.41    1.16
   4  -9   1   29.07    1.47
   5  -9   1   49.70    1.79
   6  -9   1   42.98    1.69
   7  -9   1   21.29    1.76
   8  -9   1   39.90    2.24
   9  -9   1   -0.01    0.58
  10  -9   1   66.75    2.87
  11  -9   1    4.01    1.08
  12  -9   1    1.10    1.07
  13  -9   1    6.51    1.64
  14  -9   1   19.79    2.92
  15  -9   1   14.70    2.72
  -7  -8   1    3.68    2.12
  -6  -8   1    3.93    1.72
  -5  -8   1    0.38    1.17
  -4  -8   1   12.01    2.14
  -3  -8   1   49.04    4.04
  -2  -8   1    8.32    1.30
  -1  -8   1   37.96    2.59
   0  -8   1    8.70    1.19
   1  -8   1   56.68    2.02
   2  -8   1   57.44    1.95
   3  -8   1   85.07    2.35
   4  -8   1   39.43    1.51
   5  -8   1   20.86    1.26
   6  -8   1   28.93    1.41
   7  -8   1   21.11    1.34
   8  -8   1   10.14    1.20
   9  -8   1   85.45    3.07
  10  -8   1   10.22    1.37
  11  -8   1  117.16    4.01
  12  -8   1    6.49    1.75
  13  -8   1    2.75    1.39
  14  -8   1   14.31    2.68
  15  -8   1    5.42    2.15
  -8  -7   1    4.23    2.11
  -7  -7   1   35.93    4.14
  -6  -7   1   14.25    2.61
  -5  -7   1    4.40    1.51
  -4  -7   1   22.04    2.78
  -3  -7   1   13.59    1.69
  -2  -7   1   23.69    1.96
  -1  -7   1   17.82    1.63
   0  -7   1    6.46    0.74
   1  -7   1  130.21    2.58
   2  -7   1  150.10    3.22
   3  -7   1  156.75    3.25
   4  -7   1   43.57    1.45
   5  -7   1  107.07    2.49
   6  -7   1  206.62    4.72
   7  -7   1    5.94    0.88
   8  -7   1   57.28    2.33
   9  -7   1    8.99    1.19
  10  -7   1   21.64    1.89
  11  -7   1    5.68    1.11
  12  -7   1    2.34    1.15
  13  -7   1   14.62    2.44
  14  -7   1   40.42    4.08
  15  -7   1    1.98    1.71
  -9  -6   1    5.44    3.00
  -8  -6   1   11.59    2.47
  -7  -6   1   10.11    2.37
  -6  -6   1   10.43    2.16
  -5  -6   1    7.82    1.79
  -4  -6   1    8.54    1.42
  -3  -6   1   42.07    1.99
  -2  -6   1   25.71    1.41
  -1  -6   1  200.32    4.00
   0  -6   1   10.91    0.87
   1  -6   1   19.12    1.16
   2  -6   1   66.66    1.79
   3  -6   1   51.33    1.50
   4  -6   1   46.79    1.42
   5  -6   1   14.67    1.17
   6  -6   1    9.88    0.81
   7  -6   1  131.01    2.89
   8  -6   1   56.88    2.28
   9  -6   1   11.95    1.34
  10  -6   1    2.49    0.75
  11  -6   1   56.96    2.81
  12  -6   1    7.12    1.72
  13  -6   1   11.65    2.29
  14  -6   1    2.50    1.67
  15  -6   1    1.94    1.86
 -10  -5   1   17.67    4.74
  -8  -5   1    1.59    1.49
  -7  -5   1    1.10    1.37
  -6  -5   1   53.49    3.00
  -5  -5   1    1.49    0.75
  -4  -5   1   48.36    2.06
  -3  -5   1   19.41    1.37
  -2  -5   1  105.16    2.64
  -1  -5   1   14.36    1.00
   0  -5   1  186.34    3.52
   1  -5   1   71.74    1.78
   2  -5   1  153.95    2.92
   3  -5   1   33.93    1.10
   4  -5   1  255.61    5.03
   5  -5   1  192.52    3.47
   6  -5   1   15.20    0.88
   7  -5   1  150.07    3.12
   8  -5   1   92.60    2.95
   9  -5   1   30.41    2.10
  10  -5   1    1.27    0.67
  11  -5   1   12.98    1.57
  12  -5   1    5.54    1.63
  13  -5   1    1.63    1.41
  14  -5   1   16.43    2.84
  15  -5   1   11.00    2.58
 -10  -4   1    2.33    2.53
  -9  -4   1    4.31    2.64
  -8  -4   1    8.19    1.59
  -7  -4   1    6.90    1.49
  -6  -4   1    3.42    0.94
  -5  -4   1   30.02    1.84
  -4  -4   1   45.38    1.86
  -3  -4   1   41.97    1.60
  -2  -4   1   45.52    1.53
  -1  -4   1  254.67    4.37
   0  -4   1   94.48    2.06
   1  -4   1  138.97    2.57
   2  -4   1    8.58    0.60
   3  -4   1   26.66    1.04
   4  -4   1   90.92    1.91
   5  -4   1   70.56    1.67
   6  -4   1   66.43    1.74
   7  -4   1  151.54    3.21
   8  -4   1   43.25    1.60
   9  -4   1   50.91    2.33
  10  -4   1    6.13    1.12
  11  -4   1   18.25    1.93
  12  -4   1   15.22    2.40
  13  -4   1   11.06    2.23
  14  -4   1   28.81    3.66
 -11  -3   1    0.11    2.36
 -10  -3   1   36.46    4.11
  -9  -3   1    2.32    1.49
  -8  -3   1  116.16    4.42
  -7  -3   1   20.47    2.10
  -6  -3   1   13.81    1.54
  -5  -3   1   84.65    2.18
  -4  -3   1  143.42    3.39
  -3  -3   1   49.31    1.63
  -2  -3   1   34.60    1.23
  -1  -3   1   30.46    1.31
   0  -3   1  391.59    6.71
   1  -3   1  136.95    2.37
   2  -3   1  139.07    2.75
   3  -3   1  379.88    6.64
   4  -3   1  133.89    2.46
   5  -3   1  151.95    2.87
   6  -3   1   49.69    1.51
   7  -3   1   40.72    1.70
   8  -3   1   20.72    1.57
   9  -3   1   41.37    2.28
  10  -3   1    8.21    1.64
  11  -3   1   43.74    3.78
  12  -3   1    1.96    1.24
  13  -3   1   15.65    2.60
  14  -3   1    5.17    2.01
 -12  -2   1   11.16    2.73
 -11  -2   1   19.81    3.24
 -10  -2   1    6.58    2.08
  -9  -2   1    2.13    1.40
  -8  -2   1   10.44    1.65
  -7  -2   1    8.70    1.37
  -6  -2   1   58.59    2.04
  -5  -2   1  146.21    3.30
  -4  -2   1   65.67    1.94
  -3  -2   1  148.28    3.02
  -2  -2   1    8.98    0.67
  -1  -2   1  135.98    2.44
   0  -2   1  133.94    2.61
   1  -2   1   29.43    0.92
   2  -2   1  134.41    2.59
   3  -2   1  133.66    2.32
   4  -2   1    9.40    0.69
   5  -2   1   34.82    1.32
   6  -2   1   47.28    1.74
   7  -2   1  110.95    3.09
   8  -2   1   21.85    1.71
   9  -2   1   22.11    1.84
  10  -2   1    5.92    1.17
  11  -2   1    5.08    1.51
  12  -2   1    1.54    1.16
  13  -2   1   10.87    2.16
  14  -2   1   14.49    3.96
 -13  -1   1    2.36    2.52
 -12  -1   1   36.54    4.24
 -11  -1   1    6.10    1.96
 -10  -1   1   20.70    3.09
  -9  -1   1   68.67    5.09
  -8  -1   1   80.34    3.44
  -7  -1   1   54.25    2.17
  -6  -1   1  132.07    3.20
  -5  -1   1   18.56    1.22
  -4  -1   1   75.43    1.93
  -3  -1   1  134.67    2.62
  -2  -1   1  135.54    2.43
  -1  -1   1   29.32    0.96
   0  -1   1   22.23    0.66
   1  -1   1   23.68    0.70
   2  -1   1   27.73    0.81
   3  -1   1  140.07    2.84
   4  -1   1   24.61    1.28
   5  -1   1  256.39    5.18
   6  -1   1   12.45    1.16
   7  -1   1  204.25    4.84
   8  -1   1   19.48    1.69
   9  -1   1   37.33    2.50
  10  -1   1   87.77    3.49
  11  -1   1   20.84    2.78
  12  -1   1   24.52    3.20
  13  -1   1   12.08    3.43
 -13   0   1    1.22    1.85
 -12   0   1    8.52    2.41
 -11   0   1   17.60    2.96
 -10   0   1   23.34    3.17
  -9   0   1    0.57    1.05
  -8   0   1   10.84    1.23
  -7   0   1    4.05    0.79
  -6   0   1    9.65    0.98
  -5   0   1  188.39    3.76
  -4   0   1   90.64    2.16
  -3   0   1  369.40    5.77
  -2   0   1  129.31    2.63
  -1   0   1   22.15    0.69
   1   0   1   19.39    0.88
   2   0   1  130.54    3.29
   3   0   1  373.51    6.82
   4   0   1   91.31    2.53
   5   0   1  185.66    4.34
   6   0   1    8.43    1.00
   7   0   1    3.09    0.79
   8   0   1   10.17    1.30
   9   0   1    1.08    0.70
  10   0   1   21.52    2.12
  11   0   1   17.89    2.06
  12   0   1   13.84    2.51
  13   0   1    3.90    2.90
 -14   1   1    2.65    2.20
 -13   1   1   11.75    2.83
 -12   1   1   22.65    3.49
 -11   1   1   26.06    3.49
 -10   1   1   85.35    4.80
  -9   1   1   39.62    2.76
  -8   1   1   17.17    1.48
  -7   1   1  196.83    4.26
  -6   1   1   11.91    1.01
  -5   1   1  249.48    4.49
  -4   1   1   26.59    1.18
  -3   1   1  134.08    2.42
  -2   1   1   27.57    0.97
  -1   1   1   24.13    0.73
   1   1   1   29.62    1.16
   2   1   1  134.85    2.86
   3   1   1  135.71    2.96
   4   1   1   61.78    1.90
   5   1   1   17.37    0.97
   6   1   1  127.52    3.73
   7   1   1   56.60    2.48
   8   1   1   89.57    3.33
   9   1   1   68.19    3.05
  10   1   1   24.08    2.36
  11   1   1    4.11    1.31
  12   1   1   39.60    5.92
 -14   2   1   13.42    3.11
 -13   2   1    9.92    2.65
 -12   2   1    2.36    1.55
 -11   2   1    4.28    1.74
 -10   2   1    7.52    1.44
  -9   2   1   20.56    2.02
  -8   2   1   25.06    1.66
  -7   2   1  105.09    2.73
  -6   2   1   46.44    1.57
  -5   2   1   37.02    1.54
  -4   2   1    7.74    0.77
  -3   2   1  136.96    2.84
  -2   2   1  129.50    3.26
  -1   2   1   29.84    0.92
   0   2   1  131.82    2.65
   1   2   1  133.42    2.67
   2   2   1    8.35    0.78
   3   2   1  157.83    3.54
   4   2   1   64.91    2.11
   5   2   1  152.45    3.73
   6   2   1   60.28    2.53
   7   2   1    6.97    1.20
   8   2   1    9.58    1.41
   9   2   1    3.38    1.03
  10   2   1    7.04    1.47
  11   2   1   16.17    2.80
  12   2   1    8.18    3.47
 -14   3   1    1.47    1.90
 -13   3   1   13.50    2.92
 -12   3   1    0.15    1.24
 -11   3   1   45.83    3.33
 -10   3   1   11.93    1.67
  -9   3   1   39.01    2.68
  -8   3   1   18.58    1.37
  -7   3   1   39.63    1.63
  -6   3   1   49.48    1.98
  -5   3   1  151.35    3.56
  -4   3   1  131.13    2.64
  -3   3   1  382.57    6.76
  -2   3   1  136.20    2.87
  -1   3   1  136.80    3.58
   0   3   1  393.62    6.68
   1   3   1   22.55    0.94
   2   3   1   28.45    1.38
   3   3   1   48.04    1.88
   4   3   1  159.19    3.95
   5   3   1   97.86    2.97
   6   3   1    9.71    1.65
   7   3   1   23.53    2.17
   8   3   1  106.34    4.10
   9   3   1    2.36    1.07
  10   3   1   32.85    2.89
  11   3   1    0.52    1.33
 -14   4   1   23.31    5.47
 -13   4   1   10.26    3.76
 -12   4   1   13.81    2.04
 -11   4   1   18.81    2.19
 -10   4   1    8.57    1.41
  -9   4   1   50.45    2.26
  -8   4   1   48.69    2.00
  -7   4   1  156.55    3.54
  -6   4   1   68.06    1.99
  -5   4   1   71.01    1.85
  -4   4   1   92.60    2.58
  -3   4   1   25.44    1.19
  -2   4   1    8.54    0.69
  -1   4   1  136.42    3.13
   0   4   1   91.82    2.38
   1   4   1  272.54    4.97
   2   4   1   42.55    1.85
   3   4   1   33.56    1.86
   4   4   1   43.85    2.00
   5   4   1   31.78    2.16
   6   4   1    6.56    1.53
   7   4   1    2.09    0.94
   8   4   1    7.25    1.42
   9   4   1    4.43    1.25
  10   4   1    5.40    1.82
  11   4   1    4.03    2.53
 -15   5   1   12.42    4.45
 -14   5   1   11.73    4.30
 -13   5   1    1.75    1.92
 -12   5   1    8.13    2.03
 -11   5   1   12.54    1.77
 -10   5   1    1.57    0.86
  -9   5   1   31.30    1.98
  -8   5   1   90.86    2.64
  -7   5   1  146.37    3.35
  -6   5   1   17.21    1.03
  -5   5   1  186.26    4.39
  -4   5   1  255.59    5.22
  -3   5   1   33.54    1.53
  -2   5   1  151.67    3.62
  -1   5   1   64.93    2.12
   0   5   1  194.65    4.20
   1   5   1   14.80    1.09
   2   5   1   98.67    3.15
   3   5   1   14.79    1.46
   4   5   1   51.99    2.35
   5   5   1    1.57    0.89
   6   5   1   57.70    3.93
   7   5   1    2.32    1.17
   8   5   1    3.03    1.13
   9   5   1   17.64    2.75
  10   5   1   12.08    2.46
 -15   6   1   -1.80    2.44
 -14   6   1    1.30    2.27
 -13   6   1   14.70    2.80
 -12   6   1    7.20    2.00
 -11   6   1   52.62    4.43
 -10   6   1    3.11    1.05
  -9   6   1    9.97    1.40
  -8   6   1   61.35    2.65
  -7   6   1  128.46    3.05
  -6   6   1    9.17    1.13
  -5   6   1   11.53    1.17
  -4   6   1   45.11    1.78
  -3   6   1   49.78    2.00
  -2   6   1   69.87    2.33
  -1   6   1   18.82    1.43
   0   6   1    9.22    0.98
   1   6   1  197.85    5.00
   2   6   1   27.15    1.98
   3   6   1   45.01    2.23
   4   6   1    7.30    1.11
   5   6   1    7.42    1.59
   6   6   1   10.53    2.05
   7   6   1    8.52    1.98
   8   6   1   11.24    2.21
   9   6   1   12.77    2.45
 -15   7   1   -1.68    2.63
 -14   7   1   35.82    4.34
 -13   7   1   10.71    2.59
 -12   7   1    3.67    1.55
 -11   7   1    6.47    1.74
 -10   7   1   24.12    2.30
  -9   7   1    6.98    1.23
  -8   7   1   55.15    2.69
  -7   7   1    4.79    0.92
  -6   7   1  200.86    4.96
  -5   7   1  106.71    3.14
  -4   7   1   39.25    1.52
  -3   7   1  150.15    4.05
  -2   7   1  148.40    3.95
  -1   7   1  127.08    3.59
   0   7   1    5.79    0.87
   1   7   1   15.69    1.59
   2   7   1   25.07    2.01
   3   7   1   11.71    1.50
   4   7   1   18.46    1.89
   5   7   1    8.32    1.85
   6   7   1   11.55    2.22
   7   7   1   35.99    3.72
   8   7   1    2.94    1.57
 -15   8   1    7.38    2.55
 -14   8   1   14.14    2.99
 -13   8   1    3.09    1.66
 -12   8   1    4.90    1.75
 -11   8   1  123.50    5.73
 -10   8   1    8.87    1.49
  -9   8   1   92.07    3.57
  -8   8   1   11.27    1.48
  -7   8   1   17.73    1.73
  -6   8   1   27.53    1.96
  -5   8   1   17.00    1.27
  -4   8   1   45.10    2.27
  -3   8   1   89.12    3.11
  -2   8   1   62.38    2.50
  -1   8   1   59.91    2.39
   0   8   1   10.98    1.76
   1   8   1   33.16    2.44
   2   8   1    7.44    1.24
   3   8   1   35.65    2.64
   4   8   1   12.25    2.12
   5   8   1    1.67    1.31
   6   8   1    1.26    1.25
   7   8   1    0.61    1.26
 -15   9   1   12.99    3.24
 -14   9   1   25.01    3.85
 -13   9   1    4.26    2.03
 -12   9   1    1.05    1.44
 -11   9   1    3.49    1.25
 -10   9   1   64.80    3.58
  -9   9   1    1.70    0.92
  -8   9   1   39.73    2.75
  -7   9   1   24.67    2.07
  -6   9   1   46.60    2.67
  -5   9   1   49.75    2.63
  -4   9   1   31.70    2.32
  -3   9   1   11.46    1.44
  -2   9   1    8.82    1.25
  -1   9   1   93.03    4.33
   0   9   1    0.63    0.75
   1   9   1   87.01    3.52
   2   9   1    2.48    0.93
   3   9   1   -0.26    0.71
   4   9   1    2.59    1.35
   5   9   1   12.43    2.20
   6   9   1    1.11    1.32
 -15  10   1    9.33    2.77
 -14  10   1    5.27    2.19
 -13  10   1   38.92    4.46
 -12  10   1    6.75    2.17
 -11  10   1   26.87    2.65
 -10  10   1   19.63    2.23
  -9  10   1   91.99    4.83
  -8  10   1    7.69    1.72
  -7  10   1   10.98    1.58
  -6  10   1    8.21    1.36
  -5  10   1    0.87    0.73
  -4  10   1    4.58    1.11
  -3  10   1   25.18    2.16
  -2  10   1    8.58    1.73
  -1  10   1   62.72    4.15
   0  10   1   19.75    2.10
   1  10   1   27.24    2.43
   2  10   1    0.79    0.81
   3  10   1   12.44    2.16
   4  10   1   25.19    3.20
   5  10   1    9.95    2.31
 -15  11   1    1.56    2.31
 -14  11   1    0.42    1.83
 -13  11   1   24.28    3.72
 -12  11   1    8.98    3.70
 -11  11   1   17.32    2.88
 -10  11   1   26.04    3.34
  -9  11   1    5.32    1.65
  -8  11   1   43.36    3.20
  -7  11   1   19.65    2.16
  -6  11   1    8.88    1.46
  -5  11   1   62.64    3.43
  -4  11   1    5.53    1.22
  -3  11   1  114.13    5.37
  -2  11   1    1.43    1.17
  -1  11   1   25.79    2.49
   0  11   1   18.37    2.07
   1  11   1   26.97    2.58
   2  11   1   10.28    1.77
   3  11   1    2.57    1.47
 -14  12   1   11.04    4.70
 -13  12   1   59.26    8.30
 -12  12   1   19.99    5.08
 -11  12   1   28.02    3.79
 -10  12   1    0.16    1.40
  -9  12   1    0.08    1.20
  -8  12   1   13.55    1.96
  -7  12   1    8.60    1.59
  -6  12   1   10.84    1.64
  -5  12   1    2.95    1.07
  -4  12   1    6.14    1.71
  -3  12   1    1.66    1.23
  -2  12   1    6.33    1.71
  -1  12   1    1.88    1.05
   0  12   1    8.23    1.63
   1  12   1    7.49    1.89
   2  12   1   11.89    3.44
 -13  13   1    4.36    3.12
 -12  13   1    5.86    3.12
 -11  13   1   12.41    2.79
 -10  13   1   15.59    3.00
  -9  13   1    4.00    1.70
  -8  13   1    0.15    1.28
  -7  13   1   12.91    1.94
  -6  13   1    8.85    1.72
  -5  13   1    0.70    1.17
  -4  13   1    3.24    1.47
  -3  13   1   35.34    3.81
  -2  13   1   21.07    3.08
  -1  13   1   52.14    4.70
   0  13   1    0.98    1.37
   1  13   1    2.90    2.44
 -12  14   1   12.98    3.04
 -11  14   1    3.98    2.07
 -10  14   1   23.88    3.71
  -9  14   1   13.47    2.81
  -8  14   1    2.04    1.59
  -7  14   1   35.26    4.04
  -6  14   1   14.95    2.67
  -5  14   1   26.72    3.42
  -4  14   1    5.47    1.92
  -3  14   1    1.21    1.41
  -2  14   1    9.00    2.33
  -1  14   1    1.07    1.61
 -11  15   1    0.25    1.87
 -10  15   1    7.95    2.51
  -9  15   1    4.72    1.92
  -8  15   1    0.37    1.62
  -7  15   1    4.21    2.45
  -6  15   1    3.69    2.60
  -5  15   1   12.20    2.66
  -4  15   1    4.06    2.49
   6 -15   2    8.43    2.33
   7 -15   2    6.85    2.04
   8 -15   2    7.29    2.11
   9 -15   2    8.69    2.17
  10 -15   2    1.60    1.52
  11 -15   2    3.69    2.45
   3 -14   2   10.33    3.34
   4 -14   2    6.69    3.15
   5 -14   2    9.41    2.11
   6 -14   2    7.64    1.93
   7 -14   2    4.56    1.68
   8 -14   2   18.60    2.81
   9 -14   2   18.99    2.80
  10 -14   2   44.73    4.27
  11 -14   2   12.44    3.54
  12 -14   2   11.15    3.91
   0 -13   2   11.11    3.85
   1 -13   2    2.40    2.36
   2 -13   2   36.92    5.73
   3 -13   2   13.24    3.55
   4 -13   2    7.35    1.87
   5 -13   2   42.53    3.89
   6 -13   2   12.06    2.18
   7 -13   2    3.49    1.37
   8 -13   2   12.44    2.21
   9 -13   2    4.97    1.46
  10 -13   2    7.83    1.89
  11 -13   2    4.50    1.63
  12 -13   2   11.72    3.44
  13 -13   2   17.84    4.30
  -2 -12   2   14.01    2.56
  -1 -12   2   10.05    2.33
   0 -12   2   11.69    2.44
   1 -12   2    5.91    2.61
   2 -12   2   17.26    3.76
   3 -12   2   -0.07    1.01
   4 -12   2   34.87    3.45
   5 -12   2    9.71    1.91
   6 -12   2   24.73    2.87
   7 -12   2    6.53    1.61
   8 -12   2   45.54    3.85
   9 -12   2    5.68    1.60
  10 -12   2   33.93    3.51
  11 -12   2   15.52    2.50
  12 -12   2    9.74    2.26
  13 -12   2   -0.54    1.54
  -3 -11   2    5.54    2.08
  -2 -11   2   11.00    2.35
  -1 -11   2   20.68    2.93
   0 -11   2    5.35    1.70
   1 -11   2   37.18    3.62
   2 -11   2    9.06    1.41
   3 -11   2   15.56    1.73
   4 -11   2  102.38    3.61
   5 -11   2   15.89    2.10
   6 -11   2   59.81    3.45
   7 -11   2   74.86    3.95
   8 -11   2    8.76    1.71
   9 -11   2    2.10    1.11
  10 -11   2    3.90    1.26
  11 -11   2    5.03    1.56
  12 -11   2    5.53    1.79
  13 -11   2   24.93    4.68
  14 -11   2   15.08    3.91
  -5 -10   2    4.30    2.10
  -4 -10   2   48.42    4.76
  -3 -10   2    8.62    2.20
  -2 -10   2   33.48    3.62
  -1 -10   2    9.03    1.96
   0 -10   2   11.92    2.05
   1 -10   2   10.00    1.47
   2 -10   2   20.09    1.88
   3 -10   2    5.82    1.04
   4 -10   2   33.71    2.30
   5 -10   2   -0.15    0.52
   6 -10   2  144.43    4.25
   7 -10   2   11.99    1.36
   8 -10   2   56.11    3.33
   9 -10   2   31.23    3.02
  10 -10   2   14.55    2.18
  11 -10   2   40.74    3.59
  12 -10   2   16.50    2.51
  13 -10   2    9.91    3.10
  14 -10   2   13.60    3.66
  -6  -9   2    7.58    2.33
  -5  -9   2   15.70    2.81
  -4  -9   2    5.09    1.90
  -3  -9   2    8.53    2.08
  -2  -9   2    2.65    1.33
  -1  -9   2   27.21    2.97
   0  -9   2   12.48    2.01
   1  -9   2   36.46    2.46
   2  -9   2   33.87    2.28
   3  -9   2   57.56    2.40
   4  -9   2   33.91    2.17
   5  -9   2   21.34    1.71
   6  -9   2   22.70    1.78
   7  -9   2    8.17    1.12
   8  -9   2   89.99    3.19
   9  -9   2   13.40    2.03
  10  -9   2    7.28    1.19
  11  -9   2    7.35    1.28
  12  -9   2    0.47    0.87
  13  -9   2    7.34    2.00
  14  -9   2    9.19    2.27
  15  -9   2    8.73    2.34
  -7  -8   2    6.35    3.36
  -6  -8   2   19.23    2.99
  -5  -8   2   10.45    2.26
  -4  -8   2   45.72    4.23
  -3  -8   2    8.61    1.86
  -2  -8   2   61.20    3.63
  -1  -8   2   84.73    4.18
   0  -8   2  133.60    4.03
   1  -8   2    9.09    0.94
   2  -8   2   42.59    2.10
   3  -8   2   66.31    2.47
   4  -8   2    6.92    0.98
   5  -8   2   38.57    1.94
   6  -8   2   26.83    1.53
   7  -8   2   10.82    1.05
   8  -8   2  139.14    3.99
   9  -8   2   39.78    2.32
  10  -8   2   16.69    1.69
  11  -8   2   13.99    1.70
  12  -8   2   32.65    2.70
  13  -8   2   48.49    4.31
  14  -8   2    6.07    2.00
  15  -8   2    3.56    1.87
  -8  -7   2    6.88    3.09
  -7  -7   2    0.44    1.62
  -6  -7   2    4.82    1.86
  -5  -7   2    5.38    1.79
  -4  -7   2   75.46    4.31
  -3  -7   2   12.27    1.99
  -2  -7   2    8.20    1.17
  -1  -7   2    9.82    1.00
   0  -7   2   29.59    1.51
   1  -7   2   45.71    2.07
   2  -7   2   45.66    1.95
   3  -7   2   52.94    1.64
   4  -7   2  217.57    4.15
   5  -7   2   19.18    1.20
   6  -7   2   38.16    1.77
   7  -7   2   27.11    1.68
   8  -7   2    8.83    1.19
   9  -7   2   29.71    2.15
  10  -7   2    8.52    1.31
  11  -7   2   95.75    3.68
  12  -7   2    8.66    1.52
  13  -7   2    6.71    1.84
  14  -7   2    2.36    1.61
  15  -7   2    7.49    2.17
  -9  -6   2    9.73    3.94
  -8  -6   2    6.46    3.17
  -7  -6   2    9.51    2.12
  -6  -6   2   19.28    2.77
  -5  -6   2   55.02    4.42
  -4  -6   2  145.90    4.44
  -3  -6   2   24.98    1.97
  -2  -6   2   23.34    1.53
  -1  -6   2   35.57    1.51
   0  -6   2   12.67    0.99
   1  -6   2   96.98    2.81
   2  -6   2   29.61    1.14
   3  -6   2   25.81    1.09
   4  -6   2   78.96    1.99
   5  -6   2  151.22    3.63
   6  -6   2   11.48    1.15
   7  -6   2   38.54    1.90
   8  -6   2   45.22    2.08
   9  -6   2   53.93    2.45
  10  -6   2   32.60    2.40
  11  -6   2   16.69    1.85
  12  -6   2   25.73    2.40
  13  -6   2    4.07    1.66
  14  -6   2   23.32    3.19
  15  -6   2   10.53    2.59
  -9  -5   2    6.29    2.93
  -8  -5   2   30.52    5.32
  -7  -5   2    6.90    1.44
  -6  -5   2   14.96    1.82
  -5  -5   2   -0.47    0.62
  -4  -5   2   22.62    1.87
  -3  -5   2   39.08    2.19
  -2  -5   2   20.38    1.33
  -1  -5   2  145.57    3.16
   0  -5   2  104.52    2.44
   1  -5   2   30.24    1.36
   2  -5   2   83.77    1.84
   3  -5   2  125.80    2.49
   4  -5   2   16.31    0.99
   5  -5   2  106.16    2.80
   6  -5   2   96.29    2.81
   7  -5   2   45.68    1.98
   8  -5   2   61.75    2.48
   9  -5   2   31.72    2.23
  10  -5   2   -0.29    0.59
  11  -5   2   54.28    3.12
  12  -5   2    4.53    1.19
  13  -5   2    7.03    1.93
  14  -5   2   15.15    2.74
  15  -5   2    3.05    1.99
 -10  -4   2    8.03    3.33
  -9  -4   2    5.65    1.89
  -8  -4   2   28.10    3.22
  -7  -4   2   96.62    3.86
  -6  -4   2   33.44    2.48
  -5  -4   2   34.69    2.39
  -4  -4   2    7.89    1.10
  -3  -4   2  217.08    4.31
  -2  -4   2   80.31    2.12
  -1  -4   2   18.91    1.07
   0  -4   2   57.54    1.82
   1  -4   2   64.35    1.91
   2  -4   2  126.56    2.98
   3  -4   2   46.82    1.41
   4  -4   2   59.55    1.82
   5  -4   2   33.34    1.41
   6  -4   2   28.14    1.60
   7  -4   2   46.03    2.05
   8  -4   2    5.78    1.01
   9  -4   2   20.08    1.85
  10  -4   2  151.05    4.71
  11  -4   2   74.61    3.41
  12  -4   2   42.37    3.21
  13  -4   2    5.00    1.94
  14  -4   2   44.48    4.43
  15  -4   2    2.07    2.83
 -11  -3   2   11.25    2.80
 -10  -3   2   13.10    2.63
  -9  -3   2    0.81    1.20
  -8  -3   2   17.01    2.54
  -7  -3   2    6.94    1.30
  -6  -3   2   56.65    2.75
  -5  -3   2   58.83    2.56
  -4  -3   2   47.53    1.70
  -3  -3   2   25.45    1.24
  -2  -3   2  122.58    2.59
  -1  -3   2   45.27    1.30
   0  -3   2   42.55    1.37
   1  -3   2   51.44    1.83
   2  -3   2  234.17    4.23
   3  -3   2   42.09    1.35
   4  -3   2   66.86    1.99
   5  -3   2   83.42    2.46
   6  -3   2   24.62    1.08
   7  -3   2  214.37    4.77
   8  -3   2   33.73    2.80
   9  -3   2   20.74    2.29
  10  -3   2    8.47    1.80
  11  -3   2   12.03    2.20
  12  -3   2    2.00    1.35
  13  -3   2    6.75    1.83
  14  -3   2    4.64    1.88
 -12  -2   2    1.38    1.94
 -11  -2   2   29.48    3.90
 -10  -2   2   17.11    2.90
  -9  -2   2    5.52    1.66
  -8  -2   2   15.11    2.35
  -7  -2   2   29.23    2.32
  -6  -2   2   42.65    2.00
  -5  -2   2   43.45    1.76
  -4  -2   2   28.06    1.80
  -3  -2   2   79.71    2.45
  -2  -2   2  123.38    3.06
  -1  -2   2  229.18    3.77
   0  -2   2  333.91    6.03
   1  -2   2   70.17    1.81
   2  -2   2  338.42    6.07
   3  -2   2   46.50    1.56
   4  -2   2  127.56    2.71
   5  -2   2  128.49    2.93
   6  -2   2   79.25    2.36
   7  -2   2   20.50    1.50
   8  -2   2   22.72    1.74
   9  -2   2    7.80    1.60
  10  -2   2   59.76    3.69
  11  -2   2    2.91    1.28
  12  -2   2   36.67    3.90
  13  -2   2    7.00    2.01
  14  -2   2   13.93    2.79
 -12  -1   2    3.73    2.05
 -11  -1   2    3.63    1.65
 -10  -1   2   39.41    4.03
  -9  -1   2    3.86    1.54
  -8  -1   2   42.07    3.63
  -7  -1   2    7.46    1.03
  -6  -1   2   39.92    1.88
  -5  -1   2   97.58    2.59
  -4  -1   2   29.71    1.54
  -3  -1   2   61.25    1.97
  -2  -1   2   53.02    1.62
  -1  -1   2   66.21    1.83
   0  -1   2  180.64    3.41
   1  -1   2  180.55    4.33
   2  -1   2   72.72    2.29
   3  -1   2  243.43    4.49
   4  -1   2   46.40    1.58
   5  -1   2   17.20    1.25
   6  -1   2  151.39    3.82
   7  -1   2   36.59    1.98
   8  -1   2   12.16    1.36
   9  -1   2   86.03    3.34
  10  -1   2   25.61    2.94
  11  -1   2    8.29    2.00
  12  -1   2   18.27    2.86
  13  -1   2   11.22    2.44
 -13   0   2   14.87    3.08
 -12   0   2    7.55    2.42
 -11   0   2    6.24    2.14
 -10   0   2   15.33    2.58
  -9   0   2    8.40    2.03
  -8   0   2  134.47    4.31
  -7   0   2   26.32    2.04
  -6   0   2   10.40    1.05
  -5   0   2  102.22    2.58
  -4   0   2   56.35    1.69
  -3   0   2   38.14    1.38
  -2   0   2  337.80    6.07
  -1   0   2  183.70    3.51
   2   0   2  342.16    7.62
   3   0   2   40.15    1.17
   4   0   2   58.01    2.00
   5   0   2  102.37    3.03
   6   0   2   10.32    1.18
   7   0   2   26.37    1.92
   8   0   2  132.46    4.14
   9   0   2    9.63    1.41
  10   0   2   10.53    2.08
  11   0   2    4.29    1.73
  12   0   2   14.70    2.56
  13   0   2   15.15    2.89
 -13   1   2   12.09    2.96
 -12   1   2   18.60    3.39
 -11   1   2    8.75    2.30
 -10   1   2   27.81    3.48
  -9   1   2   87.12    3.63
  -8   1   2    9.73    1.36
  -7   1   2   33.42    2.33
  -6   1   2  148.00    3.30
  -5   1   2   16.98    0.98
  -4   1   2   44.89    1.31
  -3   1   2  228.66    4.64
  -2   1   2   69.63    1.64
  -1   1   2  187.61    4.29
   2   1   2   40.21    2.62
   3   1   2   64.41    1.87
   4   1   2   32.16    1.26
   5   1   2   92.19    3.03
   6   1   2   40.98    2.06
   7   1   2    6.17    1.15
   8   1   2   36.02    2.57
   9   1   2    8.93    1.45
  10   1   2   35.80    2.87
  11   1   2    5.46    1.76
  12   1   2   -0.04    1.46
 -14   2   2    8.38    3.85
 -13   2   2    5.02    2.22
 -12   2   2   35.22    4.32
 -11   2   2    4.68    1.91
 -10   2   2   57.72    3.80
  -9   2   2    8.12    1.37
  -8   2   2   24.70    2.13
  -7   2   2   19.32    1.73
  -6   2   2   83.64    2.00
  -5   2   2  123.34    3.29
  -4   2   2  125.21    3.11
  -3   2   2   49.07    1.60
  -2   2   2  354.77    6.09
  -1   2   2   74.04    2.27
   0   2   2  355.04    7.61
   1   2   2  232.29    5.64
   2   2   2  124.33    3.08
   3   2   2   82.64    2.40
   4   2   2   27.26    1.49
   5   2   2   47.12    2.65
   6   2   2   45.74    2.39
   7   2   2   28.30    2.24
   8   2   2   15.52    1.83
   9   2   2    8.39    1.47
  10   2   2   14.99    2.05
  11   2   2   29.73    3.49
  12   2   2   -0.26    2.39
 -14   3   2    3.43    3.21
 -13   3   2    8.90    3.78
 -12   3   2    4.20    1.86
 -11   3   2    4.53    1.39
 -10   3   2   11.52    1.74
  -9   3   2   21.29    2.12
  -8   3   2   34.32    2.39
  -7   3   2  221.02    5.35
  -6   3   2   25.99    1.76
  -5   3   2   87.11    2.51
  -4   3   2   66.41    1.95
  -3   3   2   43.06    1.33
  -2   3   2  237.37    4.23
  -1   3   2   52.04    1.53
   0   3   2   41.57    1.47
   1   3   2   44.67    1.48
   2   3   2  125.52    3.28
   3   3   2   25.63    1.55
   4   3   2   40.98    1.97
   5   3   2   64.80    3.35
   6   3   2   61.50    3.39
   7   3   2    6.87    1.31
   8   3   2   13.18    1.77
   9   3   2    0.75    0.88
  10   3   2   10.18    1.81
  11   3   2   14.02    2.75
 -14   4   2   43.53    7.10
 -13   4   2    2.54    2.36
 -12   4   2   45.16    4.47
 -11   4   2   71.45    4.79
 -10   4   2  152.13    4.97
  -9   4   2   23.09    2.13
  -8   4   2    9.28    1.34
  -7   4   2   55.48    2.29
  -6   4   2   31.28    1.68
  -5   4   2   31.04    1.42
  -4   4   2   59.71    2.11
  -3   4   2   47.45    1.72
  -2   4   2  129.08    2.93
  -1   4   2   66.19    2.50
   0   4   2   59.27    1.92
   1   4   2   17.08    1.00
   2   4   2   86.53    2.74
   3   4   2  224.60    5.20
   4   4   2    7.91    1.07
   5   4   2   35.62    3.08
   6   4   2   21.13    2.56
   7   4   2   98.64    3.93
   8   4   2   29.18    2.61
   9   4   2    6.88    1.52
  10   4   2    8.44    1.68
 -14   5   2   21.10    5.26
 -13   5   2    8.47    2.21
 -12   5   2    3.95    1.76
 -11   5   2   58.71    4.90
 -10   5   2   -0.46    0.84
  -9   5   2   28.33    2.42
  -8   5   2   66.19    2.89
  -7   5   2   49.94    1.85
  -6   5   2   97.17    3.19
  -5   5   2  112.18    3.22
  -4   5   2   16.10    1.28
  -3   5   2  127.94    3.09
  -2   5   2   84.02    3.14
  -1   5   2   31.20    1.54
   0   5   2  101.27    2.81
   1   5   2  151.64    3.52
   2   5   2   18.84    1.69
   3   5   2   35.93    2.07
   4   5   2   20.67    1.74
   5   5   2    1.26    0.93
   6   5   2   15.71    2.31
   7   5   2    9.73    1.93
   8   5   2   46.47    3.38
   9   5   2    6.74    1.61
  10   5   2    5.81    2.62
 -15   6   2    5.26    3.54
 -14   6   2   23.46    3.61
 -13   6   2    2.70    1.75
 -12   6   2   23.04    3.35
 -11   6   2   12.75    2.36
 -10   6   2   29.23    2.56
  -9   6   2   53.51    3.09
  -8   6   2   41.76    2.77
  -7   6   2   42.31    2.64
  -6   6   2   11.22    1.27
  -5   6   2  148.44    3.98
  -4   6   2   82.31    2.56
  -3   6   2   23.07    2.12
  -2   6   2   29.41    1.71
  -1   6   2   97.81    2.91
   0   6   2   12.73    1.13
   1   6   2   33.31    2.66
   2   6   2   18.71    1.75
   3   6   2   20.85    1.81
   4   6   2  147.62    5.77
   5   6   2   54.29    4.18
   6   6   2   21.71    2.85
   7   6   2    9.67    2.06
   8   6   2    4.36    1.45
   9   6   2   11.93    2.44
 -15   7   2    0.43    2.74
 -14   7   2    4.21    2.09
 -13   7   2    8.45    2.40
 -12   7   2    7.51    2.20
 -11   7   2   97.19    4.12
 -10   7   2    8.93    1.57
  -9   7   2   32.99    2.62
  -8   7   2    9.08    1.39
  -7   7   2   29.83    2.29
  -6   7   2   39.09    2.21
  -5   7   2   18.14    1.51
  -4   7   2  224.03    4.90
  -3   7   2   46.77    2.16
  -2   7   2   50.45    2.18
  -1   7   2   45.43    1.99
   0   7   2   32.30    2.82
   1   7   2   12.43    1.83
   2   7   2    6.64    1.19
   3   7   2   11.69    1.53
   4   7   2   63.81    3.88
   5   7   2    4.99    1.60
   6   7   2    2.30    1.29
   7   7   2    1.28    1.30
   8   7   2    3.60    1.46
 -15   8   2    2.27    1.98
 -14   8   2    6.22    2.34
 -13   8   2   40.46    4.49
 -12   8   2   31.33    3.76
 -11   8   2   11.76    1.88
 -10   8   2   18.78    2.18
  -9   8   2   38.50    2.90
  -8   8   2  136.07    4.40
  -7   8   2    7.38    1.20
  -6   8   2   23.55    1.88
  -5   8   2   34.90    3.06
  -4   8   2    6.96    1.15
  -3   8   2   64.71    2.67
  -2   8   2   44.91    2.24
  -1   8   2    6.80    1.48
   0   8   2  129.94    5.25
   1   8   2   93.81    3.57
   2   8   2   59.61    2.89
   3   8   2    7.45    1.33
   4   8   2   46.12    3.98
   5   8   2    6.28    1.71
   6   8   2   19.51    2.95
   7   8   2    5.80    1.81
 -15   9   2    7.43    2.81
 -14   9   2    7.73    2.56
 -13   9   2    6.67    2.13
 -12   9   2    0.48    1.38
 -11   9   2    6.63    1.51
 -10   9   2    4.19    1.28
  -9   9   2   13.42    1.73
  -8   9   2   85.75    3.54
  -7   9   2    7.83    1.74
  -6   9   2   18.88    2.43
  -5   9   2   22.00    2.09
  -4   9   2   37.82    2.58
  -3   9   2   57.18    2.72
  -2   9   2   32.03    3.06
  -1   9   2   39.13    3.46
   0   9   2   11.69    1.97
   1   9   2   29.74    2.53
   2   9   2    1.87    0.92
   3   9   2    4.67    1.58
   4   9   2    4.76    1.60
   5   9   2   21.89    3.09
   6   9   2    9.52    2.24
 -15  10   2    6.80    2.63
 -14  10   2    9.40    2.80
 -13  10   2   11.48    2.67
 -12  10   2   18.14    3.24
 -11  10   2   44.05    3.49
 -10  10   2   13.27    2.52
  -9  10   2   23.61    3.01
  -8  10   2   55.09    4.57
  -7  10   2   10.60    1.99
  -6  10   2  150.86    4.90
  -5  10   2    0.41    0.72
  -4  10   2   27.22    2.37
  -3  10   2    8.50    1.77
  -2  10   2   19.16    2.61
  -1  10   2    6.64    1.66
   0  10   2   10.75    1.65
   1  10   2    4.80    1.23
   2  10   2   36.11    2.96
   3  10   2    9.94    2.15
   4  10   2   47.07    4.39
   5  10   2    1.73    2.04
 -15  11   2    7.62    3.96
 -14  11   2    4.97    3.45
 -13  11   2   29.81    5.80
 -12  11   2    0.55    1.60
 -11  11   2    2.88    1.75
 -10  11   2    6.34    1.99
  -9  11   2    4.86    1.66
  -8  11   2    9.14    1.61
  -7  11   2   71.72    3.63
  -6  11   2   52.41    3.50
  -5  11   2   17.50    2.04
  -4  11   2  107.58    5.14
  -3  11   2   12.91    2.21
  -2  11   2    4.01    1.43
  -1  11   2   33.39    3.52
   0  11   2    4.09    1.22
   1  11   2   20.05    2.27
   2  11   2    5.87    1.86
   3  11   2    1.75    1.45
   4  11   2    2.96    2.31
 -13  12   2    5.02    3.32
 -12  12   2   15.93    3.05
 -11  12   2   22.81    3.50
 -10  12   2   36.28    4.20
  -9  12   2    4.73    1.39
  -8  12   2   38.03    3.25
  -7  12   2    6.79    1.50
  -6  12   2   22.22    2.43
  -5  12   2   10.39    2.19
  -4  12   2   32.26    3.58
  -3  12   2    2.07    1.19
  -2  12   2   12.77    2.45
  -1  12   2    3.96    1.29
   0  12   2   10.51    1.83
   1  12   2    8.62    1.77
   2  12   2   15.12    3.80
 -13  13   2   19.90    5.50
 -12  13   2    7.85    2.62
 -11  13   2    3.12    1.87
 -10  13   2   11.41    2.67
  -9  13   2    7.83    2.28
  -8  13   2    7.03    1.51
  -7  13   2    4.33    1.47
  -6  13   2   12.66    2.52
  -5  13   2   44.66    4.36
  -4  13   2    8.54    2.15
  -3  13   2   11.75    2.41
  -2  13   2   24.59    2.72
  -1  13   2    2.87    1.28
   0  13   2   12.71    1.99
 -12  14   2   13.93    3.25
 -11  14   2    3.19    2.10
 -10  14   2   51.48    5.32
  -9  14   2   21.95    3.42
  -8  14   2   22.15    2.71
  -7  14   2    3.26    1.68
  -6  14   2    6.69    2.02
  -5  14   2    5.08    1.80
  -4  14   2    6.59    2.11
  -3  14   2    8.98    2.25
  -2  14   2    2.92    1.67
 -10  15   2    4.12    2.21
  -9  15   2    5.77    2.28
  -8  15   2    4.95    2.91
  -7  15   2    2.91    2.51
  -6  15   2    8.44    2.45
  -5  15   2    3.57    2.59
   8 -15   3   10.43    3.32
   9 -15   3    2.31    2.30
   4 -14   3    4.16    2.48
   5 -14   3   12.52    3.52
   6 -14   3   11.98    3.70
   7 -14   3   25.92    3.32
   8 -14   3    0.66    1.25
   9 -14   3    3.15    1.56
  10 -14   3   16.90    2.74
  11 -14   3    1.18    1.41
   1 -13   3   20.75    4.67
   2 -13   3   12.41    3.58
   3 -13   3   32.33    5.19
   4 -13   3    6.31    2.55
   5 -13   3    2.24    2.00
   6 -13   3   11.24    2.19
   7 -13   3   34.08    3.60
   8 -13   3    6.05    1.74
   9 -13   3    4.36    1.68
  10 -13   3    8.65    2.08
  11 -13   3    9.97    2.18
  12 -13   3    8.75    2.15
  -1 -12   3    8.42    2.27
   0 -12   3    7.27    2.10
   1 -12   3    7.11    1.92
   2 -12   3    7.30    1.82
   3 -12   3    1.30    1.10
   4 -12   3   14.39    2.33
   5 -12   3    7.97    1.81
   6 -12   3   10.05    1.97
   7 -12   3   12.39    2.20
   8 -12   3   13.43    2.21
   9 -12   3    0.53    1.12
  10 -12   3    3.17    1.45
  11 -12   3   31.84    3.55
  12 -12   3   11.08    2.38
  13 -12   3   24.20    3.30
  -3 -11   3    1.63    1.73
  -2 -11   3   10.76    2.33
  -1 -11   3   30.90    3.64
   0 -11   3   14.48    2.47
   1 -11   3    6.50    1.75
   2 -11   3    8.37    1.79
   3 -11   3   69.03    3.89
   4 -11   3    8.54    1.39
   5 -11   3   22.64    2.08
   6 -11   3    7.03    1.23
   7 -11   3   10.87    1.49
   8 -11   3   31.76    3.22
   9 -11   3   27.35    3.11
  10 -11   3   17.17    2.53
  11 -11   3   11.23    2.25
  12 -11   3    6.21    1.94
  13 -11   3   12.21    2.47
  -4 -10   3   16.68    3.08
  -3 -10   3    8.79    2.19
  -2 -10   3    1.81    1.46
  -1 -10   3   19.41    2.80
   0 -10   3   16.27    2.48
   1 -10   3   67.78    4.03
   2 -10   3   15.58    2.22
   3 -10   3   18.96    1.81
   4 -10   3   12.37    1.49
   5 -10   3    1.22    0.61
   6 -10   3   16.48    1.66
   7 -10   3   20.46    1.94
   8 -10   3   27.24    2.22
   9 -10   3   52.85    2.80
  10 -10   3    8.87    1.81
  11 -10   3    5.28    1.62
  12 -10   3    8.60    1.97
  13 -10   3   33.82    3.74
  14 -10   3    6.61    2.76
  -5  -9   3    6.70    2.25
  -4  -9   3    2.65    1.66
  -3  -9   3    0.50    1.35
  -2  -9   3   29.20    3.32
  -1  -9   3   54.40    4.32
   0  -9   3    1.79    1.07
   1  -9   3   61.92    3.52
   2  -9   3    7.66    1.24
   3  -9   3   23.78    1.94
   4  -9   3   37.93    2.37
   5  -9   3   79.62    2.94
   6  -9   3   61.20    2.61
   7  -9   3    7.84    1.23
   8  -9   3   17.38    1.78
   9  -9   3    1.88    1.06
  10  -9   3   66.18    4.17
  11  -9   3    5.33    1.68
  12  -9   3    1.85    1.20
  13  -9   3    7.84    1.97
  14  -9   3    9.10    3.33
  -6  -8   3    2.71    2.46
  -5  -8   3    1.93    1.63
  -4  -8   3   11.70    2.29
  -3  -8   3   20.58    2.81
  -2  -8   3   33.54    3.31
  -1  -8   3   19.08    1.87
   0  -8   3    1.04    0.64
   1  -8   3   53.69    2.38
   2  -8   3   45.54    2.13
   3  -8   3   96.68    3.19
   4  -8   3   -0.19    0.44
   5  -8   3   54.57    2.30
   6  -8   3    9.96    1.24
   7  -8   3   13.97    1.53
   8  -8   3    1.17    0.91
   9  -8   3   64.43    3.63
  10  -8   3   15.82    2.26
  11  -8   3   76.59    4.22
  12  -8   3    7.08    1.81
  13  -8   3    2.11    1.43
  14  -8   3    5.84    2.78
  -7  -7   3   28.68    5.40
  -6  -7   3   41.74    5.89
  -5  -7   3   18.69    2.86
  -4  -7   3   11.09    2.05
  -3  -7   3   18.89    1.96
  -2  -7   3    7.64    1.27
  -1  -7   3   16.14    1.62
   0  -7   3    6.48    1.06
   1  -7   3   89.92    2.96
   2  -7   3   72.79    2.59
   3  -7   3   76.86    2.66
   4  -7   3   46.53    2.06
   5  -7   3   52.96    2.19
   6  -7   3  148.97    4.20
   7  -7   3    8.18    1.44
   8  -7   3   53.36    3.08
   9  -7   3    7.88    1.22
  10  -7   3   21.17    2.04
  11  -7   3   10.85    1.58
  12  -7   3    3.76    1.16
  13  -7   3   10.81    1.80
  14  -7   3   25.83    3.53
  15  -7   3    3.56    2.79
  -8  -6   3   13.24    3.88
  -7  -6   3    7.75    2.87
  -6  -6   3   10.97    3.31
  -5  -6   3    5.04    1.20
  -4  -6   3   17.52    1.87
  -3  -6   3   62.48    2.75
  -2  -6   3   10.14    1.31
  -1  -6   3  143.04    4.07
   0  -6   3   39.99    1.63
   1  -6   3   57.17    2.14
   2  -6   3   25.52    1.54
   3  -6   3   36.68    1.69
   4  -6   3   65.28    2.35
   5  -6   3   36.71    2.17
   6  -6   3   40.00    1.76
   7  -6   3   91.18    2.98
   8  -6   3   46.89    2.23
   9  -6   3   17.23    1.74
  10  -6   3   11.87    1.54
  11  -6   3   27.01    2.40
  12  -6   3   10.57    1.66
  13  -6   3   33.59    2.99
  14  -6   3    1.92    1.51
  15  -6   3    0.63    2.66
  -9  -5   3    8.39    3.40
  -8  -5   3    2.87    2.45
  -7  -5   3    2.28    1.37
  -6  -5   3   24.46    2.93
  -5  -5   3    0.49    0.80
  -4  -5   3   72.90    3.04
  -3  -5   3   50.39    2.40
  -2  -5   3   52.00    2.28
  -1  -5   3   32.82    1.94
   0  -5   3   75.75    2.37
   1  -5   3   46.06    1.78
   2  -5   3  110.97    2.99
   3  -5   3   22.92    1.39
   4  -5   3  127.89    3.06
   5  -5   3   78.39    2.37
   6  -5   3   63.12    2.25
   7  -5   3   81.47    2.78
   8  -5   3  100.19    3.39
   9  -5   3   32.15    2.35
  10  -5   3    0.11    0.70
  11  -5   3    6.43    1.32
  12  -5   3   14.68    2.01
  13  -5   3    3.07    1.28
  14  -5   3    9.94    2.47
 -10  -4   3    4.60    2.74
  -9  -4   3    3.00    1.54
  -8  -4   3   11.31    2.19
  -7  -4   3    6.76    1.82
  -6  -4   3   11.16    1.98
  -5  -4   3   35.18    2.47
  -4  -4   3    0.20    0.55
  -3  -4   3   42.46    2.18
  -2  -4   3   60.56    2.38
  -1  -4   3  123.71    2.76
   0  -4   3  113.80    2.88
   1  -4   3   89.35    2.50
   2  -4   3    0.97    0.41
   3  -4   3   51.04    1.50
   4  -4   3  116.14    2.87
   5  -4   3   46.63    1.83
   6  -4   3   26.50    1.62
   7  -4   3   78.35    2.83
   8  -4   3    0.10    0.55
   9  -4   3   81.47    3.21
  10  -4   3   17.22    1.92
  11  -4   3    8.95    1.47
  12  -4   3    9.74    1.72
  13  -4   3    4.49    1.40
  14  -4   3   15.11    2.89
 -11  -3   3    2.41    1.89
 -10  -3   3   41.87    4.44
  -9  -3   3    1.82    1.54
  -8  -3   3   72.43    4.72
  -7  -3   3   19.41    2.63
  -6  -3   3   16.06    1.74
  -5  -3   3   93.75    3.36
  -4  -3   3   80.00    2.87
  -3  -3   3   34.45    1.94
  -2  -3   3   26.77    2.13
  -1  -3   3   51.34    1.42
   0  -3   3  218.45    4.51
   1  -3   3   45.26    1.58
   2  -3   3   91.18    1.92
   3  -3   3  218.93    4.54
   4  -3   3   90.29    2.58
   5  -3   3  113.51    3.10
   6  -3   3   34.42    1.93
   7  -3   3   45.70    2.19
   8  -3   3   48.85    2.97
   9  -3   3   56.70    3.40
  10  -3   3   17.67    2.48
  11  -3   3   22.04    2.89
  12  -3   3    2.07    1.46
  13  -3   3    7.35    1.64
  14  -3   3    1.90    1.75
 -11  -2   3   19.54    3.47
 -10  -2   3    7.47    2.32
  -9  -2   3    3.42    1.50
  -8  -2   3   14.64    2.44
  -7  -2   3   10.00    1.49
  -6  -2   3   42.67    2.74
  -5  -2   3   70.56    2.74
  -4  -2   3   26.52    1.83
  -3  -2   3  105.87    3.06
  -2  -2   3    0.43    0.36
  -1  -2   3   92.64    2.59
   0  -2   3  222.45    4.40
   1  -2   3   10.41    0.68
   2  -2   3  226.43    4.48
   3  -2   3   43.66    1.62
   4  -2   3    0.82    0.35
   5  -2   3   18.65    1.13
   6  -2   3   65.90    3.03
   7  -2   3   52.69    2.91
   8  -2   3    7.51    1.47
   9  -2   3    5.55    1.48
  10  -2   3   24.84    2.91
  11  -2   3   32.96    3.52
  12  -2   3    4.72    1.78
  13  -2   3   10.46    2.46
 -12  -1   3   25.43    4.05
 -11  -1   3    5.10    2.14
 -10  -1   3    8.44    2.08
  -9  -1   3   56.59    4.73
  -8  -1   3   62.88    3.22
  -7  -1   3   53.91    3.05
  -6  -1   3   95.13    3.38
  -5  -1   3   54.37    2.28
  -4  -1   3   43.01    1.83
  -3  -1   3   91.15    2.63
  -2  -1   3   44.87    1.66
  -1  -1   3   10.53    0.62
   0  -1   3   20.83    0.99
   1  -1   3   22.49    1.29
   2  -1   3   10.53    1.11
   3  -1   3   93.52    2.44
   4  -1   3   48.24    1.80
   5  -1   3  131.55    3.39
   6  -1   3   28.78    1.71
   7  -1   3  147.96    5.41
   8  -1   3   14.34    1.99
   9  -1   3   12.15    2.07
  10  -1   3   47.13    4.00
  11  -1   3   14.84    2.63
  12  -1   3   32.46    3.76
  13  -1   3    7.22    2.16
 -13   0   3    1.20    3.05
 -12   0   3    7.59    2.56
 -11   0   3   13.19    2.74
 -10   0   3   11.23    2.58
  -9   0   3    1.66    1.08
  -8   0   3    1.31    0.94
  -7   0   3    6.91    1.25
  -6   0   3   39.44    2.58
  -5   0   3   70.87    2.18
  -4   0   3  109.53    2.94
  -3   0   3  214.64    4.59
  -2   0   3  222.93    4.54
  -1   0   3   22.48    1.25
   0   0   3   -0.15    0.41
   2   0   3  228.96    8.45
   3   0   3  226.47    4.90
   4   0   3  112.19    2.51
   5   0   3   74.96    2.60
   6   0   3   36.41    2.10
   7   0   3    6.52    1.10
   8   0   3    0.65    0.88
   9   0   3    1.33    0.98
  10   0   3    9.72    2.10
  11   0   3    8.90    2.11
  12   0   3    9.18    2.37
  13   0   3   -0.48    2.27
 -13   1   3    8.01    2.77
 -12   1   3   30.52    4.12
 -11   1   3   16.56    2.98
 -10   1   3   53.04    3.67
  -9   1   3   13.95    1.85
  -8   1   3   15.29    1.82
  -7   1   3  146.43    4.46
  -6   1   3   36.07    2.44
  -5   1   3  132.04    3.79
  -4   1   3   48.90    1.44
  -3   1   3   88.71    2.24
  -2   1   3   10.60    0.81
  -1   1   3   22.75    1.84
   2   1   3   44.75    2.18
   3   1   3   93.80    2.57
   4   1   3   37.76    1.66
   5   1   3   59.43    2.46
   6   1   3   89.48    3.23
   7   1   3   55.89    2.77
   8   1   3  103.34    6.78
   9   1   3   60.92    4.76
  10   1   3    6.73    1.87
  11   1   3    4.72    1.81
  12   1   3   18.01    3.07
 -13   2   3   10.96    4.24
 -12   2   3    1.35    1.85
 -11   2   3   31.55    3.04
 -10   2   3   25.79    2.63
  -9   2   3    6.66    1.40
  -8   2   3   12.25    1.64
  -7   2   3   56.56    2.61
  -6   2   3   65.92    2.64
  -5   2   3   22.84    2.10
  -4   2   3    0.72    0.49
  -3   2   3   46.52    1.30
  -2   2   3  232.05    5.52
  -1   2   3   13.28    1.80
   1   2   3   91.95    4.45
   2   2   3    0.88    0.54
   3   2   3  121.22    3.13
   4   2   3   26.25    1.50
   5   2   3   69.63    3.41
   6   2   3   51.40    2.63
   7   2   3    6.04    1.22
   8   2   3   11.28    1.60
   9   2   3    5.26    1.64
  10   2   3    7.77    2.09
  11   2   3   13.87    2.55
 -13   3   3    6.59    3.43
 -12   3   3    0.59    1.65
 -11   3   3   30.53    3.68
 -10   3   3   18.79    2.12
  -9   3   3   61.38    3.40
  -8   3   3   48.41    2.79
  -7   3   3   42.79    2.49
  -6   3   3   37.01    2.10
  -5   3   3  111.93    3.15
  -4   3   3   94.14    2.68
  -3   3   3  228.04    4.68
  -2   3   3   93.33    2.41
  -1   3   3   48.13    2.06
   0   3   3  222.44    5.83
   1   3   3   49.32    1.79
   2   3   3   19.42    1.18
   3   3   3   37.19    1.91
   4   3   3   82.68    3.68
   5   3   3   96.39    4.27
   6   3   3   12.84    1.99
   7   3   3   20.49    2.14
   8   3   3   69.68    3.54
   9   3   3    1.91    1.05
  10   3   3   31.34    3.67
  11   3   3    6.01    3.07
 -14   4   3    6.12    3.63
 -13   4   3    3.26    2.77
 -12   4   3   11.27    2.59
 -11   4   3   16.00    2.77
 -10   4   3   19.62    2.96
  -9   4   3   79.41    4.36
  -8   4   3    1.37    1.06
  -7   4   3   77.08    2.89
  -6   4   3   28.14    1.90
  -5   4   3   46.66    1.85
  -4   4   3  120.40    2.89
  -3   4   3   54.58    1.67
  -2   4   3    0.24    0.40
  -1   4   3   97.93    2.58
   0   4   3  116.38    3.10
   1   4   3  134.89    3.33
   2   4   3   69.05    2.56
   3   4   3   40.50    2.18
   4   4   3   -0.01    0.66
   5   4   3   30.25    2.94
   6   4   3   15.69    2.23
   7   4   3    7.92    1.53
   8   4   3   14.27    1.95
   9   4   3    4.43    1.36
  10   4   3    4.74    1.88
 -14   5   3    9.17    3.90
 -13   5   3    2.67    1.90
 -12   5   3   15.49    2.92
 -11   5   3    4.45    1.49
 -10   5   3    0.01    1.06
  -9   5   3   29.50    3.31
  -8   5   3   99.90    4.67
  -7   5   3   69.32    3.68
  -6   5   3   62.49    3.18
  -5   5   3   73.79    2.76
  -4   5   3  130.18    3.61
  -3   5   3   23.87    1.48
  -2   5   3  116.55    2.95
  -1   5   3   43.93    2.30
   0   5   3   75.77    2.50
   1   5   3   33.80    2.39
   2   5   3   53.18    2.39
   3   5   3   45.10    2.50
   4   5   3   77.65    3.96
   5   5   3   -0.30    0.80
   6   5   3   24.42    2.88
   7   5   3    4.15    1.49
   8   5   3    1.39    1.09
   9   5   3   15.35    2.22
 -14   6   3    1.03    1.84
 -13   6   3   38.20    4.34
 -12   6   3    9.03    2.45
 -11   6   3   26.88    2.82
 -10   6   3   15.08    2.19
  -9   6   3   20.52    2.22
  -8   6   3   45.93    3.13
  -7   6   3   85.08    3.40
  -6   6   3   39.20    2.35
  -5   6   3   33.22    2.21
  -4   6   3   68.39    2.45
  -3   6   3   33.15    1.71
  -2   6   3   27.16    2.38
  -1   6   3   59.84    2.34
   0   6   3   43.45    2.01
   1   6   3  140.97    5.21
   2   6   3   10.14    1.33
   3   6   3   58.75    2.76
   4   6   3   16.82    2.40
   5   6   3    4.24    1.51
   6   6   3    7.72    1.81
   7   6   3    4.30    1.63
   8   6   3    9.12    1.77
   9   6   3    7.39    2.24
 -15   7   3    4.73    3.38
 -14   7   3   28.38    4.39
 -13   7   3    9.64    2.66
 -12   7   3    5.07    2.02
 -11   7   3   12.41    1.99
 -10   7   3   22.09    2.43
  -9   7   3    6.64    1.46
  -8   7   3   55.21    3.43
  -7   7   3    7.77    1.33
  -6   7   3  144.20    4.30
  -5   7   3   52.21    2.38
  -4   7   3   46.52    3.12
  -3   7   3   75.45    3.57
  -2   7   3   73.27    2.82
  -1   7   3   94.74    3.14
   0   7   3    6.19    1.38
   1   7   3   16.75    2.19
   2   7   3    8.43    1.31
   3   7   3   15.31    2.26
   4   7   3   11.15    1.85
   5   7   3   15.08    2.42
   6   7   3   42.31    4.05
   7   7   3   20.45    3.07
   8   7   3    4.02    1.95
 -15   8   3    0.98    2.88
 -14   8   3    8.29    2.78
 -13   8   3    4.17    1.91
 -12   8   3    9.77    1.86
 -11   8   3   76.82    4.37
 -10   8   3   14.70    1.99
  -9   8   3   67.95    3.74
  -8   8   3    1.01    0.84
  -7   8   3   11.60    1.60
  -6   8   3   11.14    1.96
  -5   8   3   45.31    3.60
  -4   8   3   -0.18    0.72
  -3   8   3  101.83    3.57
  -2   8   3   49.00    2.60
  -1   8   3   58.16    3.66
   0   8   3    1.17    0.95
   1   8   3   12.71    1.69
   2   8   3   27.40    2.39
   3   8   3   19.08    2.75
   4   8   3    9.21    2.00
   5   8   3    4.89    1.72
   6   8   3    2.27    1.45
 -14   9   3    6.90    2.55
 -13   9   3    1.87    1.80
 -12   9   3    1.19    1.24
 -11   9   3    5.58    1.59
 -10   9   3   62.63    3.76
  -9   9   3    1.74    1.35
  -8   9   3   11.64    2.24
  -7   9   3    8.01    1.89
  -6   9   3   57.87    3.89
  -5   9   3   81.31    4.15
  -4   9   3   32.17    2.54
  -3   9   3   16.60    1.74
  -2   9   3    5.76    1.54
  -1   9   3   64.94    3.87
   0   9   3    0.89    1.11
   1   9   3   50.72    3.41
   2   9   3   31.01    2.76
   3   9   3    1.88    1.28
   4   9   3    4.31    1.67
   5   9   3    2.46    1.56
 -14  10   3    5.48    2.41
 -13  10   3   28.30    3.96
 -12  10   3    7.05    2.24
 -11  10   3    4.37    1.95
 -10  10   3    6.93    2.06
  -9  10   3   50.91    4.65
  -8  10   3   30.21    3.47
  -7  10   3   18.75    2.63
  -6  10   3   15.20    1.94
  -5  10   3    2.33    0.99
  -4  10   3   11.30    1.64
  -3  10   3   18.89    2.67
  -2  10   3   10.85    2.09
  -1  10   3   64.64    4.35
   0  10   3   12.00    1.76
   1  10   3   16.97    1.96
   2  10   3    0.42    1.28
   3  10   3    8.31    1.97
   4  10   3   21.81    3.21
 -13  11   3    9.74    4.09
 -12  11   3    2.68    1.82
 -11  11   3   19.09    3.21
 -10  11   3   16.74    2.95
  -9  11   3   28.35    3.63
  -8  11   3   22.49    3.20
  -7  11   3   10.21    1.81
  -6  11   3    7.16    1.47
  -5  11   3   27.73    2.60
  -4  11   3   11.47    2.17
  -3  11   3   69.08    4.73
  -2  11   3    4.98    1.56
  -1  11   3    3.93    1.58
   0  11   3   12.84    1.89
   1  11   3   29.92    2.85
   2  11   3   10.99    2.36
   3  11   3    0.15    1.91
 -13  12   3   17.32    5.01
 -12  12   3   10.50    2.72
 -11  12   3   27.28    3.85
 -10  12   3    2.13    1.60
  -9  12   3    0.14    1.03
  -8  12   3   13.75    2.08
  -7  12   3   14.68    2.19
  -6  12   3   10.58    1.80
  -5  12   3    2.23    1.34
  -4  12   3   10.01    2.16
  -3  12   3    0.50    1.13
  -2  12   3    7.29    1.95
  -1  12   3    1.33    1.09
   0  12   3    7.06    1.67
   1  12   3    7.47    2.06
 -13  13   3    1.92    3.25
 -12  13   3    7.95    2.72
 -11  13   3    5.31    2.25
 -10  13   3   12.18    2.11
  -9  13   3    6.06    1.64
  -8  13   3    4.14    1.48
  -7  13   3   38.06    3.44
  -6  13   3    2.98    1.63
  -5  13   3    2.87    1.58
  -4  13   3    2.52    1.39
  -3  13   3   33.62    3.92
  -2  13   3   12.97    2.57
  -1  13   3   22.19    2.69
   0  13   3    0.84    1.45
 -11  14   3    1.22    1.98
 -10  14   3   14.27    3.18
  -9  14   3    5.65    1.77
  -8  14   3    1.68    1.33
  -7  14   3   21.03    3.42
  -6  14   3   10.30    2.46
  -5  14   3    6.43    1.99
  -4  14   3    6.87    2.23
  -3  14   3    0.31    1.48
  -8  15   3    7.16    3.08
  -7  15   3    2.37    2.53
   7 -14   4    8.88    3.25
   8 -14   4   26.45    5.18
   9 -14   4    1.89    2.38
  10 -14   4   -0.79    2.12
   1 -13   4   10.68    3.32
   2 -13   4    0.92    1.57
   3 -13   4    8.87    3.14
   4 -13   4   42.77    6.11
   5 -13   4   11.77    3.41
   6 -13   4    1.81    2.18
   7 -13   4    3.62    2.26
   8 -13   4    5.55    1.79
   9 -13   4   17.42    2.82
  10 -13   4    2.99    1.55
  11 -13   4    6.44    2.01
   0 -12   4    1.61    1.62
   1 -12   4    2.43    1.59
   2 -12   4   15.75    2.72
   3 -12   4    4.43    1.70
   4 -12   4    0.24    1.11
   5 -12   4    2.36    1.29
   6 -12   4    7.38    1.71
   7 -12   4    6.35    1.73
   8 -12   4    2.51    1.43
   9 -12   4    3.11    1.50
  10 -12   4   53.30    4.61
  11 -12   4    7.69    1.99
  12 -12   4    2.24    1.58
  13 -12   4    9.59    3.63
  -2 -11   4    4.71    1.97
  -1 -11   4    4.92    1.81
   0 -11   4   -0.06    1.36
   1 -11   4   16.47    2.56
   2 -11   4   13.74    2.36
   3 -11   4   29.89    3.15
   4 -11   4    0.45    0.91
   5 -11   4   30.58    3.17
   6 -11   4   43.13    2.94
   7 -11   4    4.78    1.17
   8 -11   4   21.80    2.24
   9 -11   4    3.67    1.14
  10 -11   4    3.37    1.54
  11 -11   4    1.19    1.28
  12 -11   4    1.31    1.35
  13 -11   4    1.26    1.59
  -3 -10   4    3.48    1.84
  -2 -10   4   62.47    5.23
  -1 -10   4    7.19    1.96
   0 -10   4    3.14    1.36
   1 -10   4   11.49    2.08
   2 -10   4   14.04    2.16
   3 -10   4    4.08    1.27
   4 -10   4   19.09    2.45
   5 -10   4   11.77    1.55
   6 -10   4   45.35    2.99
   7 -10   4    4.46    1.13
   8 -10   4    8.12    1.51
   9 -10   4    7.84    1.36
  10 -10   4    3.40    1.18
  11 -10   4   19.04    2.93
  12 -10   4   12.19    2.31
  13 -10   4   14.65    2.69
  14 -10   4    2.28    2.51
  -4  -9   4    8.21    3.22
  -3  -9   4    2.87    1.61
  -2  -9   4    3.74    1.53
  -1  -9   4    8.54    1.94
   0  -9   4    0.72    0.99
   1  -9   4   16.74    1.79
   2  -9   4   43.94    3.57
   3  -9   4   37.12    3.22
   4  -9   4   11.32    1.38
   5  -9   4   24.29    2.10
   6  -9   4   20.23    1.91
   7  -9   4   16.21    1.82
   8  -9   4   12.82    1.69
   9  -9   4    1.85    0.92
  10  -9   4   12.00    2.15
  11  -9   4   11.71    2.33
  12  -9   4    1.79    1.44
  13  -9   4   22.16    3.21
  14  -9   4    4.10    2.50
  -5  -8   4    3.58    2.45
  -4  -8   4    2.67    1.50
  -3  -8   4   14.70    2.49
  -2  -8   4    7.53    1.41
  -1  -8   4   13.13    1.66
   0  -8   4   15.69    1.78
   1  -8   4   39.08    2.69
   2  -8   4   10.46    1.78
   3  -8   4    4.11    1.08
   4  -8   4   17.41    1.65
   5  -8   4   30.46    2.24
   6  -8   4   29.49    2.21
   7  -8   4   65.96    2.96
   8  -8   4   18.16    2.41
   9  -8   4   15.96    2.32
  10  -8   4   14.04    2.31
  11  -8   4   25.27    2.99
  12  -8   4    2.64    1.54
  13  -8   4   13.46    2.58
  14  -8   4    8.40    3.19
  -7  -7   4    4.82    2.86
  -6  -7   4    9.97    3.42
  -5  -7   4    1.75    1.88
  -4  -7   4    3.99    1.19
  -3  -7   4    6.32    1.33
  -2  -7   4   13.97    1.60
  -1  -7   4   65.68    2.88
   0  -7   4   14.23    1.58
   1  -7   4   19.36    2.21
   2  -7   4   19.86    2.21
   3  -7   4   15.69    1.52
   4  -7   4   49.84    2.26
   5  -7   4    7.58    1.14
   6  -7   4   50.30    2.45
   7  -7   4   16.74    2.09
   8  -7   4   44.97    3.59
   9  -7   4   41.75    3.74
  10  -7   4    3.97    1.42
  11  -7   4    0.36    1.04
  12  -7   4    2.29    1.41
  13  -7   4    2.43    1.56
  14  -7   4    8.19    2.36
  -8  -6   4   10.31    4.06
  -7  -6   4    1.22    2.08
  -6  -6   4    3.66    1.48
  -5  -6   4   39.07    3.73
  -4  -6   4   45.44    3.07
  -3  -6   4   20.68    2.07
  -2  -6   4   30.19    2.31
  -1  -6   4   52.33    2.48
   0  -6   4    4.72    0.96
   1  -6   4   60.00    3.10
   2  -6   4   25.09    1.77
   3  -6   4   46.49    2.08
   4  -6   4    9.83    1.20
   5  -6   4   17.48    1.65
   6  -6   4    3.41    1.05
   7  -6   4   14.65    1.99
   8  -6   4    6.22    1.46
   9  -6   4   33.79    3.26
  10  -6   4   18.25    2.55
  11  -6   4   25.43    3.08
  12  -6   4    8.98    2.13
  13  -6   4   11.27    2.38
  14  -6   4   28.73    3.77
  -8  -5   4   14.15    2.74
  -7  -5   4    1.19    1.42
  -6  -5   4   26.56    3.18
  -5  -5   4   11.91    2.06
  -4  -5   4   20.86    2.00
  -3  -5   4   25.13    2.12
  -2  -5   4    6.24    1.12
  -1  -5   4   17.03    1.60
   0  -5   4   19.26    1.99
   1  -5   4   25.29    1.53
   2  -5   4   68.95    2.41
   3  -5   4   52.31    2.14
   4  -5   4   50.68    2.17
   5  -5   4   19.52    2.05
   6  -5   4   67.12    3.33
   7  -5   4   25.50    2.65
   8  -5   4    9.70    1.32
   9  -5   4   10.52    1.46
  10  -5   4   12.48    1.77
  11  -5   4   39.68    3.12
  12  -5   4    5.51    1.40
  13  -5   4    2.96    1.39
  14  -5   4   -0.47    1.44
 -10  -4   4   11.30    3.99
  -9  -4   4   26.61    3.64
  -8  -4   4    1.26    1.42
  -7  -4   4    1.22    1.25
  -6  -4   4   18.47    2.54
  -5  -4   4    8.99    1.86
  -4  -4   4   16.06    1.70
  -3  -4   4   48.24    2.45
  -2  -4   4   10.43    1.29
  -1  -4   4   45.54    2.11
   0  -4   4   21.83    2.03
   1  -4   4   26.90    1.49
   2  -4   4  124.70    3.41
   3  -4   4   60.15    2.28
   4  -4   4   25.78    2.19
   5  -4   4   28.21    1.68
   6  -4   4   24.99    1.85
   7  -4   4   15.57    1.58
   8  -4   4   14.80    1.67
   9  -4   4   19.94    2.06
  10  -4   4   46.48    3.27
  11  -4   4    5.65    1.45
  12  -4   4    1.55    1.11
  13  -4   4   12.32    1.97
  14  -4   4    1.43    1.69
 -10  -3   4   12.78    2.87
  -9  -3   4    4.33    1.93
  -8  -3   4   21.56    3.09
  -7  -3   4    3.41    1.20
  -6  -3   4   38.36    3.54
  -5  -3   4    5.96    1.49
  -4  -3   4   14.98    1.57
  -3  -3   4   44.53    2.26
  -2  -3   4   51.92    2.23
  -1  -3   4   61.40    2.30
   0  -3   4   71.60    2.13
   1  -3   4   12.93    1.09
   2  -3   4   35.53    1.24
   3  -3   4   72.25    2.20
   4  -3   4   30.38    1.63
   5  -3   4   74.96    2.59
   6  -3   4   49.39    2.24
   7  -3   4   50.67    2.69
   8  -3   4   29.04    2.33
   9  -3   4   21.03    2.16
  10  -3   4    7.49    1.51
  11  -3   4   13.38    2.00
  12  -3   4    2.93    1.22
  13  -3   4    2.54    1.41
 -11  -2   4    0.92    1.82
 -10  -2   4    9.97    2.46
  -9  -2   4    8.88    2.29
  -8  -2   4   14.90    2.56
  -7  -2   4   38.33    2.98
  -6  -2   4    9.15    1.52
  -5  -2   4   21.21    2.39
  -4  -2   4   22.20    1.74
  -3  -2   4   67.71    2.53
  -2  -2   4  126.94    3.55
  -1  -2   4   33.63    1.72
   0  -2   4    4.27    0.61
   1  -2   4   34.66    1.27
   2  -2   4    3.94    0.63
   3  -2   4   13.03    1.16
   4  -2   4  126.56    3.57
   5  -2   4   60.90    2.86
   6  -2   4    9.73    1.55
   7  -2   4    8.87    1.60
   8  -2   4   37.74    3.23
   9  -2   4   11.96    2.03
  10  -2   4    6.92    1.71
  11  -2   4    2.88    1.46
  12  -2   4   53.64    4.65
  13  -2   4    5.41    2.11
 -12  -1   4    5.91    3.78
 -11  -1   4    1.49    1.64
 -10  -1   4   12.96    2.68
  -9  -1   4   12.22    2.47
  -8  -1   4   15.67    2.03
  -7  -1   4   38.97    3.02
  -6  -1   4   19.39    2.02
  -5  -1   4   56.71    3.22
  -4  -1   4   27.17    1.91
  -3  -1   4   26.76    1.60
  -2  -1   4   11.88    1.13
  -1  -1   4   33.57    1.29
   0  -1   4   13.36    1.03
   1  -1   4   13.14    1.35
   2  -1   4   35.65    1.61
   3  -1   4   36.85    1.57
   4  -1   4   64.94    2.21
   5  -1   4   46.97    2.67
   6  -1   4   17.48    2.12
   7  -1   4   54.51    3.54
   8  -1   4   67.82    3.83
   9  -1   4   15.00    2.43
  10  -1   4    6.48    1.86
  11  -1   4    5.69    1.83
  12  -1   4    5.76    2.06
 -12   0   4    2.78    2.13
 -11   0   4    3.14    1.97
 -10   0   4    3.74    1.86
  -9   0   4    1.96    1.20
  -8   0   4   16.87    2.14
  -7   0   4   14.47    1.79
  -6   0   4    5.75    1.14
  -5   0   4   22.54    2.37
  -4   0   4   25.31    2.37
  -3   0   4   70.89    2.31
  -2   0   4    3.82    0.65
  -1   0   4   12.58    1.30
   0   0   4  656.83   14.83
   2   0   4    5.02    1.07
   3   0   4   72.10    2.47
   4   0   4   23.82    1.78
   5   0   4   19.43    1.67
   6   0   4    5.25    1.37
   7   0   4   17.73    2.30
   8   0   4   17.05    2.46
   9   0   4    2.41    1.43
  10   0   4    1.61    1.39
  11   0   4    1.48    1.45
  12   0   4    3.49    1.77
 -12   1   4    8.35    3.43
 -11   1   4    4.97    2.02
 -10   1   4    9.57    1.84
  -9   1   4   17.60    2.25
  -8   1   4   67.26    3.48
  -7   1   4   51.12    3.03
  -6   1   4   18.03    1.77
  -5   1   4   48.98    2.56
  -4   1   4   63.68    2.99
  -3   1   4   35.62    1.50
  -2   1   4   33.64    1.53
  -1   1   4   13.65    1.33
   3   1   4   28.28    1.66
   4   1   4   25.31    2.28
   5   1   4   65.02    2.65
   6   1   4   14.00    1.56
   7   1   4   40.04    3.59
   8   1   4   12.31    2.14
   9   1   4    9.28    2.18
  10   1   4   23.11    3.14
  11   1   4    1.59    1.49
 -13   2   4    2.57    2.99
 -12   2   4   48.45    7.29
 -11   2   4    5.10    1.99
 -10   2   4    5.74    1.50
  -9   2   4   13.94    2.01
  -8   2   4   32.65    2.75
  -7   2   4    6.72    1.29
  -6   2   4   10.83    1.51
  -5   2   4   58.21    2.47
  -4   2   4  126.93    3.69
  -3   2   4   12.89    0.87
  -2   2   4    2.83    0.75
  -1   2   4   37.48    2.99
   2   2   4  128.11    4.27
   3   2   4   74.54    2.55
   4   2   4   20.65    2.18
   5   2   4   30.89    2.81
   6   2   4    7.63    1.26
   7   2   4   39.66    2.93
   8   2   4   12.96    2.33
   9   2   4   12.96    2.40
  10   2   4    7.33    1.87
  11   2   4    0.77    1.53
 -13   3   4    2.26    2.95
 -12   3   4    3.49    1.88
 -11   3   4   17.27    3.06
 -10   3   4    2.79    1.63
  -9   3   4   20.50    2.96
  -8   3   4   21.33    2.80
  -7   3   4   53.07    2.91
  -6   3   4   52.33    2.54
  -5   3   4   72.32    2.68
  -4   3   4   29.41    1.77
  -3   3   4   72.02    2.45
  -2   3   4   33.81    1.72
  -1   3   4   11.76    1.49
   0   3   4   72.21    3.08
   1   3   4   66.36    2.33
   2   3   4   56.80    2.09
   3   3   4   46.57    2.24
   4   3   4   13.98    1.96
   5   3   4    5.78    1.40
   6   3   4   37.71    3.40
   7   3   4    3.67    1.14
   8   3   4   22.89    3.04
   9   3   4    4.22    1.71
  10   3   4   15.55    2.91
 -13   4   4    9.95    2.67
 -12   4   4    1.48    1.84
 -11   4   4    3.83    1.82
 -10   4   4   45.53    4.44
  -9   4   4   17.80    2.81
  -8   4   4   10.73    1.93
  -7   4   4   19.08    2.51
  -6   4   4   21.36    2.53
  -5   4   4   31.40    2.82
  -4   4   4   29.12    1.64
  -3   4   4   63.38    2.18
  -2   4   4  137.10    3.40
  -1   4   4   28.18    1.87
   0   4   4   32.30    2.50
   1   4   4   52.68    2.10
   2   4   4    8.52    1.39
   3   4   4   56.72    2.50
   4   4   4   19.47    2.33
   5   4   4   10.15    1.86
   6   4   4   18.29    2.46
   7   4   4    1.42    0.97
   8   4   4    1.37    1.24
   9   4   4   22.01    3.11
 -13   5   4    4.92    2.20
 -12   5   4    7.51    2.41
 -11   5   4   44.22    4.67
 -10   5   4   12.45    2.51
  -9   5   4    9.44    2.15
  -8   5   4    4.92    1.57
  -7   5   4   20.22    2.53
  -6   5   4   62.21    3.72
  -5   5   4   21.23    2.33
  -4   5   4   48.81    2.31
  -3   5   4   50.50    2.32
  -2   5   4   72.13    2.53
  -1   5   4   29.33    1.94
   0   5   4   22.41    1.77
   1   5   4   13.21    1.80
   2   5   4    7.28    1.22
   3   5   4   25.33    2.82
   4   5   4   25.31    2.77
   5   5   4   12.69    2.16
   6   5   4   31.64    3.37
   7   5   4    4.36    1.32
   8   5   4   14.67    2.12
   9   5   4    4.99    2.97
 -14   6   4   22.96    3.80
 -13   6   4    8.05    2.31
 -12   6   4    7.04    1.86
 -11   6   4   24.22    2.84
 -10   6   4   16.81    2.34
  -9   6   4   36.07    3.14
  -8   6   4    8.79    1.36
  -7   6   4   15.64    1.91
  -6   6   4    5.74    1.15
  -5   6   4   14.41    1.65
  -4   6   4   12.33    1.36
  -3   6   4   54.68    3.03
  -2   6   4   28.18    2.59
  -1   6   4   66.22    2.65
   0   6   4    4.22    1.23
   1   6   4   59.80    3.29
   2   6   4   36.86    2.66
   3   6   4   20.88    2.63
   4   6   4   47.34    3.92
   5   6   4   36.62    3.64
   6   6   4    5.64    1.75
   7   6   4    1.37    1.38
   8   6   4    5.08    1.92
 -14   7   4    9.38    2.92
 -13   7   4    4.02    2.16
 -12   7   4    1.49    1.44
 -11   7   4    1.45    1.21
 -10   7   4    4.53    1.49
  -9   7   4   39.04    3.33
  -8   7   4   44.80    3.27
  -7   7   4   15.59    1.87
  -6   7   4   53.88    2.98
  -5   7   4    6.75    1.58
  -4   7   4   48.79    3.35
  -3   7   4   17.20    2.17
  -2   7   4   22.12    1.95
  -1   7   4   11.67    1.93
   0   7   4   17.17    2.26
   1   7   4   71.03    3.84
   2   7   4    8.97    1.44
   3   7   4    6.45    1.63
   4   7   4    4.13    1.56
   5   7   4    3.84    1.53
   6   7   4   14.33    2.63
   7   7   4    8.69    2.25
 -14   8   4    4.25    2.34
 -13   8   4    9.74    2.79
 -12   8   4    1.97    1.42
 -11   8   4   22.32    2.70
 -10   8   4   13.89    2.08
  -9   8   4   20.65    2.36
  -8   8   4   15.39    1.94
  -7   8   4   65.69    4.46
  -6   8   4   34.69    3.47
  -5   8   4   23.85    2.78
  -4   8   4   16.39    2.25
  -3   8   4    5.37    1.16
  -2   8   4    8.72    1.84
  -1   8   4   35.02    3.43
   0   8   4   17.81    2.50
   1   8   4   10.13    1.59
   2   8   4    5.58    1.67
   3   8   4   17.23    2.72
   4   8   4    2.48    1.41
   5   8   4    1.46    1.33
   6   8   4   30.43    3.80
 -14   9   4    5.82    3.90
 -13   9   4   22.50    3.71
 -12   9   4    6.16    1.82
 -11   9   4   12.49    2.09
 -10   9   4   11.11    2.64
  -9   9   4    1.19    1.69
  -8   9   4   11.87    2.35
  -7   9   4    9.77    2.14
  -6   9   4   21.40    2.86
  -5   9   4   21.85    2.67
  -4   9   4    7.68    1.37
  -3   9   4   41.27    3.75
  -2   9   4   39.34    3.69
  -1   9   4   20.78    2.66
   0   9   4    1.07    1.02
   1   9   4   11.27    1.78
   2   9   4    2.56    1.28
   3   9   4    6.36    1.94
   4   9   4   10.25    2.30
   5   9   4    2.19    2.46
 -13  10   4   14.32    3.28
 -12  10   4    7.30    2.46
 -11  10   4   25.42    3.77
 -10  10   4    6.27    1.99
  -9  10   4    5.76    2.02
  -8  10   4    7.04    1.92
  -7  10   4    7.22    1.94
  -6  10   4   41.01    4.01
  -5  10   4   11.22    1.78
  -4  10   4   12.56    2.33
  -3  10   4    4.18    1.59
  -2  10   4   13.61    2.37
  -1  10   4   11.26    2.11
   0  10   4    3.54    1.57
   1  10   4    5.71    1.92
   2  10   4   59.46    5.00
   3  10   4    1.70    1.49
 -13  11   4    0.98    2.13
 -12  11   4    3.63    2.12
 -11  11   4   -0.48    1.53
 -10  11   4    5.85    2.09
  -9  11   4    2.40    1.55
  -8  11   4   17.58    2.98
  -7  11   4    7.35    1.61
  -6  11   4   35.60    3.08
  -5  11   4   27.21    3.46
  -4  11   4    0.66    1.24
  -3  11   4   25.94    3.36
  -2  11   4   10.76    2.25
  -1  11   4   22.48    3.10
   0  11   4    0.05    1.00
   1  11   4    6.02    1.95
   2  11   4    5.69    2.01
 -13  12   4    2.82    3.25
 -12  12   4    2.77    2.16
 -11  12   4    5.99    2.32
 -10  12   4   58.53    5.59
  -9  12   4    1.67    1.60
  -8  12   4    3.30    1.43
  -7  12   4    4.81    1.46
  -6  12   4    7.83    2.21
  -5  12   4    3.33    1.58
  -4  12   4    0.99    1.21
  -3  12   4    2.94    1.51
  -2  12   4    9.59    2.30
  -1  12   4    1.77    1.23
   0  12   4    2.55    1.68
 -11  13   4    5.52    2.45
 -10  13   4    0.82    1.39
  -9  13   4   14.91    2.46
  -8  13   4    3.08    1.49
  -7  13   4    9.31    2.37
  -6  13   4    2.05    1.64
  -5  13   4   10.75    2.59
  -4  13   4   20.38    3.27
  -3  13   4    8.52    2.30
  -2  13   4    0.69    1.51
  -1  13   4    7.18    3.20
 -10  14   4    1.52    1.77
  -9  14   4    3.21    1.88
  -8  14   4   24.76    5.18
  -7  14   4    5.98    2.12
  -6  14   4    4.94    2.07
  -5  14   4    5.15    3.21
   3 -13   5    3.18    2.21
   4 -13   5    8.95    2.99
   5 -13   5    0.04    1.36
   6 -13   5    7.87    3.21
   7 -13   5    1.01    2.19
   8 -13   5    2.07    2.36
   1 -12   5   -0.31    1.37
   2 -12   5    5.56    1.88
   3 -12   5    0.76    1.43
   4 -12   5   14.20    2.53
   5 -12   5    6.87    1.91
   6 -12   5   15.69    2.58
   7 -12   5   11.00    2.22
   8 -12   5   36.36    3.94
   9 -12   5    2.99    1.62
  10 -12   5    2.24    1.49
  11 -12   5    0.26    1.49
  -1 -11   5    0.43    1.51
   0 -11   5   12.35    2.63
   1 -11   5   15.15    2.63
   2 -11   5   11.07    2.26
   3 -11   5   14.67    2.59
   4 -11   5    7.08    1.87
   5 -11   5   20.69    2.76
   6 -11   5    7.70    1.90
   7 -11   5   11.72    2.30
   8 -11   5   33.90    2.91
   9 -11   5    2.48    1.19
  10 -11   5    6.54    1.59
  11 -11   5    9.81    1.97
  12 -11   5    3.33    1.74
  -2 -10   5    3.70    1.85
  -1 -10   5    7.82    2.13
   0 -10   5   39.74    3.95
   1 -10   5   34.33    3.76
   2 -10   5    8.07    1.53
   3 -10   5   14.10    2.30
   4 -10   5   11.48    2.13
   5 -10   5    0.02    1.01
   6 -10   5    7.82    1.79
   7 -10   5    5.16    1.28
   8 -10   5   23.27    2.50
   9 -10   5    8.62    1.68
  10 -10   5   41.68    3.35
  11 -10   5   15.16    2.18
  12 -10   5    3.59    1.81
  -3  -9   5    0.62    1.96
  -2  -9   5    2.64    1.44
  -1  -9   5    5.54    1.74
   0  -9   5    0.74    0.98
   1  -9   5   12.43    1.71
   2  -9   5   12.38    2.14
   3  -9   5    7.08    1.70
   4  -9   5   45.59    3.86
   5  -9   5   12.61    2.16
   6  -9   5   16.37    1.88
   7  -9   5    4.14    1.15
   8  -9   5   20.86    2.21
   9  -9   5   -0.09    0.88
  10  -9   5   29.34    3.43
  11  -9   5    6.79    1.93
  12  -9   5    0.59    1.51
  13  -9   5    5.35    2.92
  -5  -8   5    0.38    2.44
  -4  -8   5   31.46    5.51
  -3  -8   5   38.02    5.58
  -2  -8   5   21.39    2.31
  -1  -8   5   23.91    2.39
   0  -8   5    2.73    0.97
   1  -8   5   15.92    1.87
   2  -8   5   47.93    3.81
   3  -8   5   34.47    3.29
   4  -8   5   52.08    4.00
   5  -8   5   14.14    1.72
   6  -8   5   42.75    2.88
   7  -8   5    3.43    0.99
   8  -8   5    2.07    0.97
   9  -8   5    9.92    2.07
  10  -8   5    6.41    1.76
  11  -8   5    9.36    2.11
  12  -8   5    9.87    2.28
  13  -8   5    0.38    1.51
  -6  -7   5    1.26    2.14
  -5  -7   5    5.96    1.94
  -4  -7   5    8.36    1.95
  -3  -7   5    4.90    1.56
  -2  -7   5    3.12    1.03
  -1  -7   5    2.41    0.99
   0  -7   5   19.70    2.01
   1  -7   5   21.85    2.54
   2  -7   5   43.44    3.58
   3  -7   5    9.15    1.61
   4  -7   5   11.82    1.87
   5  -7   5   20.78    1.99
   6  -7   5   95.43    3.61
   7  -7   5   19.44    2.44
   8  -7   5   12.42    2.09
   9  -7   5    7.50    1.73
  10  -7   5   14.70    2.52
  11  -7   5    8.31    2.13
  12  -7   5    4.55    1.82
  13  -7   5   11.91    2.63
  -7  -6   5    8.52    2.41
  -6  -6   5   12.74    2.66
  -5  -6   5    5.90    1.83
  -4  -6   5    5.08    1.63
  -3  -6   5   21.78    2.29
  -2  -6   5   39.56    2.86
  -1  -6   5   90.89    3.56
   0  -6   5   -0.10    0.64
   1  -6   5   18.78    2.31
   2  -6   5    3.25    1.13
   3  -6   5   20.14    2.31
   4  -6   5    1.67    0.73
   5  -6   5    5.30    1.11
   6  -6   5    0.99    0.94
   7  -6   5   19.62    2.48
   8  -6   5   43.66    3.72
   9  -6   5    2.28    1.27
  10  -6   5   10.72    2.15
  11  -6   5   19.88    2.94
  12  -6   5   16.80    2.84
  13  -6   5    0.09    1.34
  -8  -5   5    0.50    1.57
  -7  -5   5    4.21    1.71
  -6  -5   5   19.14    2.93
  -5  -5   5   -0.23    0.95
  -4  -5   5   12.47    2.29
  -3  -5   5    9.88    1.47
  -2  -5   5   21.45    1.99
  -1  -5   5    4.51    1.04
   0  -5   5   64.35    2.80
   1  -5   5   17.04    2.14
   2  -5   5   71.79    3.59
   3  -5   5   23.88    1.86
   4  -5   5   70.50    2.82
   5  -5   5   71.82    3.58
   6  -5   5   19.57    2.34
   7  -5   5   42.02    3.56
   8  -5   5   34.00    3.36
   9  -5   5   47.76    4.20
  10  -5   5    0.41    1.11
  11  -5   5    6.13    1.93
  12  -5   5    7.52    2.20
  13  -5   5    2.00    1.79
  -9  -4   5    7.46    2.49
  -8  -4   5    9.54    2.53
  -7  -4   5    8.31    2.19
  -6  -4   5    6.74    1.90
  -5  -4   5   46.67    4.13
  -4  -4   5   44.99    3.87
  -3  -4   5   13.02    2.07
  -2  -4   5    0.97    0.64
  -1  -4   5   73.85    2.88
   0  -4   5    1.25    0.77
   1  -4   5   68.38    3.38
   2  -4   5    5.69    0.91
   3  -4   5   20.47    1.69
   4  -4   5    0.51    0.64
   5  -4   5   14.61    1.94
   6  -4   5    3.08    1.21
   7  -4   5    6.04    1.53
   8  -4   5   42.68    3.74
   9  -4   5    7.98    1.84
  10  -4   5    7.95    1.93
  11  -4   5   11.79    2.51
  12  -4   5   32.70    3.93
  13  -4   5    5.38    2.87
  -9  -3   5    0.20    1.61
  -8  -3   5   11.81    2.37
  -7  -3   5   12.41    1.96
  -6  -3   5    7.18    1.85
  -5  -3   5   34.37    3.50
  -4  -3   5    9.29    1.84
  -3  -3   5   16.96    2.23
  -2  -3   5   22.70    1.94
  -1  -3   5   18.70    1.71
   0  -3   5   47.81    2.69
   1  -3   5   72.76    3.41
   2  -3   5   81.23    2.77
   3  -3   5   44.88    2.57
   4  -3   5   72.82    3.43
   5  -3   5   71.95    3.64
   6  -3   5   19.23    2.32
   7  -3   5   15.86    1.70
   8  -3   5    9.63    1.50
   9  -3   5   20.49    2.24
  10  -3   5    2.48    1.05
  11  -3   5   38.75    3.30
  12  -3   5   -0.56    1.14
  13  -3   5   -2.24    1.79
 -10  -2   5    5.09    2.21
  -9  -2   5    6.84    2.18
  -8  -2   5    6.91    1.68
  -7  -2   5    8.06    1.53
  -6  -2   5   49.67    4.18
  -5  -2   5   44.80    3.75
  -4  -2   5    4.49    1.21
  -3  -2   5   70.27    3.66
  -2  -2   5    5.41    0.97
  -1  -2   5   82.94    2.89
   0  -2   5   49.31    2.64
   1  -2   5   14.08    1.25
   2  -2   5   49.58    2.51
   3  -2   5   80.50    2.71
   4  -2   5    5.68    0.98
   5  -2   5   20.58    1.84
   6  -2   5    0.74    0.68
   7  -2   5   21.21    2.51
   8  -2   5   38.22    3.52
   9  -2   5    2.68    1.26
  10  -2   5   20.98    2.99
  11  -2   5    5.82    1.82
  12  -2   5    2.23    1.32
 -11  -1   5    3.41    2.13
 -10  -1   5   10.68    2.62
  -9  -1   5   33.42    3.25
  -8  -1   5    9.55    1.73
  -7  -1   5   12.01    1.89
  -6  -1   5   16.66    2.08
  -5  -1   5   17.30    2.36
  -4  -1   5   17.38    2.25
  -3  -1   5   67.77    3.47
  -2  -1   5   74.02    2.70
  -1  -1   5   18.11    1.57
   0  -1   5   47.43    1.91
   1  -1   5   46.78    2.00
   2  -1   5   17.74    1.47
   3  -1   5   86.93    2.95
   4  -1   5   15.21    1.87
   5  -1   5   80.09    3.68
   6  -1   5    4.20    1.28
   7  -1   5   93.24    4.49
   8  -1   5    3.58    1.44
   9  -1   5   23.67    2.96
  10  -1   5    6.81    1.97
  11  -1   5    7.10    2.12
  12  -1   5   -1.38    1.95
 -11   0   5    8.61    3.22
 -10   0   5   39.09    3.54
  -9   0   5    0.03    1.08
  -8   0   5    2.42    1.13
  -7   0   5   15.51    2.01
  -6   0   5    0.47    0.83
  -5   0   5   69.82    3.71
  -4   0   5   -0.36    0.77
  -3   0   5   47.63    3.08
  -2   0   5   50.29    2.07
  -1   0   5   46.50    1.71
   0   0   5    0.72    0.46
   1   0   5   48.11    2.51
   2   0   5   53.34    2.70
   3   0   5   45.24    2.17
   4   0   5   -0.07    0.67
   5   0   5   70.14    3.69
   6   0   5    0.83    0.92
   7   0   5   18.35    2.45
   8   0   5    5.71    1.65
   9   0   5   -0.62    0.98
  10   0   5   38.74    4.06
  11   0   5    6.45    2.11
 -11   1   5    6.42    3.34
 -10   1   5    6.52    2.24
  -9   1   5   20.94    2.54
  -8   1   5    3.48    1.24
  -7   1   5   95.48    3.93
  -6   1   5    4.64    1.20
  -5   1   5   72.05    3.20
  -4   1   5   21.14    2.35
  -3   1   5   80.35    3.61
  -2   1   5   15.47    1.36
  -1   1   5   48.20    2.04
   2   1   5   81.40    5.21
   3   1   5   74.24    3.36
   4   1   5   14.95    1.57
   5   1   5   21.46    2.48
   6   1   5    9.55    1.90
   7   1   5   15.31    2.38
   8   1   5    8.61    2.02
   9   1   5   25.61    3.29
  10   1   5   11.48    2.39
  11   1   5    3.04    2.24
 -12   2   5    2.01    2.54
 -11   2   5    1.20    1.79
 -10   2   5   18.40    3.12
  -9   2   5    1.57    1.50
  -8   2   5   44.89    4.25
  -7   2   5   19.99    2.09
  -6   2   5    2.15    0.94
  -5   2   5   21.32    2.01
  -4   2   5    3.55    0.90
  -3   2   5   77.31    3.45
  -2   2   5   49.05    2.00
  -1   2   5   20.29    2.00
   2   2   5    7.28    1.29
   3   2   5   77.18    3.69
   4   2   5    3.70    1.26
   5   2   5   46.62    2.75
   6   2   5   37.65    3.55
   7   2   5    9.24    2.04
   8   2   5    4.76    1.62
   9   2   5    7.62    2.08
  10   2   5    1.69    1.59
 -12   3   5    1.15    1.77
 -11   3   5   36.31    4.31
 -10   3   5    3.49    1.75
  -9   3   5   16.60    2.86
  -8   3   5   12.65    2.35
  -7   3   5   14.76    2.42
  -6   3   5   17.98    2.57
  -5   3   5   75.25    3.99
  -4   3   5   72.16    2.85
  -3   3   5   49.62    2.36
  -2   3   5   83.36    2.87
  -1   3   5   77.03    3.39
   0   3   5   50.22    3.84
   1   3   5   21.58    2.32
   2   3   5   17.93    1.98
   3   3   5   20.34    2.39
   4   3   5    7.81    1.66
   5   3   5   39.97    3.44
   6   3   5    3.65    1.44
   7   3   5   16.45    2.62
   8   3   5   11.90    2.42
   9   3   5    2.27    1.41
 -13   4   5    3.03    3.48
 -12   4   5   36.01    4.62
 -11   4   5   11.39    2.60
 -10   4   5    7.14    2.25
  -9   4   5   14.20    2.62
  -8   4   5   41.72    4.09
  -7   4   5    7.17    1.73
  -6   4   5    2.61    1.26
  -5   4   5   11.21    1.96
  -4   4   5    0.54    0.87
  -3   4   5   20.05    2.31
  -2   4   5    6.53    1.02
  -1   4   5   70.73    2.72
   0   4   5    0.66    0.74
   1   4   5   77.51    2.84
   2   4   5    1.24    0.76
   3   4   5   16.71    2.26
   4   4   5   46.56    3.88
   5   4   5   52.39    4.13
   6   4   5   12.81    2.21
   7   4   5   10.77    2.32
   8   4   5    6.93    2.12
 -13   5   5    0.86    2.02
 -12   5   5   10.92    2.86
 -11   5   5    5.87    2.21
 -10   5   5    0.26    1.51
  -9   5   5   47.44    4.55
  -8   5   5   36.94    3.85
  -7   5   5   36.89    3.60
  -6   5   5   18.68    2.60
  -5   5   5   75.92    3.88
  -4   5   5   68.73    3.52
  -3   5   5   25.32    2.10
  -2   5   5   80.61    2.95
  -1   5   5   14.63    1.91
   0   5   5   67.75    2.78
   1   5   5    4.77    1.33
   2   5   5   18.75    1.91
   3   5   5    8.76    1.92
   4   5   5   10.12    2.01
   5   5   5   -0.13    0.94
   6   5   5   17.86    2.64
   7   5   5    5.21    1.79
   8   5   5    1.62    1.54
 -13   6   5    1.37    2.07
 -12   6   5   17.69    2.72
 -11   6   5   17.27    2.72
 -10   6   5    7.25    1.75
  -9   6   5    2.21    1.56
  -8   6   5   46.86    4.30
  -7   6   5   17.76    2.13
  -6   6   5    0.54    0.80
  -5   6   5    6.54    1.32
  -4   6   5   -0.29    0.82
  -3   6   5   18.11    2.28
  -2   6   5    3.24    1.14
  -1   6   5   22.70    2.06
   0   6   5    0.55    0.89
   1   6   5  103.68    4.67
   2   6   5   40.01    3.79
   3   6   5   20.04    2.76
   4   6   5    6.18    1.77
   5   6   5    3.89    1.62
   6   6   5   13.10    2.38
   7   6   5    8.29    2.22
 -13   7   5   10.88    3.12
 -12   7   5    3.57    1.80
 -11   7   5    6.55    1.96
 -10   7   5   18.86    2.51
  -9   7   5   11.96    1.96
  -8   7   5   13.77    1.92
  -7   7   5   16.43    2.00
  -6   7   5   93.61    4.94
  -5   7   5   22.41    2.88
  -4   7   5   13.19    2.12
  -3   7   5    8.35    1.71
  -2   7   5   46.07    3.02
  -1   7   5   12.24    2.02
   0   7   5   16.10    2.37
   1   7   5    2.75    1.19
   2   7   5    3.22    1.44
   3   7   5    3.97    1.57
   4   7   5   14.13    2.44
   5   7   5    4.72    1.77
   6   7   5    1.13    1.40
 -13   8   5    1.23    2.27
 -12   8   5   12.84    2.44
 -11   8   5   12.96    2.40
 -10   8   5    5.51    1.71
  -9   8   5    5.86    2.00
  -8   8   5    1.75    1.43
  -7   8   5    2.31    1.50
  -6   8   5   44.98    4.30
  -5   8   5    8.34    1.91
  -4   8   5   47.57    4.00
  -3   8   5   37.08    2.88
  -2   8   5   53.38    4.44
  -1   8   5   11.02    2.04
   0   8   5    2.82    1.34
   1   8   5   22.57    3.10
   2   8   5   19.81    2.90
   3   8   5   32.12    3.59
   4   8   5   36.11    3.92
   5   8   5    0.35    1.40
 -13   9   5    8.33    4.10
 -12   9   5    1.14    2.05
 -11   9   5    3.53    2.00
 -10   9   5   24.11    3.66
  -9   9   5   -0.86    1.27
  -8   9   5   17.81    2.76
  -7   9   5    2.87    1.53
  -6   9   5   19.02    2.87
  -5   9   5   10.74    2.23
  -4   9   5   49.15    3.48
  -3   9   5    4.65    1.69
  -2   9   5   10.16    2.12
  -1   9   5    7.38    1.74
   0   9   5    0.14    1.14
   1   9   5    6.65    1.90
   2   9   5    3.37    1.59
   3   9   5    1.21    1.40
   4   9   5    6.14    3.01
 -13  10   5    2.93    3.43
 -12  10   5    3.67    2.06
 -11  10   5    6.28    2.46
 -10  10   5   37.98    4.62
  -9  10   5    4.74    2.03
  -8  10   5   19.24    3.19
  -7  10   5    3.92    1.72
  -6  10   5    8.28    2.09
  -5  10   5    0.30    0.92
  -4  10   5   11.16    2.27
  -3  10   5   12.29    2.54
  -2  10   5    3.03    1.49
  -1  10   5   27.33    3.36
   0  10   5   39.04    3.34
   1  10   5    6.34    2.08
   2  10   5    4.34    1.81
 -12  11   5    2.61    3.23
 -11  11   5    8.90    2.62
 -10  11   5   12.52    2.85
  -9  11   5    0.57    1.63
  -8  11   5   32.14    4.00
  -7  11   5    8.48    2.05
  -6  11   5    4.58    1.44
  -5  11   5   21.23    3.16
  -4  11   5    9.06    2.35
  -3  11   5    6.89    2.05
  -2  11   5   10.29    2.34
  -1  11   5   14.95    2.71
   0  11   5   11.91    2.55
 -11  12   5    0.11    2.00
 -10  12   5    6.12    2.43
  -9  12   5   -0.25    1.51
  -8  12   5   30.19    3.26
  -7  12   5    8.97    2.38
  -6  12   5   11.05    2.48
  -5  12   5    4.98    2.01
  -4  12   5    9.75    2.38
  -3  12   5    0.03    1.43
  -2  12   5    3.77    1.82
  -1  12   5    5.47    3.03
  -9  13   5    6.94    2.33
  -8  13   5    2.04    1.72
  -7  13   5    2.91    1.80
  -6  13   5    8.70    2.42
  -5  13   5    0.83    1.51
  -4  13   5    9.11    3.50
   4 -12   6    5.35    2.85
   5 -12   6    4.79    1.91
   6 -12   6   15.56    2.85
   7 -12   6    4.69    2.67
   8 -12   6    9.14    3.08
   9 -12   6    0.52    2.04
   1 -11   6   15.61    2.82
   2 -11   6    2.85    1.68
   3 -11   6    1.30    1.45
   4 -11   6   35.47    3.94
   5 -11   6    2.91    1.73
   6 -11   6    2.01    1.45
   7 -11   6   10.59    2.39
   8 -11   6    0.59    1.37
   9 -11   6    3.18    1.76
  10 -11   6    3.10    2.61
   0 -10   6    1.24    1.33
   1 -10   6   -0.03    1.27
   2 -10   6    6.04    1.59
   3 -10   6    5.47    1.75
   4 -10   6    1.55    1.33
   5 -10   6   12.97    2.40
   6 -10   6   13.68    2.55
   7 -10   6    3.47    1.62
   8 -10   6   19.14    3.04
   9 -10   6    2.80    1.65
  10 -10   6    0.38    1.11
  11 -10   6   15.14    2.80
  -2  -9   6   -0.67    1.59
  -1  -9   6    1.73    1.26
   0  -9   6    8.69    1.67
   1  -9   6   19.00    2.32
   2  -9   6    2.40    1.01
   3  -9   6   19.41    2.73
   4  -9   6    1.96    1.30
   5  -9   6    6.05    1.79
   6  -9   6   13.39    2.39
   7  -9   6    3.64    1.52
   8  -9   6   29.96    2.85
   9  -9   6    9.68    1.81
  10  -9   6    0.14    1.11
  11  -9   6    1.81    1.32
  -3  -8   6    0.94    1.42
  -2  -8   6   18.28    2.82
  -1  -8   6   33.48    3.00
   0  -8   6   15.39    2.08
   1  -8   6   19.78    2.17
   2  -8   6    9.36    1.97
   3  -8   6    6.37    1.80
   4  -8   6    4.33    1.56
   5  -8   6    4.95    1.61
   6  -8   6    0.21    1.06
   7  -8   6   15.42    2.02
   8  -8   6   18.17    2.22
   9  -8   6   17.42    2.30
  10  -8   6    7.56    2.03
  11  -8   6   -0.19    1.29
  12  -8   6    6.99    3.08
  -5  -7   6    0.53    1.53
  -4  -7   6    8.04    2.31
  -3  -7   6    2.89    1.46
  -2  -7   6    3.11    1.51
  -1  -7   6   14.99    1.97
   0  -7   6   11.07    1.68
   1  -7   6    9.57    1.63
   2  -7   6   10.71    2.08
   3  -7   6    9.38    1.90
   4  -7   6   44.72    4.01
   5  -7   6    3.29    1.41
   6  -7   6    1.51    1.12
   7  -7   6    6.29    1.40
   8  -7   6   21.06    2.87
   9  -7   6    1.73    1.34
  10  -7   6    6.26    1.93
  11  -7   6   27.99    3.67
  12  -7   6    3.30    1.80
  -6  -6   6   11.23    2.44
  -5  -6   6    3.32    1.82
  -4  -6   6   17.16    2.91
  -3  -6   6   10.32    2.20
  -2  -6   6    1.51    1.26
  -1  -6   6    2.10    1.00
   0  -6   6    2.25    0.95
   1  -6   6   38.86    3.44
   2  -6   6    4.69    1.45
   3  -6   6   59.34    3.64
   4  -6   6   10.61    1.98
   5  -6   6   28.43    3.09
   6  -6   6    2.82    0.99
   7  -6   6    7.64    1.71
   8  -6   6   11.78    2.22
   9  -6   6   12.88    2.39
  10  -6   6    1.78    1.50
  11  -6   6    5.19    1.96
  12  -6   6    8.19    2.31
  -7  -5   6    2.69    1.79
  -6  -5   6    1.89    1.67
  -5  -5   6    9.24    2.32
  -4  -5   6    8.31    2.07
  -3  -5   6    8.06    1.93
  -2  -5   6    8.21    1.86
  -1  -5   6   31.76    2.60
   0  -5   6   51.14    3.24
   1  -5   6   24.05    2.66
   2  -5   6   29.73    3.01
   3  -5   6   31.76    3.14
   4  -5   6   26.43    2.87
   5  -5   6   45.60    3.03
   6  -5   6   36.77    3.32
   7  -5   6   12.82    2.12
   8  -5   6    3.14    1.46
   9  -5   6    1.88    1.38
  10  -5   6   10.72    2.41
  11  -5   6    2.55    1.58
  12  -5   6    2.51    1.69
  -8  -4   6    6.66    2.30
  -7  -4   6   29.39    3.79
  -6  -4   6    3.50    1.82
  -5  -4   6    3.81    1.62
  -4  -4   6    0.36    1.16
  -3  -4   6   46.38    4.19
  -2  -4   6   12.04    2.12
  -1  -4   6   26.44    2.19
   0  -4   6    2.51    0.87
   2  -4   6    2.47    1.10
   3  -4   6    2.68    1.09
   4  -4   6    2.61    0.86
   5  -4   6   25.89    2.75
   6  -4   6    4.20    1.35
   7  -4   6    8.27    1.85
   8  -4   6    2.87    1.33
   9  -4   6    6.30    1.77
  10  -4   6   23.03    3.26
  11  -4   6   12.40    2.65
  -9  -3   6    1.54    3.14
  -8  -3   6    0.11    1.52
  -7  -3   6    7.14    1.65
  -6  -3   6   15.68    2.66
  -5  -3   6    7.06    1.88
  -4  -3   6    7.53    1.89
  -3  -3   6   48.75    4.05
  -2  -3   6   35.55    3.54
  -1  -3   6    1.97    0.83
   0  -3   6    5.66    1.36
   1  -3   6   18.64    2.16
   2  -3   6   68.67    3.60
   3  -3   6    6.07    1.14
   4  -3   6    4.70    1.23
   5  -3   6   27.84    2.90
   6  -3   6   56.18    4.25
   7  -3   6   62.46    4.23
   8  -3   6    2.93    1.41
   9  -3   6    7.66    2.10
  10  -3   6    5.50    1.94
  11  -3   6    0.63    1.39
  -9  -2   6    2.26    2.11
  -8  -2   6    1.33    1.41
  -7  -2   6    2.61    1.28
  -6  -2   6   10.34    2.26
  -5  -2   6   10.41    2.01
  -4  -2   6    5.70    1.66
  -3  -2   6   21.81    2.72
  -2  -2   6    3.08    1.31
  -1  -2   6   70.72    2.88
   0  -2   6   41.67    2.91
   1  -2   6   19.21    2.21
   2  -2   6   41.21    2.41
   3  -2   6   17.17    2.10
   4  -2   6    5.22    1.34
   5  -2   6   37.78    3.31
   6  -2   6   11.84    1.99
   7  -2   6    4.23    1.50
   8  -2   6    0.36    1.06
   9  -2   6    1.96    1.47
  10  -2   6   11.26    2.51
  11  -2   6    2.50    1.79
 -10  -1   6   13.87    4.72
  -9  -1   6    1.05    1.35
  -8  -1   6   17.78    2.48
  -7  -1   6   17.48    2.29
  -6  -1   6    9.88    1.70
  -5  -1   6   42.27    3.86
  -4  -1   6   22.31    2.86
  -3  -1   6    6.58    1.60
  -2  -1   6   14.51    2.09
  -1  -1   6   19.47    1.82
   0  -1   6   23.33    2.33
   1  -1   6   21.98    2.23
   2  -1   6   23.57    2.30
   3  -1   6   69.04    3.51
   4  -1   6    1.44    0.98
   5  -1   6   25.07    2.90
   6  -1   6   27.81    3.03
   7  -1   6    2.44    1.21
   8  -1   6   12.54    2.32
   9  -1   6   30.44    3.56
  10  -1   6    3.56    1.72
  11  -1   6    0.38    2.12
 -10   0   6    0.87    1.66
  -9   0   6    8.38    2.24
  -8   0   6   14.75    2.24
  -7   0   6    6.51    1.65
  -6   0   6    1.83    1.07
  -5   0   6   49.44    4.16
  -4   0   6    1.11    1.01
  -3   0   6    4.57    1.30
  -2   0   6   42.39    3.54
  -1   0   6   24.92    1.96
   0   0   6    5.90    1.21
   1   0   6   24.14    1.93
   2   0   6   41.51    2.63
   3   0   6    6.40    1.20
   4   0   6    4.19    1.29
   5   0   6   38.76    3.40
   6   0   6    3.79    1.45
   7   0   6   10.44    2.09
   8   0   6   16.55    2.59
   9   0   6    6.96    1.85
  10   0   6    1.37    1.38
 -11   1   6    1.00    2.85
 -10   1   6    2.40    1.89
  -9   1   6   38.68    4.47
  -8   1   6   15.12    2.64
  -7   1   6    1.23    1.14
  -6   1   6   33.20    2.86
  -5   1   6   23.55    2.35
  -4   1   6    0.77    0.98
  -3   1   6   75.50    3.75
  -2   1   6   21.15    2.43
  -1   1   6   26.37    2.01
   0   1   6   26.66    2.46
   1   1   6   21.88    2.29
   2   1   6   15.70    2.09
   3   1   6    4.44    1.31
   4   1   6   26.24    2.80
   5   1   6   45.51    3.89
   6   1   6    8.23    1.84
   7   1   6   23.04    2.98
   8   1   6   16.22    2.70
   9   1   6    4.37    1.83
  10   1   6   15.82    4.28
 -11   2   6    1.31    2.01
 -10   2   6   11.22    2.80
  -9   2   6    1.62    1.65
  -8   2   6    0.10    1.20
  -7   2   6    2.97    1.69
  -6   2   6   10.56    2.12
  -5   2   6   38.70    3.75
  -4   2   6    1.84    0.91
  -3   2   6   22.63    2.48
  -2   2   6   42.75    2.99
  -1   2   6   22.90    1.89
   0   2   6   43.06    4.68
   2   2   6    3.08    1.16
   3   2   6   26.57    2.76
   4   2   6    2.83    1.19
   5   2   6   11.78    2.12
   6   2   6    5.37    1.69
   7   2   6    1.97    1.38
   8   2   6    7.19    1.99
   9   2   6    1.49    1.50
 -12   3   6    7.70    3.86
 -11   3   6    1.33    1.97
 -10   3   6    2.32    1.85
  -9   3   6    8.17    2.22
  -8   3   6    3.36    1.62
  -7   3   6   58.77    4.95
  -6   3   6   48.80    4.52
  -5   3   6   21.98    2.91
  -4   3   6    1.97    1.24
  -3   3   6    3.16    1.23
  -2   3   6   72.41    2.90
  -1   3   6   17.74    1.74
   0   3   6    6.03    1.44
   1   3   6    2.68    1.10
   2   3   6   37.09    3.36
   3   3   6   55.68    3.75
   4   3   6    5.67    2.26
   5   3   6    4.60    1.55
   6   3   6   17.20    2.66
   7   3   6    8.52    2.09
   8   3   6    1.33    1.34
 -12   4   6    4.62    3.80
 -11   4   6    9.14    2.75
 -10   4   6   17.86    3.30
  -9   4   6    3.51    1.82
  -8   4   6    0.45    1.43
  -7   4   6    3.60    1.60
  -6   4   6    3.34    1.46
  -5   4   6   24.30    3.00
  -4   4   6    2.15    1.25
  -3   4   6    2.37    1.14
  -2   4   6    2.66    1.14
  -1   4   6    2.87    0.97
   0   4   6    2.21    1.09
   1   4   6   29.10    2.93
   2   4   6   11.37    1.97
   3   4   6   57.23    4.36
   4   4   6    0.59    1.07
   5   4   6    1.87    1.91
   6   4   6    5.60    1.84
   7   4   6   22.91    3.32
   8   4   6    8.46    3.41
 -12   5   6    2.19    2.31
 -11   5   6    2.54    2.04
 -10   5   6   14.68    2.94
  -9   5   6    4.06    1.99
  -8   5   6    7.25    2.09
  -7   5   6   13.24    2.55
  -6   5   6   41.08    3.92
  -5   5   6   42.44    3.85
  -4   5   6   29.81    3.10
  -3   5   6   35.31    2.76
  -2   5   6   26.94    2.88
  -1   5   6   24.76    2.68
   0   5   6   42.84    3.64
   1   5   6   34.91    3.25
   2   5   6    2.82    1.29
   3   5   6    2.63    1.29
   4   5   6    2.58    1.41
   5   5   6   10.59    3.02
   6   5   6    1.21    1.33
   7   5   6    3.50    2.57
 -12   6   6    9.55    2.44
 -11   6   6    2.25    1.56
 -10   6   6    0.87    1.86
  -9   6   6   16.42    2.99
  -8   6   6    8.54    2.31
  -7   6   6    7.05    1.62
  -6   6   6    2.64    1.11
  -5   6   6   39.13    4.08
  -4   6   6    9.85    2.04
  -3   6   6   49.46    4.12
  -2   6   6    5.66    1.53
  -1   6   6   42.57    3.79
   0   6   6    3.65    1.41
   1   6   6   -1.30    1.37
   2   6   6    0.39    1.18
   3   6   6    8.49    1.96
   4   6   6   16.71    2.71
   5   6   6    1.29    1.43
   6   6   6    8.99    2.51
 -12   7   6    4.37    2.00
 -11   7   6   29.33    3.60
 -10   7   6    8.13    1.98
  -9   7   6    0.49    1.24
  -8   7   6   21.10    3.41
  -7   7   6    8.09    2.25
  -6   7   6    2.21    1.47
  -5   7   6    3.51    1.48
  -4   7   6   65.68    4.34
  -3   7   6    4.20    1.35
  -2   7   6   10.72    2.09
  -1   7   6    9.26    1.92
   0   7   6    7.20    1.81
   1   7   6   16.42    2.69
   2   7   6    1.92    1.39
   3   7   6    2.71    1.53
   4   7   6    9.38    2.24
   5   7   6    1.48    1.54
 -12   8   6   10.63    4.55
 -11   8   6   -0.37    1.81
 -10   8   6    3.99    2.16
  -9   8   6   18.96    3.36
  -8   8   6   20.41    3.16
  -7   8   6   13.44    2.55
  -6   8   6   -0.85    1.08
  -5   8   6    6.45    1.86
  -4   8   6    1.46    1.25
  -3   8   6    4.12    1.58
  -2   8   6    7.27    1.88
  -1   8   6   26.36    3.26
   0   8   6   13.01    2.37
   1   8   6   24.31    3.38
   2   8   6   19.40    3.04
   3   8   6    0.03    1.35
   4   8   6    8.30    3.20
 -11   9   6    2.38    1.98
 -10   9   6    0.94    1.66
  -9   9   6    3.00    1.99
  -8   9   6   27.81    4.04
  -7   9   6    1.88    1.58
  -6   9   6   12.35    2.51
  -5   9   6    4.36    1.80
  -4   9   6    0.01    1.20
  -3   9   6   18.38    2.91
  -2   9   6    3.24    1.58
  -1   9   6   15.80    2.66
   0   9   6    8.69    3.16
   1   9   6    3.21    1.69
   2   9   6   -0.34    1.43
 -11  10   6   16.08    5.27
 -10  10   6    0.26    1.81
  -9  10   6    4.21    1.98
  -8  10   6   14.87    2.97
  -7  10   6    2.64    1.71
  -6  10   6   15.63    2.90
  -5  10   6    9.30    2.37
  -4  10   6    2.82    1.62
  -3  10   6    6.51    2.03
  -2  10   6    4.70    1.79
  -1  10   6   -0.03    1.37
   0  10   6    0.16    1.40
   1  10   6   -0.23    2.02
 -10  11   6    1.93    2.93
  -9  11   6    2.35    1.83
  -8  11   6    0.91    1.78
  -7  11   6    2.71    1.83
  -6  11   6    1.97    1.65
  -5  11   6    3.14    1.74
  -4  11   6   30.77    3.88
  -3  11   6    1.14    1.50
  -2  11   6    3.42    1.79
  -9  12   6    5.54    3.28
  -8  12   6    6.99    3.50
  -7  12   6    0.67    2.33
  -6  12   6    9.49    2.65
  -5  12   6    1.82    2.56
  -4  12   6    3.78    2.61
  -3  12   6   -2.30    2.01
   4 -11   7    6.35    3.01
   1 -10   7    5.73    2.13
   2 -10   7    5.82    1.76
   3 -10   7    0.08    1.12
   4 -10   7   14.13    2.71
   5 -10   7    1.54    1.44
   6 -10   7    2.92    1.85
   7 -10   7    3.10    1.90
   8 -10   7   21.84    4.56
  -1  -9   7    5.29    3.06
   0  -9   7    0.91    1.53
   1  -9   7    8.12    1.81
   2  -9   7    0.81    1.14
   3  -9   7    4.00    1.69
   4  -9   7   15.45    2.76
   5  -9   7   16.88    2.87
   6  -9   7   18.96    3.10
   7  -9   7    4.65    1.91
   8  -9   7    2.47    1.54
   9  -9   7   -0.14    1.35
  -2  -8   7   24.63    4.85
  -1  -8   7    1.45    1.65
   0  -8   7    4.35    1.82
   1  -8   7   12.13    2.00
   2  -8   7    5.18    1.48
   3  -8   7    1.75    1.44
   4  -8   7    1.24    1.44
   5  -8   7    3.14    1.51
   6  -8   7    5.51    1.82
   7  -8   7    1.92    1.50
   8  -8   7    4.92    1.65
   9  -8   7    5.52    1.94
  10  -8   7    4.81    1.99
  -4  -7   7    0.29    2.42
  -3  -7   7    0.61    1.57
  -2  -7   7    2.05    1.55
  -1  -7   7    4.35    1.79
   0  -7   7    2.61    1.50
   1  -7   7    5.78    1.47
   2  -7   7    4.29    1.54
   3  -7   7    5.05    1.59
   4  -7   7    4.58    1.69
   5  -7   7    1.09    1.20
   6  -7   7    6.56    1.92
   7  -7   7    2.21    1.50
   8  -7   7   13.52    2.62
   9  -7   7    0.59    1.14
  10  -7   7   -0.35    1.33
  -4  -6   7    1.93    1.70
  -3  -6   7   14.46    2.61
  -2  -6   7    8.03    2.17
  -1  -6   7    7.72    2.02
   0  -6   7   14.91    2.58
   1  -6   7    3.53    1.23
   2  -6   7    8.61    1.96
   3  -6   7    6.01    1.73
   4  -6   7    7.58    1.86
   5  -6   7    0.98    1.25
   6  -6   7   17.79    2.71
   7  -6   7    7.28    2.00
   8  -6   7    3.69    1.74
   9  -6   7    3.89    1.73
  10  -6   7   17.06    2.98
  -5  -5   7   -0.78    1.35
  -4  -5   7   14.96    2.61
  -3  -5   7    5.84    1.95
  -2  -5   7    2.13    1.43
  -1  -5   7    3.43    1.51
   0  -5   7    1.21    1.08
   1  -5   7    7.98    1.82
   2  -5   7   42.03    3.85
   3  -5   7   11.48    2.15
   4  -5   7   12.65    2.37
   5  -5   7    0.14    0.96
   6  -5   7    2.75    1.38
   7  -5   7    4.52    1.73
   8  -5   7    2.66    1.49
   9  -5   7   20.42    3.09
  10  -5   7   -0.50    1.40
  -6  -4   7   15.83    3.09
  -5  -4   7   17.16    2.86
  -4  -4   7    1.31    1.45
  -3  -4   7    1.96    1.42
  -2  -4   7    8.37    1.98
  -1  -4   7   13.27    2.42
   0  -4   7   11.54    2.26
   1  -4   7   11.27    1.97
   2  -4   7   -0.18    0.87
   3  -4   7    5.48    1.72
   4  -4   7   11.71    2.05
   5  -4   7    5.97    1.80
   6  -4   7   12.00    2.19
   7  -4   7    5.81    1.73
   8  -4   7    0.37    1.35
   9  -4   7   11.81    2.49
  10  -4   7    1.65    1.67
  -7  -3   7    2.88    1.54
  -6  -3   7    4.57    1.62
  -5  -3   7    0.70    1.36
  -4  -3   7    8.93    2.27
  -3  -3   7    5.80    1.79
  -2  -3   7    9.92    2.09
  -1  -3   7    3.43    1.36
   0  -3   7   21.43    2.78
   1  -3   7    1.55    1.14
   2  -3   7    2.65    1.18
   3  -3   7   23.53    2.92
   4  -3   7   12.14    2.29
   5  -3   7   55.15    4.38
   6  -3   7    2.29    1.39
   7  -3   7    1.90    1.30
   8  -3   7    4.43    1.83
   9  -3   7   26.30    3.57
  10  -3   7    1.06    1.58
  -8  -2   7    4.24    1.84
  -7  -2   7    0.12    1.28
  -6  -2   7    4.27    1.55
  -5  -2   7    3.54    1.66
  -4  -2   7    5.90    1.85
  -3  -2   7   38.62    3.79
  -2  -2   7    0.78    1.10
  -1  -2   7    2.38    1.27
   0  -2   7   47.61    4.00
   1  -2   7    1.79    1.03
   2  -2   7   47.69    3.90
   3  -2   7    2.43    1.22
   4  -2   7   -0.52    0.88
   5  -2   7   10.65    1.99
   6  -2   7    9.85    2.01
   7  -2   7    2.29    1.45
   8  -2   7   10.43    2.25
   9  -2   7    4.17    1.76
  10  -2   7   17.57    4.40
  -9  -1   7    3.70    3.17
  -8  -1   7   10.20    2.72
  -7  -1   7   12.48    2.26
  -6  -1   7    6.85    1.77
  -5  -1   7    0.33    1.23
  -4  -1   7    8.81    2.00
  -3  -1   7   10.22    2.08
  -2  -1   7    2.68    1.28
  -1  -1   7    1.92    1.22
   0  -1   7   19.35    2.63
   1  -1   7   20.37    2.46
   2  -1   7    1.46    1.06
   3  -1   7    6.80    2.51
   4  -1   7    1.46    1.13
   5  -1   7   12.84    2.31
   6  -1   7    1.13    1.30
   7  -1   7    6.31    1.97
   8  -1   7    1.29    1.41
   9  -1   7    5.60    1.99
  -9   0   7    2.59    1.80
  -8   0   7    3.43    1.92
  -7   0   7    2.29    1.73
  -6   0   7   15.53    2.20
  -5   0   7    1.51    1.15
  -4   0   7   16.13    2.57
  -3   0   7   28.28    3.24
  -2   0   7   46.99    4.03
  -1   0   7   19.87    2.60
   0   0   7    0.32    0.90
   1   0   7   22.57    2.60
   2   0   7   51.19    4.08
   3   0   7   23.00    2.64
   4   0   7   17.16    2.54
   5   0   7    3.29    1.46
   6   0   7   17.45    3.94
   7   0   7    5.19    2.58
   8   0   7    3.71    2.26
   9   0   7   -0.77    1.89
 -10   1   7    4.19    3.44
  -9   1   7    2.52    1.90
  -8   1   7    1.52    1.70
  -7   1   7    3.78    1.91
  -6   1   7    0.85    1.41
  -5   1   7    6.18    1.93
  -4   1   7    2.48    1.14
  -3   1   7    1.81    1.21
  -2   1   7    3.59    1.37
  -1   1   7   18.12    2.31
   0   1   7   15.45    2.23
   1   1   7    4.20    1.37
   2   1   7    3.71    1.32
   3   1   7   11.21    2.06
   4   1   7    7.35    2.68
   5   1   7    3.41    1.91
   6   1   7    7.84    1.93
   7   1   7   17.84    2.84
   8   1   7    8.54    2.24
 -10   2   7   20.14    3.86
  -9   2   7    5.42    2.25
  -8   2   7   11.51    2.83
  -7   2   7    0.10    1.37
  -6   2   7   12.04    2.51
  -5   2   7    9.42    2.21
  -4   2   7    0.55    1.11
  -3   2   7    1.70    1.27
  -2   2   7   40.78    5.10
  -1   2   7    1.83    1.10
   0   2   7   44.06    3.56
   1   2   7    4.43    1.47
   2   2   7   -0.26    0.93
   3   2   7   46.21    3.92
   4   2   7    7.14    1.82
   5   2   7    5.17    1.71
   6   2   7    2.78    1.49
   7   2   7   -0.86    1.18
   8   2   7    3.10    1.77
 -10   3   7    1.73    1.86
  -9   3   7   21.75    3.59
  -8   3   7    4.44    2.12
  -7   3   7    3.00    1.70
  -6   3   7    7.68    2.19
  -5   3   7   47.33    4.46
  -4   3   7   17.48    2.72
  -3   3   7   25.70    3.07
  -2   3   7    2.93    1.35
  -1   3   7    1.17    1.12
   0   3   7   20.39    2.48
   1   3   7    3.51    1.35
   2   3   7    7.23    1.85
   3   3   7    9.42    2.04
   4   3   7    7.33    2.00
   5   3   7    3.03    1.54
   6   3   7    2.32    1.66
   7   3   7    0.41    1.32
 -10   4   7    7.37    2.49
  -9   4   7    9.35    2.78
  -8   4   7    2.56    1.74
  -7   4   7    5.47    1.96
  -6   4   7    8.15    2.11
  -5   4   7    6.38    1.93
  -4   4   7   15.38    2.47
  -3   4   7    1.49    1.16
  -2   4   7    1.22    1.20
  -1   4   7    8.76    1.92
   0   4   7   11.76    3.00
   1   4   7   11.39    3.23
   2   4   7    7.10    1.86
   3   4   7    1.71    1.80
   4   4   7   -0.12    1.14
   5   4   7   10.03    2.34
   6   4   7   15.85    2.86
 -10   5   7    0.01    1.53
  -9   5   7   12.19    2.63
  -8   5   7    6.34    2.19
  -7   5   7    5.38    1.94
  -6   5   7    1.60    1.52
  -5   5   7    1.34    1.43
  -4   5   7   11.31    3.14
  -3   5   7    7.91    1.92
  -2   5   7   44.04    4.00
  -1   5   7    6.19    2.47
   0   5   7    3.17    1.45
   1   5   7    3.81    2.21
   2   5   7    1.36    1.26
   3   5   7    6.24    2.79
   4   5   7   17.19    3.90
   5   5   7   -0.17    1.34
 -11   6   7    7.19    3.51
 -10   6   7   15.97    2.83
  -9   6   7    6.64    2.34
  -8   6   7    1.28    1.77
  -7   6   7    3.22    1.78
  -6   6   7   13.48    2.62
  -5   6   7    0.73    1.26
  -4   6   7    9.36    2.18
  -3   6   7    2.19    1.27
  -2   6   7    8.37    2.73
  -1   6   7    3.12    1.46
   0   6   7   12.70    2.34
   1   6   7    6.63    1.90
   2   6   7    8.08    2.08
   3   6   7   18.44    2.93
   4   6   7    0.42    2.15
 -10   7   7    0.51    1.79
  -9   7   7    0.91    1.81
  -8   7   7   16.73    3.32
  -7   7   7    3.39    1.89
  -6   7   7    7.47    2.15
  -5   7   7    0.06    1.17
  -4   7   7    2.64    1.46
  -3   7   7    7.38    2.70
  -2   7   7    2.52    1.38
  -1   7   7    6.86    2.03
   0   7   7    0.76    1.99
   1   7   7    1.11    1.31
   2   7   7    2.70    1.67
   3   7   7    2.07    1.56
 -10   8   7    4.27    3.02
  -9   8   7    5.23    2.19
  -8   8   7    6.66    2.36
  -7   8   7    1.88    1.70
  -6   8   7   10.40    2.48
  -5   8   7    5.99    1.95
  -4   8   7    0.98    1.84
  -3   8   7    2.50    1.49
  -2   8   7    4.95    1.91
  -1   8   7   12.10    2.45
   0   8   7    6.22    2.87
   1   8   7    0.82    1.54
   2   8   7   16.03    2.92
  -9   9   7    2.33    2.00
  -8   9   7   -0.31    1.41
  -7   9   7    5.43    2.13
  -6   9   7   16.10    3.01
  -5   9   7   15.28    4.12
  -4   9   7   13.47    2.65
  -3   9   7    4.10    1.87
  -2   9   7    0.12    1.37
  -1   9   7   13.02    4.04
   0   9   7    1.73    1.69
  -8  10   7   14.20    4.15
  -7  10   7    1.62    1.68
  -6  10   7    1.03    1.96
  -5  10   7    0.16    1.46
  -4  10   7   13.58    2.84
  -3  10   7   -0.96    1.43
  -2  10   7    3.35    1.88
   3  -9   8    8.53    3.58
   4  -9   8    1.08    2.29
   1  -8   8   16.32    4.10
   2  -8   8    2.43    1.68
   3  -8   8    0.28    1.30
   4  -8   8    1.93    1.51
   5  -8   8    9.57    2.43
   6  -8   8    2.86    1.87
  -1  -7   8   22.07    5.24
   0  -7   8    2.05    1.60
   1  -7   8    1.69    1.58
   2  -7   8    2.57    1.32
   3  -7   8    5.48    1.97
   4  -7   8   16.09    2.81
   5  -7   8    2.74    1.58
   6  -7   8    3.62    1.88
   7  -7   8    4.49    2.04
  -2  -6   8    4.86    1.96
  -1  -6   8    5.73    1.98
   0  -6   8    1.10    1.37
   1  -6   8   17.65    2.77
   2  -6   8    4.41    1.72
   3  -6   8   17.77    2.88
   4  -6   8    4.10    1.68
   5  -6   8    8.70    2.33
   6  -6   8    0.90    1.38
   7  -6   8   -1.16    1.30
   8  -6   8    6.40    2.22
  -3  -5   8    6.81    2.22
  -2  -5   8   -0.01    1.32
  -1  -5   8    4.87    1.62
   0  -5   8   13.06    2.56
   1  -5   8   11.46    2.43
   2  -5   8   11.86    2.20
   3  -5   8    9.41    2.22
   4  -5   8   23.34    3.21
   5  -5   8   14.40    2.70
   6  -5   8   14.89    2.53
   7  -5   8    3.28    1.88
   8  -5   8    5.96    2.97
  -5  -4   8    1.04    2.78
  -4  -4   8    2.78    1.74
  -3  -4   8   11.28    2.59
  -2  -4   8    0.19    1.33
  -1  -4   8   20.58    3.12
   0  -4   8    1.59    1.36
   1  -4   8    2.44    1.49
   2  -4   8   15.12    2.68
   3  -4   8    2.85    1.53
   4  -4   8    1.12    1.37
   5  -4   8    7.18    1.97
   6  -4   8    7.07    2.16
   7  -4   8    4.06    2.54
   8  -4   8    7.04    3.26
   9  -4   8    5.80    3.00
  -6  -3   8    2.35    2.75
  -5  -3   8    0.33    1.63
  -4  -3   8    4.80    1.87
  -3  -3   8   18.39    3.09
  -2  -3   8   12.32    2.37
  -1  -3   8    7.23    1.94
   0  -3   8    4.76    1.58
   1  -3   8    3.92    1.67
   2  -3   8   21.14    2.93
   3  -3   8    4.68    1.74
   4  -3   8    0.35    1.20
   5  -3   8   15.10    2.69
   6  -3   8   18.07    4.24
   7  -3   8   13.72    3.92
   8  -3   8    8.18    2.27
   9  -3   8   11.45    3.70
  -6  -2   8    3.30    1.70
  -5  -2   8    3.44    1.80
  -4  -2   8    3.18    1.70
  -3  -2   8   12.26    2.58
  -2  -2   8   12.75    2.27
  -1  -2   8   16.41    2.60
   0  -2   8    0.33    1.21
   1  -2   8    9.86    3.16
   2  -2   8    0.73    1.18
   3  -2   8    9.17    2.07
   4  -2   8    9.95    2.24
   5  -2   8   17.04    4.04
   6  -2   8    2.08    2.09
   7  -2   8    1.63    1.54
   8  -2   8    5.74    2.11
  -7  -1   8   16.24    5.45
  -6  -1   8    1.16    1.74
  -5  -1   8   14.88    2.35
  -4  -1   8    9.66    2.27
  -3  -1   8    2.42    1.51
  -2  -1   8    6.97    1.96
  -1  -1   8    9.00    2.07
   0  -1   8    4.54    1.76
   1  -1   8    5.48    2.52
   2  -1   8   11.05    2.17
   3  -1   8   12.64    2.39
   4  -1   8    5.55    2.51
   5  -1   8   29.41    5.15
   6  -1   8    4.44    1.83
   7  -1   8    3.33    1.83
   8  -1   8   13.37    3.87
  -7   0   8    3.93    2.24
  -6   0   8   -1.44    1.42
  -5   0   8    7.04    2.07
  -4   0   8    1.33    2.11
  -3   0   8    4.40    1.66
  -2   0   8    1.12    1.20
  -1   0   8    9.08    1.95
   0   0   8   58.66    4.73
   1   0   8    6.11    2.63
   2   0   8    0.48    1.16
   3   0   8    5.33    1.76
   4   0   8    3.62    2.41
   5   0   8   15.01    2.58
   6   0   8    4.82    1.82
   7   0   8    2.11    1.70
  -7   1   8    4.21    2.20
  -6   1   8    5.79    2.09
  -5   1   8   19.55    3.18
  -4   1   8    2.18    1.50
  -3   1   8   11.65    3.40
  -2   1   8   11.84    3.26
  -1   1   8    5.32    1.72
   0   1   8    6.75    1.86
   1   1   8   11.25    2.12
   2   1   8    5.72    1.66
   3   1   8    1.18    1.98
   4   1   8   10.67    2.32
   5   1   8   21.56    3.18
   6   1   8   -0.55    1.32
   7   1   8   26.96    3.74
  -8   2   8    4.83    2.33
  -7   2   8    2.54    1.86
  -6   2   8    0.51    1.38
  -5   2   8   14.63    2.78
  -4   2   8    5.71    1.86
  -3   2   8    5.92    1.98
  -2   2   8    1.23    1.31
  -1   2   8   10.66    3.10
   0   2   8    2.47    1.92
   1   2   8   14.14    3.39
   2   2   8   10.21    3.02
   3   2   8   16.55    2.67
   4   2   8    4.30    2.56
   5   2   8    2.19    2.20
   6   2   8    4.56    2.67
  -8   3   8    2.92    2.02
  -7   3   8    7.27    2.31
  -6   3   8   14.52    2.80
  -5   3   8   17.36    2.95
  -4   3   8    0.17    1.39
  -3   3   8    8.08    2.20
  -2   3   8   13.68    2.41
  -1   3   8    6.10    2.55
   0   3   8    4.30    2.28
   3   3   8   20.78    4.11
   4   3   8    4.63    2.89
   5   3   8    2.38    2.40
  -9   4   8    7.39    3.75
  -8   4   8    3.79    2.18
  -7   4   8    4.92    2.06
  -6   4   8    5.54    2.09
  -5   4   8    3.04    1.72
  -4   4   8    2.42    1.47
  -3   4   8    4.03    2.36
  -2   4   8    8.72    2.92
  -1   4   8    1.49    1.40
   0   4   8    1.53    2.04
   1   4   8   17.68    4.25
   2   4   8    7.32    2.00
   3   4   8   13.78    2.65
   4   4   8    4.20    1.73
   5   4   8    2.58    2.44
  -9   5   8   -0.31    2.58
  -8   5   8   -0.06    1.76
  -7   5   8    0.97    1.73
  -6   5   8   16.33    4.20
  -5   5   8    8.21    3.42
  -4   5   8   19.55    3.04
  -3   5   8    7.31    1.99
  -2   5   8   13.69    2.38
  -1   5   8    7.98    2.91
   0   5   8   20.98    4.41
   1   5   8    3.83    2.43
   2   5   8    1.08    2.08
   3   5   8    7.82    2.26
   4   5   8    6.61    3.04
  -8   6   8    0.85    1.74
  -7   6   8    0.39    1.54
  -6   6   8    0.53    1.43
  -5   6   8    2.37    1.57
  -4   6   8    5.44    2.09
  -3   6   8   14.91    2.66
  -2   6   8    6.60    2.67
  -1   6   8   21.48    3.09
   0   6   8    0.95    2.27
   1   6   8    6.60    2.07
   2   6   8    2.59    2.27
  -7   7   8    3.56    2.14
  -6   7   8    3.70    1.82
  -5   7   8    0.54    1.43
  -4   7   8   12.26    2.62
  -3   7   8    5.45    2.79
  -2   7   8    7.98    2.26
  -1   7   8    2.25    2.40
   0   7   8    0.43    1.54
   1   7   8   13.76    2.84
  -7   8   8    5.36    3.05
  -6   8   8    2.16    1.75
  -5   8   8    6.69    2.95
  -4   8   8    0.78    2.11
  -3   8   8    1.24    1.47
  -2   8   8    5.18    2.01
  -1   8   8   23.08    5.09
  -3   9   8    7.54    3.46
   4  -6   9   -0.86    2.15
   1  -5   9    1.63    2.13
   2  -5   9    1.47    1.46
   3  -5   9   -0.55    1.86
   4  -5   9    4.19    2.05
   5  -5   9    9.90    3.67
  -1  -4   9    8.47    3.28
   0  -4   9    1.33    1.65
   1  -4   9    0.63    1.40
   2  -4   9    0.29    1.44
   3  -4   9    0.77    1.89
   4  -4   9    1.65    1.60
   5  -4   9    2.44    1.78
   6  -4   9    0.67    2.40
  -3  -3   9    1.30    2.45
  -2  -3   9    0.20    1.47
  -1  -3   9    1.30    1.64
   0  -3   9    4.89    1.88
   1  -3   9   13.19    2.63
   2  -3   9   15.11    2.55
   3  -3   9    5.01    2.73
   4  -3   9    0.58    1.42
   5  -3   9    1.75    1.66
   6  -3   9    5.08    2.84
  -4  -2   9    2.25    2.79
  -3  -2   9   -0.29    1.53
  -2  -2   9   -1.65    1.31
  -1  -2   9   10.04    2.52
   0  -2   9    3.64    1.75
   1  -2   9    1.68    1.47
   2  -2   9    9.85    3.37
   3  -2   9   17.50    4.16
   4  -2   9    0.34    1.39
   5  -2   9   -0.68    1.38
   6  -2   9   -1.00    2.27
  -4  -1   9   -0.67    2.17
  -3  -1   9    4.21    2.74
  -2  -1   9    9.85    2.46
  -1  -1   9    3.88    1.85
   0  -1   9    3.40    1.69
   1  -1   9    3.31    1.61
   2  -1   9    4.05    2.53
   3  -1   9   12.89    3.76
   4  -1   9   -1.76    1.19
   5  -1   9   11.78    2.80
  -4   0   9   -0.65    1.54
  -3   0   9    4.90    3.00
  -2   0   9   11.60    3.48
  -1   0   9   -0.78    1.77
   0   0   9   -0.20    1.70
   1   0   9    0.31    1.31
   2   0   9   10.39    2.44
   3   0   9    3.10    2.27
   4   0   9    0.21    1.47
   5   0   9   10.22    3.80
  -5   1   9    4.95    3.24
  -4   1   9   -1.27    1.49
  -3   1   9   14.48    2.79
  -2   1   9    1.20    1.50
  -1   1   9    4.79    2.51
   0   1   9    1.90    2.23
   1   1   9    1.31    1.92
   4   1   9    2.20    2.23
  -5   2   9   -0.49    1.63
  -4   2   9    1.34    1.63
  -3   2   9   14.43    2.97
  -2   2   9    3.22    1.73
  -1   2   9    1.09    1.35
   0   2   9    7.52    3.01
  -6   3   9   -1.87    2.24
  -5   3   9    0.94    1.77
  -4   3   9    1.04    1.79
  -3   3   9    4.46    2.69
  -2   3   9   10.95    3.78
  -1   3   9   13.30    3.64
  -5   4   9    3.02    2.45
  -4   4   9    0.63    2.03
  -3   4   9    0.62    2.01
  -2   4   9   -1.00    1.23
  -5   5   9   15.04    4.45
  -4   5   9    8.27    2.37
  -3   5   9   -0.38    1.44
  -2   5   9    0.26    2.19
  -4   6   9    1.29    2.24
  -3   6   9    1.79    2.20
  -2   6   9    1.00    1.65
   0   0   0    0.00    0.00
;
_shelx_hkl_checksum              69496
loop_
_space_group_symop_operation_xyz
'x, y, z'
'-y, x-y, z'
'-x+y, -x, z'
'-x, -y, z+1/2'
'y, -x+y, z+1/2'
'x-y, x, z+1/2'
loop_
_atom_site_label
_atom_site_type_symbol
_atom_site_fract_x
_atom_site_fract_y
_atom_site_fract_z
_atom_site_U_iso_or_equiv
_atom_site_adp_type
_atom_site_occupancy
_atom_site_site_symmetry_order
_atom_site_calc_flag
_atom_site_refinement_flags_posn
_atom_site_refinement_flags_adp
_atom_site_refinement_flags_occupancy
_atom_site_disorder_assembly
_atom_site_disorder_group
Nd Nd 0.15329(7) 0.37433(7) 0.41682(14) 0.02184(16) Uani 1 1 d . . . . .
Cu1A Cu 0.0000 0.0000 0.0000(14) 0.0304(18) Uani 0.659(13) 3 d S T P . .
Cu1B Cu 0.0000 0.0000 0.107(3) 0.0304(18) Uani 0.341(13) 3 d S T P . .
Ga Ga 0.3333 0.6667 0.8334(4) 0.0161(4) Uani 1 3 d S T P . .
Se1 Se 0.25668(13) 0.14838(14) 0.46934(19) 0.0195(3) Uani 1 1 d . . . . .
Se2 Se 0.52193(13) 0.08856(13) 0.1834(2) 0.0171(2) Uani 1 1 d . . . . .
Se3 Se 0.3333 0.6667 0.2048(3) 0.0154(4) Uani 1 3 d S T P . .
loop_
_atom_site_aniso_label
_atom_site_aniso_U_11
_atom_site_aniso_U_22
_atom_site_aniso_U_33
_atom_site_aniso_U_23
_atom_site_aniso_U_13
_atom_site_aniso_U_12
Nd 0.0184(3) 0.0140(3) 0.0333(3) -0.0027(3) -0.0029(3) 0.0082(2)
Cu1A 0.0134(8) 0.0134(8) 0.064(5) 0.000 0.000 0.0067(4)
Cu1B 0.0134(8) 0.0134(8) 0.064(5) 0.000 0.000 0.0067(4)
Ga 0.0172(6) 0.0172(6) 0.0141(9) 0.000 0.000 0.0086(3)
Se1 0.0169(5) 0.0149(5) 0.0287(7) -0.0055(4) -0.0045(4) 0.0094(4)
Se2 0.0155(5) 0.0147(5) 0.0169(5) -0.0001(5) 0.0008(5) 0.0045(4)
Se3 0.0164(6) 0.0164(6) 0.0134(8) 0.000 0.000 0.0082(3)
loop_
_atom_type_symbol
_atom_type_description
_atom_type_scat_dispersion_real
_atom_type_scat_dispersion_imag
_atom_type_scat_source
Cu Cu 0.3201 1.2651 'International Tables Vol C Tables 4.2.6.8 and 6.1.1.4'
Ga Ga 0.2307 1.6083 'International Tables Vol C Tables 4.2.6.8 and 6.1.1.4'
Se Se -0.0929 2.2259 'International Tables Vol C Tables 4.2.6.8 and 6.1.1.4'
Nd Nd -0.1943 3.0179 'International Tables Vol C Tables 4.2.6.8 and 6.1.1.4'
loop_
_geom_angle_atom_site_label_1
_geom_angle_atom_site_label_2
_geom_angle_atom_site_label_3
_geom_angle
_geom_angle_site_symmetry_1
_geom_angle_site_symmetry_3
Se2 Nd Se3 79.28(4) 5_565 .
Se2 Nd Se1 94.14(4) 5_565 2
Se3 Nd Se1 145.89(4) . 2
Se2 Nd Se2 79.49(5) 5_565 6
Se3 Nd Se2 77.79(4) . 6
Se1 Nd Se2 134.35(4) 2 6
Se2 Nd Se1 138.09(5) 5_565 .
Se3 Nd Se1 123.46(3) . .
Se1 Nd Se1 83.44(5) 2 .
Se2 Nd Se1 73.14(3) 6 .
Se2 Nd Se1 140.55(4) 5_565 6_554
Se3 Nd Se1 82.63(5) . 6_554
Se1 Nd Se1 81.74(4) 2 6_554
Se2 Nd Se1 130.07(4) 6 6_554
Se1 Nd Se1 80.71(4) . 6_554
Se2 Nd Se2 71.25(2) 5_565 2
Se3 Nd Se2 75.34(3) . 2
Se1 Nd Se2 70.89(3) 2 2
Se2 Nd Se2 143.23(4) 6 2
Se1 Nd Se2 143.39(4) . 2
Se1 Nd Se2 70.36(4) 6_554 2
Se2 Nd Cu1A 122.95(13) 5_565 4
Se3 Nd Cu1A 157.74(14) . 4
Se1 Nd Cu1A 41.84(2) 2 4
Se2 Nd Cu1A 105.59(10) 6 4
Se1 Nd Cu1A 41.60(3) . 4
Se1 Nd Cu1A 78.56(15) 6_554 4
Se2 Nd Cu1A 108.83(7) 2 4
Se2 Nd Cu1B 114.0(2) 5_565 4
Se3 Nd Cu1B 165.59(14) . 4
Se1 Nd Cu1B 43.03(6) 2 4
Se2 Nd Cu1B 98.53(17) 6 4
Se1 Nd Cu1B 42.85(6) . 4
Se1 Nd Cu1B 89.5(3) 6_554 4
Se2 Nd Cu1B 113.32(10) 2 4
Cu1A Nd Cu1B 10.91(19) 4 4
Cu1B Cu1A Se1 94.8(2) . 5_554
Cu1B Cu1A Se1 94.8(2) . 4_554
Se1 Cu1A Se1 119.29(7) 5_554 4_554
Cu1B Cu1A Se1 94.8(2) . 6_554
Se1 Cu1A Se1 119.29(7) 5_554 6_554
Se1 Cu1A Se1 119.29(7) 4_554 6_554
Cu1B Cu1A Cu1B 180.0 . 4_554
Se1 Cu1A Cu1B 85.2(2) 5_554 4_554
Se1 Cu1A Cu1B 85.2(2) 4_554 4_554
Se1 Cu1A Cu1B 85.2(2) 6_554 4_554
Cu1B Cu1A Nd 98.96(15) . 6_554
Se1 Cu1A Nd 166.2(4) 5_554 6_554
Se1 Cu1A Nd 58.84(4) 4_554 6_554
Se1 Cu1A Nd 60.45(4) 6_554 6_554
Cu1B Cu1A Nd 81.04(15) 4_554 6_554
Cu1B Cu1A Nd 98.96(15) . 5_554
Se1 Cu1A Nd 60.45(4) 5_554 5_554
Se1 Cu1A Nd 166.2(4) 4_554 5_554
Se1 Cu1A Nd 58.85(4) 6_554 5_554
Cu1B Cu1A Nd 81.04(15) 4_554 5_554
Nd Cu1A Nd 117.62(8) 6_554 5_554
Cu1B Cu1A Nd 98.96(15) . 4_554
Se1 Cu1A Nd 58.84(4) 5_554 4_554
Se1 Cu1A Nd 60.46(4) 4_554 4_554
Se1 Cu1A Nd 166.2(4) 6_554 4_554
Cu1B Cu1A Nd 81.04(15) 4_554 4_554
Nd Cu1A Nd 117.62(8) 6_554 4_554
Nd Cu1A Nd 117.62(8) 5_554 4_554
Cu1A Cu1B Se1 69.1(4) . 5_554
Cu1A Cu1B Se1 69.1(4) . 4_554
Se1 Cu1B Se1 108.0(4) 5_554 4_554
Cu1A Cu1B Se1 69.1(4) . 6_554
Se1 Cu1B Se1 108.0(4) 5_554 6_554
Se1 Cu1B Se1 108.0(4) 4_554 6_554
Cu1A Cu1B Cu1A 180.0 . 4
Se1 Cu1B Cu1A 110.9(4) 5_554 4
Se1 Cu1B Cu1A 110.9(4) 4_554 4
Se1 Cu1B Cu1A 110.9(4) 6_554 4
Cu1A Cu1B Nd 70.1(3) . 6_554
Se1 Cu1B Nd 139.2(6) 5_554 6_554
Se1 Cu1B Nd 55.15(12) 4_554 6_554
Se1 Cu1B Nd 56.65(13) 6_554 6_554
Cu1A Cu1B Nd 109.9(3) 4 6_554
Cu1A Cu1B Nd 70.1(3) . 5_554
Se1 Cu1B Nd 56.65(13) 5_554 5_554
Se1 Cu1B Nd 139.2(6) 4_554 5_554
Se1 Cu1B Nd 55.16(12) 6_554 5_554
Cu1A Cu1B Nd 109.9(3) 4 5_554
Nd Cu1B Nd 109.1(3) 6_554 5_554
Cu1A Cu1B Nd 70.1(3) . 4_554
Se1 Cu1B Nd 55.16(12) 5_554 4_554
Se1 Cu1B Nd 56.65(13) 4_554 4_554
Se1 Cu1B Nd 139.2(6) 6_554 4_554
Cu1A Cu1B Nd 109.9(3) 4 4_554
Nd Cu1B Nd 109.1(3) 6_554 4_554
Nd Cu1B Nd 109.1(3) 5_554 4_554
Se3 Ga Se2 113.50(6) 1_556 5_565
Se3 Ga Se2 113.50(6) 1_556 4_665
Se2 Ga Se2 105.16(7) 5_565 4_665
Se3 Ga Se2 113.49(6) 1_556 6
Se2 Ga Se2 105.16(7) 5_565 6
Se2 Ga Se2 105.16(7) 4_665 6
Cu1A Se1 Cu1B 16.1(3) 4 4
Cu1A Se1 Nd 79.31(5) 4 3
Cu1B Se1 Nd 81.81(8) 4 3
Cu1A Se1 Nd 77.95(5) 4 .
Cu1B Se1 Nd 80.50(8) 4 .
Nd Se1 Nd 152.76(5) 3 .
Cu1A Se1 Nd 105.5(2) 4 5
Cu1B Se1 Nd 89.5(4) 4 5
Nd Se1 Nd 100.91(4) 3 5
Nd Se1 Nd 99.47(4) . 5
Ga Se2 Nd 88.57(5) 4_664 6_654
Ga Se2 Nd 86.39(5) 4_664 5_554
Nd Se2 Nd 100.04(5) 6_654 5_554
Ga Se2 Nd 118.96(6) 4_664 3
Nd Se2 Nd 149.06(4) 6_654 3
Nd Se2 Nd 95.83(4) 5_554 3
Ga Se3 Nd 117.14(4) 1_554 2_665
Ga Se3 Nd 117.14(4) 1_554 .
Nd Se3 Nd 100.83(5) 2_665 .
Ga Se3 Nd 117.14(4) 1_554 3_565
Nd Se3 Nd 100.83(5) 2_665 3_565
Nd Se3 Nd 100.83(5) . 3_565
loop_
_geom_bond_atom_site_label_1
_geom_bond_atom_site_label_2
_geom_bond_distance
_geom_bond_site_symmetry_2
Nd Se2 2.9383(14) 5_565
Nd Se3 2.9686(12) .
Nd Se1 2.9720(13) 2
Nd Se2 3.0328(14) 6
Nd Se1 3.0358(14) .
Nd Se1 3.0494(15) 6_554
Nd Se2 3.2219(14) 2
Nd Cu1A 3.4127(16) 4
Nd Cu1B 3.584(6) 4
Cu1A Cu1B 0.687(12) .
Cu1A Se1 2.3166(14) 5_554
Cu1A Se1 2.3167(14) 4_554
Cu1A Se1 2.3167(14) 6_554
Cu1A Cu1B 2.507(12) 4_554
Cu1A Nd 3.4126(16) 6_554
Cu1A Nd 3.4127(16) 5_554
Cu1A Nd 3.4127(16) 4_554
Cu1B Se1 2.471(6) 5_554
Cu1B Se1 2.471(6) 4_554
Cu1B Se1 2.471(6) 6_554
Cu1B Cu1A 2.507(12) 4
Cu1B Nd 3.584(6) 6_554
Cu1B Nd 3.584(6) 5_554
Cu1B Nd 3.584(6) 4_554
Ga Se3 2.372(3) 1_556
Ga Se2 2.4038(15) 5_565
Ga Se2 2.4038(15) 4_665
Ga Se2 2.4038(15) 6
Se1 Cu1A 2.3167(15) 4
Se1 Cu1B 2.471(6) 4
Se1 Nd 2.9719(13) 3
Se1 Nd 3.0494(15) 5
Se2 Ga 2.4039(15) 4_664
Se2 Nd 2.9383(14) 6_654
Se2 Nd 3.0328(14) 5_554
Se2 Nd 3.2218(14) 3
Se3 Ga 2.372(3) 1_554
Se3 Nd 2.9686(12) 2_665
Se3 Nd 2.9687(12) 3_565
