#------------------------------------------------------------------------------
#$Date: 2021-03-30 11:58:03 +0300 (Tue, 30 Mar 2021) $
#$Revision: 263440 $
#$URL: file:///home/coder/svn-repositories/cod/cif/1/56/13/1561362.cif $
#------------------------------------------------------------------------------
#
# This file is available in the Crystallography Open Database (COD),
# http://www.crystallography.net/
#
# All data on this site have been placed in the public domain by the
# contributors.
#
data_1561362
loop_
_publ_author_name
'Iyer, Abishek K.'
'Yin, Wenlong'
'Rudyk, Brent W.'
'Lin, Xinsong'
'Nilges, Tom'
'Mar, Arthur'
_publ_section_title
;
 Metal ion displacements in noncentrosymmetric chalcogenides La3Ga1.67S7,
 La3Ag0.6GaCh7 (Ch=S, Se), and La3MGaSe7 (M=Zn, Cd)
;
_journal_name_full               'Journal of Solid State Chemistry'
_journal_page_first              221
_journal_page_last               231
_journal_paper_doi               10.1016/j.jssc.2016.08.031
_journal_volume                  243
_journal_year                    2016
_chemical_absolute_configuration ad
_chemical_formula_structural     'La3 Ag0.60 Ga Se7'
_chemical_formula_sum            'Ag0.6 Ga La3 Se7'
_chemical_formula_weight         1103.89
_chemical_name_common
'lanthanum silver gallium selenide (3/0.6/1/7)'
_chemical_name_systematic
'lanthanum silver gallium selenide (3/0.6/1/7)'
_space_group_crystal_system      hexagonal
_space_group_IT_number           173
_space_group_name_Hall           'P 6c'
_space_group_name_H-M_alt        'P 63'
_atom_sites_solution_hydrogens   .
_audit_creation_method           SHELXL-2014/7
_cell_angle_alpha                90
_cell_angle_beta                 90
_cell_angle_gamma                120
_cell_formula_units_Z            2
_cell_length_a                   10.5879(17)
_cell_length_b                   10.5879(17)
_cell_length_c                   6.3766(10)
_cell_measurement_reflns_used    2040
_cell_measurement_temperature    296(2)
_cell_measurement_theta_max      25.57
_cell_measurement_theta_min      3.89
_cell_volume                     619.07(17)
_computing_cell_refinement       'Bruker SAINT 8.34A (Bruker, 2013)'
_computing_data_collection       'Bruker APEX 2 (Bruker, 2008)'
_computing_data_reduction        'Bruker SAINT 8.34A'
_computing_molecular_graphics    'ATOMS 5.1 (Dowty, 1999)'
_computing_publication_material  'SHELXL-2014/7 (Sheldrick, 2014)'
_computing_structure_refinement  'SHELXL-2014/7 (Sheldrick, 2014)'
_computing_structure_solution    'SHELXS-97 (Sheldrick, 2008)'
_diffrn_ambient_temperature      296(2)
_diffrn_measured_fraction_theta_full 1.000
_diffrn_measured_fraction_theta_max 0.997
_diffrn_measurement_device_type  'Bruker PLATFORM/SMART APEX II CCD'
_diffrn_measurement_method       '\w and \f scans'
_diffrn_radiation_type           MoK\a
_diffrn_radiation_wavelength     0.71073
_diffrn_reflns_av_R_equivalents  0.0774
_diffrn_reflns_av_unetI/netI     0.0531
_diffrn_reflns_Laue_measured_fraction_full 1.000
_diffrn_reflns_Laue_measured_fraction_max 0.997
_diffrn_reflns_limit_h_max       16
_diffrn_reflns_limit_h_min       -16
_diffrn_reflns_limit_k_max       16
_diffrn_reflns_limit_k_min       -16
_diffrn_reflns_limit_l_max       9
_diffrn_reflns_limit_l_min       -9
_diffrn_reflns_number            9142
_diffrn_reflns_point_group_measured_fraction_full 1.000
_diffrn_reflns_point_group_measured_fraction_max 0.997
_diffrn_reflns_theta_full        25.242
_diffrn_reflns_theta_max         33.523
_diffrn_reflns_theta_min         2.221
_diffrn_source                   'fine-focus sealed tube'
_exptl_absorpt_coefficient_mu    33.736
_exptl_absorpt_correction_T_max  0.453
_exptl_absorpt_correction_T_min  0.275
_exptl_absorpt_correction_type   numerical
_exptl_absorpt_process_details   'SHELXL-2014/7 (Sheldrick, 2014)'
_exptl_crystal_colour            grey
_exptl_crystal_density_diffrn    5.922
_exptl_crystal_description       irregular
_exptl_crystal_F_000             936
_exptl_crystal_size_max          0.052
_exptl_crystal_size_mid          0.041
_exptl_crystal_size_min          0.040
_refine_diff_density_max         2.470
_refine_diff_density_min         -2.383
_refine_diff_density_rms         0.408
_refine_ls_abs_structure_details
;
 Refined as an inversion twin.
;
_refine_ls_abs_structure_Flack   -0.01(6)
_refine_ls_extinction_coef       .
_refine_ls_extinction_method     none
_refine_ls_goodness_of_fit_ref   1.057
_refine_ls_hydrogen_treatment    undef
_refine_ls_matrix_type           full
_refine_ls_number_parameters     40
_refine_ls_number_reflns         1610
_refine_ls_number_restraints     1
_refine_ls_restrained_S_all      1.056
_refine_ls_R_factor_all          0.0644
_refine_ls_R_factor_gt           0.0438
_refine_ls_shift/su_max          0.000
_refine_ls_shift/su_mean         0.000
_refine_ls_structure_factor_coef Fsqd
_refine_ls_weighting_details
'w=1/[\s^2^(Fo^2^)+(0.0538P)^2^+1.9502P] where P=(Fo^2^+2Fc^2^)/3'
_refine_ls_weighting_scheme      calc
_refine_ls_wR_factor_gt          0.1028
_refine_ls_wR_factor_ref         0.1103
_reflns_Friedel_coverage         0.859
_reflns_Friedel_fraction_full    1.000
_reflns_Friedel_fraction_max     0.997
_reflns_number_gt                1263
_reflns_number_total             1610
_reflns_threshold_expression     'I > 2\s(I)'
_cod_data_source_file            mmc9.cif
_cod_data_source_block           3
_cod_original_cell_volume        619.1(2)
_cod_original_formula_sum        'Ag0.60 Ga La3 Se7'
_cod_database_code               1561362
_shelx_shelxl_version_number     2014/7
_shelx_space_group_comment
;
The symmetry employed for this shelxl refinement is uniquely defined
by the following loop, which should always be used as a source of
symmetry information in preference to the above space-group names.
They are only intended as comments.
;
_shelx_estimated_absorpt_t_min   0.273
_shelx_estimated_absorpt_t_max   0.346
_shelx_res_file
;

    p63.res created by SHELXL-2014/7

TITL La3Ag0.6GaSe7 P6(3) lsf final refinement
CELL 0.71073  10.58790  10.58790   6.37660  90.0000  90.0000 120.0000
ZERR    2.00   0.00170   0.00170   0.00100   0.0000   0.0000   0.0000
LATT -1
SYMM -Y, X-Y, Z
SYMM -X+Y, -X, Z
SYMM -X, -Y, 0.5+Z
SYMM Y, -X+Y, 0.5+Z
SYMM X-Y, X, 0.5+Z
SFAC GA SE AG LA
UNIT 2 14 1.2 6
TEMP 23
SIZE 0.04 0.041 0.052

L.S. 4
ACTA

TWIN

EADP AGA AGB
WGHT    0.053800    1.950200
BASF  -0.00680
FVAR       0.08635   0.76736
LA    4    0.147176    0.374966    0.408781    11.00000    0.02010    0.01655 =
         0.03630   -0.00335   -0.00350    0.00904
AGA   3    0.000000    0.000000   -0.000002    20.20000    0.02419    0.02419 =
         0.19126    0.00000    0.00000    0.01209
AGB   3    0.000000    0.000000    0.204682   -20.20000    0.02419    0.02419 =
         0.19126    0.00000    0.00000    0.01209
GA    1    0.333333    0.666667    0.824049    10.33333    0.02162    0.02162 =
         0.01579    0.00000    0.00000    0.01081
SE1   2    0.251995    0.151239    0.445745    11.00000    0.03849    0.02489 =
         0.04981   -0.01000   -0.01018    0.02244
SE2   2    0.520070    0.092982    0.178384    11.00000    0.02079    0.01795 =
         0.01931    0.00065    0.00197    0.00549
SE3   2    0.333333    0.666667    0.194025    10.33333    0.02241    0.02241 =
         0.01841    0.00000    0.00000    0.01121
HKLF 4

REM  La3Ag0.6GaSe7 P6(3) lsf final refinement
REM R1 =  0.0438 for    1263 Fo > 4sig(Fo)  and  0.0644 for all    1610 data
REM     40 parameters refined using      1 restraints

END

WGHT      0.0538      1.9707

REM Highest difference peak  2.470,  deepest hole -2.383,  1-sigma level  0.408
Q1    1   0.0000  0.0000  0.3342  10.33333  0.05    2.47
Q2    1   0.2465  0.5367  0.9024  11.00000  0.05    2.43
Q3    1   0.3333  0.6667  0.6029  10.33333  0.05    2.00
Q4    1   0.2310  0.2451  0.4140  11.00000  0.05    1.75
Q5    1   0.4794 -0.0949  0.1516  11.00000  0.05    1.75
Q6    1   0.2427  0.4733  0.4589  11.00000  0.05    1.63
Q7    1   0.3739  0.2275  0.4992  11.00000  0.05    1.55
Q8    1   0.1880  0.2850  0.3911  11.00000  0.05    1.54
Q9    1   0.2031  0.1063  0.5271  11.00000  0.05    1.54
Q10   1   0.0810  0.2364  0.3429  11.00000  0.05    1.48
Q11   1  -0.0880  0.0234  0.1774  11.00000  0.05    1.46
Q12   1   0.1709  0.5516  0.9139  11.00000  0.05    1.43
Q13   1   0.3295  0.3325  0.4258  11.00000  0.05    1.36
Q14   1   0.4761 -0.0870  0.3085  11.00000  0.05    1.32
Q15   1   0.1508  0.1644  0.3979  11.00000  0.05    1.30
Q16   1   0.1881  0.4314  0.6884  11.00000  0.05    1.29
Q17   1   0.3333  0.6667  1.0091  10.33333  0.05    1.26
Q18   1   0.2742  0.4189  0.3271  11.00000  0.05    1.26
Q19   1   0.0558  0.0809  0.2883  11.00000  0.05    1.26
Q20   1   0.4201  0.0235  0.1725  11.00000  0.05    1.26
;
_shelx_res_checksum              84557
_shelx_hkl_file
;
   1  -6  -9    4.65    5.51
   2  -6  -9    3.95    4.56
   0  -5  -9    4.16    4.88
   1  -5  -9    0.00    3.97
   2  -5  -9   -0.90    2.76
   3  -5  -9   -1.07    2.57
   4  -5  -9   11.03    4.39
  -1  -4  -9   12.21    6.05
   0  -4  -9   -0.93    2.61
   1  -4  -9    3.45    2.82
   2  -4  -9    0.57    2.68
   3  -4  -9   -0.90    2.72
   4  -4  -9    1.54    2.98
   5  -4  -9    2.92    3.15
   6  -4  -9    2.79    4.27
  -2  -3  -9   -0.52    2.75
  -1  -3  -9   -0.73    2.55
   0  -3  -9    7.75    3.11
   1  -3  -9    2.06    3.16
   2  -3  -9    9.97    4.36
   3  -3  -9    4.04    3.57
   4  -3  -9    3.34    3.30
   5  -3  -9    0.68    3.14
   6  -3  -9    1.12    3.94
  -3  -2  -9   -0.59    2.55
  -2  -2  -9   -0.54    2.72
  -1  -2  -9   14.24    4.03
   0  -2  -9   -1.46    2.54
   1  -2  -9    1.54    3.21
   2  -2  -9    4.62    3.51
   3  -2  -9    4.76    3.42
   4  -2  -9   -0.66    2.91
   5  -2  -9    0.17    3.03
  -4  -1  -9    1.19    3.45
  -3  -1  -9    3.67    3.17
  -2  -1  -9    5.13    3.22
  -1  -1  -9    4.00    3.13
   0  -1  -9    0.01    2.81
   1  -1  -9    1.55    2.96
   2  -1  -9    3.48    3.37
   3  -1  -9   11.58    4.33
   4  -1  -9    2.27    2.95
   5  -1  -9    1.90    5.12
  -5   0  -9   12.44    8.62
  -4   0  -9    1.34    2.78
  -3   0  -9    7.14    3.45
  -2   0  -9    3.16    2.77
  -1   0  -9   -1.37    2.48
   0   0  -9   -0.66    2.43
   1   0  -9   -0.87    2.72
   2   0  -9    0.89    2.84
   3   0  -9    8.12    4.20
   4   0  -9   -0.42    2.91
   5   0  -9    2.52    5.23
  -5   1  -9    9.70    3.87
  -4   1  -9    1.22    2.45
  -3   1  -9   16.12    4.42
  -2   1  -9   -0.30    3.46
  -1   1  -9   -1.43    2.30
   0   1  -9    0.47    2.77
   1   1  -9   -2.82    3.59
   2   1  -9    6.34    4.09
   3   1  -9    3.12    3.51
   4   1  -9   -1.47    2.56
   5   1  -9    1.92    7.28
  -5   2  -9   -0.52    2.23
  -4   2  -9   -0.51    2.29
  -3   2  -9    5.04    3.04
  -2   2  -9    5.36    3.95
  -1   2  -9    1.20    2.99
   0   2  -9    0.03    4.84
   1   2  -9   13.00    4.52
   2   2  -9    0.23    3.02
   3   2  -9    1.48    3.30
   4   2  -9    2.50    6.68
  -6   3  -9    1.19    4.51
  -5   3  -9   -2.35    3.19
  -4   3  -9    0.37    2.56
  -3   3  -9    6.87    3.91
  -1   3  -9   -0.35    5.24
   0   3  -9    7.68    4.40
   1   3  -9    1.23    3.14
   2   3  -9   -0.03    2.94
   3   3  -9   -3.96    6.56
  -6   4  -9   -0.82    3.92
  -5   4  -9    0.11    3.38
   0   4  -9   -0.70    3.82
   1   4  -9    3.76    4.99
   2   4  -9    1.70    4.64
  -6   5  -9   -0.37    3.70
  -5   5  -9    1.76    4.09
   1   5  -9    3.95    4.90
   3  -9  -8    6.43    5.14
   4  -9  -8    2.82    3.05
   5  -9  -8    4.96    3.19
   6  -9  -8    0.52    4.17
   1  -8  -8   17.52    5.09
   2  -8  -8    5.10    3.42
   3  -8  -8   -0.61    2.30
   4  -8  -8    0.63    2.05
   5  -8  -8    5.70    3.35
   6  -8  -8    7.45    3.81
   7  -8  -8   13.29    7.76
  -1  -7  -8   13.95    5.16
   0  -7  -8   -0.27    2.70
   1  -7  -8    5.14    3.29
   2  -7  -8    6.13    2.79
   3  -7  -8    3.34    2.47
   4  -7  -8    7.15    2.92
   5  -7  -8    1.45    2.60
   6  -7  -8    4.07    3.23
   7  -7  -8    0.32    2.53
   8  -7  -8   12.21    4.43
  -2  -6  -8    1.30    2.98
  -1  -6  -8   11.08    4.27
   0  -6  -8    1.10    2.67
   1  -6  -8   11.48    3.89
   2  -6  -8    3.50    2.54
   3  -6  -8   21.31    3.91
   4  -6  -8   -0.07    2.82
   5  -6  -8    3.96    3.46
   6  -6  -8    0.63    2.58
   7  -6  -8   -0.24    2.44
   8  -6  -8    1.35    2.82
   9  -6  -8    7.12    6.26
  -3  -5  -8    7.71    4.06
  -2  -5  -8    3.09    3.08
  -1  -5  -8    1.26    2.86
   0  -5  -8   16.06    4.39
   1  -5  -8    5.16    2.59
   2  -5  -8    9.00    2.77
   3  -5  -8    1.16    2.16
   4  -5  -8   12.77    4.37
   5  -5  -8    3.83    3.24
   6  -5  -8   16.63    4.70
   7  -5  -8    3.83    2.95
   8  -5  -8    0.92    2.64
   9  -5  -8    1.47    3.53
  -4  -4  -8    2.90    3.06
  -3  -4  -8    8.93    3.64
  -2  -4  -8    0.97    2.28
  -1  -4  -8   14.06    4.28
   0  -4  -8    1.48    2.21
   1  -4  -8    0.06    1.93
   2  -4  -8   20.81    3.88
   3  -4  -8   16.26    4.55
   4  -4  -8    2.62    2.81
   5  -4  -8   10.28    3.61
   6  -4  -8    4.55    3.12
   7  -4  -8    3.06    2.31
   8  -4  -8    2.28    2.30
  -6  -3  -8    5.80    4.46
  -5  -3  -8    0.55    2.47
  -4  -3  -8    0.91    2.48
  -3  -3  -8   23.21    5.03
  -2  -3  -8   -0.02    2.11
  -1  -3  -8   12.03    3.82
   0  -3  -8    3.57    2.18
   1  -3  -8    4.17    2.43
   2  -3  -8   11.44    4.09
   3  -3  -8    1.87    2.70
   4  -3  -8    2.95    2.74
   5  -3  -8   13.26    3.41
   6  -3  -8   14.24    3.40
   7  -3  -8    6.26    2.76
   8  -3  -8    3.77    3.27
  -7  -2  -8    1.10    4.98
  -6  -2  -8    0.65    2.14
  -5  -2  -8    5.05    2.96
  -4  -2  -8    6.45    3.28
  -3  -2  -8   15.59    4.10
  -2  -2  -8   25.46    4.87
  -1  -2  -8    9.61    2.83
   0  -2  -8   -1.28    1.59
   1  -2  -8    7.60    2.51
   2  -2  -8    0.26    2.47
   3  -2  -8    2.87    2.77
   4  -2  -8   14.90    3.56
   5  -2  -8    0.48    2.00
   6  -2  -8    1.45    2.11
   7  -2  -8    1.06    2.82
   8  -2  -8    2.36    3.48
  -7  -1  -8    3.58    4.53
  -6  -1  -8   -0.64    1.66
  -5  -1  -8   11.60    2.93
  -4  -1  -8    9.19    3.30
  -3  -1  -8    3.84    2.42
  -2  -1  -8    2.00    2.59
  -1  -1  -8    1.49    1.99
   0  -1  -8    1.34    2.01
   1  -1  -8    1.72    2.47
   2  -1  -8    4.39    3.14
   3  -1  -8    9.91    2.77
   4  -1  -8   14.21    3.47
   5  -1  -8   14.93    3.90
   6  -1  -8    2.57    3.03
   7  -1  -8    4.60    3.48
   8  -1  -8    6.05    6.44
  -8   0  -8    1.66    4.28
  -7   0  -8    0.02    2.33
  -6   0  -8    1.45    2.14
  -5   0  -8    7.51    2.43
  -4   0  -8    2.46    2.13
  -3   0  -8    5.92    2.92
  -2   0  -8    0.44    2.02
  -1   0  -8    2.97    1.94
   0   0  -8   84.45    9.59
   1   0  -8    4.71    3.17
   2   0  -8   -0.80    1.65
   3   0  -8    6.33    2.51
   4   0  -8    4.02    3.07
   5   0  -8    7.07    4.02
   6   0  -8   -0.73    2.69
   7   0  -8   -0.55    2.89
  -8   1  -8    3.55    5.09
  -7   1  -8   12.52    4.00
  -6   1  -8    3.90    2.23
  -5   1  -8   26.19    4.11
  -4   1  -8    7.76    2.85
  -3   1  -8    9.06    3.01
  -2   1  -8    6.34    2.39
  -1   1  -8    3.25    2.13
   0   1  -8    6.11    2.92
   1   1  -8    8.46    2.79
   2   1  -8    3.94    2.10
   3   1  -8    0.29    2.57
   4   1  -8    7.48    4.07
   5   1  -8   11.35    4.30
   6   1  -8   -0.26    3.23
   7   1  -8    1.97    5.53
  -8   2  -8    3.13    3.00
  -7   2  -8    1.69    2.35
  -6   2  -8    1.03    2.51
  -5   2  -8    1.35    1.72
  -4   2  -8   20.61    4.30
  -3   2  -8    5.42    2.54
  -2   2  -8   -0.68    1.46
  -1   2  -8   14.08    4.04
   0   2  -8    2.30    1.89
   1   2  -8   15.68    4.71
   2   2  -8    9.67    4.28
   3   2  -8    3.18    3.08
   4   2  -8    4.63    3.41
   5   2  -8    3.97    3.19
   6   2  -8    0.36    3.15
   7   2  -8    0.49    6.39
  -8   3  -8    6.09    3.47
  -7   3  -8   17.79    4.38
  -6   3  -8   20.02    4.73
  -5   3  -8    8.41    3.36
  -4   3  -8    2.68    1.76
  -3   3  -8    2.50    2.05
  -2   3  -8   12.25    3.36
  -1   3  -8    2.03    2.03
   0   3  -8    4.49    3.25
   1   3  -8    9.10    3.98
   2   3  -8    1.76    2.82
   3   3  -8   23.53    5.53
   4   3  -8    3.96    3.25
   5   3  -8    2.50    3.53
   6   3  -8    1.15    6.90
  -9   4  -8    4.98    6.30
  -8   4  -8    2.34    2.97
  -7   4  -8    4.31    2.89
  -6   4  -8    9.73    3.45
  -5   4  -8   12.46    3.67
  -4   4  -8    4.96    2.53
  -3   4  -8   21.93    4.07
  -2   4  -8   -2.40    3.40
  -1   4  -8    0.06    2.61
   0   4  -8    2.76    2.18
   1   4  -8   14.26    3.54
   2   4  -8    5.34    2.74
   3   4  -8   13.49    4.05
   4   4  -8    2.54    2.65
  -9   5  -8   -0.75    4.79
  -8   5  -8    3.29    2.85
  -7   5  -8    6.22    3.16
  -6   5  -8    9.24    3.28
  -5   5  -8    6.96    3.19
  -4   5  -8   15.20    4.01
  -1   5  -8   15.20    3.96
   0   5  -8    9.06    3.26
   1   5  -8    0.58    2.01
   2   5  -8    1.16    2.28
   3   5  -8    8.54    3.67
  -8   6  -8   -1.51    4.02
  -7   6  -8    4.11    4.42
  -6   6  -8    2.85    4.32
  -5   6  -8   -3.12    2.75
  -4   6  -8    4.50    4.05
  -2   6  -8    5.88    2.64
  -1   6  -8   10.50    4.53
   0   6  -8    2.22    2.46
   1   6  -8   12.45    3.73
   2   6  -8    0.81    2.60
   3   6  -8    2.07    4.72
  -8   7  -8   14.19    6.98
  -7   7  -8   -0.15    3.82
  -6   7  -8    8.12    3.80
  -5   7  -8    0.25    3.54
  -4   7  -8   18.18    6.60
  -3   7  -8    3.37    3.05
  -2   7  -8    2.38    2.17
  -1   7  -8   -0.67    2.83
   0   7  -8   -0.34    2.70
   1   7  -8   14.83    4.07
   2   7  -8   11.31    6.20
  -8   8  -8    6.51    5.57
  -7   8  -8   13.23    4.66
  -6   8  -8    7.28    4.45
  -5   8  -8    5.47    4.70
  -4   8  -8    3.29    3.41
  -3   8  -8    1.15    3.02
  -2   8  -8    3.89    2.70
  -1   8  -8   12.89    3.70
   0   8  -8   -4.01    4.34
  -7   9  -8   -1.88    5.07
  -6   9  -8    9.22    5.58
  -5   9  -8    3.69    4.72
  -4   9  -8   -1.28    2.59
  -3   9  -8    6.36    4.65
  -2   9  -8    1.46    3.95
   4 -11  -7    2.85    6.29
   5 -11  -7    7.32    3.58
   6 -11  -7   -2.12    2.82
   7 -11  -7    0.46    3.38
   0 -10  -7    0.23    7.71
   1 -10  -7    5.98    5.44
   2 -10  -7    3.22    3.03
   3 -10  -7    0.89    2.26
   4 -10  -7    8.40    3.15
   5 -10  -7   -0.73    1.97
   6 -10  -7    1.19    2.06
   7 -10  -7   -0.75    2.21
   8 -10  -7   13.15    4.66
   9 -10  -7    0.93    4.60
  10 -10  -7    2.34    6.00
  -1  -9  -7    3.22    4.78
   0  -9  -7    1.13    2.47
   1  -9  -7   16.62    4.36
   2  -9  -7    0.18    2.56
   3  -9  -7    0.76    2.11
   4  -9  -7    6.11    2.51
   5  -9  -7   14.41    3.43
   6  -9  -7   18.79    3.61
   7  -9  -7    1.00    2.64
   8  -9  -7    0.94    2.40
   9  -9  -7   -0.23    2.26
  10  -9  -7    2.67    4.95
  -3  -8  -7    0.84    4.58
  -2  -8  -7    6.84    3.78
  -1  -8  -7    6.18    3.39
   0  -8  -7    3.73    3.02
   1  -8  -7   14.63    3.73
   2  -8  -7    2.33    2.67
   3  -8  -7    5.09    2.50
   4  -8  -7    0.33    1.89
   5  -8  -7    0.89    1.79
   6  -8  -7    6.98    3.50
   7  -8  -7    0.46    2.04
   8  -8  -7    6.05    3.35
   9  -8  -7   12.26    4.31
  10  -8  -7    1.55    2.54
  -4  -7  -7    2.10    4.67
  -3  -7  -7   -0.51    2.74
  -2  -7  -7    4.87    3.08
  -1  -7  -7    1.22    2.73
   0  -7  -7   -0.86    2.31
   1  -7  -7   10.73    3.90
   2  -7  -7    3.71    2.28
   3  -7  -7   13.46    3.25
   4  -7  -7    0.62    1.78
   5  -7  -7    1.58    1.86
   6  -7  -7    8.76    3.52
   7  -7  -7    2.57    2.69
   8  -7  -7   14.41    4.42
   9  -7  -7   -0.45    2.41
  10  -7  -7    2.61    3.09
  11  -7  -7    1.23    3.68
  -5  -6  -7    0.73    2.52
  -4  -6  -7   -0.41    1.81
  -3  -6  -7   15.18    4.37
  -2  -6  -7   11.58    3.75
  -1  -6  -7   10.08    3.42
   0  -6  -7    9.71    3.50
   1  -6  -7   -0.10    1.70
   2  -6  -7    8.85    2.73
   3  -6  -7    5.58    2.23
   4  -6  -7    6.21    2.37
   5  -6  -7    0.61    2.08
   6  -6  -7   14.83    4.42
   7  -6  -7   11.04    3.91
   8  -6  -7    2.44    2.62
   9  -6  -7    1.15    2.76
  10  -6  -7   10.02    3.06
  11  -6  -7    5.50    3.19
  -6  -5  -7    2.87    2.68
  -5  -5  -7    0.74    2.02
  -4  -5  -7   18.90    3.72
  -3  -5  -7    1.36    2.23
  -2  -5  -7    7.04    3.10
  -1  -5  -7    0.52    2.28
   0  -5  -7    9.48    3.20
   1  -5  -7    0.37    1.63
   2  -5  -7   48.54    5.82
   3  -5  -7    3.82    2.21
   4  -5  -7   11.02    2.97
   5  -5  -7    6.84    3.29
   6  -5  -7    3.20    2.43
   7  -5  -7    4.61    2.42
   8  -5  -7    6.69    2.72
   9  -5  -7    6.46    2.76
  10  -5  -7    0.25    1.84
  11  -5  -7    1.94    2.50
  -7  -4  -7    1.30    4.28
  -6  -4  -7    9.11    2.96
  -5  -4  -7    5.14    2.43
  -4  -4  -7    0.13    1.64
  -3  -4  -7    0.78    1.66
  -2  -4  -7    5.58    2.92
  -1  -4  -7    6.69    2.92
   0  -4  -7    2.52    1.84
   1  -4  -7   14.98    3.37
   2  -4  -7   -0.69    1.40
   3  -4  -7    1.37    1.65
   4  -4  -7    9.46    3.61
   5  -4  -7    2.40    2.53
   6  -4  -7    6.45    2.43
   7  -4  -7   10.18    3.01
   8  -4  -7    1.17    1.74
   9  -4  -7   27.17    4.51
  10  -4  -7   -1.68    2.76
  11  -4  -7    4.73    4.86
  -7  -3  -7    0.92    2.63
  -6  -3  -7    1.85    1.99
  -5  -3  -7    2.74    1.83
  -4  -3  -7   10.53    2.78
  -3  -3  -7    7.61    2.40
  -2  -3  -7    1.54    2.00
  -1  -3  -7    2.60    2.03
   0  -3  -7   12.35    2.70
   1  -3  -7    2.68    1.87
   2  -3  -7   11.14    2.73
   3  -3  -7   20.57    3.59
   4  -3  -7   17.02    3.32
   5  -3  -7   42.29    5.28
   6  -3  -7    3.62    1.99
   7  -3  -7    0.06    1.73
   8  -3  -7    0.05    1.88
   9  -3  -7   14.26    4.48
  10  -3  -7    0.41    3.04
  -8  -2  -7    2.62    2.81
  -7  -2  -7    0.11    2.30
  -6  -2  -7    2.68    1.92
  -5  -2  -7    4.36    2.10
  -4  -2  -7   11.04    2.82
  -3  -2  -7   54.02    5.41
  -2  -2  -7   -0.62    1.45
  -1  -2  -7    2.89    1.79
   0  -2  -7   29.27    4.25
   1  -2  -7    1.12    1.52
   2  -2  -7   21.36    3.52
   3  -2  -7    1.39    1.70
   4  -2  -7    2.96    1.84
   5  -2  -7    1.77    1.76
   6  -2  -7    3.31    2.18
   7  -2  -7    1.41    1.97
   8  -2  -7    8.44    3.79
   9  -2  -7   -1.02    2.85
  10  -2  -7    8.80    4.23
  -9  -1  -7    0.66    7.74
  -8  -1  -7   16.07    4.46
  -7  -1  -7   16.49    4.44
  -6  -1  -7   13.24    2.90
  -5  -1  -7    0.15    1.32
  -4  -1  -7    3.48    1.84
  -3  -1  -7   17.93    3.08
  -2  -1  -7    4.69    2.29
  -1  -1  -7    0.45    1.45
   0  -1  -7   11.43    2.39
   1  -1  -7   11.20    2.71
   2  -1  -7    1.19    1.52
   3  -1  -7    5.62    2.17
   4  -1  -7    0.29    1.59
   5  -1  -7    7.58    2.49
   6  -1  -7    2.20    1.81
   7  -1  -7   10.20    4.02
   8  -1  -7    2.38    3.13
   9  -1  -7   10.55    4.47
  10  -1  -7    0.10    7.71
  -9   0  -7    0.02    2.41
  -8   0  -7    0.62    2.22
  -7   0  -7    1.52    2.01
  -6   0  -7   17.17    3.26
  -5   0  -7   13.06    2.84
  -4   0  -7    8.17    2.15
  -3   0  -7   29.22    3.81
  -2   0  -7   19.10    3.06
  -1   0  -7   13.48    2.78
   0   0  -7   -0.08    1.32
   1   0  -7   13.52    2.28
   2   0  -7   22.61    3.80
   3   0  -7   15.08    3.24
   4   0  -7    6.79    2.43
   5   0  -7   11.49    4.04
   6   0  -7   18.92    5.21
   7   0  -7   -0.08    2.26
   8   0  -7    4.60    3.51
   9   0  -7    4.67    3.55
  -9   1  -7    4.78    2.91
  -8   1  -7    1.37    2.15
  -7   1  -7    4.97    2.80
  -6   1  -7    2.12    1.67
  -5   1  -7   16.03    2.88
  -4   1  -7    1.49    1.52
  -3   1  -7    8.25    2.05
  -2   1  -7    0.39    1.10
  -1   1  -7   14.97    2.76
   0   1  -7   16.78    2.64
   1   1  -7    0.99    1.56
   2   1  -7    3.53    1.91
   3   1  -7   17.25    3.45
   4   1  -7    3.39    2.67
   5   1  -7    0.70    2.47
   6   1  -7    7.52    3.87
   7   1  -7   14.46    4.90
   8   1  -7    8.48    4.21
   9   1  -7   -0.64    6.06
 -10   2  -7   10.55    3.82
  -9   2  -7    8.09    3.45
  -8   2  -7    8.12    3.27
  -7   2  -7   -0.94    1.54
  -6   2  -7    2.98    2.39
  -5   2  -7    3.23    1.67
  -4   2  -7   -0.11    1.19
  -3   2  -7    2.37    1.41
  -2   2  -7   18.59    2.51
  -1   2  -7    1.34    1.15
   0   2  -7   20.82    3.48
   1   2  -7    8.49    2.46
   2   2  -7   -0.77    1.32
   3   2  -7   50.12    5.28
   4   2  -7   11.44    2.96
   5   2  -7    5.15    2.35
   6   2  -7    4.30    2.32
   7   2  -7    0.08    2.68
   8   2  -7    5.79    3.93
 -10   3  -7   -1.20    2.03
  -9   3  -7   12.54    4.02
  -8   3  -7    3.25    2.49
  -7   3  -7    3.07    2.32
  -6   3  -7    7.37    3.02
  -5   3  -7   59.77    5.45
  -4   3  -7   19.20    2.97
  -3   3  -7   16.71    2.87
  -2   3  -7    9.68    1.79
  -1   3  -7    2.36    1.20
   0   3  -7   16.30    2.54
   1   3  -7    0.45    1.50
   2   3  -7    2.84    1.93
   3   3  -7    7.20    2.39
   4   3  -7   13.22    3.26
   5   3  -7    3.22    1.91
   6   3  -7    2.28    2.17
   7   3  -7    1.35    2.19
   8   3  -7    4.16    7.31
 -10   4  -7   -1.34    2.01
  -9   4  -7   24.91    5.04
  -8   4  -7   -0.26    2.06
  -7   4  -7   10.82    3.42
  -6   4  -7    8.96    3.13
  -5   4  -7    3.69    1.80
  -4   4  -7    9.14    1.89
  -3   4  -7    1.75    1.09
  -2   4  -7    0.76    0.77
  -1   4  -7   16.62    3.17
   0   4  -7    8.14    2.51
   1   4  -7    9.31    2.66
   2   4  -7    3.51    2.18
   3   4  -7    1.68    1.70
   4   4  -7    1.11    1.76
   5   4  -7    7.14    2.65
   6   4  -7    8.39    3.21
 -10   5  -7    1.02    2.27
  -9   5  -7    4.99    2.58
  -8   5  -7    3.91    2.08
  -7   5  -7    1.04    1.65
  -6   5  -7    0.16    1.49
  -5   5  -7    9.86    2.44
  -4   5  -7   12.62    2.66
  -3   5  -7    1.90    1.17
  -2   5  -7   52.93    4.18
  -1   5  -7    1.10    1.32
   0   5  -7    6.27    2.40
   1   5  -7    2.37    1.92
   2   5  -7    3.90    2.22
   3   5  -7    1.27    1.79
   4   5  -7   31.59    5.40
   5   5  -7    0.89    2.15
 -11   6  -7    7.08    4.79
 -10   6  -7    9.32    2.93
  -9   6  -7   -0.19    1.78
  -8   6  -7    2.59    2.01
  -7   6  -7    9.72    2.69
  -6   6  -7    8.52    3.20
  -5   6  -7    2.28    2.26
  -4   6  -7    7.50    2.15
  -3   6  -7    7.63    2.03
  -2   6  -7   16.81    3.52
  -1   6  -7    0.34    1.36
   0   6  -7   13.88    2.86
   1   6  -7    9.27    3.05
   2   6  -7    6.52    2.93
   3   6  -7   24.10    4.89
   4   6  -7   -2.04    1.66
 -11   7  -7    1.32    4.37
 -10   7  -7   -0.70    2.46
  -9   7  -7    0.14    2.41
  -8   7  -7   19.63    4.82
  -7   7  -7    1.89    2.32
  -6   7  -7    3.52    2.41
  -5   7  -7    1.14    1.53
  -4   7  -7   -0.88    1.53
  -3   7  -7   18.72    3.05
  -2   7  -7    2.04    1.84
  -1   7  -7   16.47    3.67
   0   7  -7    1.18    1.63
   1   7  -7    0.15    2.03
   2   7  -7    5.20    2.56
   3   7  -7    0.84    2.20
   4   7  -7    7.70    6.07
 -10   8  -7    5.40    3.50
  -9   8  -7    9.72    3.77
  -8   8  -7    1.38    2.77
  -7   8  -7    0.06    2.27
  -6   8  -7    8.11    2.60
  -5   8  -7    0.07    1.85
  -4   8  -7    2.44    2.07
  -3   8  -7    3.73    2.04
  -2   8  -7    6.10    2.69
  -1   8  -7   16.32    3.64
   0   8  -7    4.73    2.54
   1   8  -7    2.35    2.43
   2   8  -7   15.41    4.24
 -10   9  -7    4.27    4.63
  -9   9  -7   -1.01    2.65
  -8   9  -7    2.74    3.24
  -7   9  -7    8.70    3.53
  -6   9  -7   15.91    4.01
  -5   9  -7   25.92    4.84
  -4   9  -7    9.61    3.42
  -3   9  -7    2.65    2.15
  -2   9  -7   -1.27    1.69
  -1   9  -7    8.26    3.05
   0   9  -7    1.88    2.30
  -9  10  -7    9.93    6.06
  -8  10  -7    9.92    5.81
  -7  10  -7    0.66    2.38
  -6  10  -7    1.24    2.22
  -5  10  -7   -1.36    2.20
  -4  10  -7    7.23    4.05
  -3  10  -7    2.86    2.40
  -2  10  -7    2.74    2.45
  -1  10  -7    2.82    3.42
  -8  11  -7    1.72    3.52
  -7  11  -7   -0.84    2.80
  -6  11  -7   -1.22    2.44
  -5  11  -7    3.06    4.09
  -3  11  -7    5.36    4.00
   4 -12  -6    2.72    2.78
   5 -12  -6    7.73    3.43
   6 -12  -6    5.87    2.98
   7 -12  -6    1.33    2.28
   8 -12  -6   14.56    4.23
   9 -12  -6   -4.27    3.05
   1 -11  -6    1.83    4.01
   2 -11  -6    1.92    2.63
   3 -11  -6    1.22    2.33
   4 -11  -6   39.45    6.43
   5 -11  -6    3.64    2.51
   6 -11  -6    0.98    2.16
   7 -11  -6    6.01    2.95
   8 -11  -6   -1.05    2.06
   9 -11  -6    1.99    3.81
  10 -11  -6    0.00    3.10
  -1 -10  -6    0.05    3.93
   0 -10  -6    8.24    3.77
   1 -10  -6    1.59    2.71
   2 -10  -6   13.83    4.31
   3 -10  -6    0.98    2.17
   4 -10  -6    4.96    2.72
   5 -10  -6    3.70    2.18
   6 -10  -6   18.09    3.41
   7 -10  -6    1.62    1.78
   8 -10  -6   30.55    4.62
   9 -10  -6    0.09    2.39
  10 -10  -6    5.83    3.94
  11 -10  -6   12.98    4.66
  12 -10  -6    3.78    6.38
  -3  -9  -6   -0.90    3.17
  -2  -9  -6    2.14    4.31
  -1  -9  -6    2.16    2.58
   0  -9  -6   11.30    3.96
   1  -9  -6    7.06    3.13
   2  -9  -6   -1.32    1.79
   3  -9  -6   10.20    2.87
   4  -9  -6    5.54    2.32
   5  -9  -6    3.02    1.91
   6  -9  -6    7.56    2.41
   7  -9  -6    0.63    1.65
   8  -9  -6   34.32    6.32
   9  -9  -6    8.33    3.96
  10  -9  -6    1.14    3.01
  11  -9  -6    2.16    3.30
  12  -9  -6   -1.41    5.72
  -4  -8  -6    9.41    4.06
  -3  -8  -6    0.38    1.83
  -2  -8  -6   28.97    4.35
  -1  -8  -6   15.36    4.01
   0  -8  -6   33.16    5.91
   1  -8  -6    2.65    2.35
   2  -8  -6   20.53    4.68
   3  -8  -6    4.66    2.23
   4  -8  -6    3.34    1.97
   5  -8  -6    4.64    2.06
   6  -8  -6    2.18    1.66
   7  -8  -6   21.01    3.70
   8  -8  -6   25.95    5.49
   9  -8  -6    7.62    3.58
  10  -8  -6    8.85    3.80
  11  -8  -6   -0.24    3.13
  12  -8  -6    8.23    4.22
  -5  -7  -6    0.88    2.54
  -4  -7  -6    5.43    2.49
  -3  -7  -6    0.68    1.66
  -2  -7  -6    0.79    1.70
  -1  -7  -6   26.63    5.07
   0  -7  -6    1.27    1.90
   1  -7  -6    6.95    2.96
   2  -7  -6   13.58    2.85
   3  -7  -6    0.96    1.62
   4  -7  -6   51.86    5.54
   5  -7  -6    0.48    1.50
   6  -7  -6    1.44    1.71
   7  -7  -6    0.35    2.12
   8  -7  -6    6.55    3.19
   9  -7  -6    2.80    2.39
  10  -7  -6    2.32    3.03
  11  -7  -6   48.71    5.98
  12  -7  -6    4.70    3.97
  -6  -6  -6    8.00    3.63
  -5  -6  -6    1.91    2.11
  -4  -6  -6   29.76    4.25
  -3  -6  -6    7.35    2.45
  -2  -6  -6   -0.26    1.47
  -1  -6  -6    1.44    1.48
   0  -6  -6   -0.89    1.55
   1  -6  -6   52.03    6.66
   2  -6  -6    4.52    1.98
   3  -6  -6   55.94    5.84
   4  -6  -6   21.57    3.56
   5  -6  -6   44.37    4.94
   6  -6  -6   -0.53    1.52
   7  -6  -6    2.40    2.38
   8  -6  -6   16.54    3.35
   9  -6  -6   12.77    3.15
  10  -6  -6    3.02    2.29
  11  -6  -6    0.63    2.25
  12  -6  -6    7.41    4.13
  13  -6  -6   -4.81    3.81
  -7  -5  -6    4.14    3.03
  -6  -5  -6    1.19    1.92
  -5  -5  -6   11.64    2.98
  -4  -5  -6    3.32    1.95
  -3  -5  -6    2.19    1.70
  -2  -5  -6    0.11    1.22
  -1  -5  -6   42.54    4.65
   0  -5  -6   26.49    4.64
   1  -5  -6   29.11    4.20
   2  -5  -6   13.11    3.05
   3  -5  -6   22.24    3.66
   4  -5  -6   16.54    3.07
   5  -5  -6   26.66    3.68
   6  -5  -6   36.37    4.53
   7  -5  -6   19.91    3.52
   8  -5  -6    2.68    1.90
   9  -5  -6    2.77    2.08
  10  -5  -6    7.96    2.81
  11  -5  -6    0.41    2.14
  12  -5  -6   -0.03    2.29
  -8  -4  -6    3.36    2.91
  -7  -4  -6   35.22    5.90
  -6  -4  -6    1.96    1.77
  -5  -4  -6    0.26    1.53
  -4  -4  -6    4.03    2.00
  -3  -4  -6   58.90    5.55
  -2  -4  -6   22.33    3.30
  -1  -4  -6   20.25    2.93
   0  -4  -6    0.97    1.37
   1  -4  -6    7.76    2.43
   2  -4  -6    4.46    2.02
   3  -4  -6    2.55    1.54
   4  -4  -6    1.61    1.44
   5  -4  -6   33.89    4.42
   6  -4  -6    7.90    2.48
   7  -4  -6    1.64    1.82
   8  -4  -6    2.57    1.97
   9  -4  -6    2.52    2.08
  10  -4  -6   28.74    4.46
  11  -4  -6   10.96    4.39
  12  -4  -6   14.49    4.88
  -9  -3  -6   -0.92    2.79
  -8  -3  -6    6.28    3.21
  -7  -3  -6    4.07    2.68
  -6  -3  -6   10.23    2.67
  -5  -3  -6    3.73    1.79
  -4  -3  -6    1.39    1.35
  -3  -3  -6   59.59    5.53
  -2  -3  -6   26.71    3.56
  -1  -3  -6    1.66    1.15
   0  -3  -6    4.84    1.83
   1  -3  -6    0.58    1.33
   2  -3  -6   68.89    6.00
   3  -3  -6    5.17    1.95
   4  -3  -6    5.19    1.58
   5  -3  -6    9.25    2.49
   6  -3  -6   39.95    4.88
   7  -3  -6   53.01    5.58
   8  -3  -6    3.38    1.88
   9  -3  -6    7.66    2.56
  10  -3  -6    1.34    2.75
  11  -3  -6    2.76    3.21
  12  -3  -6    0.16    3.69
  -9  -2  -6    0.58    2.56
  -8  -2  -6    7.01    3.08
  -7  -2  -6   -0.11    1.87
  -6  -2  -6    7.65    2.29
  -5  -2  -6   18.72    3.19
  -4  -2  -6    6.51    2.09
  -3  -2  -6   17.51    2.89
  -2  -2  -6    6.86    1.93
  -1  -2  -6   86.53    6.04
   0  -2  -6   49.53    4.76
   1  -2  -6   39.85    4.48
   2  -2  -6   48.45    4.23
   3  -2  -6    0.45    1.04
   4  -2  -6    2.20    1.69
   5  -2  -6   18.76    3.36
   6  -2  -6   16.73    3.31
   7  -2  -6    2.44    1.77
   8  -2  -6    0.40    1.58
   9  -2  -6   -1.81    2.18
  10  -2  -6   38.90    6.59
  11  -2  -6    1.23    3.13
 -10  -1  -6    6.27    3.15
  -9  -1  -6    0.70    2.29
  -8  -1  -6    6.80    3.09
  -7  -1  -6    5.34    2.41
  -6  -1  -6    6.31    1.98
  -5  -1  -6   47.81    4.88
  -4  -1  -6   32.15    3.87
  -3  -1  -6    9.69    2.13
  -2  -1  -6    1.74    1.13
  -1  -1  -6   32.72    3.21
   0  -1  -6   33.03    3.38
   1  -1  -6   24.11    2.94
   2  -1  -6   38.39    3.53
   3  -1  -6   78.32    6.43
   4  -1  -6    2.20    1.68
   5  -1  -6   17.75    3.24
   6  -1  -6   43.81    5.20
   7  -1  -6    1.57    1.74
   8  -1  -6   21.25    5.06
   9  -1  -6   20.17    5.12
  10  -1  -6    0.37    2.71
  11  -1  -6    0.36    2.75
 -10   0  -6    4.72    2.83
  -9   0  -6    7.07    3.13
  -8   0  -6   26.57    5.07
  -7   0  -6    1.24    1.69
  -6   0  -6    1.00    1.32
  -5   0  -6   22.08    3.28
  -4   0  -6    2.48    1.39
  -3   0  -6   10.20    2.08
  -2   0  -6   47.15    4.20
  -1   0  -6   33.05    3.15
   0   0  -6    6.15    1.38
   1   0  -6   28.10    3.05
   2   0  -6   49.62    3.91
   3   0  -6    7.72    2.28
   4   0  -6    1.21    1.45
   5   0  -6   29.36    4.09
   6   0  -6    2.69    2.19
   7   0  -6   -0.41    2.20
   8   0  -6   19.67    4.94
   9   0  -6    6.81    3.55
  10   0  -6    5.38    4.08
 -11   1  -6    1.13    2.85
 -10   1  -6    2.64    2.60
  -9   1  -6   19.04    4.27
  -8   1  -6   13.24    3.59
  -7   1  -6    0.98    1.82
  -6   1  -6   36.31    4.18
  -5   1  -6   19.72    2.86
  -4   1  -6    2.74    1.41
  -3   1  -6   95.58    6.28
  -2   1  -6   35.63    3.61
  -1   1  -6   32.77    2.52
   0   1  -6   31.91    2.69
   1   1  -6   33.93    3.25
   2   1  -6    0.73    1.15
   3   1  -6    7.27    1.81
   4   1  -6   34.96    3.66
   5   1  -6   53.47    5.72
   6   1  -6    7.02    2.46
   7   1  -6    7.66    2.53
   8   1  -6    5.10    3.13
   9   1  -6   -1.69    2.35
  10   1  -6   -0.26    2.83
 -11   2  -6    1.11    2.37
 -10   2  -6   36.42    6.08
  -9   2  -6    0.05    1.98
  -8   2  -6    1.93    2.11
  -7   2  -6    2.79    1.58
  -6   2  -6   18.63    2.85
  -5   2  -6   25.91    2.79
  -4   2  -6    3.07    1.15
  -3   2  -6    0.55    0.85
  -2   2  -6   48.75    2.82
  -1   2  -6   37.52    2.43
   0   2  -6   47.80    2.94
   1   2  -6   88.73    5.40
   2   2  -6    4.60    1.41
   3   2  -6   14.38    2.93
   4   2  -6    1.02    1.39
   5   2  -6   17.63    3.27
   6   2  -6    9.48    2.58
   7   2  -6   -0.33    1.49
   8   2  -6    6.07    2.61
   9   2  -6    1.17    2.27
  10   2  -6    2.52    9.84
 -12   3  -6    2.82    3.37
 -11   3  -6    1.44    2.38
 -10   3  -6    1.41    1.79
  -9   3  -6    6.70    2.38
  -8   3  -6    2.94    1.74
  -7   3  -6   56.02    5.26
  -6   3  -6   57.83    5.10
  -5   3  -6   18.05    2.38
  -4   3  -6    6.16    1.49
  -3   3  -6    6.72    1.20
  -2   3  -6   87.55    3.27
  -1   3  -6    1.74    0.69
   0   3  -6    9.51    1.30
   1   3  -6    1.48    0.95
   2   3  -6   23.98    3.60
   3   3  -6   56.03    5.55
   4   3  -6    1.05    1.54
   5   3  -6    2.99    1.99
   6   3  -6   13.17    3.05
   7   3  -6    5.85    2.68
   8   3  -6   -0.91    1.75
   9   3  -6   -0.69    2.62
 -12   4  -6    8.44    2.94
 -11   4  -6   10.85    3.15
 -10   4  -6   27.34    4.12
  -9   4  -6    2.55    1.82
  -8   4  -6    2.72    1.55
  -7   4  -6    1.42    1.35
  -6   4  -6    3.43    1.60
  -5   4  -6   32.65    3.81
  -4   4  -6    1.84    0.86
  -3   4  -6    1.88    0.73
  -2   4  -6    4.79    0.95
  -1   4  -6    5.03    0.99
   0   4  -6    2.49    1.22
   1   4  -6   16.61    2.97
   2   4  -6   16.88    3.11
   3   4  -6   42.94    4.85
   4   4  -6    2.84    1.67
   5   4  -6    3.36    2.09
   6   4  -6    0.12    1.44
   7   4  -6   39.89    5.03
   8   4  -6    5.13    2.95
 -12   5  -6    1.38    2.05
 -11   5  -6   -1.06    1.58
 -10   5  -6    7.72    2.49
  -9   5  -6    2.20    1.89
  -8   5  -6    4.10    1.87
  -7   5  -6   14.45    2.92
  -6   5  -6   37.78    4.32
  -5   5  -6   32.82    3.10
  -4   5  -6   19.03    2.44
  -3   5  -6   25.68    2.19
  -2   5  -6   14.40    1.69
  -1   5  -6   36.46    3.50
   0   5  -6   30.18    3.17
   1   5  -6   37.19    3.59
   2   5  -6    0.49    1.45
   3   5  -6    2.36    1.82
   4   5  -6    2.05    1.92
   5   5  -6   12.69    3.39
   6   5  -6    3.18    2.28
   7   5  -6    9.97    3.45
 -12   6  -6    6.94    3.77
 -11   6  -6    0.22    2.63
 -10   6  -6    1.73    1.85
  -9   6  -6   14.45    3.17
  -8   6  -6   10.69    2.64
  -7   6  -6    5.02    1.86
  -6   6  -6    2.45    1.42
  -5   6  -6   38.59    4.15
  -4   6  -6   26.18    2.80
  -3   6  -6   49.85    3.92
  -2   6  -6    7.83    1.74
  -1   6  -6   49.39    4.56
   0   6  -6    1.59    1.21
   1   6  -6    2.20    1.44
   2   6  -6    0.54    1.48
   3   6  -6    8.31    2.93
   4   6  -6   29.97    5.00
   5   6  -6    0.75    2.05
   6   6  -6    9.24    3.25
 -12   7  -6    5.24    3.39
 -11   7  -6   38.06    6.28
 -10   7  -6    5.04    2.84
  -9   7  -6   -0.16    1.99
  -8   7  -6    8.46    3.16
  -7   7  -6   -0.51    1.45
  -6   7  -6    2.41    1.59
  -5   7  -6    2.47    1.51
  -4   7  -6   52.36    4.60
  -3   7  -6    2.91    1.46
  -2   7  -6   21.66    3.11
  -1   7  -6    6.87    1.99
   0   7  -6    0.67    1.24
   1   7  -6   24.11    3.48
   2   7  -6   -0.11    1.78
   3   7  -6    1.88    1.93
   4   7  -6    9.61    3.14
   5   7  -6    2.98    2.55
 -12   8  -6    8.88    3.79
 -11   8  -6    6.50    3.56
 -10   8  -6    8.59    3.34
  -9   8  -6    6.19    3.45
  -8   8  -6   24.73    5.06
  -7   8  -6   16.85    3.11
  -6   8  -6   -0.38    1.22
  -5   8  -6    2.49    1.70
  -4   8  -6    4.19    1.74
  -3   8  -6    4.63    1.78
  -2   8  -6   10.67    2.75
  -1   8  -6    9.13    2.54
   0   8  -6   22.76    3.42
   1   8  -6   16.55    3.03
   2   8  -6   32.68    5.14
   3   8  -6   -1.10    1.75
   4   8  -6   15.17    3.99
 -12   9  -6    3.39    5.40
 -11   9  -6    0.63    2.86
 -10   9  -6    2.00    2.85
  -9   9  -6    4.53    3.27
  -8   9  -6   25.19    3.83
  -7   9  -6   -0.10    1.62
  -6   9  -6    5.31    2.57
  -5   9  -6    1.51    2.11
  -4   9  -6    5.85    1.85
  -3   9  -6   16.25    2.98
  -2   9  -6    0.16    1.52
  -1   9  -6    7.20    2.64
   0   9  -6   13.08    3.40
   1   9  -6    2.74    1.79
   2   9  -6    0.72    2.10
   3   9  -6    1.44    3.24
 -11  10  -6    8.27    4.29
 -10  10  -6    2.84    3.24
  -9  10  -6    1.50    1.80
  -8  10  -6   43.02    6.24
  -7  10  -6    2.89    2.32
  -6  10  -6   31.74    5.46
  -5  10  -6    6.79    3.05
  -4  10  -6    4.19    1.93
  -3  10  -6    3.17    1.97
  -2  10  -6   12.52    3.20
  -1  10  -6   -0.06    1.83
   0  10  -6    4.97    2.61
   1  10  -6   -1.32    1.78
   2  10  -6    5.36    4.51
 -10  11  -6   -1.80    2.43
  -9  11  -6    2.21    2.51
  -8  11  -6    1.31    2.28
  -7  11  -6    5.54    2.93
  -6  11  -6    1.25    2.08
  -5  11  -6    1.40    2.42
  -4  11  -6   45.25    6.09
  -3  11  -6   -0.50    1.82
  -2  11  -6    1.57    2.33
  -1  11  -6    8.16    3.23
 -10  12  -6    8.58    4.19
  -9  12  -6   -0.33    2.57
  -8  12  -6    7.64    3.42
  -7  12  -6    0.40    2.32
  -6  12  -6   12.74    4.09
  -5  12  -6   14.42    4.18
  -4  12  -6    5.78    2.58
  -3  12  -6    0.42    2.97
   8 -14  -5    2.31    4.39
   4 -13  -5   17.27    6.39
   5 -13  -5   -2.71    3.36
   6 -13  -5    0.93    2.46
   7 -13  -5   -1.31    2.00
   8 -13  -5    0.56    2.20
   9 -13  -5    3.63    2.78
  10 -13  -5   -0.72    2.54
   1 -12  -5    2.38    4.25
   2 -12  -5    7.96    4.97
   3 -12  -5    2.06    3.90
   4 -12  -5   11.18    3.66
   5 -12  -5   -0.32    2.07
   6 -12  -5    0.55    2.11
   7 -12  -5   26.15    5.16
   8 -12  -5   34.51    5.91
   9 -12  -5    1.16    2.49
  10 -12  -5    5.32    3.04
  11 -12  -5    5.14    4.96
  -2 -11  -5    5.83    5.29
  -1 -11  -5    3.41    3.10
   0 -11  -5   20.62    7.81
   1 -11  -5    5.95    4.51
   2 -11  -5    3.36    2.72
   3 -11  -5   15.51    4.15
   4 -11  -5    6.86    2.95
   5 -11  -5   18.73    4.25
   6 -11  -5    6.27    2.87
   7 -11  -5    8.59    3.12
   8 -11  -5   16.63    4.13
   9 -11  -5    2.26    2.39
  10 -11  -5    6.01    4.18
  11 -11  -5   11.30    5.79
  12 -11  -5    5.29    5.02
  -3 -10  -5    2.19    2.91
  -2 -10  -5    6.34    2.91
  -1 -10  -5    6.24    3.49
   0 -10  -5   47.38    6.74
   1 -10  -5   38.22    6.33
   2 -10  -5    8.41    3.31
   3 -10  -5   19.12    4.34
   4 -10  -5    1.64    1.87
   5 -10  -5    1.09    1.86
   6 -10  -5   14.67    3.83
   7 -10  -5    3.02    2.22
   8 -10  -5   19.92    4.28
   9 -10  -5    5.36    2.63
  10 -10  -5   44.45    7.79
  11 -10  -5   11.30    4.72
  12 -10  -5    3.84    4.59
  -4  -9  -5    4.95    2.99
  -3  -9  -5    0.05    2.36
  -2  -9  -5    0.13    2.33
  -1  -9  -5    2.61    1.98
   0  -9  -5    1.51    1.79
   1  -9  -5    7.46    3.17
   2  -9  -5   13.94    3.92
   3  -9  -5    0.68    1.67
   4  -9  -5   44.45    5.01
   5  -9  -5    4.84    2.06
   6  -9  -5    7.80    2.43
   7  -9  -5    5.87    2.10
   8  -9  -5   12.55    2.93
   9  -9  -5   -0.53    1.95
  10  -9  -5   39.90    6.58
  11  -9  -5    3.78    3.17
  12  -9  -5    6.73    4.12
  13  -9  -5   14.18    5.38
  -5  -8  -5    0.72    2.86
  -4  -8  -5   18.15    4.37
  -3  -8  -5    5.52    2.68
  -2  -8  -5   11.51    2.68
  -1  -8  -5   10.17    2.56
   0  -8  -5    2.65    1.69
   1  -8  -5   14.29    2.94
   2  -8  -5   59.83    7.21
   3  -8  -5   81.88    7.06
   4  -8  -5   41.38    4.47
   5  -8  -5    3.03    1.79
   6  -8  -5   24.12    3.68
   7  -8  -5    0.21    1.45
   8  -8  -5    1.52    1.63
   9  -8  -5    7.85    3.51
  10  -8  -5    3.23    3.21
  11  -8  -5   12.00    4.42
  12  -8  -5    7.83    4.04
  13  -8  -5   -1.71    3.05
  -7  -7  -5   17.06    7.30
  -6  -7  -5    0.66    2.71
  -5  -7  -5   19.58    4.68
  -4  -7  -5    7.93    2.43
  -3  -7  -5    1.12    1.60
  -2  -7  -5    9.38    2.50
  -1  -7  -5    1.22    1.51
   0  -7  -5    7.71    2.10
   1  -7  -5    6.52    1.89
   2  -7  -5   43.25    4.83
   3  -7  -5   10.99    2.60
   4  -7  -5   22.91    3.47
   5  -7  -5   14.92    3.13
   6  -7  -5  160.39    8.27
   7  -7  -5    8.76    2.44
   8  -7  -5   15.86    4.15
   9  -7  -5   10.74    4.02
  10  -7  -5   24.02    4.01
  11  -7  -5    4.63    3.10
  12  -7  -5    2.70    3.45
  13  -7  -5    4.16    3.49
  -8  -6  -5    6.45    4.90
  -7  -6  -5    4.15    3.11
  -6  -6  -5   -0.07    2.41
  -5  -6  -5    3.54    1.89
  -4  -6  -5   11.66    2.92
  -3  -6  -5   12.81    2.71
  -2  -6  -5   33.46    4.13
  -1  -6  -5  153.51    7.61
   0  -6  -5    0.32    1.16
   1  -6  -5   23.27    3.04
   2  -6  -5    5.37    2.06
   3  -6  -5   15.59    3.08
   4  -6  -5    4.93    1.92
   5  -6  -5    1.85    1.41
   6  -6  -5    2.06    1.61
   7  -6  -5    4.54    1.66
   8  -6  -5   59.31    5.98
   9  -6  -5    0.96    1.87
  10  -6  -5    4.54    2.39
  11  -6  -5   13.04    3.42
  12  -6  -5    3.37    3.38
  13  -6  -5   -2.74    3.08
  14  -6  -5    2.24    5.04
  -9  -5  -5   22.86   10.25
  -8  -5  -5   -1.57    2.43
  -7  -5  -5    1.82    2.31
  -6  -5  -5   15.98    3.41
  -5  -5  -5    0.89    1.44
  -4  -5  -5    9.59    2.29
  -3  -5  -5    6.38    2.06
  -2  -5  -5   15.99    2.80
  -1  -5  -5    1.74    1.31
   0  -5  -5   36.98    3.90
   1  -5  -5    4.12    1.36
   2  -5  -5   88.26    6.86
   3  -5  -5    7.19    2.19
   4  -5  -5  109.18    6.72
   5  -5  -5   37.43    4.30
   6  -5  -5   24.97    3.00
   7  -5  -5   45.31    4.99
   8  -5  -5   64.25    5.88
   9  -5  -5   41.36    4.99
  10  -5  -5    1.00    1.97
  11  -5  -5    3.91    2.46
  12  -5  -5   15.66    4.60
  13  -5  -5    2.59    3.66
  -9  -4  -5   12.40    4.03
  -8  -4  -5    6.30    3.03
  -7  -4  -5    3.30    2.26
  -6  -4  -5    4.73    1.87
  -5  -4  -5   46.09    4.95
  -4  -4  -5   43.91    4.67
  -3  -4  -5   17.14    2.74
  -2  -4  -5    6.77    2.05
  -1  -4  -5  104.04    6.69
   0  -4  -5    1.69    1.03
   1  -4  -5  113.40    5.46
   2  -4  -5    4.16    1.65
   3  -4  -5    8.56    2.11
   4  -4  -5    2.67    1.28
   5  -4  -5    3.27    1.20
   6  -4  -5    5.31    2.06
   7  -4  -5   18.77    3.34
   8  -4  -5   42.23    4.92
   9  -4  -5    3.48    2.12
  10  -4  -5   11.36    3.01
  11  -4  -5   12.53    3.37
  12  -4  -5   22.39    5.73
  13  -4  -5    2.61    6.26
 -10  -3  -5    1.37    3.23
  -9  -3  -5    0.78    2.04
  -8  -3  -5   12.47    3.72
  -7  -3  -5   13.41    3.64
  -6  -3  -5    0.07    1.30
  -5  -3  -5   69.79    5.76
  -4  -3  -5   11.02    2.36
  -3  -3  -5   20.07    2.96
  -2  -3  -5    3.00    1.31
  -1  -3  -5    6.16    1.43
   0  -3  -5   94.96    5.35
   1  -3  -5   53.45    3.88
   2  -3  -5   92.92    5.76
   3  -3  -5   92.71    5.15
   4  -3  -5  109.43    5.59
   5  -3  -5   81.11    5.62
   6  -3  -5   14.29    2.92
   7  -3  -5   20.64    3.43
   8  -3  -5    2.75    1.96
   9  -3  -5    7.79    2.52
  10  -3  -5    1.28    1.91
  11  -3  -5   30.42    6.12
  12  -3  -5    1.31    2.67
 -11  -2  -5   14.06    8.90
 -10  -2  -5    4.95    3.09
  -9  -2  -5    2.32    2.34
  -8  -2  -5    4.43    2.62
  -7  -2  -5   11.69    3.25
  -6  -2  -5   55.47    5.04
  -5  -2  -5   41.06    4.24
  -4  -2  -5    8.72    1.99
  -3  -2  -5   74.41    5.40
  -2  -2  -5    9.29    1.85
  -1  -2  -5   93.54    6.90
   0  -2  -5   20.05    2.29
   1  -2  -5   20.52    2.28
   2  -2  -5   15.56    2.17
   3  -2  -5   50.43    3.92
   4  -2  -5    8.79    1.72
   5  -2  -5    2.59    1.37
   6  -2  -5    2.77    1.63
   7  -2  -5   18.07    3.25
   8  -2  -5   26.71    3.86
   9  -2  -5    7.73    2.50
  10  -2  -5   17.40    4.47
  11  -2  -5    1.17    2.41
  12  -2  -5    1.13    2.86
  13  -2  -5   -0.85    3.60
 -11  -1  -5    1.68    2.27
 -10  -1  -5    7.91    2.99
  -9  -1  -5   36.92    5.72
  -8  -1  -5    5.01    2.55
  -7  -1  -5   13.66    3.42
  -6  -1  -5    6.44    1.93
  -5  -1  -5   30.21    3.56
  -4  -1  -5    3.53    1.28
  -3  -1  -5  119.86    5.82
  -2  -1  -5   48.46    4.02
  -1  -1  -5   16.44    2.11
   0  -1  -5   41.53    3.25
   1  -1  -5   42.53    2.91
   2  -1  -5   21.07    2.45
   3  -1  -5   95.63    4.78
   4  -1  -5    6.93    2.17
   5  -1  -5  119.90    6.83
   6  -1  -5    3.32    1.74
   7  -1  -5  159.81    8.06
   8  -1  -5    1.39    1.93
   9  -1  -5   10.80    3.58
  10  -1  -5    5.61    3.14
  11  -1  -5    7.04    3.11
  12  -1  -5    2.18    2.75
 -12   0  -5    8.63    4.75
 -11   0  -5   13.20    4.06
 -10   0  -5   37.85    5.99
  -9   0  -5    1.20    2.02
  -8   0  -5    4.26    1.75
  -7   0  -5    7.86    2.08
  -6   0  -5    1.28    0.98
  -5   0  -5   41.71    3.33
  -4   0  -5    1.34    0.87
  -3   0  -5  100.62    4.23
  -2   0  -5   22.85    2.15
  -1   0  -5   48.59    2.90
   0   0  -5   -0.58    0.47
   1   0  -5   43.12    2.81
   2   0  -5   18.44    2.19
   3   0  -5   91.19    5.34
   4   0  -5    3.80    1.28
   5   0  -5   43.48    3.81
   6   0  -5    0.34    0.94
   7   0  -5   15.74    3.06
   8   0  -5    4.87    2.74
   9   0  -5    2.63    2.76
  10   0  -5   44.05    7.00
  11   0  -5   14.11    4.42
  12   0  -5   12.34    8.10
 -12   1  -5   -1.72    2.20
 -11   1  -5    5.60    2.35
 -10   1  -5    4.38    1.99
  -9   1  -5   15.02    3.01
  -8   1  -5    0.33    1.27
  -7   1  -5  152.08    7.26
  -6   1  -5    1.66    0.99
  -5   1  -5  109.30    4.91
  -4   1  -5    7.80    1.40
  -3   1  -5   92.57    3.29
  -2   1  -5   18.49    1.58
  -1   1  -5   43.59    2.56
   0   1  -5   46.01    2.43
   1   1  -5   18.56    1.70
   2   1  -5   56.89    3.01
   3   1  -5  119.42    5.05
   4   1  -5    2.72    1.14
   5   1  -5   27.95    3.05
   6   1  -5    5.54    2.10
   7   1  -5   15.00    3.08
   8   1  -5    7.14    2.28
   9   1  -5   39.20    5.10
  10   1  -5    6.94    3.26
  11   1  -5    0.86    2.55
 -13   2  -5    2.72    2.87
 -12   2  -5    0.05    1.84
 -11   2  -5    0.61    1.77
 -10   2  -5   15.30    3.27
  -9   2  -5    9.11    2.46
  -8   2  -5   27.25    3.70
  -7   2  -5    8.29    2.02
  -6   2  -5    2.80    1.25
  -5   2  -5    4.33    1.10
  -4   2  -5    5.79    1.06
  -3   2  -5   52.68    2.68
  -2   2  -5   19.31    1.39
  -1   2  -5   17.38    1.36
   0   2  -5   19.82    1.50
   1   2  -5   96.05    3.58
   2   2  -5    8.65    1.66
   3   2  -5   91.32    4.70
   4   2  -5    4.48    1.68
   5   2  -5   30.15    3.85
   6   2  -5   56.98    5.58
   7   2  -5    6.32    2.34
   8   2  -5    4.55    1.96
   9   2  -5    3.74    2.06
  10   2  -5    6.27    2.47
 -13   3  -5    1.00    2.45
 -12   3  -5    1.07    1.67
 -11   3  -5   14.79    3.10
 -10   3  -5    1.41    1.44
  -9   3  -5   10.32    2.39
  -8   3  -5    3.20    1.69
  -7   3  -5   21.19    3.05
  -6   3  -5   19.14    2.79
  -5   3  -5   88.87    4.19
  -4   3  -5  112.39    3.38
  -3   3  -5   93.50    3.07
  -2   3  -5   96.42    2.88
  -1   3  -5   50.17    2.35
   0   3  -5   95.37    3.24
   1   3  -5    8.74    1.34
   2   3  -5    5.16    1.40
   3   3  -5   21.07    3.20
   4   3  -5   19.30    3.18
   5   3  -5   64.23    5.85
   6   3  -5    1.19    1.30
   7   3  -5   16.69    3.25
   8   3  -5   11.76    2.89
   9   3  -5    5.83    2.51
  10   3  -5    1.62    2.83
 -13   4  -5    1.50    2.06
 -12   4  -5   34.89    4.78
 -11   4  -5    8.12    2.48
 -10   4  -5   12.32    2.80
  -9   4  -5    6.45    1.94
  -8   4  -5   34.63    4.17
  -7   4  -5   16.41    2.72
  -6   4  -5    7.24    1.37
  -5   4  -5    4.31    1.15
  -4   4  -5    3.10    0.85
  -3   4  -5    6.61    0.91
  -2   4  -5    6.81    0.93
  -1   4  -5  116.90    3.12
   0   4  -5    3.48    0.94
   1   4  -5   99.03    5.17
   2   4  -5    3.78    1.20
   3   4  -5   22.96    3.24
   4   4  -5   47.39    5.01
   5   4  -5   46.15    5.27
   6   4  -5    3.49    1.62
   7   4  -5    2.89    2.02
   8   4  -5    7.96    2.81
   9   4  -5   18.36    4.00
 -13   5  -5    3.05    3.23
 -12   5  -5   21.98    3.80
 -11   5  -5    5.77    2.37
 -10   5  -5    1.29    1.51
  -9   5  -5   52.84    5.23
  -8   5  -5   77.48    6.23
  -7   5  -5   47.28    3.88
  -6   5  -5   31.52    2.92
  -5   5  -5   37.64    3.12
  -4   5  -5  113.22    3.80
  -3   5  -5    2.86    0.85
  -2   5  -5   87.51    3.67
  -1   5  -5    4.09    0.93
   0   5  -5   43.84    3.50
   1   5  -5    4.46    1.45
   2   5  -5   11.23    1.95
   3   5  -5    3.85    1.86
   4   5  -5    4.39    1.95
   5   5  -5   -1.30    1.24
   6   5  -5   14.53    3.34
   7   5  -5    0.87    1.97
   8   5  -5    2.85    2.41
 -13   6  -5    0.25    2.50
 -12   6  -5    1.79    2.60
 -11   6  -5   20.80    4.89
 -10   6  -5    3.11    2.33
  -9   6  -5    0.83    1.31
  -8   6  -5   68.04    5.87
  -7   6  -5    5.02    1.59
  -6   6  -5    1.08    1.09
  -5   6  -5    1.65    1.01
  -4   6  -5    1.18    0.91
  -3   6  -5   20.38    2.10
  -2   6  -5    7.94    1.57
  -1   6  -5   27.43    2.75
   0   6  -5    0.28    0.86
   1   6  -5  149.95    6.56
   2   6  -5   27.06    3.42
   3   6  -5    8.75    2.58
   4   6  -5    4.98    2.18
   5   6  -5    4.47    2.21
   6   6  -5    7.05    2.93
   7   6  -5    0.95    2.09
 -13   7  -5    1.50    2.81
 -12   7  -5    1.09    2.56
 -11   7  -5    7.18    3.29
 -10   7  -5   23.31    4.97
  -9   7  -5    8.11    3.21
  -8   7  -5   15.86    2.77
  -7   7  -5    9.35    2.12
  -6   7  -5  157.14    7.75
  -5   7  -5   12.47    1.88
  -4   7  -5   19.69    2.46
  -3   7  -5   16.12    2.57
  -2   7  -5   42.53    3.50
  -1   7  -5    6.22    1.58
   0   7  -5    9.23    1.98
   1   7  -5    1.11    1.26
   2   7  -5    7.02    1.86
   3   7  -5    1.80    1.80
   4   7  -5   16.58    3.85
   5   7  -5   23.62    4.42
   6   7  -5    0.59    1.94
 -13   8  -5   -0.29    2.73
 -12   8  -5   13.07    4.34
 -11   8  -5   12.10    4.15
 -10   8  -5    7.34    3.27
  -9   8  -5    7.45    2.24
  -8   8  -5   -0.76    1.20
  -7   8  -5   -0.10    1.09
  -6   8  -5   35.68    4.03
  -5   8  -5    3.71    1.45
  -4   8  -5   48.52    4.49
  -3   8  -5   74.94    5.80
  -2   8  -5   66.84    4.80
  -1   8  -5   13.58    2.44
   0   8  -5    2.40    1.29
   1   8  -5   18.06    2.99
   2   8  -5   14.19    2.76
   3   8  -5   18.59    3.94
   4   8  -5   26.78    4.83
   5   8  -5    2.85    2.45
 -13   9  -5   16.58    5.12
 -12   9  -5    1.67    2.55
 -11   9  -5    3.70    2.75
 -10   9  -5   39.71    4.82
  -9   9  -5    2.50    1.55
  -8   9  -5   18.00    3.15
  -7   9  -5   12.34    2.79
  -6   9  -5   11.83    3.10
  -5   9  -5    6.32    1.88
  -4   9  -5   48.69    4.76
  -3   9  -5   -0.07    1.05
  -2   9  -5   11.99    2.96
  -1   9  -5    4.66    1.66
   0   9  -5    3.30    1.59
   1   9  -5    2.28    1.42
   2   9  -5    0.08    1.53
   3   9  -5   -1.84    1.69
   4   9  -5    2.92    2.67
 -12  10  -5    2.69    3.08
 -11  10  -5   16.19    4.65
 -10  10  -5   51.10    5.56
  -9  10  -5    3.58    1.89
  -8  10  -5   13.12    2.97
  -7  10  -5    2.93    1.93
  -6  10  -5   13.42    3.53
  -5  10  -5    0.27    1.34
  -4  10  -5    3.27    1.73
  -3  10  -5   20.30    3.85
  -2  10  -5    4.06    2.18
  -1  10  -5   43.38    5.79
   0  10  -5   46.80    5.28
   1  10  -5    7.21    2.42
   2  10  -5    2.29    1.96
   3  10  -5    2.20    3.64
 -12  11  -5   -0.61    2.93
 -11  11  -5   17.64    3.74
 -10  11  -5    6.18    2.61
  -9  11  -5   -0.13    1.90
  -8  11  -5   26.59    4.97
  -7  11  -5   16.05    3.89
  -6  11  -5    5.58    2.40
  -5  11  -5   15.55    3.07
  -4  11  -5    3.13    1.96
  -3  11  -5    9.23    2.81
  -2  11  -5    2.11    1.74
  -1  11  -5   14.61    3.75
   0  11  -5   23.24    4.56
   1  11  -5    0.99    2.22
   2  11  -5    2.11    3.77
 -12  12  -5    7.99    4.32
 -11  12  -5    2.17    2.68
 -10  12  -5    0.57    2.25
  -9  12  -5   -1.27    1.94
  -8  12  -5   28.57    5.48
  -7  12  -5   29.11    5.44
  -6  12  -5    5.93    2.34
  -5  12  -5    3.82    1.99
  -4  12  -5   10.68    3.23
  -3  12  -5    1.09    2.06
  -2  12  -5    5.71    2.82
  -1  12  -5    0.83    2.17
 -10  13  -5    1.17    2.99
  -9  13  -5    6.48    3.38
  -8  13  -5   -2.28    2.28
  -7  13  -5    1.39    2.28
  -6  13  -5    3.57    2.18
  -5  13  -5    0.02    1.91
  -4  13  -5   12.38    3.46
  -3  13  -5   -0.08    3.02
  -6  14  -5    4.96    4.93
   5 -14  -4    1.96    3.93
   6 -14  -4    1.52    3.03
   7 -14  -4   12.55    5.46
   8 -14  -4   19.13    4.53
   9 -14  -4    6.87    3.58
  10 -14  -4   -0.56    2.37
  11 -14  -4    2.72    5.29
   1 -13  -4    7.56    3.65
   2 -13  -4    5.37    4.41
   3 -13  -4   13.09    6.18
   4 -13  -4    8.40    4.51
   5 -13  -4   31.64    8.31
   6 -13  -4    0.71    2.28
   7 -13  -4    4.13    2.56
   8 -13  -4    2.06    2.41
   9 -13  -4    5.60    3.02
  10 -13  -4    6.82    3.47
  11 -13  -4    2.49    3.01
  12 -13  -4    1.86    5.41
  -1 -12  -4   -0.44    2.31
   0 -12  -4    0.45    2.52
   1 -12  -4    2.16    2.35
   2 -12  -4    2.43    2.43
   3 -12  -4    2.43    3.95
   4 -12  -4   -1.50    2.29
   5 -12  -4    2.98    2.49
   6 -12  -4    5.73    2.98
   7 -12  -4   10.77    3.38
   8 -12  -4    1.54    2.36
   9 -12  -4    6.27    2.96
  10 -12  -4   85.03    9.47
  11 -12  -4    3.19    2.92
  12 -12  -4   -0.35    3.86
  -3 -11  -4    3.85    5.03
  -2 -11  -4    3.01    2.79
  -1 -11  -4    3.39    2.76
   0 -11  -4    1.01    2.41
   1 -11  -4   17.78    4.32
   2 -11  -4   30.48    5.32
   3 -11  -4   33.55    5.57
   4 -11  -4    1.75    2.01
   5 -11  -4   35.49    5.42
   6 -11  -4   32.51    5.29
   7 -11  -4   16.48    4.14
   8 -11  -4    6.78    2.90
   9 -11  -4    0.71    2.14
  10 -11  -4   -1.30    2.15
  11 -11  -4    4.84    4.73
  12 -11  -4    1.49    3.41
  13 -11  -4    2.72    4.36
  -4 -10  -4    2.37    3.39
  -3 -10  -4    2.21    2.83
  -2 -10  -4   76.12    9.10
  -1 -10  -4    1.41    2.06
   0 -10  -4    3.61    2.25
   1 -10  -4   10.67    2.67
   2 -10  -4    9.65    2.38
   3 -10  -4   -0.51    1.41
   4 -10  -4    8.87    2.87
   5 -10  -4    2.08    1.94
   6 -10  -4   56.32    6.08
   7 -10  -4    9.87    3.32
   8 -10  -4    6.40    2.67
   9 -10  -4   11.98    3.58
  10 -10  -4    1.08    2.07
  11 -10  -4    8.73    5.27
  12 -10  -4    3.61    3.84
  13 -10  -4   11.90    6.06
  14 -10  -4    8.10    8.71
  -5  -9  -4   12.76    4.47
  -4  -9  -4    7.78    3.52
  -3  -9  -4    3.28    2.74
  -2  -9  -4    3.76    2.67
  -1  -9  -4   14.73    3.95
   0  -9  -4    2.87    1.74
   1  -9  -4    6.84    2.20
   2  -9  -4   42.25    4.55
   3  -9  -4   59.43    4.95
   4  -9  -4    0.29    1.45
   5  -9  -4   24.22    3.67
   6  -9  -4    8.10    2.31
   7  -9  -4   22.29    3.68
   8  -9  -4    6.06    2.11
   9  -9  -4    2.29    1.95
  10  -9  -4   10.47    4.06
  11  -9  -4   15.74    4.75
  12  -9  -4   -0.22    3.02
  13  -9  -4    6.79    4.03
  14  -9  -4    2.07    3.93
  -6  -8  -4   12.26    4.41
  -5  -8  -4   -0.94    2.13
  -4  -8  -4    3.55    2.89
  -3  -8  -4    9.34    3.40
  -2  -8  -4    3.89    1.99
  -1  -8  -4    3.36    1.62
   0  -8  -4   38.68    4.35
   1  -8  -4    9.68    2.33
   2  -8  -4    3.01    1.36
   3  -8  -4    6.57    1.61
   4  -8  -4   32.17    4.02
   5  -8  -4   21.67    3.41
   6  -8  -4   52.34    5.40
   7  -8  -4   58.59    5.66
   8  -8  -4   48.59    5.33
   9  -8  -4    8.24    2.52
  10  -8  -4   12.50    4.11
  11  -8  -4   25.93    5.48
  12  -8  -4   -0.01    2.91
  13  -8  -4    5.18    3.85
  14  -8  -4    2.39    3.79
  -7  -7  -4   15.57    7.35
  -6  -7  -4    3.32    2.95
  -5  -7  -4   14.47    4.12
  -4  -7  -4   17.46    4.13
  -3  -7  -4   12.27    2.70
  -2  -7  -4   19.65    3.09
  -1  -7  -4   54.20    4.97
   0  -7  -4    3.74    1.48
   1  -7  -4   10.14    2.22
   2  -7  -4   16.91    2.45
   3  -7  -4   19.31    2.40
   4  -7  -4   56.96    5.26
   5  -7  -4    3.16    1.63
   6  -7  -4   79.04    6.34
   7  -7  -4    2.42    1.37
   8  -7  -4   11.16    2.58
   9  -7  -4   42.80    4.90
  10  -7  -4    0.02    1.69
  11  -7  -4    1.34    2.72
  12  -7  -4    3.87    3.23
  13  -7  -4    1.43    3.25
  14  -7  -4    9.71    4.32
  -8  -6  -4    3.65    4.84
  -7  -6  -4    3.23    2.67
  -6  -6  -4    5.71    2.91
  -5  -6  -4   27.62    5.16
  -4  -6  -4   83.23    6.52
  -3  -6  -4    6.43    1.88
  -2  -6  -4   41.73    4.32
  -1  -6  -4   71.50    5.60
   0  -6  -4   11.13    2.29
   1  -6  -4   67.98    5.11
   2  -6  -4   25.54    2.82
   3  -6  -4   55.41    3.81
   4  -6  -4    4.76    1.78
   5  -6  -4   21.19    3.25
   6  -6  -4    9.88    2.32
   7  -6  -4    7.64    1.77
   8  -6  -4    2.38    1.34
   9  -6  -4   51.64    5.11
  10  -6  -4    8.21    2.63
  11  -6  -4   36.82    6.18
  12  -6  -4    5.20    3.32
  13  -6  -4    8.67    3.88
  14  -6  -4   18.34    5.33
  -9  -5  -4   -1.99    4.21
  -8  -5  -4   14.20    4.00
  -7  -5  -4    3.42    2.41
  -6  -5  -4   38.09    6.08
  -5  -5  -4    1.74    1.36
  -4  -5  -4   24.85    3.34
  -3  -5  -4   22.30    3.12
  -2  -5  -4    1.20    1.13
  -1  -5  -4   15.30    2.57
   0  -5  -4   10.41    2.09
   1  -5  -4   37.08    3.27
   2  -5  -4   70.63    4.41
   3  -5  -4   22.89    2.32
   4  -5  -4   39.94    4.14
   5  -5  -4    6.78    1.58
   6  -5  -4   66.75    4.58
   7  -5  -4   19.74    2.57
   8  -5  -4    5.05    1.94
   9  -5  -4   -0.01    1.19
  10  -5  -4    0.76    1.61
  11  -5  -4   19.41    3.66
  12  -5  -4    8.46    3.69
  13  -5  -4    2.63    3.37
  14  -5  -4    4.68    5.56
  -9  -4  -4   12.02    3.84
  -8  -4  -4   -1.30    1.64
  -7  -4  -4   -0.26    1.58
  -6  -4  -4    8.38    2.77
  -5  -4  -4    3.19    1.38
  -4  -4  -4   41.23    3.91
  -3  -4  -4   67.65    5.11
  -2  -4  -4    6.14    1.69
  -1  -4  -4   43.90    3.91
   0  -4  -4   29.01    2.65
   1  -4  -4   32.45    2.93
   2  -4  -4  120.09    4.66
   3  -4  -4  120.12    4.21
   4  -4  -4   32.60    3.13
   5  -4  -4   37.97    3.30
   6  -4  -4   27.68    2.95
   7  -4  -4   14.47    2.77
   8  -4  -4   32.19    4.10
   9  -4  -4   26.71    3.75
  10  -4  -4   61.49    6.02
  11  -4  -4   15.25    3.16
  12  -4  -4    2.12    2.08
  13  -4  -4    4.57    5.76
  14  -4  -4    1.71    6.78
 -10  -3  -4    4.34    4.97
  -9  -3  -4    4.65    2.80
  -8  -3  -4   30.92    5.03
  -7  -3  -4    0.40    1.75
  -6  -3  -4   59.55    5.06
  -5  -3  -4    4.50    1.54
  -4  -3  -4   18.98    2.32
  -3  -3  -4   54.60    4.35
  -2  -3  -4   18.33    2.50
  -1  -3  -4  117.02    5.13
   0  -3  -4   75.48    4.15
   1  -3  -4    4.33    1.14
   2  -3  -4   36.24    2.77
   3  -3  -4   84.81    4.96
   4  -3  -4   34.13    3.15
   5  -3  -4   63.42    3.77
   6  -3  -4   43.25    4.59
   7  -3  -4   56.90    5.16
   8  -3  -4   19.80    3.29
   9  -3  -4    4.54    1.94
  10  -3  -4    7.34    2.35
  11  -3  -4    7.94    2.61
  12  -3  -4    3.65    2.51
  13  -3  -4   -1.45    4.76
 -11  -2  -4    5.06    4.84
 -10  -2  -4    3.37    2.27
  -9  -2  -4   23.65    3.61
  -8  -2  -4    5.76    1.76
  -7  -2  -4   38.60    4.18
  -6  -2  -4    3.46    1.21
  -5  -2  -4   15.43    2.05
  -4  -2  -4   23.81    2.34
  -3  -2  -4   64.51    3.45
  -2  -2  -4  118.60    3.96
  -1  -2  -4   33.13    1.85
   0  -2  -4    7.85    0.94
   1  -2  -4   40.25    2.86
   2  -2  -4    7.74    1.12
   3  -2  -4    4.96    1.26
   4  -2  -4  120.05    4.77
   5  -2  -4   20.98    2.17
   6  -2  -4    4.83    1.63
   7  -2  -4    0.92    1.04
   8  -2  -4   39.94    4.45
   9  -2  -4   24.60    3.66
  10  -2  -4    0.68    1.45
  11  -2  -4    0.25    1.77
  12  -2  -4   91.85    9.79
  13  -2  -4    1.44    2.91
 -11  -1  -4    2.20    2.10
 -10  -1  -4    9.99    2.75
  -9  -1  -4    6.96    2.02
  -8  -1  -4    6.71    1.99
  -7  -1  -4   10.04    2.23
  -6  -1  -4    6.59    1.49
  -5  -1  -4   65.59    4.09
  -4  -1  -4   41.71    3.04
  -3  -1  -4   36.68    2.66
  -2  -1  -4    5.72    1.11
  -1  -1  -4   43.95    2.28
   0  -1  -4    5.99    0.87
   1  -1  -4    6.28    1.05
   2  -1  -4   41.21    2.41
   3  -1  -4   36.58    2.80
   4  -1  -4  124.38    4.34
   5  -1  -4   35.21    3.77
   6  -1  -4   13.52    2.49
   7  -1  -4   95.21    6.65
   8  -1  -4   55.85    5.30
   9  -1  -4    6.53    2.63
  10  -1  -4   12.82    3.79
  11  -1  -4    2.33    2.33
  12  -1  -4    1.01    2.33
  13  -1  -4   -1.11    2.98
 -13   0  -4   10.53   10.36
 -12   0  -4    6.09    3.63
 -11   0  -4    0.27    1.69
 -10   0  -4    0.83    1.49
  -9   0  -4    2.29    1.54
  -8   0  -4   39.13    4.28
  -7   0  -4    5.20    1.80
  -6   0  -4    7.80    1.81
  -5   0  -4    9.80    1.55
  -4   0  -4   36.77    2.81
  -3   0  -4   81.76    2.66
  -2   0  -4    6.71    1.06
  -1   0  -4    4.46    0.85
   0   0  -4  966.45   13.92
   1   0  -4    5.83    0.89
   2   0  -4    9.92    1.22
   3   0  -4   78.16    3.19
   4   0  -4   29.90    2.88
   5   0  -4   10.33    1.85
   6   0  -4   11.63    1.96
   7   0  -4    2.67    1.16
   8   0  -4   32.85    4.08
   9   0  -4    2.02    1.56
  10   0  -4    4.65    2.38
  11   0  -4   -0.05    2.19
  12   0  -4   -0.45    2.49
 -13   1  -4    3.99    3.51
 -12   1  -4    2.40    1.88
 -11   1  -4   -0.23    1.61
 -10   1  -4    8.84    2.37
  -9   1  -4    3.68    1.62
  -8   1  -4   57.97    5.02
  -7   1  -4   86.44    5.84
  -6   1  -4   14.23    2.33
  -5   1  -4   46.90    3.19
  -4   1  -4  120.69    3.40
  -3   1  -4   34.55    1.90
  -2   1  -4   39.18    1.93
  -1   1  -4    4.87    0.67
   0   1  -4    4.78    0.65
   1   1  -4   40.34    2.19
   2   1  -4    5.43    0.90
   3   1  -4   35.77    1.97
   4   1  -4   38.17    3.13
   5   1  -4   64.75    4.30
   6   1  -4   10.46    2.32
   7   1  -4   10.42    2.21
   8   1  -4    9.23    2.28
   9   1  -4   11.05    2.73
  10   1  -4    4.91    2.23
  11   1  -4    0.74    2.45
  12   1  -4    8.76    3.73
 -13   2  -4    3.38    3.26
 -12   2  -4   84.97    7.20
 -11   2  -4    0.29    1.49
 -10   2  -4    4.85    1.90
  -9   2  -4   20.89    3.16
  -8   2  -4   42.37    4.32
  -7   2  -4    2.76    1.33
  -6   2  -4    4.49    1.39
  -5   2  -4   22.69    1.74
  -4   2  -4  118.46    3.48
  -3   2  -4    5.87    0.79
  -2   2  -4    8.82    0.89
  -1   2  -4   38.40    1.83
   0   2  -4    8.33    0.86
   1   2  -4   38.01    2.08
   2   2  -4  122.44    3.51
   3   2  -4   67.73    3.62
   4   2  -4   24.25    2.35
   5   2  -4   16.99    2.82
   6   2  -4    3.63    1.55
   7   2  -4   42.23    4.56
   8   2  -4   17.66    3.27
   9   2  -4   22.50    3.72
  10   2  -4    2.49    1.98
  11   2  -4   -0.56    2.47
 -13   3  -4    5.30    2.49
 -12   3  -4    1.33    1.67
 -11   3  -4   10.81    2.78
 -10   3  -4    8.78    2.28
  -9   3  -4    3.63    1.67
  -8   3  -4   27.32    3.44
  -7   3  -4   59.64    4.87
  -6   3  -4   47.46    3.20
  -5   3  -4   61.66    3.17
  -4   3  -4   37.31    2.01
  -3   3  -4   83.23    2.49
  -2   3  -4   36.16    1.79
  -1   3  -4    5.18    0.73
   0   3  -4   81.21    2.42
   1   3  -4  125.43    3.84
   2   3  -4   20.19    1.81
   3   3  -4   50.43    4.47
   4   3  -4   15.93    2.60
   5   3  -4    4.02    1.61
   6   3  -4   60.08    5.34
   7   3  -4   -0.45    1.11
   8   3  -4   34.99    4.45
   9   3  -4    2.35    1.77
  10   3  -4   10.21    2.99
  11   3  -4    0.58    6.43
 -14   4  -4   -1.49    2.36
 -13   4  -4    8.86    2.70
 -12   4  -4    2.62    1.81
 -11   4  -4   15.30    3.09
 -10   4  -4   82.12    6.58
  -9   4  -4   30.09    3.74
  -8   4  -4   27.50    3.40
  -7   4  -4   17.31    2.03
  -6   4  -4   25.96    2.37
  -5   4  -4   35.52    2.25
  -4   4  -4   36.03    2.26
  -3   4  -4  123.66    3.41
  -2   4  -4  121.41    2.90
  -1   4  -4   36.38    2.11
   0   4  -4   33.93    2.19
   1   4  -4   39.41    2.24
   2   4  -4    2.36    0.90
   3   4  -4   55.16    4.68
   4   4  -4   24.33    3.14
   5   4  -4    0.03    1.18
   6   4  -4   11.20    2.61
   7   4  -4   -0.10    1.24
   8   4  -4   -0.53    1.50
   9   4  -4    9.39    2.76
  10   4  -4    1.11    3.10
 -14   5  -4    2.43    3.42
 -13   5  -4    2.71    2.65
 -12   5  -4    2.88    2.74
 -11   5  -4   26.54    3.93
 -10   5  -4    0.37    1.29
  -9   5  -4    0.65    1.08
  -8   5  -4    2.13    0.94
  -7   5  -4   14.58    1.96
  -6   5  -4   65.24    4.08
  -5   5  -4    8.62    1.22
  -4   5  -4   49.71    2.60
  -3   5  -4   26.88    2.12
  -2   5  -4   56.80    2.80
  -1   5  -4   32.85    2.42
   0   5  -4    7.54    1.45
   1   5  -4   12.60    1.79
   2   5  -4    2.43    1.01
   3   5  -4   27.19    2.84
   4   5  -4   29.02    3.69
   5   5  -4    0.59    1.30
   6   5  -4   35.20    4.29
   7   5  -4    1.57    1.65
   8   5  -4   19.60    3.77
   9   5  -4    1.99    2.57
 -14   6  -4   28.21    6.04
 -13   6  -4   13.12    4.35
 -12   6  -4    3.09    2.77
 -11   6  -4   29.61    5.22
 -10   6  -4    7.03    2.78
  -9   6  -4   57.44    4.94
  -8   6  -4    3.80    1.41
  -7   6  -4    3.02    1.23
  -6   6  -4    8.63    1.88
  -5   6  -4   10.93    1.61
  -4   6  -4    5.50    1.05
  -3   6  -4   52.65    3.12
  -2   6  -4   25.33    2.13
  -1   6  -4   57.62    3.76
   0   6  -4   10.84    1.83
   1   6  -4   87.59    5.53
   2   6  -4   42.45    4.02
   3   6  -4    7.35    1.86
   4   6  -4   63.65    6.48
   5   6  -4   33.02    4.75
   6   6  -4    7.73    2.82
   7   6  -4    6.03    2.46
   8   6  -4    5.43    2.79
 -14   7  -4   10.66    4.42
 -13   7  -4    0.51    2.46
 -12   7  -4    7.47    3.44
 -11   7  -4    0.58    1.92
 -10   7  -4   -0.97    1.18
  -9   7  -4   46.96    4.65
  -8   7  -4   12.98    2.39
  -7   7  -4    1.41    1.26
  -6   7  -4   76.40    4.02
  -5   7  -4    1.23    0.80
  -4   7  -4   64.49    4.09
  -3   7  -4   15.69    1.87
  -2   7  -4   21.55    2.35
  -1   7  -4    5.74    1.42
   0   7  -4    4.51    1.38
   1   7  -4   61.85    4.82
   2   7  -4   21.33    2.99
   3   7  -4    9.41    2.12
   4   7  -4   19.77    3.64
   5   7  -4    5.95    2.67
   6   7  -4    7.55    2.82
   7   7  -4   16.05    3.84
 -14   8  -4    3.89    3.37
 -13   8  -4   22.87    5.43
 -12   8  -4   -0.09    1.96
 -11   8  -4   26.05    3.78
 -10   8  -4   11.14    2.54
  -9   8  -4    7.39    1.92
  -8   8  -4   35.79    4.03
  -7   8  -4   56.50    5.09
  -6   8  -4   42.66    3.47
  -5   8  -4   32.65    3.37
  -4   8  -4   29.41    3.16
  -3   8  -4    3.32    1.44
  -2   8  -4    3.53    1.14
  -1   8  -4   11.18    2.11
   0   8  -4   41.10    3.93
   1   8  -4    2.66    1.18
   2   8  -4    3.51    1.53
   3   8  -4   12.07    2.26
   4   8  -4    3.05    1.92
   5   8  -4   -0.86    1.80
   6   8  -4   15.50    4.04
 -14   9  -4    3.43    3.01
 -13   9  -4    6.09    3.49
 -12   9  -4    2.17    2.51
 -11   9  -4   20.51    3.50
 -10   9  -4   17.16    3.21
  -9   9  -4    1.61    1.58
  -8   9  -4    1.33    1.50
  -7   9  -4   24.49    3.63
  -6   9  -4    7.13    1.74
  -5   9  -4   25.40    3.08
  -4   9  -4    0.99    1.10
  -3   9  -4   57.42    4.97
  -2   9  -4   50.78    4.34
  -1   9  -4   10.56    2.11
   0   9  -4    1.10    1.18
   1   9  -4   12.45    2.55
   2   9  -4    0.88    1.32
   3   9  -4    2.52    1.76
   4   9  -4    7.61    3.03
   5   9  -4    4.56    2.72
 -14  10  -4   -1.02    3.66
 -13  10  -4    7.88    4.18
 -12  10  -4    3.05    1.95
 -11  10  -4    5.53    2.28
 -10  10  -4    0.83    1.63
  -9  10  -4   11.32    2.55
  -8  10  -4    4.43    1.90
  -7  10  -4    9.02    3.02
  -6  10  -4   70.55    5.60
  -5  10  -4    1.11    1.21
  -4  10  -4    8.78    1.96
  -3  10  -4    0.07    1.20
  -2  10  -4    6.33    2.23
  -1  10  -4   12.40    2.51
   0  10  -4    4.32    1.56
   1  10  -4    0.04    1.25
   2  10  -4  106.59    7.70
   3  10  -4    6.52    2.42
   4  10  -4   -0.47    1.95
 -13  11  -4    0.49    1.92
 -12  11  -4    3.01    2.36
 -11  11  -4    0.46    1.71
 -10  11  -4   -0.28    1.53
  -9  11  -4    1.54    1.76
  -8  11  -4   10.25    3.05
  -7  11  -4   14.92    3.50
  -6  11  -4   37.67    4.25
  -5  11  -4   35.41    4.18
  -4  11  -4    0.18    1.26
  -3  11  -4   26.06    4.35
  -2  11  -4   22.08    3.77
  -1  11  -4    6.86    2.43
   0  11  -4    0.04    1.38
   1  11  -4    1.35    1.60
   2  11  -4    1.60    1.95
   3  11  -4    3.38    4.30
 -13  12  -4    1.44    2.61
 -12  12  -4   -0.13    2.04
 -11  12  -4    4.07    2.62
 -10  12  -4   85.18    9.22
  -9  12  -4    2.86    2.68
  -8  12  -4    1.70    2.05
  -7  12  -4    7.56    2.20
  -6  12  -4    6.45    2.18
  -5  12  -4    1.66    1.64
  -4  12  -4    1.85    1.51
  -3  12  -4    1.84    1.79
  -2  12  -4    3.80    2.17
  -1  12  -4    5.54    2.67
   0  12  -4    1.14    2.12
   1  12  -4    2.71    3.79
 -12  13  -4    3.62    3.30
 -11  13  -4   -0.13    2.53
 -10  13  -4    7.36    3.42
  -9  13  -4   -0.22    1.99
  -8  13  -4    0.12    2.10
  -7  13  -4    9.71    2.65
  -6  13  -4    4.66    2.06
  -5  13  -4   14.60    3.15
  -4  13  -4   11.77    3.52
  -3  13  -4    8.59    3.08
  -2  13  -4    0.56    2.27
  -1  13  -4    8.80    4.91
 -10  14  -4    0.15    2.58
  -9  14  -4    7.16    3.39
  -8  14  -4   15.71    4.00
  -7  14  -4   10.94    3.02
  -6  14  -4    1.55    2.09
  -5  14  -4    4.09    2.65
  -4  14  -4   -0.77    2.27
  -7  15  -4    2.45    3.61
   7 -15  -3    5.62    5.73
   8 -15  -3    6.02    5.29
   9 -15  -3   -5.14    6.00
  11 -15  -3    5.50    5.39
   2 -14  -3    2.30    2.55
   3 -14  -3    1.50    2.77
   4 -14  -3    4.14    4.13
   5 -14  -3   13.95    6.02
   6 -14  -3   17.81    6.59
   7 -14  -3   39.56    9.50
   8 -14  -3   -0.81    3.94
   9 -14  -3    2.46    2.90
  10 -14  -3   17.77    4.76
  11 -14  -3    1.96    2.96
  12 -14  -3   12.39    4.55
  13 -14  -3   -0.56    5.53
   0 -13  -3   -0.71    2.39
   1 -13  -3    9.00    3.58
   2 -13  -3   31.41    5.76
   3 -13  -3   43.39    6.73
   4 -13  -3   15.15    4.22
   5 -13  -3   -0.08    3.71
   6 -13  -3    5.02    4.25
   7 -13  -3   29.24    5.31
   8 -13  -3   -0.45    2.25
   9 -13  -3    2.95    3.13
  10 -13  -3    9.68    3.81
  11 -13  -3    6.71    3.47
  12 -13  -3   10.25    3.90
  13 -13  -3    0.85    4.20
  -2 -12  -3   13.35    4.76
  -1 -12  -3    9.42    3.81
   0 -12  -3    6.56    3.36
   1 -12  -3   -0.74    2.26
   2 -12  -3   13.78    3.87
   3 -12  -3    2.56    2.17
   4 -12  -3   18.45    4.11
   5 -12  -3   -0.82    1.73
   6 -12  -3    5.50    2.64
   7 -12  -3   16.41    3.91
   8 -12  -3   11.95    3.67
   9 -12  -3    3.48    2.57
  10 -12  -3    3.80    2.49
  11 -12  -3   25.82    5.31
  12 -12  -3   10.80    4.44
  13 -12  -3    6.87    5.17
  -3 -11  -3    3.45    3.08
  -2 -11  -3   10.86    4.01
  -1 -11  -3   24.78    5.07
   0 -11  -3   18.68    4.62
   1 -11  -3    4.00    2.83
   2 -11  -3    6.83    2.85
   3 -11  -3   78.84    8.02
   4 -11  -3   12.67    2.74
   5 -11  -3   34.31    5.55
   6 -11  -3    4.85    2.54
   7 -11  -3    7.90    2.93
   8 -11  -3   22.66    4.71
   9 -11  -3   21.74    4.58
  10 -11  -3    8.98    3.27
  11 -11  -3   16.63    4.41
  12 -11  -3   -1.13    2.64
  13 -11  -3   42.26   10.84
  14 -11  -3    3.02    4.83
  -4 -10  -3   21.24    5.44
  -3 -10  -3   14.37    4.44
  -2 -10  -3   -0.49    2.05
  -1 -10  -3   10.95    3.65
   0 -10  -3   32.52    5.43
   1 -10  -3   63.99    7.66
   2 -10  -3   22.56    3.20
   3 -10  -3   16.60    2.92
   4 -10  -3    3.57    1.68
   5 -10  -3   -0.30    1.19
   6 -10  -3   22.62    4.33
   7 -10  -3    4.53    2.48
   8 -10  -3   35.25    5.35
   9 -10  -3   35.93    5.63
  10 -10  -3   43.83    6.43
  11 -10  -3    3.75    2.67
  12 -10  -3    5.91    4.74
  13 -10  -3   33.01    8.77
  14 -10  -3    4.88    4.85
  -5  -9  -3   -0.28    3.52
  -4  -9  -3    0.76    2.51
  -3  -9  -3    4.63    2.84
  -2  -9  -3   25.71    5.08
  -1  -9  -3   51.56    6.61
   0  -9  -3    5.84    2.55
   1  -9  -3  110.01    7.35
   2  -9  -3   10.47    2.30
   3  -9  -3    8.45    2.05
   4  -9  -3   12.33    2.11
   5  -9  -3  143.35    6.11
   6  -9  -3   59.96    5.54
   7  -9  -3    6.40    2.19
   8  -9  -3    1.53    1.44
   9  -9  -3    5.45    2.15
  10  -9  -3   56.43    5.78
  11  -9  -3    0.92    2.72
  12  -9  -3    1.56    2.87
  13  -9  -3    4.01    3.53
  14  -9  -3   16.20    5.06
  15  -9  -3   10.55    4.81
  -7  -8  -3    7.96    7.38
  -6  -8  -3    2.49    4.16
  -5  -8  -3    1.43    2.46
  -4  -8  -3   14.09    4.17
  -3  -8  -3   12.14    3.56
  -2  -8  -3   34.08    5.89
  -1  -8  -3    5.03    1.82
   0  -8  -3   -0.58    1.07
   1  -8  -3   75.94    5.68
   2  -8  -3   73.81    5.62
   3  -8  -3  132.08    5.55
   4  -8  -3    8.84    1.77
   5  -8  -3   32.31    3.15
   6  -8  -3   -0.24    1.25
   7  -8  -3    4.58    1.71
   8  -8  -3    0.51    1.38
   9  -8  -3   88.03    6.92
  10  -8  -3   18.98    3.46
  11  -8  -3   75.69    8.96
  12  -8  -3    5.36    2.85
  13  -8  -3    2.05    3.03
  14  -8  -3    5.84    3.60
  15  -8  -3    2.04    3.52
  -8  -7  -3    1.53    5.64
  -7  -7  -3   40.81   10.71
  -6  -7  -3   25.47    5.24
  -5  -7  -3   17.60    4.37
  -4  -7  -3   12.84    3.73
  -3  -7  -3    7.32    2.93
  -2  -7  -3    6.56    1.97
  -1  -7  -3    5.28    1.81
   0  -7  -3   12.68    2.36
   1  -7  -3  117.47    6.42
   2  -7  -3   46.04    4.13
   3  -7  -3  121.57    5.22
   4  -7  -3   38.90    3.38
   5  -7  -3   39.36    3.23
   6  -7  -3  184.89    7.97
   7  -7  -3   10.71    2.03
   8  -7  -3   67.59    5.70
   9  -7  -3    7.34    1.84
  10  -7  -3   16.81    4.20
  11  -7  -3   10.59    3.96
  12  -7  -3   -0.72    2.15
  13  -7  -3    2.11    2.86
  14  -7  -3   40.87    6.88
  15  -7  -3    3.29    3.90
  -8  -6  -3    8.97    5.70
  -7  -6  -3    0.66    2.71
  -6  -6  -3    3.81    2.41
  -5  -6  -3    0.94    1.95
  -4  -6  -3   21.85    3.10
  -3  -6  -3   51.48    4.58
  -2  -6  -3   -0.13    1.04
  -1  -6  -3  190.84    7.34
   0  -6  -3   41.53    3.97
   1  -6  -3   56.75    4.50
   2  -6  -3   16.40    2.11
   3  -6  -3   47.36    3.61
   4  -6  -3   85.19    4.04
   5  -6  -3   29.05    2.55
   6  -6  -3   36.01    4.01
   7  -6  -3  113.58    5.32
   8  -6  -3   76.72    4.98
   9  -6  -3    3.38    1.39
  10  -6  -3    3.86    1.96
  11  -6  -3   20.33    4.44
  12  -6  -3    4.07    2.80
  13  -6  -3   21.99    5.23
  14  -6  -3   -1.18    2.61
  15  -6  -3   -1.13    3.22
  -9  -5  -3    6.65    5.09
  -8  -5  -3    1.88    4.00
  -7  -5  -3    0.09    1.46
  -6  -5  -3   31.57    4.24
  -5  -5  -3    1.07    1.04
  -4  -5  -3  139.67    5.54
  -3  -5  -3   27.86    2.69
  -2  -5  -3   36.62    2.85
  -1  -5  -3   30.73    2.44
   0  -5  -3  124.18    3.92
   1  -5  -3   13.44    1.84
   2  -5  -3  148.32    5.15
   3  -5  -3    2.93    1.00
   4  -5  -3  166.82    5.18
   5  -5  -3  115.43    5.00
   6  -5  -3   51.42    3.87
   7  -5  -3   42.49    3.81
   8  -5  -3  118.47    5.28
   9  -5  -3    8.99    2.16
  10  -5  -3    0.96    1.37
  11  -5  -3   -0.13    1.94
  12  -5  -3   20.95    4.86
  13  -5  -3   -0.73    2.39
  14  -5  -3    2.16    3.08
 -10  -4  -3   -0.38    4.03
  -9  -4  -3    7.06    3.33
  -8  -4  -3   14.05    3.01
  -7  -4  -3   10.94    2.60
  -6  -4  -3    5.98    1.84
  -5  -4  -3    9.30    1.67
  -4  -4  -3    5.02    1.26
  -3  -4  -3   50.98    3.40
  -2  -4  -3   82.16    3.61
  -1  -4  -3  162.34    4.69
   0  -4  -3  106.03    3.14
   1  -4  -3  152.65    5.15
   2  -4  -3    4.23    1.04
   3  -4  -3   50.45    2.68
   4  -4  -3  109.53    3.13
   5  -4  -3   14.95    2.04
   6  -4  -3   15.80    2.10
   7  -4  -3  123.52    5.05
   8  -4  -3    7.03    2.02
   9  -4  -3  145.01    6.84
  10  -4  -3   20.16    3.31
  11  -4  -3   12.43    2.52
  12  -4  -3    9.34    3.36
  13  -4  -3    1.22    2.79
  14  -4  -3   11.40    6.63
 -11  -3  -3    4.54    3.50
 -10  -3  -3   34.76    6.35
  -9  -3  -3    4.75    2.27
  -8  -3  -3   67.64    5.82
  -7  -3  -3   15.88    2.81
  -6  -3  -3    4.69    1.68
  -5  -3  -3  122.59    4.83
  -4  -3  -3  121.78    4.67
  -3  -3  -3   42.01    2.90
  -2  -3  -3    3.70    0.91
  -1  -3  -3   48.66    2.38
   0  -3  -3  233.98    6.35
   1  -3  -3   80.81    3.83
   2  -3  -3  160.10    4.79
   3  -3  -3  247.25    5.25
   4  -3  -3  162.10    5.37
   5  -3  -3  149.46    5.12
   6  -3  -3   42.57    3.13
   7  -3  -3   44.20    4.20
   8  -3  -3   28.83    3.44
   9  -3  -3   46.84    4.55
  10  -3  -3    9.78    2.32
  11  -3  -3   17.57    3.23
  12  -3  -3    3.33    2.02
  13  -3  -3   18.84    7.82
  14  -3  -3    1.19    5.62
 -12  -2  -3    4.16    3.56
 -11  -2  -3   38.60    6.35
 -10  -2  -3   14.70    4.30
  -9  -2  -3    4.92    1.93
  -8  -2  -3   19.43    3.04
  -7  -2  -3    7.04    1.90
  -6  -2  -3   72.46    5.38
  -5  -2  -3   41.73    3.20
  -4  -2  -3   16.14    1.89
  -3  -2  -3  144.67    4.56
  -2  -2  -3    2.77    0.75
  -1  -2  -3  167.65    4.25
   0  -2  -3  200.14    4.17
   1  -2  -3   11.77    1.42
   2  -2  -3  189.86    4.55
   3  -2  -3   72.89    3.47
   4  -2  -3    2.97    0.76
   5  -2  -3    4.56    1.04
   6  -2  -3   75.86    3.67
   7  -2  -3   41.35    3.95
   8  -2  -3   -0.44    0.79
   9  -2  -3    4.93    1.78
  10  -2  -3   28.86    3.78
  11  -2  -3   31.81    4.01
  12  -2  -3    4.32    2.79
  13  -2  -3    6.58    5.89
 -12  -1  -3   13.58    4.30
 -11  -1  -3   -1.85    1.92
 -10  -1  -3    4.09    1.94
  -9  -1  -3   63.49    5.54
  -8  -1  -3  103.18    6.83
  -7  -1  -3   67.47    5.22
  -6  -1  -3  112.21    5.63
  -5  -1  -3   56.34    3.55
  -4  -1  -3   14.99    1.76
  -3  -1  -3  160.20    4.63
  -2  -1  -3   79.25    2.81
  -1  -1  -3   12.56    1.15
   0  -1  -3   27.95    1.53
   1  -1  -3   27.44    1.80
   2  -1  -3   14.40    1.22
   3  -1  -3  168.46    4.82
   4  -1  -3   55.45    2.42
   5  -1  -3  163.91    4.06
   6  -1  -3   30.93    2.71
   7  -1  -3  187.19    6.15
   8  -1  -3    7.57    1.99
   9  -1  -3    4.17    1.59
  10  -1  -3   40.56    5.50
  11  -1  -3   11.23    3.54
  12  -1  -3   23.72    5.01
  13  -1  -3    6.56    3.56
 -13   0  -3   -0.49    3.00
 -12   0  -3   10.95    3.99
 -11   0  -3   17.84    4.46
 -10   0  -3   26.37    3.55
  -9   0  -3    4.16    1.75
  -8   0  -3    0.31    1.01
  -7   0  -3   14.34    2.35
  -6   0  -3   43.07    3.81
  -5   0  -3  114.93    4.22
  -4   0  -3  108.51    2.76
  -3   0  -3  239.56    4.70
  -2   0  -3  196.00    4.04
  -1   0  -3   26.04    1.43
   0   0  -3   -0.23    0.30
   1   0  -3   25.50    1.53
   2   0  -3  196.17    4.52
   3   0  -3  240.46    5.08
   4   0  -3  108.72    4.11
   5   0  -3  124.10    4.54
   6   0  -3   44.32    3.30
   7   0  -3   15.31    2.12
   8   0  -3   -0.12    0.79
   9   0  -3    3.40    1.54
  10   0  -3   26.44    3.62
  11   0  -3   10.99    3.38
  12   0  -3    5.71    2.85
  13   0  -3   -3.18    2.33
 -13   1  -3    8.91    4.22
 -12   1  -3   21.70    4.86
 -11   1  -3    9.01    2.45
 -10   1  -3   40.41    4.50
  -9   1  -3    2.73    1.49
  -8   1  -3    5.86    1.67
  -7   1  -3  180.66    7.05
  -6   1  -3   34.27    2.02
  -5   1  -3  163.78    4.48
  -4   1  -3   49.39    2.09
  -3   1  -3  165.51    3.75
  -2   1  -3   12.43    0.97
  -1   1  -3   28.14    1.33
   0   1  -3   28.13    1.34
   1   1  -3   14.82    1.02
   2   1  -3   77.94    2.43
   3   1  -3  163.61    4.91
   4   1  -3   16.78    1.90
   5   1  -3   58.53    3.74
   6   1  -3  117.02    4.64
   7   1  -3   73.30    5.50
   8   1  -3  107.05    6.40
   9   1  -3   62.32    5.50
  10   1  -3    3.70    1.73
  11   1  -3    0.43    2.05
  12   1  -3    6.40    3.38
 -14   2  -3    4.63    3.32
 -13   2  -3   10.98    3.88
 -12   2  -3   -0.40    1.48
 -11   2  -3   30.37    4.16
 -10   2  -3   29.93    3.91
  -9   2  -3    2.18    1.32
  -8   2  -3   -0.31    0.93
  -7   2  -3   35.33    2.69
  -6   2  -3   74.93    3.26
  -5   2  -3    4.08    0.87
  -4   2  -3    3.77    0.71
  -3   2  -3   77.32    2.12
  -2   2  -3  196.67    3.40
  -1   2  -3   12.93    0.92
   0   2  -3  189.37    3.40
   1   2  -3  163.85    3.48
   2   2  -3    2.77    0.71
   3   2  -3  151.18    4.57
   4   2  -3   14.49    1.73
   5   2  -3   51.76    3.81
   6   2  -3   71.37    5.20
   7   2  -3    8.69    2.06
   8   2  -3   15.14    2.65
   9   2  -3    3.60    1.62
  10   2  -3    6.11    3.02
  11   2  -3   29.87    5.43
  12   2  -3    5.23    3.34
 -14   3  -3   -0.63    2.55
 -13   3  -3   11.61    3.93
 -12   3  -3    3.95    1.90
 -11   3  -3   14.62    2.66
 -10   3  -3   12.28    2.54
  -9   3  -3   46.17    4.50
  -8   3  -3   29.24    2.61
  -7   3  -3   47.22    3.15
  -6   3  -3   45.91    2.93
  -5   3  -3  156.28    3.70
  -4   3  -3  161.74    3.83
  -3   3  -3  242.40    4.21
  -2   3  -3  163.34    3.07
  -1   3  -3   78.55    1.98
   0   3  -3  241.48    4.69
   1   3  -3   49.48    2.20
   2   3  -3    4.97    0.82
   3   3  -3   44.59    2.21
   4   3  -3  119.65    5.35
   5   3  -3  112.30    5.44
   6   3  -3    6.85    1.77
   7   3  -3   14.81    2.36
   8   3  -3   70.55    5.67
   9   3  -3    3.59    1.80
  10   3  -3   35.82    5.56
  11   3  -3    0.66    2.93
 -14   4  -3   19.21    4.89
 -13   4  -3    1.00    2.35
 -12   4  -3   10.99    2.60
 -11   4  -3    7.34    2.21
 -10   4  -3   18.95    3.02
  -9   4  -3  142.73    5.42
  -8   4  -3    5.12    1.33
  -7   4  -3  133.98    4.58
  -6   4  -3   15.93    1.81
  -5   4  -3   15.36    1.31
  -4   4  -3  107.50    3.14
  -3   4  -3   48.41    2.02
  -2   4  -3    2.35    0.59
  -1   4  -3  159.29    4.12
   0   4  -3  104.93    2.82
   1   4  -3  173.67    4.07
   2   4  -3   86.30    3.73
   3   4  -3   39.88    3.05
   4   4  -3    8.04    1.82
   5   4  -3    9.51    1.98
   6   4  -3    3.00    1.44
   7   4  -3    7.23    1.98
   8   4  -3   14.19    2.92
   9   4  -3    7.17    2.41
  10   4  -3    5.58    3.39
  11   4  -3   -2.33    6.32
 -15   5  -3    7.36    5.11
 -14   5  -3   -0.25    2.26
 -13   5  -3    0.92    2.37
 -12   5  -3   21.06    4.44
 -11   5  -3    2.30    2.26
 -10   5  -3    1.30    1.18
  -9   5  -3   10.02    1.76
  -8   5  -3  119.48    5.00
  -7   5  -3   42.10    3.18
  -6   5  -3   58.38    2.57
  -5   5  -3  119.70    3.93
  -4   5  -3  171.48    4.26
  -3   5  -3    4.41    0.83
  -2   5  -3  145.00    3.87
  -1   5  -3   13.82    1.41
   0   5  -3  126.25    4.28
   1   5  -3   29.27    2.52
   2   5  -3   39.83    3.09
   3   5  -3   26.28    2.62
   4   5  -3  137.08    6.29
   5   5  -3    1.01    1.22
   6   5  -3   33.16    4.12
   7   5  -3   -1.45    1.05
   8   5  -3    0.47    1.57
   9   5  -3   12.95    4.13
 -15   6  -3   -1.46    3.68
 -14   6  -3    1.85    2.63
 -13   6  -3   23.72    5.27
 -12   6  -3    7.71    3.07
 -11   6  -3   29.78    3.75
 -10   6  -3    7.32    1.93
  -9   6  -3    3.56    1.45
  -8   6  -3   73.42    4.63
  -7   6  -3  117.56    5.99
  -6   6  -3   42.26    2.86
  -5   6  -3   31.81    2.49
  -4   6  -3   81.29    3.03
  -3   6  -3   43.08    2.74
  -2   6  -3   17.89    1.55
  -1   6  -3   56.46    2.92
   0   6  -3   40.65    2.89
   1   6  -3  186.43    6.48
   2   6  -3    0.23    0.82
   3   6  -3   52.95    3.93
   4   6  -3   15.26    2.57
   5   6  -3    3.54    1.47
   6   6  -3    6.25    2.26
   7   6  -3    0.39    1.77
   8   6  -3   11.85    3.40
 -15   7  -3    5.74    3.63
 -14   7  -3   48.78    7.44
 -13   7  -3    1.96    2.52
 -12   7  -3    0.53    1.98
 -11   7  -3   10.51    2.43
 -10   7  -3   16.40    2.68
  -9   7  -3    6.78    1.70
  -8   7  -3   76.87    5.53
  -7   7  -3    9.49    2.07
  -6   7  -3  195.47    6.46
  -5   7  -3   34.38    2.72
  -4   7  -3   45.75    2.96
  -3   7  -3  135.11    4.51
  -2   7  -3   41.55    2.91
  -1   7  -3  114.11    4.50
   0   7  -3   11.69    1.87
   1   7  -3    5.25    1.36
   2   7  -3    4.08    1.31
   3   7  -3    7.49    1.80
   4   7  -3   11.76    2.87
   5   7  -3   18.01    3.41
   6   7  -3   32.88    5.08
   7   7  -3   47.21    6.33
   8   7  -3    4.60    3.22
 -15   8  -3    4.92    3.97
 -14   8  -3    8.66    3.49
 -13   8  -3    1.65    2.16
 -12   8  -3   10.08    2.55
 -11   8  -3   73.09    6.09
 -10   8  -3   13.48    2.52
  -9   8  -3   88.97    6.52
  -8   8  -3    1.04    1.00
  -7   8  -3    5.42    1.31
  -6   8  -3    0.17    0.68
  -5   8  -3   27.37    2.96
  -4   8  -3    6.42    1.61
  -3   8  -3  119.08    4.49
  -2   8  -3   74.60    3.94
  -1   8  -3   63.05    4.51
   0   8  -3    0.11    0.74
   1   8  -3    1.67    1.09
   2   8  -3   33.82    3.68
   3   8  -3   17.58    2.90
   4   8  -3    9.02    2.71
   5   8  -3   -0.74    1.42
   6   8  -3    0.94    1.95
   7   8  -3    5.29    2.64
 -15   9  -3    9.34    5.29
 -14   9  -3   13.32    4.41
 -13   9  -3   10.52    2.75
 -12   9  -3    4.11    2.03
 -11   9  -3    3.07    1.82
 -10   9  -3   62.21    5.71
  -9   9  -3    3.28    1.64
  -8   9  -3    2.83    1.54
  -7   9  -3    6.38    1.46
  -6   9  -3   49.94    4.21
  -5   9  -3  146.85    6.56
  -4   9  -3    7.89    1.81
  -3   9  -3    7.46    1.74
  -2   9  -3    7.41    1.58
  -1   9  -3   97.18    5.96
   0   9  -3    5.13    1.48
   1   9  -3   46.72    4.39
   2   9  -3   28.35    3.53
   3   9  -3    1.55    1.31
   4   9  -3    2.13    2.06
   5   9  -3    0.37    1.86
   6   9  -3    0.73    2.67
 -15  10  -3    7.28    4.63
 -14  10  -3    7.79    2.99
 -13  10  -3   35.32    4.84
 -12  10  -3   10.24    2.62
 -11  10  -3    3.71    1.80
 -10  10  -3   36.45    4.47
  -9  10  -3   38.30    4.41
  -8  10  -3   33.41    4.98
  -7  10  -3    6.65    1.81
  -6  10  -3   17.31    2.64
  -5  10  -3   -0.43    1.00
  -4  10  -3    2.98    1.25
  -3  10  -3   11.45    2.37
  -2  10  -3   16.34    2.27
  -1  10  -3   66.38    5.18
   0  10  -3   33.07    3.85
   1  10  -3   17.76    2.77
   2  10  -3    2.02    1.48
   3  10  -3   14.37    2.91
   4  10  -3   22.51    4.57
   5  10  -3    5.06    4.21
 -15  11  -3    1.80    4.46
 -14  11  -3   -0.94    1.87
 -13  11  -3   29.94    4.55
 -12  11  -3    1.69    1.83
 -11  11  -3    9.80    2.77
 -10  11  -3   17.14    3.05
  -9  11  -3   24.71    4.80
  -8  11  -3   23.94    4.60
  -7  11  -3   10.17    2.30
  -6  11  -3    5.30    1.76
  -5  11  -3   26.28    3.53
  -4  11  -3    7.97    2.10
  -3  11  -3   67.37    6.51
  -2  11  -3    2.20    1.71
  -1  11  -3    7.38    1.93
   0  11  -3   16.19    2.87
   1  11  -3   24.35    3.61
   2  11  -3    9.72    2.59
   3  11  -3    0.77    1.59
 -14  12  -3    4.78    2.90
 -13  12  -3    6.36    2.53
 -12  12  -3   12.18    3.86
 -11  12  -3   36.95    6.05
 -10  12  -3    1.65    2.25
  -9  12  -3    3.68    2.62
  -8  12  -3   10.96    2.53
  -7  12  -3   16.44    2.81
  -6  12  -3    5.55    2.08
  -5  12  -3    0.86    1.30
  -4  12  -3   11.56    2.59
  -3  12  -3    3.51    2.15
  -2  12  -3   14.53    3.51
  -1  12  -3   -0.37    1.59
   0  12  -3   11.94    2.85
   1  12  -3    9.81    2.48
   2  12  -3   15.13    3.89
 -13  13  -3   -0.99    2.38
 -12  13  -3    7.97    3.46
 -11  13  -3    8.80    3.49
 -10  13  -3    7.59    3.12
  -9  13  -3    5.29    2.85
  -8  13  -3   -0.87    1.25
  -7  13  -3   44.55    6.20
  -6  13  -3    2.74    1.86
  -5  13  -3   -0.42    1.37
  -4  13  -3   10.55    3.04
  -3  13  -3   39.66    5.77
  -2  13  -3   17.11    3.74
  -1  13  -3    4.85    2.38
   0  13  -3   -0.32    2.24
 -12  14  -3   10.82    5.37
 -11  14  -3    1.47    2.79
 -10  14  -3   20.80    4.99
  -9  14  -3    1.87    2.77
  -8  14  -3    3.23    1.99
  -7  14  -3   41.24    4.91
  -6  14  -3    9.30    2.59
  -5  14  -3   17.65    4.05
  -4  14  -3    2.90    2.44
  -3  14  -3    5.17    2.78
  -2  14  -3    2.62    3.18
 -10  15  -3   16.07    8.31
  -9  15  -3    0.38    4.79
  -8  15  -3    2.04    2.12
  -7  15  -3    2.58    2.25
  -6  15  -3   11.17    4.43
   3 -15  -2   -0.21    5.03
   4 -15  -2   22.68    5.21
   5 -15  -2   -2.55    2.49
   6 -15  -2    7.67    5.20
   7 -15  -2    4.20    4.82
   8 -15  -2    3.49    4.94
   9 -15  -2   -2.31    3.60
  10 -15  -2   -0.78    3.77
  11 -15  -2    2.31    2.97
  12 -15  -2   18.45    7.27
   1 -14  -2    1.26    3.08
   2 -14  -2    3.01    2.97
   3 -14  -2    2.87    2.90
   4 -14  -2   12.23    3.99
   5 -14  -2    1.30    2.55
   6 -14  -2    0.27    2.51
   7 -14  -2   13.33    6.45
   8 -14  -2   15.60    6.83
   9 -14  -2   55.62    8.23
  10 -14  -2   54.22    7.79
  11 -14  -2    2.42    3.00
  12 -14  -2   10.02    4.06
  13 -14  -2    0.12    2.85
  -1 -13  -2    4.03    6.66
   0 -13  -2   35.73    6.56
   1 -13  -2   -1.32    2.27
   2 -13  -2   32.40    6.34
   3 -13  -2    4.17    2.70
   4 -13  -2    9.37    3.40
   5 -13  -2   55.22    7.34
   6 -13  -2    1.44    2.41
   7 -13  -2    0.93    3.17
   8 -13  -2   -0.35    1.97
   9 -13  -2    1.14    2.21
  10 -13  -2   -0.38    2.29
  11 -13  -2   -1.04    2.27
  12 -13  -2    4.30    3.27
  13 -13  -2   36.20    6.76
  -2 -12  -2   11.16    5.79
  -1 -12  -2    5.54    3.40
   0 -12  -2   11.73    3.87
   1 -12  -2    1.94    2.10
   2 -12  -2    4.91    2.65
   3 -12  -2    0.47    1.97
   4 -12  -2   17.72    4.28
   5 -12  -2   16.43    3.90
   6 -12  -2   18.99    3.14
   7 -12  -2    4.30    2.31
   8 -12  -2   30.15    5.52
   9 -12  -2    5.71    2.87
  10 -12  -2   16.42    4.27
  11 -12  -2   23.84    5.22
  12 -12  -2   11.39    4.16
  13 -12  -2    0.68    2.62
  14 -12  -2    2.10    4.52
  -3 -11  -2    3.78    4.74
  -2 -11  -2    0.94    2.64
  -1 -11  -2   28.10    5.56
   0 -11  -2    5.63    2.82
   1 -11  -2   37.14    6.17
   2 -11  -2    0.97    1.95
   3 -11  -2   10.94    3.29
   4 -11  -2  146.47    9.75
   5 -11  -2    6.79    2.16
   6 -11  -2   27.29    3.71
   7 -11  -2  112.26    7.72
   8 -11  -2    2.47    2.15
   9 -11  -2    0.10    1.51
  10 -11  -2    2.88    2.35
  11 -11  -2    6.54    3.25
  12 -11  -2    0.24    2.03
  13 -11  -2   39.92    6.79
  14 -11  -2    3.63    4.26
  -5 -10  -2    4.43    4.80
  -4 -10  -2   36.10   10.62
  -3 -10  -2    0.98    2.23
  -2 -10  -2   14.59    4.28
  -1 -10  -2    4.95    2.96
   0 -10  -2   28.62    5.37
   1 -10  -2    5.79    2.81
   2 -10  -2    6.59    2.74
   3 -10  -2    9.66    2.26
   4 -10  -2    3.29    1.58
   5 -10  -2    5.86    1.84
   6 -10  -2  182.80    8.22
   7 -10  -2    7.21    2.03
   8 -10  -2  127.43   10.30
   9 -10  -2   28.54    5.11
  10 -10  -2   29.46    5.15
  11 -10  -2   29.34    5.02
  12 -10  -2    9.92    3.53
  13 -10  -2    0.69    3.57
  14 -10  -2    7.48    5.17
  15 -10  -2    0.74    3.83
  -6  -9  -2    8.84    5.84
  -5  -9  -2   48.92   12.01
  -4  -9  -2    3.90    2.69
  -3  -9  -2    0.99    2.06
  -2  -9  -2    1.04    2.22
  -1  -9  -2   20.44    4.47
   0  -9  -2    2.51    2.28
   1  -9  -2   15.05    3.56
   2  -9  -2   12.96    2.54
   3  -9  -2   99.98    6.56
   4  -9  -2   53.00    4.87
   5  -9  -2    6.17    1.75
   6  -9  -2   14.11    2.47
   7  -9  -2    1.16    1.20
   8  -9  -2   80.78    7.64
   9  -9  -2    5.82    2.09
  10  -9  -2    6.88    2.17
  11  -9  -2   -0.24    1.45
  12  -9  -2    1.50    2.43
  13  -9  -2    3.55    3.06
  14  -9  -2    1.46    3.04
  15  -9  -2    4.15    4.92
  -7  -8  -2   -0.72    3.60
  -6  -8  -2    7.91    5.44
  -5  -8  -2    2.12    3.93
  -4  -8  -2   39.19    6.20
  -3  -8  -2    2.92    2.13
  -2  -8  -2  103.31    9.48
  -1  -8  -2   82.20    6.54
   0  -8  -2  147.30    5.96
   1  -8  -2    3.80    1.19
   2  -8  -2   36.77    3.10
   3  -8  -2   57.32    3.79
   4  -8  -2   10.94    1.94
   5  -8  -2   23.26    2.63
   6  -8  -2   27.29    2.80
   7  -8  -2   17.74    2.14
   8  -8  -2  146.10    8.20
   9  -8  -2   17.83    3.57
  10  -8  -2    5.19    1.94
  11  -8  -2   12.61    2.81
  12  -8  -2   13.64    3.98
  13  -8  -2   49.59   10.17
  14  -8  -2   -0.24    2.56
  15  -8  -2    3.50    3.84
  16  -8  -2   -1.52    8.61
  -8  -7  -2   14.38    7.62
  -7  -7  -2    2.29    4.38
  -6  -7  -2    5.21    3.17
  -5  -7  -2    3.44    1.91
  -4  -7  -2  104.72    7.31
  -3  -7  -2    7.48    2.06
  -2  -7  -2    3.13    1.45
  -1  -7  -2   27.99    2.70
   0  -7  -2    7.46    1.43
   1  -7  -2   52.67    3.60
   2  -7  -2   62.56    3.50
   3  -7  -2   28.66    2.23
   4  -7  -2  264.26    7.53
   5  -7  -2   36.62    3.08
   6  -7  -2   41.47    3.18
   7  -7  -2   10.23    1.72
   8  -7  -2    4.45    1.66
   9  -7  -2   15.25    2.65
  10  -7  -2   10.90    2.38
  11  -7  -2  112.29    9.81
  12  -7  -2   22.17    4.22
  13  -7  -2    2.11    2.45
  14  -7  -2    5.50    3.12
  15  -7  -2    1.57    3.20
  -9  -6  -2    4.69    4.33
  -8  -6  -2    0.51    2.75
  -7  -6  -2   -0.11    2.12
  -6  -6  -2   23.20    3.61
  -5  -6  -2   16.35    2.93
  -4  -6  -2  191.60    8.48
  -3  -6  -2   12.03    1.81
  -2  -6  -2   28.71    2.65
  -1  -6  -2   38.52    2.98
   0  -6  -2    6.34    1.30
   1  -6  -2  113.19    4.26
   2  -6  -2   17.51    1.69
   3  -6  -2   35.07    2.97
   4  -6  -2  160.07    5.35
   5  -6  -2  196.18    5.90
   6  -6  -2   10.66    1.55
   7  -6  -2   51.39    2.91
   8  -6  -2   44.23    3.37
   9  -6  -2  102.00    4.68
  10  -6  -2    2.51    1.54
  11  -6  -2    4.80    2.64
  12  -6  -2   15.36    3.91
  13  -6  -2    6.39    3.19
  14  -6  -2    7.18    3.55
  15  -6  -2    0.34    2.91
 -10  -5  -2    0.26    3.53
  -9  -5  -2    3.65    3.26
  -8  -5  -2   47.82    7.43
  -7  -5  -2   37.34    6.25
  -6  -5  -2    6.37    2.10
  -5  -5  -2    4.83    1.72
  -4  -5  -2    6.69    1.41
  -3  -5  -2   25.13    2.44
  -2  -5  -2   36.79    2.86
  -1  -5  -2  187.70    5.48
   0  -5  -2   81.77    3.51
   1  -5  -2   54.17    2.80
   2  -5  -2   43.62    2.33
   3  -5  -2  105.57    4.09
   4  -5  -2    5.52    1.12
   5  -5  -2   82.30    3.69
   6  -5  -2  112.95    3.42
   7  -5  -2   65.91    2.89
   8  -5  -2   48.86    3.41
   9  -5  -2   39.66    3.15
  10  -5  -2    5.09    1.88
  11  -5  -2   20.15    4.07
  12  -5  -2    3.00    2.21
  13  -5  -2    5.37    2.83
  14  -5  -2   33.76    5.77
  15  -5  -2   -1.81    3.00
 -11  -4  -2   10.45    4.32
 -10  -4  -2    3.94    3.01
  -9  -4  -2    1.72    2.68
  -8  -4  -2   14.24    4.11
  -7  -4  -2  133.88    7.56
  -6  -4  -2    3.09    1.53
  -5  -4  -2   48.97    4.44
  -4  -4  -2    9.61    1.54
  -3  -4  -2  269.52    5.91
  -2  -4  -2  163.38    4.86
  -1  -4  -2    6.37    1.06
   0  -4  -2   49.06    2.48
   1  -4  -2  103.43    2.92
   2  -4  -2  121.36    4.22
   3  -4  -2   28.23    2.21
   4  -4  -2   53.19    2.41
   5  -4  -2   56.93    2.42
   6  -4  -2   17.49    1.43
   7  -4  -2   30.43    2.51
   8  -4  -2   13.10    1.64
   9  -4  -2    8.02    1.83
  10  -4  -2  184.18    7.52
  11  -4  -2  100.17    8.70
  12  -4  -2   41.43    5.86
  13  -4  -2    2.40    2.46
  14  -4  -2   44.59    6.09
  15  -4  -2    3.53    6.83
 -12  -3  -2   -1.43    5.54
 -11  -3  -2   -0.20    2.67
 -10  -3  -2   -0.85    2.23
  -9  -3  -2    1.24    2.34
  -8  -3  -2   12.28    2.50
  -7  -3  -2   10.85    2.23
  -6  -3  -2   91.29    5.51
  -5  -3  -2   48.76    4.18
  -4  -3  -2   28.15    2.34
  -3  -3  -2   40.75    1.84
  -2  -3  -2  108.52    2.68
  -1  -3  -2   27.09    1.90
   0  -3  -2   45.74    1.84
   1  -3  -2    7.39    1.15
   2  -3  -2  350.09    7.66
   3  -3  -2   43.59    1.93
   4  -3  -2  109.24    3.78
   5  -3  -2   45.72    1.84
   6  -3  -2   41.90    2.71
   7  -3  -2  276.63    6.79
   8  -3  -2   21.32    2.72
   9  -3  -2   15.18    2.47
  10  -3  -2    5.94    1.71
  11  -3  -2    5.22    1.87
  12  -3  -2    1.52    2.18
  13  -3  -2    1.86    2.36
  14  -3  -2    3.17    5.33
 -12  -2  -2    3.63    3.36
 -11  -2  -2   47.35    7.48
 -10  -2  -2   13.74    4.43
  -9  -2  -2    2.02    2.06
  -8  -2  -2    5.82    1.76
  -7  -2  -2   20.11    2.88
  -6  -2  -2   46.35    4.04
  -5  -2  -2   69.52    4.85
  -4  -2  -2   18.06    1.32
  -3  -2  -2   39.49    2.60
  -2  -2  -2  120.65    3.65
  -1  -2  -2  346.44    6.85
   0  -2  -2  400.41    6.67
   1  -2  -2  101.52    3.21
   2  -2  -2  393.12    7.03
   3  -2  -2    8.87    1.27
   4  -2  -2  119.80    3.82
   5  -2  -2  102.59    3.48
   6  -2  -2  159.72    4.52
   7  -2  -2   32.37    2.09
   8  -2  -2   29.86    3.19
   9  -2  -2    1.46    1.22
  10  -2  -2   96.95    5.90
  11  -2  -2    1.10    1.43
  12  -2  -2   13.64    3.52
  13  -2  -2    0.08    3.73
  14  -2  -2    0.68    4.66
 -13  -1  -2   -0.52    2.82
 -12  -1  -2    0.07    2.44
 -11  -1  -2   -0.05    2.30
 -10  -1  -2   27.13    5.27
  -9  -1  -2    6.23    1.98
  -8  -1  -2   15.60    2.55
  -7  -1  -2    3.91    1.33
  -6  -1  -2   47.54    3.89
  -5  -1  -2  106.59    3.55
  -4  -1  -2   55.93    2.00
  -3  -1  -2   99.89    3.28
  -2  -1  -2    9.41    1.10
  -1  -1  -2   97.00    2.72
   0  -1  -2  217.68    3.99
   1  -1  -2  211.21    4.24
   2  -1  -2  101.35    3.24
   3  -1  -2  339.97    6.35
   4  -1  -2   30.65    1.65
   5  -1  -2    8.95    0.99
   6  -1  -2  194.43    4.38
   7  -1  -2   38.42    2.89
   8  -1  -2   20.65    2.27
   9  -1  -2   77.95    5.47
  10  -1  -2   29.26    3.58
  11  -1  -2    4.44    2.30
  12  -1  -2   14.00    3.79
  13  -1  -2    2.13    4.65
 -13   0  -2   46.62    7.67
 -12   0  -2   10.08    3.83
 -11   0  -2    5.76    2.97
 -10   0  -2   28.13    3.36
  -9   0  -2    0.86    1.28
  -8   0  -2  147.38    6.71
  -7   0  -2    8.02    1.36
  -6   0  -2    9.48    1.27
  -5   0  -2   90.27    3.00
  -4   0  -2   54.29    1.96
  -3   0  -2   45.34    1.76
  -2   0  -2  396.06    6.38
  -1   0  -2  207.61    3.55
   0   0  -2  372.14    4.83
   1   0  -2  205.82    3.68
   2   0  -2  391.83    6.73
   3   0  -2   46.71    2.52
   4   0  -2   56.75    2.57
   5   0  -2   80.78    3.21
   6   0  -2    9.16    1.41
   7   0  -2    8.70    1.44
   8   0  -2  153.53    5.28
   9   0  -2    6.67    1.47
  10   0  -2   31.41    4.61
  11   0  -2    1.98    1.80
  12   0  -2    8.77    3.45
  13   0  -2   16.12    7.29
 -14   1  -2   -2.41    3.34
 -13   1  -2    0.84    2.49
 -12   1  -2   22.16    4.93
 -11   1  -2    3.86    2.53
 -10   1  -2   26.89    3.55
  -9   1  -2   76.61    5.55
  -8   1  -2   20.34    2.05
  -7   1  -2   35.64    2.56
  -6   1  -2  195.93    5.18
  -5   1  -2    8.00    1.04
  -4   1  -2   29.79    1.67
  -3   1  -2  349.95    6.57
  -2   1  -2  101.57    2.13
  -1   1  -2  211.86    3.14
   0   1  -2  209.51    3.14
   1   1  -2  100.99    2.23
   2   1  -2    8.17    1.05
   3   1  -2  105.68    3.40
   4   1  -2   57.62    3.11
   5   1  -2  109.59    3.84
   6   1  -2   55.60    3.40
   7   1  -2    3.54    1.05
   8   1  -2   13.18    2.28
   9   1  -2    5.48    1.77
  10   1  -2   33.16    5.31
  11   1  -2   -0.03    1.89
  12   1  -2    1.34    2.62
  13   1  -2   -0.17    3.46
 -14   2  -2   19.27    4.79
 -13   2  -2   -0.02    2.40
 -12   2  -2   20.57    4.43
 -11   2  -2    0.96    1.27
 -10   2  -2  109.49    6.38
  -9   2  -2    1.71    0.91
  -8   2  -2   29.17    2.54
  -7   2  -2   38.29    2.73
  -6   2  -2  155.26    4.61
  -5   2  -2   99.16    3.36
  -4   2  -2  127.39    2.80
  -3   2  -2    6.87    0.70
  -2   2  -2  397.20    5.50
  -1   2  -2  102.42    2.24
   0   2  -2  400.65    5.55
   1   2  -2  340.95    6.00
   2   2  -2  125.79    3.12
   3   2  -2   42.09    2.57
   4   2  -2   17.74    1.76
   5   2  -2   66.19    3.58
   6   2  -2   49.16    3.99
   7   2  -2   15.74    2.43
   8   2  -2    7.41    1.94
   9   2  -2    0.11    1.28
  10   2  -2    5.33    2.96
  11   2  -2   57.96    7.60
  12   2  -2    0.01    2.45
 -14   3  -2   -1.94    2.10
 -13   3  -2   -0.27    2.11
 -12   3  -2    3.97    2.44
 -11   3  -2    5.69    2.01
 -10   3  -2    7.15    1.59
  -9   3  -2   14.34    1.94
  -8   3  -2   21.23    2.17
  -7   3  -2  264.40    6.84
  -6   3  -2   41.55    2.69
  -5   3  -2   45.14    1.71
  -4   3  -2  105.41    2.65
  -3   3  -2   42.40    1.52
  -2   3  -2  341.37    5.05
  -1   3  -2    7.38    0.78
   0   3  -2   41.39    1.48
   1   3  -2   31.14    1.35
   2   3  -2  106.63    2.66
   3   3  -2   39.88    1.86
   4   3  -2   27.60    2.85
   5   3  -2   42.25    3.60
   6   3  -2   97.38    4.96
   7   3  -2   10.71    2.22
   8   3  -2   11.72    2.44
   9   3  -2    1.33    1.77
  10   3  -2    2.77    2.15
  11   3  -2    1.54    2.57
 -14   4  -2   48.78    7.29
 -13   4  -2    3.92    2.46
 -12   4  -2   41.40    6.27
 -11   4  -2  108.08    9.50
 -10   4  -2  182.49    7.38
  -9   4  -2    7.52    1.43
  -8   4  -2   10.92    1.64
  -7   4  -2   32.95    2.63
  -6   4  -2   15.69    1.20
  -5   4  -2   57.47    2.20
  -4   4  -2   50.00    2.33
  -3   4  -2   33.08    1.61
  -2   4  -2  127.96    2.84
  -1   4  -2   98.44    3.08
   0   4  -2   50.50    2.24
   1   4  -2    7.15    1.04
   2   4  -2  158.79    4.64
   3   4  -2  274.81    6.86
   4   4  -2   12.72    2.03
   5   4  -2   35.32    4.02
   6   4  -2    0.68    1.08
   7   4  -2  138.89    6.60
   8   4  -2   18.32    3.13
   9   4  -2    6.00    2.88
  10   4  -2    6.23    3.15
  11   4  -2    8.07    4.04
 -15   5  -2    2.97    4.76
 -14   5  -2   47.22    7.10
 -13   5  -2    1.10    2.00
 -12   5  -2    0.83    1.77
 -11   5  -2   18.82    2.86
 -10   5  -2    4.48    1.68
  -9   5  -2   47.35    4.05
  -8   5  -2   47.15    3.86
  -7   5  -2   69.54    2.85
  -6   5  -2  110.95    3.63
  -5   5  -2   83.62    3.09
  -4   5  -2    8.39    0.92
  -3   5  -2  105.21    2.98
  -2   5  -2   39.88    1.75
  -1   5  -2   56.50    2.80
   0   5  -2   85.04    3.14
   1   5  -2  191.22    5.25
   2   5  -2   32.47    2.53
   3   5  -2   27.84    2.53
   4   5  -2    7.32    1.67
   5   5  -2    6.24    1.72
   6   5  -2    7.77    2.00
   7   5  -2   21.36    3.19
   8   5  -2   51.43    5.39
   9   5  -2    2.90    2.75
  10   5  -2   -0.39    2.46
 -15   6  -2   -1.30    3.60
 -14   6  -2   14.74    4.41
 -13   6  -2    3.78    2.38
 -12   6  -2   20.07    3.25
 -11   6  -2    9.84    2.38
 -10   6  -2    2.91    1.36
  -9   6  -2   84.32    5.79
  -8   6  -2   45.94    4.10
  -7   6  -2   48.07    2.69
  -6   6  -2    4.98    0.99
  -5   6  -2  187.12    5.28
  -4   6  -2  156.29    3.90
  -3   6  -2   41.62    2.27
  -2   6  -2   16.47    1.59
  -1   6  -2  109.52    3.86
   0   6  -2    8.86    1.34
   1   6  -2   35.07    2.65
   2   6  -2   26.76    2.43
   3   6  -2   14.97    1.96
   4   6  -2  168.31    5.99
   5   6  -2   23.49    3.26
   6   6  -2   21.42    3.26
   7   6  -2    0.51    1.64
   8   6  -2    0.74    2.93
   9   6  -2    9.20    4.83
 -15   7  -2    5.50    5.12
 -14   7  -2    7.64    3.30
 -13   7  -2    4.67    2.03
 -12   7  -2   23.87    3.44
 -11   7  -2  137.91    7.08
 -10   7  -2   10.21    2.27
  -9   7  -2   14.55    2.55
  -8   7  -2    4.15    1.41
  -7   7  -2    7.64    1.27
  -6   7  -2   32.74    2.55
  -5   7  -2   33.46    2.62
  -4   7  -2  266.09    6.38
  -3   7  -2   29.74    2.28
  -2   7  -2   59.83    3.19
  -1   7  -2   53.86    3.39
   0   7  -2    9.49    1.65
   1   7  -2   18.13    2.21
   2   7  -2    1.26    0.92
   3   7  -2    6.50    1.66
   4   7  -2  115.85    6.30
   5   7  -2    4.25    1.92
   6   7  -2    4.93    2.24
   7   7  -2    9.89    3.07
   8   7  -2    5.60    3.71
 -15   8  -2    8.85    6.15
 -14   8  -2    1.47    2.03
 -13   8  -2   51.05    5.57
 -12   8  -2   10.75    2.58
 -11   8  -2   11.02    2.46
 -10   8  -2    9.70    2.24
  -9   8  -2   13.68    2.56
  -8   8  -2  158.65    5.35
  -7   8  -2   20.93    2.22
  -6   8  -2   23.84    2.31
  -5   8  -2   22.35    2.60
  -4   8  -2    9.71    1.36
  -3   8  -2   48.10    3.13
  -2   8  -2   45.13    3.20
  -1   8  -2    2.15    0.99
   0   8  -2  142.81    5.87
   1   8  -2   75.56    5.17
   2   8  -2  103.47    5.79
   3   8  -2    4.66    1.54
   4   8  -2   45.54    4.47
   5   8  -2    0.57    1.59
   6   8  -2   17.61    3.65
   7   8  -2    0.21    1.97
 -15   9  -2    2.15    4.39
 -14   9  -2    3.17    2.16
 -13   9  -2    3.84    2.11
 -12   9  -2    2.69    1.71
 -11   9  -2    0.48    1.43
 -10   9  -2    3.21    1.55
  -9   9  -2    7.06    2.05
  -8   9  -2   71.03    4.34
  -7   9  -2    3.93    1.38
  -6   9  -2   11.51    2.03
  -5   9  -2    8.75    1.77
  -4   9  -2   41.73    3.83
  -3   9  -2  101.50    4.37
  -2   9  -2   12.76    1.87
  -1   9  -2   13.15    2.13
   0   9  -2    9.20    1.91
   1   9  -2   26.14    3.22
   2   9  -2    2.10    1.14
   3   9  -2    1.62    1.20
   4   9  -2    5.18    2.41
   5   9  -2   44.48    5.86
   6   9  -2    1.83    2.18
 -15  10  -2    0.79    2.88
 -14  10  -2    5.86    2.51
 -13  10  -2    6.55    2.63
 -12  10  -2    8.69    2.58
 -11  10  -2   39.68    4.78
 -10  10  -2   31.22    3.81
  -9  10  -2   26.84    3.56
  -8  10  -2  108.49    5.96
  -7  10  -2    5.30    1.53
  -6  10  -2  183.92    7.59
  -5  10  -2    7.87    1.84
  -4  10  -2    1.96    1.28
  -3  10  -2   15.72    2.01
  -2  10  -2    5.25    1.44
  -1  10  -2    6.86    1.81
   0  10  -2   28.96    3.33
   1  10  -2    7.52    1.97
   2  10  -2   27.35    3.53
   3  10  -2    0.39    1.33
   4  10  -2   53.92    6.62
   5  10  -2    0.70    2.10
 -15  11  -2   23.57    6.02
 -14  11  -2    3.83    2.48
 -13  11  -2   49.08    5.68
 -12  11  -2    1.09    1.83
 -11  11  -2    4.41    1.89
 -10  11  -2    4.52    2.43
  -9  11  -2    2.16    1.81
  -8  11  -2    3.82    1.63
  -7  11  -2  104.81    6.19
  -6  11  -2   20.01    2.98
  -5  11  -2    6.58    1.87
  -4  11  -2  136.45    6.96
  -3  11  -2    8.27    2.15
  -2  11  -2   -0.48    0.89
  -1  11  -2   36.03    4.02
   0  11  -2    3.47    1.52
   1  11  -2   22.87    3.32
   2  11  -2    0.87    1.48
   3  11  -2    1.87    1.95
   4  11  -2   -0.33    2.08
 -14  12  -2    2.42    3.11
 -13  12  -2    0.79    2.25
 -12  12  -2   11.94    3.85
 -11  12  -2   15.34    4.08
 -10  12  -2   25.62    5.14
  -9  12  -2    0.33    1.68
  -8  12  -2   53.26    5.12
  -7  12  -2    4.68    1.66
  -6  12  -2   20.29    3.30
  -5  12  -2   21.32    3.28
  -4  12  -2   19.32    3.23
  -3  12  -2    1.07    1.63
  -2  12  -2   11.56    3.14
  -1  12  -2    1.89    1.45
   0  12  -2    9.14    2.45
   1  12  -2    4.09    1.90
   2  12  -2   12.91    3.77
 -14  13  -2    0.86    2.83
 -13  13  -2   38.39    6.46
 -12  13  -2    7.17    3.16
 -11  13  -2   -2.05    1.75
 -10  13  -2    0.47    2.19
  -9  13  -2    5.24    2.01
  -8  13  -2    2.08    1.56
  -7  13  -2    3.84    1.86
  -6  13  -2    2.89    1.66
  -5  13  -2   54.88    5.55
  -4  13  -2    5.99    2.46
  -3  13  -2    1.85    1.63
  -2  13  -2   35.46    5.45
  -1  13  -2    0.47    1.74
   0  13  -2   39.96    5.87
   1  13  -2    0.90    3.38
 -13  14  -2    3.21    4.22
 -12  14  -2   15.60    4.45
 -11  14  -2    2.76    3.07
 -10  14  -2   40.97    6.62
  -9  14  -2   58.52    5.95
  -8  14  -2    9.33    2.36
  -7  14  -2    4.40    2.13
  -6  14  -2    1.20    1.81
  -5  14  -2    3.33    2.17
  -4  14  -2    6.77    2.68
  -3  14  -2    0.09    2.02
  -2  14  -2    2.24    2.28
  -1  14  -2    2.51    3.39
 -12  15  -2   21.48    8.90
 -11  15  -2    3.27    4.43
 -10  15  -2    1.85    2.98
  -9  15  -2    1.42    1.96
  -8  15  -2    0.45    2.03
  -7  15  -2    4.12    2.49
  -6  15  -2    4.17    2.42
  -5  15  -2    0.54    1.90
  -4  15  -2   17.03    4.66
  -3  15  -2    6.08    5.11
  -9  16  -2    2.88    3.18
  -8  16  -2    1.55    5.41
   6 -16  -1    6.80    4.93
   7 -16  -1    1.68    4.49
   2 -15  -1   11.69    7.68
   3 -15  -1   -1.10    2.82
   4 -15  -1    1.98    3.08
   5 -15  -1    5.00    3.31
   6 -15  -1   18.15    4.88
   7 -15  -1    4.59    3.22
   8 -15  -1    0.41    3.28
   9 -15  -1   -3.61    3.11
  10 -15  -1    6.30    5.42
  11 -15  -1    2.62    5.09
  12 -15  -1    5.09    3.88
   1 -14  -1   -2.32    2.76
   2 -14  -1    5.76    3.53
   3 -14  -1    4.22    3.14
   4 -14  -1    4.44    2.80
   5 -14  -1   12.12    3.80
   6 -14  -1   11.48    3.96
   7 -14  -1   55.79    7.73
   8 -14  -1   -0.43    2.25
   9 -14  -1    7.82    4.97
  10 -14  -1   33.71    6.38
  11 -14  -1   -1.12    2.46
  12 -14  -1   17.17    4.92
  13 -14  -1    3.24    3.14
  14 -14  -1   -4.72    5.78
  -1 -13  -1   10.22    6.21
   0 -13  -1    2.18    3.05
   1 -13  -1   27.29    5.84
   2 -13  -1   35.19    6.40
   3 -13  -1   24.37    5.14
   4 -13  -1    8.90    3.41
   5 -13  -1   -0.15    2.01
   6 -13  -1    8.73    3.28
   7 -13  -1    5.86    2.89
   8 -13  -1   -0.62    1.75
   9 -13  -1    4.79    2.96
  10 -13  -1   26.61    5.37
  11 -13  -1    6.42    3.10
  12 -13  -1    7.18    3.29
  13 -13  -1    1.27    2.35
  14 -13  -1    2.51    2.79
  -2 -12  -1   21.69    7.89
  -1 -12  -1   12.81    6.33
   0 -12  -1   23.41    5.61
   1 -12  -1    0.89    2.42
   2 -12  -1    4.01    2.85
   3 -12  -1    4.10    2.44
   4 -12  -1    3.32    2.59
   5 -12  -1    0.64    1.87
   6 -12  -1    3.48    2.21
   7 -12  -1   19.11    3.29
   8 -12  -1    9.35    2.34
   9 -12  -1    0.99    2.04
  10 -12  -1    1.44    1.79
  11 -12  -1    9.35    3.42
  12 -12  -1   17.28    4.21
  13 -12  -1   19.90    4.55
  14 -12  -1    2.83    2.86
  -4 -11  -1   -1.16    4.14
  -3 -11  -1    1.26    3.45
  -2 -11  -1   17.98    7.10
  -1 -11  -1    7.79    3.43
   0 -11  -1   21.13    4.75
   1 -11  -1    7.26    3.13
   2 -11  -1    4.89    2.82
   3 -11  -1  115.10   10.61
   4 -11  -1   20.29    3.35
   5 -11  -1   69.59    4.94
   6 -11  -1   -0.14    1.10
   7 -11  -1   24.99    3.63
   8 -11  -1    9.20    2.27
   9 -11  -1    4.42    1.75
  10 -11  -1   28.04    4.87
  11 -11  -1   17.38    3.98
  12 -11  -1    1.37    2.23
  13 -11  -1   40.88    5.83
  14 -11  -1    1.84    3.95
  15 -11  -1    6.42    4.65
  -5 -10  -1    5.01    5.97
  -4 -10  -1   39.66   10.29
  -3 -10  -1   25.83    8.38
  -2 -10  -1    2.85    2.19
  -1 -10  -1   26.03    3.96
   0 -10  -1   46.24    5.11
   1 -10  -1   49.79    5.10
   2 -10  -1   21.14    3.10
   3 -10  -1   18.13    3.02
   4 -10  -1    1.80    1.12
   5 -10  -1    2.10    1.40
   6 -10  -1    6.58    1.96
   7 -10  -1    9.67    2.14
   8 -10  -1   25.54    3.39
   9 -10  -1   81.59    6.02
  10 -10  -1   48.25    5.98
  11 -10  -1   21.94    4.15
  12 -10  -1    4.70    2.27
  13 -10  -1   31.57    5.26
  14 -10  -1    2.22    3.44
  15 -10  -1    3.47    4.18
  -6  -9  -1    0.30    4.97
  -5  -9  -1    1.73    2.94
  -4  -9  -1   -0.38    2.16
  -3  -9  -1    1.03    1.71
  -2  -9  -1    8.00    2.37
  -1  -9  -1   87.83    7.15
   0  -9  -1    5.91    1.99
   1  -9  -1  127.29    7.19
   2  -9  -1    2.28    1.31
   3  -9  -1    4.58    1.42
   4  -9  -1   13.50    2.10
   5  -9  -1   92.26    6.14
   6  -9  -1   32.84    3.60
   7  -9  -1   26.04    3.13
   8  -9  -1   13.87    2.23
   9  -9  -1    8.93    1.99
  10  -9  -1   39.99    5.16
  11  -9  -1    8.74    2.73
  12  -9  -1    4.40    2.18
  13  -9  -1    6.97    3.91
  14  -9  -1   14.79    5.61
  15  -9  -1    6.35    4.89
  -8  -8  -1    5.00    9.32
  -7  -8  -1   -0.14    3.00
  -6  -8  -1    4.03    3.34
  -5  -8  -1   -2.87    1.79
  -4  -8  -1   16.55    4.21
  -3  -8  -1   10.72    2.65
  -2  -8  -1   33.00    4.20
  -1  -8  -1   21.91    3.26
   0  -8  -1   10.82    2.42
   1  -8  -1   91.50    4.33
   2  -8  -1   69.13    4.32
   3  -8  -1  117.45    5.07
   4  -8  -1   42.85    4.08
   5  -8  -1    3.46    1.25
   6  -8  -1    3.68    1.17
   7  -8  -1    7.58    1.46
   8  -8  -1    6.13    1.42
   9  -8  -1  117.15    5.00
  10  -8  -1   17.79    2.79
  11  -8  -1  127.24    6.87
  12  -8  -1   10.99    2.47
  13  -8  -1    0.53    2.13
  14  -8  -1    6.30    3.03
  15  -8  -1    0.82    2.60
  16  -8  -1    4.94    5.81
  -9  -7  -1    9.65    6.69
  -8  -7  -1    0.13    2.96
  -7  -7  -1   55.61    8.50
  -6  -7  -1    5.69    3.39
  -5  -7  -1    9.24    3.46
  -4  -7  -1   28.10    3.87
  -3  -7  -1    9.56    2.42
  -2  -7  -1   27.48    3.67
  -1  -7  -1    7.09    1.93
   0  -7  -1    2.63    1.01
   1  -7  -1  184.98    5.90
   2  -7  -1   95.18    4.35
   3  -7  -1  259.58    6.65
   4  -7  -1   13.61    1.79
   5  -7  -1   67.31    3.77
   6  -7  -1  244.33    6.84
   7  -7  -1    2.10    0.90
   8  -7  -1   81.86    4.10
   9  -7  -1    1.79    0.98
  10  -7  -1   13.53    2.33
  11  -7  -1   12.21    2.38
  12  -7  -1    0.00    1.72
  13  -7  -1    1.03    2.21
  14  -7  -1   70.38   10.86
  15  -7  -1   -0.50    2.45
  16  -7  -1    9.04    5.03
 -10  -6  -1   10.82    7.46
  -9  -6  -1   11.70    4.56
  -8  -6  -1    6.08    3.73
  -7  -6  -1    7.05    2.83
  -6  -6  -1    5.08    2.85
  -5  -6  -1    0.13    1.21
  -4  -6  -1    6.48    1.90
  -3  -6  -1   36.54    3.13
  -2  -6  -1    3.72    1.08
  -1  -6  -1  253.70    6.86
   0  -6  -1   12.58    1.62
   1  -6  -1   33.23    2.74
   2  -6  -1   88.10    3.86
   3  -6  -1   64.57    3.40
   4  -6  -1   46.87    3.07
   5  -6  -1   15.07    1.75
   6  -6  -1   13.78    1.66
   7  -6  -1  189.16    5.49
   8  -6  -1   68.26    3.65
   9  -6  -1    3.85    1.41
  10  -6  -1    4.83    1.52
  11  -6  -1   75.72    6.45
  12  -6  -1    2.56    2.00
  13  -6  -1    2.49    2.42
  14  -6  -1    4.14    3.06
  15  -6  -1    0.44    2.69
  16  -6  -1   -1.33    5.81
 -10  -5  -1    3.65    3.64
  -9  -5  -1   25.31    5.93
  -8  -5  -1   -2.08    2.21
  -7  -5  -1    1.79    2.48
  -6  -5  -1   70.79    8.21
  -5  -5  -1    1.86    1.28
  -4  -5  -1   87.49    4.29
  -3  -5  -1    3.34    0.82
  -2  -5  -1   63.01    3.19
  -1  -5  -1   13.09    1.52
   0  -5  -1  178.30    5.17
   1  -5  -1   22.18    2.07
   2  -5  -1  175.07    5.02
   3  -5  -1   13.77    1.55
   4  -5  -1  321.14    7.35
   5  -5  -1  184.29    4.91
   6  -5  -1   29.01    1.89
   7  -5  -1   94.36    3.54
   8  -5  -1  114.15    4.09
   9  -5  -1    9.32    1.58
  10  -5  -1    1.57    1.11
  11  -5  -1   -0.36    1.55
  12  -5  -1   10.71    3.21
  13  -5  -1   -0.14    1.56
  14  -5  -1    3.14    2.72
  15  -5  -1    9.09    3.83
  16  -5  -1   12.83    9.04
 -11  -4  -1    6.21    3.92
 -10  -4  -1    2.05    2.83
  -9  -4  -1   13.01    4.17
  -8  -4  -1    6.75    2.90
  -7  -4  -1   24.73    4.97
  -6  -4  -1    5.43    1.65
  -5  -4  -1    9.44    1.64
  -4  -4  -1   53.88    3.08
  -3  -4  -1   10.49    1.18
  -2  -4  -1   46.65    2.56
  -1  -4  -1  332.96    7.40
   0  -4  -1   98.89    3.32
   1  -4  -1  242.77    5.05
   2  -4  -1   13.30    1.52
   3  -4  -1    2.27    0.74
   4  -4  -1   91.53    2.61
   5  -4  -1   21.00    1.81
   6  -4  -1   86.49    3.10
   7  -4  -1  245.07    6.09
   8  -4  -1   52.55    3.00
   9  -4  -1   92.51    3.95
  10  -4  -1    9.44    2.64
  11  -4  -1   16.95    3.47
  12  -4  -1   13.61    3.04
  13  -4  -1    2.85    2.34
  14  -4  -1   19.49    4.42
  15  -4  -1   -0.62    4.55
 -12  -3  -1    0.57    3.18
 -11  -3  -1    6.79    3.21
 -10  -3  -1   31.30    5.78
  -9  -3  -1    4.32    2.44
  -8  -3  -1  124.78   10.34
  -7  -3  -1   21.28    2.98
  -6  -3  -1    3.28    1.19
  -5  -3  -1  117.96    4.53
  -4  -3  -1  242.07    6.27
  -3  -3  -1   62.40    2.28
  -2  -3  -1   12.88    1.38
  -1  -3  -1    3.56    0.81
   0  -3  -1  459.85    8.81
   1  -3  -1  171.20    3.76
   2  -3  -1  179.78    4.46
   3  -3  -1  471.93    7.67
   4  -3  -1  241.84    5.33
   5  -3  -1  185.30    4.52
   6  -3  -1   68.95    2.69
   7  -3  -1   15.41    1.60
   8  -3  -1    3.26    0.86
   9  -3  -1   37.29    2.81
  10  -3  -1    9.64    1.92
  11  -3  -1    7.75    2.67
  12  -3  -1    3.18    2.01
  13  -3  -1   20.79    4.49
  14  -3  -1    0.57    4.46
 -13  -2  -1    5.02    4.81
 -12  -2  -1   12.21    4.24
 -11  -2  -1   36.36    6.55
 -10  -2  -1    3.32    2.46
  -9  -2  -1    6.26    2.78
  -8  -2  -1   14.25    3.62
  -7  -2  -1    2.61    1.11
  -6  -2  -1   68.44    3.70
  -5  -2  -1   93.57    3.78
  -4  -2  -1   89.83    3.41
  -3  -2  -1  185.55    3.94
  -2  -2  -1   13.80    0.99
  -1  -2  -1  172.31    3.96
   0  -2  -1  137.39    2.93
   1  -2  -1   38.23    1.92
   2  -2  -1  142.37    3.00
   3  -2  -1  172.01    4.52
   4  -2  -1   15.46    1.27
   5  -2  -1   13.66    1.24
   6  -2  -1   47.63    2.23
   7  -2  -1   70.16    2.81
   8  -2  -1    3.65    0.89
   9  -2  -1   29.61    3.17
  10  -2  -1   35.01    3.71
  11  -2  -1    4.62    1.62
  12  -2  -1    1.45    1.85
  13  -2  -1    8.92    5.36
  14  -2  -1    0.81    4.00
 -13  -1  -1    2.78    3.36
 -12  -1  -1   29.92    6.18
 -11  -1  -1    3.28    2.91
 -10  -1  -1   21.57    4.57
  -9  -1  -1   32.64    5.12
  -8  -1  -1  123.95    6.18
  -7  -1  -1   94.69    4.18
  -6  -1  -1  187.66    5.50
  -5  -1  -1   29.05    2.20
  -4  -1  -1   19.78    1.65
  -3  -1  -1  236.56    4.59
  -2  -1  -1  174.07    3.31
  -1  -1  -1   40.00    1.51
   0  -1  -1   28.99    1.52
   1  -1  -1   26.44    1.62
   2  -1  -1   39.79    1.61
   3  -1  -1  170.19    3.33
   4  -1  -1    6.30    0.69
   5  -1  -1  326.65    5.93
   6  -1  -1   19.39    1.39
   7  -1  -1  260.23    5.45
   8  -1  -1    9.99    1.44
   9  -1  -1   19.81    2.69
  10  -1  -1   93.02    6.10
  11  -1  -1   27.16    3.56
  12  -1  -1   17.28    7.15
  13  -1  -1    4.84    5.02
  14  -1  -1   -1.19    4.09
 -13   0  -1    0.77    2.53
 -12   0  -1   21.07    4.79
 -11   0  -1   16.85    4.08
 -10   0  -1   42.76    6.17
  -9   0  -1    6.50    1.77
  -8   0  -1    7.38    1.48
  -7   0  -1    1.85    0.78
  -6   0  -1   15.25    1.72
  -5   0  -1  186.72    4.91
  -4   0  -1   96.29    3.01
  -3   0  -1  462.71    8.42
  -2   0  -1  137.39    2.69
  -1   0  -1   27.19    1.05
   0   0  -1    0.25    0.16
   1   0  -1   27.04    1.04
   2   0  -1  140.19    3.20
   3   0  -1  472.07    7.20
   4   0  -1   98.81    2.30
   5   0  -1  183.71    3.83
   6   0  -1   12.63    1.10
   7   0  -1    2.68    0.89
   8   0  -1   10.02    1.52
   9   0  -1   10.40    2.07
  10   0  -1   45.88    5.76
  11   0  -1   16.20    3.94
  12   0  -1   29.05    5.35
  13   0  -1    1.96    5.12
 -14   1  -1    2.34    5.10
 -13   1  -1   11.09    3.91
 -12   1  -1   10.25    3.49
 -11   1  -1   27.41    4.76
 -10   1  -1   85.98    8.13
  -9   1  -1   23.72    2.53
  -8   1  -1    7.37    1.42
  -7   1  -1  246.78    6.65
  -6   1  -1   17.04    1.22
  -5   1  -1  338.05    5.95
  -4   1  -1    5.34    0.82
  -3   1  -1  168.81    3.82
  -2   1  -1   41.32    1.46
  -1   1  -1   27.80    0.71
   0   1  -1   26.45    0.77
   1   1  -1   42.21    1.30
   2   1  -1  171.34    3.72
   3   1  -1  238.67    5.06
   4   1  -1   17.89    1.47
   5   1  -1   30.43    2.13
   6   1  -1  193.59    5.21
   7   1  -1   85.58    3.52
   8   1  -1  121.56    4.43
   9   1  -1   47.36    5.89
  10   1  -1   23.14    4.44
  11   1  -1    2.94    2.23
  12   1  -1   31.50    5.67
  13   1  -1   -3.05    4.98
 -14   2  -1   11.06    6.52
 -13   2  -1   12.42    4.02
 -12   2  -1    1.72    1.95
 -11   2  -1    2.03    1.74
 -10   2  -1   32.42    3.06
  -9   2  -1   27.53    2.64
  -8   2  -1    4.13    1.07
  -7   2  -1   65.22    2.52
  -6   2  -1   48.13    1.79
  -5   2  -1   15.16    0.82
  -4   2  -1   14.25    0.76
  -3   2  -1  170.19    3.24
  -2   2  -1  135.97    2.40
  -1   2  -1   40.90    1.13
   0   2  -1  134.26    2.79
   1   2  -1  165.68    3.74
   2   2  -1   19.28    1.13
   3   2  -1  182.76    4.17
   4   2  -1   84.05    2.82
   5   2  -1   89.42    3.22
   6   2  -1   71.58    3.13
   7   2  -1    2.29    1.14
   8   2  -1   22.59    2.91
   9   2  -1    3.62    2.13
  10   2  -1    3.78    2.49
  11   2  -1   36.53    6.19
  12   2  -1   10.09    4.02
  13   2  -1   11.22    5.17
 -14   3  -1   -1.62    3.55
 -13   3  -1   25.02    4.43
 -12   3  -1    2.38    1.90
 -11   3  -1   11.62    2.36
 -10   3  -1   12.51    2.44
  -9   3  -1   37.34    3.08
  -8   3  -1    1.57    0.81
  -7   3  -1   11.56    1.03
  -6   3  -1   65.16    2.18
  -5   3  -1  184.22    3.82
  -4   3  -1  240.87    5.06
  -3   3  -1  482.92    9.53
  -2   3  -1  167.38    3.51
  -1   3  -1  169.24    3.72
   0   3  -1  461.71    7.47
   1   3  -1    4.77    0.73
   2   3  -1   17.94    1.50
   3   3  -1   60.86    2.08
   4   3  -1  243.80    5.62
   5   3  -1  112.25    3.67
   6   3  -1    5.95    1.50
   7   3  -1   18.35    2.64
   8   3  -1  122.00    6.21
   9   3  -1    7.31    2.71
  10   3  -1   28.71    5.41
  11   3  -1    1.40    2.21
  12   3  -1    2.76    3.02
 -15   4  -1    2.93    4.97
 -14   4  -1   30.93    9.71
 -13   4  -1    6.16    2.79
 -12   4  -1   19.79    3.11
 -11   4  -1   18.37    2.92
 -10   4  -1    4.42    1.62
  -9   4  -1   91.97    5.35
  -8   4  -1   47.36    3.97
  -7   4  -1  240.58    5.80
  -6   4  -1   83.70    2.95
  -5   4  -1   19.17    1.53
  -4   4  -1   89.13    2.86
  -3   4  -1    5.10    0.58
  -2   4  -1   15.07    1.18
  -1   4  -1  235.81    5.13
   0   4  -1   97.36    2.78
   1   4  -1  327.50    6.81
   2   4  -1   47.94    2.54
   3   4  -1   11.29    1.45
   4   4  -1   48.61    3.63
   5   4  -1    6.90    1.60
   6   4  -1    5.19    1.54
   7   4  -1   14.48    2.37
   8   4  -1    5.41    2.30
   9   4  -1    8.77    3.08
  10   4  -1    3.90    3.11
  11   4  -1    3.82    3.03
 -15   5  -1   24.65    8.87
 -14   5  -1   -2.66    3.04
 -13   5  -1   -1.85    1.26
 -12   5  -1   19.63    3.16
 -11   5  -1    0.89    1.31
 -10   5  -1    0.31    0.95
  -9   5  -1    5.13    1.52
  -8   5  -1  111.90    4.01
  -7   5  -1   88.38    3.34
  -6   5  -1   29.77    2.16
  -5   5  -1  174.65    4.70
  -4   5  -1  324.46    5.86
  -3   5  -1   18.01    1.35
  -2   5  -1  175.12    4.34
  -1   5  -1   20.84    1.65
   0   5  -1  175.06    4.42
   1   5  -1   21.16    1.79
   2   5  -1   62.05    2.98
   3   5  -1    2.13    0.80
   4   5  -1   88.08    3.91
   5   5  -1    0.30    0.84
   6   5  -1   84.94    5.98
   7   5  -1    1.53    1.43
   8   5  -1    0.97    1.74
   9   5  -1   17.09    4.38
  10   5  -1   11.98    4.32
 -15   6  -1   -2.54    3.33
 -14   6  -1    5.12    3.71
 -13   6  -1    9.27    2.62
 -12   6  -1    7.04    2.13
 -11   6  -1   79.02    6.12
 -10   6  -1    5.72    1.75
  -9   6  -1    5.67    1.69
  -8   6  -1   59.97    3.16
  -7   6  -1  189.77    5.31
  -6   6  -1    8.60    1.20
  -5   6  -1   15.86    1.66
  -4   6  -1   47.55    2.10
  -3   6  -1   60.83    2.55
  -2   6  -1   85.15    3.12
  -1   6  -1   28.58    2.16
   0   6  -1   13.22    1.37
   1   6  -1  254.46    6.33
   2   6  -1    3.96    1.00
   3   6  -1   31.50    2.69
   4   6  -1    6.18    1.36
   5   6  -1    0.88    1.13
   6   6  -1    5.49    1.83
   7   6  -1    7.69    2.18
   8   6  -1    6.63    3.40
   9   6  -1   13.70    4.29
 -15   7  -1    4.11    4.52
 -14   7  -1   46.03    6.72
 -13   7  -1    7.99    2.36
 -12   7  -1    2.95    1.53
 -11   7  -1   14.94    2.73
 -10   7  -1   17.90    2.90
  -9   7  -1    3.45    1.38
  -8   7  -1   81.30    3.87
  -7   7  -1    1.97    0.70
  -6   7  -1  258.72    6.79
  -5   7  -1   63.76    2.49
  -4   7  -1    8.55    1.08
  -3   7  -1  232.02    5.92
  -2   7  -1   89.69    3.48
  -1   7  -1  182.69    5.87
   0   7  -1    1.95    0.90
   1   7  -1    8.60    1.31
   2   7  -1   31.49    2.75
   3   7  -1   11.49    1.78
   4   7  -1   25.24    2.84
   5   7  -1   14.98    3.10
   6   7  -1    9.37    2.67
   7   7  -1   50.62    9.73
   8   7  -1    4.45    3.37
 -15   8  -1    5.57    3.10
 -14   8  -1    1.87    2.43
 -13   8  -1    1.90    1.69
 -12   8  -1    6.34    2.05
 -11   8  -1  139.48    7.71
 -10   8  -1   23.01    3.22
  -9   8  -1  115.47    5.45
  -8   8  -1    8.01    1.46
  -7   8  -1    7.46    1.39
  -6   8  -1    2.68    1.07
  -5   8  -1    2.58    1.09
  -4   8  -1   46.83    2.63
  -3   8  -1  107.18    4.06
  -2   8  -1   60.71    3.37
  -1   8  -1   78.75    4.03
   0   8  -1    8.47    1.55
   1   8  -1   18.01    2.44
   2   8  -1   27.23    3.04
   3   8  -1   15.72    2.48
   4   8  -1   21.37    2.89
   5   8  -1    1.23    1.65
   6   8  -1    3.09    2.20
   7   8  -1    0.85    3.06
 -16   9  -1    9.10    5.76
 -15   9  -1   16.52    4.78
 -14   9  -1   19.95    4.40
 -13   9  -1   10.41    2.95
 -12   9  -1    4.99    1.86
 -11   9  -1    4.81    1.80
 -10   9  -1   50.67    4.96
  -9   9  -1   11.48    1.90
  -8   9  -1   19.04    2.60
  -7   9  -1   27.05    3.05
  -6   9  -1   28.69    3.07
  -5   9  -1   90.32    5.13
  -4   9  -1   10.99    1.54
  -3   9  -1    3.68    1.06
  -2   9  -1    2.35    0.96
  -1   9  -1  110.72    5.24
   0   9  -1   10.42    1.94
   1   9  -1   81.22    5.51
   2   9  -1    4.02    1.45
   3   9  -1    1.99    1.42
   4   9  -1    6.49    2.46
   5   9  -1    5.69    2.50
   6   9  -1    0.26    1.79
 -16  10  -1    0.14    3.81
 -15  10  -1    5.78    3.42
 -14  10  -1    2.02    2.75
 -13  10  -1   29.11    5.58
 -12  10  -1    4.64    2.15
 -11  10  -1   18.37    3.21
 -10  10  -1   39.39    4.59
  -9  10  -1   86.69    5.94
  -8  10  -1   25.85    3.17
  -7  10  -1   10.57    2.04
  -6  10  -1    5.15    1.64
  -5  10  -1    0.99    1.01
  -4  10  -1    5.25    1.60
  -3  10  -1   18.94    2.14
  -2  10  -1   18.33    2.47
  -1  10  -1   36.78    3.59
   0  10  -1   44.24    4.28
   1  10  -1   32.46    3.68
   2  10  -1    1.81    1.36
   3  10  -1   27.07    4.63
   4  10  -1   38.20    5.37
   5  10  -1   17.39    3.83
 -15  11  -1    5.13    3.38
 -14  11  -1    2.95    2.80
 -13  11  -1   34.11    6.14
 -12  11  -1    3.17    1.97
 -11  11  -1    8.99    3.22
 -10  11  -1   31.67    5.19
  -9  11  -1    4.64    1.71
  -8  11  -1   13.11    2.50
  -7  11  -1   23.40    3.20
  -6  11  -1    0.20    1.00
  -5  11  -1   74.54    5.87
  -4  11  -1   18.67    2.85
  -3  11  -1  128.94    5.77
  -2  11  -1    5.69    1.69
  -1  11  -1   23.28    3.21
   0  11  -1   15.85    2.67
   1  11  -1   14.04    2.60
   2  11  -1   11.91    3.24
   3  11  -1    1.26    1.94
   4  11  -1    0.46    2.14
 -15  12  -1   -0.97    2.58
 -14  12  -1    6.81    3.44
 -13  12  -1   24.71    5.44
 -12  12  -1   16.19    4.01
 -11  12  -1    9.85    3.09
 -10  12  -1    0.05    1.57
  -9  12  -1    1.65    1.53
  -8  12  -1   17.67    2.99
  -7  12  -1   19.16    3.04
  -6  12  -1    4.26    1.63
  -5  12  -1    1.93    1.15
  -4  12  -1    3.81    1.89
  -3  12  -1    2.70    1.74
  -2  12  -1    5.01    1.74
  -1  12  -1    4.35    1.75
   0  12  -1   25.17    3.47
   1  12  -1    6.84    2.70
   2  12  -1   13.06    3.63
   3  12  -1    3.71    2.61
 -14  13  -1    1.09    2.64
 -13  13  -1    3.13    2.77
 -12  13  -1    4.94    2.75
 -11  13  -1    5.50    3.00
 -10  13  -1   17.29    4.09
  -9  13  -1    0.44    1.35
  -8  13  -1   -0.19    1.35
  -7  13  -1   11.29    2.51
  -6  13  -1    6.31    2.01
  -5  13  -1   -1.72    1.23
  -4  13  -1    6.25    2.39
  -3  13  -1   32.68    5.00
  -2  13  -1   46.95    5.81
  -1  13  -1   25.27    3.82
   0  13  -1   -1.29    1.89
   1  13  -1    7.45    3.34
 -14  14  -1   -1.94    3.77
 -13  14  -1    6.69    3.83
 -12  14  -1   13.08    4.30
 -11  14  -1   -0.33    2.45
 -10  14  -1   30.08    4.26
  -9  14  -1    6.68    2.32
  -8  14  -1    4.59    2.09
  -7  14  -1   53.23    5.75
  -6  14  -1   11.84    2.95
  -5  14  -1   18.13    4.10
  -4  14  -1   -0.40    1.47
  -3  14  -1    5.34    2.70
  -2  14  -1    5.98    2.84
  -1  14  -1    0.02    3.08
 -12  15  -1    6.91    6.64
 -11  15  -1   -0.58    2.66
 -10  15  -1   13.64    3.32
  -9  15  -1   -0.64    1.92
  -8  15  -1    1.02    2.09
  -7  15  -1    5.32    2.99
  -6  15  -1   16.12    3.99
  -5  15  -1    2.41    2.38
  -4  15  -1    3.48    2.65
  -3  15  -1    0.83    3.37
 -10  16  -1    1.90    4.53
  -9  16  -1    9.37    4.95
  -8  16  -1    0.27    3.20
   6 -16   0   -1.04    6.53
   7 -16   0    8.91    5.93
   8 -16   0    2.44    4.36
   9 -16   0    4.69    5.00
   3 -15   0    6.77    3.79
   4 -15   0   20.32    5.59
   5 -15   0   -1.28    2.92
   6 -15   0    0.79    3.01
   7 -15   0    0.84    2.54
   8 -15   0    2.78    2.91
   9 -15   0   34.23    6.34
  10 -15   0   10.58    6.26
  11 -15   0   -3.37    3.76
  12 -15   0   27.80    9.97
  13 -15   0    5.61    4.83
   1 -14   0   15.99    7.78
   2 -14   0   20.06    5.30
   3 -14   0    9.43    4.21
   4 -14   0   12.60    4.31
   5 -14   0    0.56    2.46
   6 -14   0    9.87    3.90
   7 -14   0    4.12    2.90
   8 -14   0   27.32    5.60
   9 -14   0   12.26    3.99
  10 -14   0    4.69    2.91
  11 -14   0   12.64    4.04
  12 -14   0   -1.20    2.55
  13 -14   0    5.21    3.07
  -1 -13   0    3.59    5.87
   0 -13   0   27.39    9.17
   1 -13   0    9.37    4.08
   2 -13   0   -1.47    2.26
   3 -13   0   11.82    4.10
   4 -13   0   16.06    3.65
   5 -13   0  100.67    7.81
   6 -13   0    6.24    2.34
   7 -13   0   19.89    4.53
   8 -13   0   19.06    4.25
   9 -13   0   22.54    3.85
  10 -13   0    9.88    2.45
  11 -13   0    3.45    2.82
  12 -13   0    0.02    2.13
  13 -13   0   34.82    5.93
  14 -13   0   27.23    5.37
  15 -13   0    2.07    4.65
  -2 -12   0    1.10    4.89
  -1 -12   0    4.21    4.67
   0 -12   0   14.36    3.72
   1 -12   0    8.90    2.84
   2 -12   0    3.08    2.06
   3 -12   0    1.77    1.69
   4 -12   0   -1.53    1.34
   5 -12   0    1.63    1.57
   6 -12   0    0.19    1.81
   7 -12   0   14.43    3.60
   8 -12   0    0.37    1.36
   9 -12   0    2.41    1.62
  10 -12   0  165.69    9.04
  11 -12   0    1.02    1.93
  12 -12   0   13.61    3.84
  13 -12   0   13.80    3.78
  14 -12   0   12.14    3.75
  15 -12   0    7.38    3.71
  -4 -11   0    3.18    3.23
  -3 -11   0   18.97    5.37
  -2 -11   0    3.75    3.25
  -1 -11   0   -2.30    2.15
   0 -11   0    2.28    2.08
   1 -11   0   57.41    6.24
   2 -11   0   57.91    6.04
   3 -11   0   74.39    6.41
   4 -11   0   13.88    2.68
   5 -11   0   77.01    6.48
   6 -11   0   85.80    6.61
   7 -11   0  172.12    7.59
   8 -11   0   20.91    3.11
   9 -11   0    0.85    1.29
  10 -11   0    9.12    2.26
  11 -11   0    1.22    1.48
  12 -11   0    8.55    2.98
  13 -11   0   -0.01    1.71
  14 -11   0    9.91    3.47
  15 -11   0   35.97    8.35
  -6 -10   0   -2.42    4.75
  -5 -10   0    8.48    4.08
  -4 -10   0    1.32    2.72
  -3 -10   0   15.55    4.90
  -2 -10   0  178.99   14.41
  -1 -10   0   12.54    3.13
   0 -10   0    7.65    2.54
   1 -10   0   14.85    3.12
   2 -10   0    0.84    1.26
   3 -10   0    0.44    1.22
   4 -10   0   28.00    3.65
   5 -10   0   33.69    3.85
   6 -10   0  193.44    7.74
   7 -10   0   21.79    3.06
   8 -10   0    0.90    1.08
   9 -10   0   37.61    4.03
  10 -10   0    7.24    1.90
  11 -10   0   63.91    5.44
  12 -10   0    5.21    2.44
  13 -10   0   14.92    3.73
  14 -10   0   13.41    3.69
  15 -10   0   -2.50    2.88
  -7  -9   0    8.86    6.72
  -6  -9   0   54.53    8.65
  -5  -9   0    9.91    4.26
  -4  -9   0   19.02    4.79
  -3  -9   0    2.83    2.57
  -2  -9   0    1.56    1.79
  -1  -9   0   47.90    5.13
   0  -9   0   42.71    4.91
   1  -9   0   -0.53    1.09
   2  -9   0  103.95    7.04
   3  -9   0  288.86    8.39
   4  -9   0    3.64    1.51
   5  -9   0   60.21    4.72
   6  -9   0    5.01    1.56
   7  -9   0   49.94    3.98
   8  -9   0    2.28    1.22
   9  -9   0   42.13    4.01
  10  -9   0   16.07    2.53
  11  -9   0   45.81    4.42
  12  -9   0    1.85    1.77
  13  -9   0   15.52    3.55
  14  -9   0    2.50    3.06
  15  -9   0    1.63    3.44
  -8  -8   0    1.23    3.42
  -7  -8   0    2.87    3.03
  -6  -8   0   34.32    6.61
  -5  -8   0   12.19    3.96
  -4  -8   0    1.40    2.18
  -3  -8   0   20.23    3.26
  -2  -8   0   -0.64    1.39
  -1  -8   0    1.17    1.56
   0  -8   0  110.79    7.56
   1  -8   0   38.22    4.13
   2  -8   0    4.62    1.29
   3  -8   0   22.68    2.40
   4  -8   0    2.19    1.08
   5  -8   0   35.87    3.23
   6  -8   0  115.22    5.02
   7  -8   0  294.51    9.05
   8  -8   0  102.06    5.20
   9  -8   0    0.36    0.78
  10  -8   0    1.33    1.03
  11  -8   0   81.99    7.15
  12  -8   0    0.95    1.32
  13  -8   0  108.82    8.67
  14  -8   0    6.13    2.95
  15  -8   0    3.38    2.74
  -9  -7   0   11.33    4.97
  -8  -7   0    1.26    3.02
  -7  -7   0    9.09    4.07
  -6  -7   0   15.01    4.47
  -5  -7   0    5.73    2.98
  -4  -7   0  162.15    8.23
  -3  -7   0   19.52    2.53
  -2  -7   0   50.12    5.10
  -1  -7   0  299.31   10.57
   0  -7   0    5.66    1.71
   1  -7   0    1.54    0.79
   2  -7   0    0.76    0.80
   3  -7   0   36.58    3.16
   4  -7   0  179.43    6.06
   5  -7   0   85.30    4.47
   6  -7   0  199.49    5.62
   7  -7   0    5.18    1.16
   8  -7   0   40.43    3.04
   9  -7   0  111.47    5.22
  10  -7   0    2.18    1.28
  11  -7   0   19.11    2.86
  12  -7   0    2.53    1.51
  13  -7   0    0.80    2.03
  14  -7   0    3.19    2.76
  15  -7   0    3.67    2.85
  16  -7   0    2.26    3.92
 -10  -6   0    0.76    4.45
  -9  -6   0    3.03    3.29
  -8  -6   0    8.36    3.89
  -7  -6   0    5.06    3.06
  -6  -6   0    0.08    1.97
  -5  -6   0   95.48    6.85
  -4  -6   0  198.26    6.77
  -3  -6   0    8.98    1.68
  -2  -6   0  115.97    6.52
  -1  -6   0  196.16    5.61
   0  -6   0    5.31    1.03
   1  -6   0  101.61    4.04
   2  -6   0   55.91    3.81
   3  -6   0  417.77   10.18
   4  -6   0   23.79    1.94
   5  -6   0    9.87    1.31
   6  -6   0    5.66    1.04
   7  -6   0    2.24    1.06
   8  -6   0    5.15    1.45
   9  -6   0  285.54    8.94
  10  -6   0   32.86    3.50
  11  -6   0   74.53    5.43
  12  -6   0    0.37    1.11
  13  -6   0   18.40    4.12
  14  -6   0   32.18    5.67
  15  -6   0   52.79    7.62
  16  -6   0    0.71    5.02
 -11  -5   0   -3.20    5.48
 -10  -5   0    0.98    2.86
  -9  -5   0    0.34    2.57
  -8  -5   0   77.28    9.52
  -7  -5   0    4.28    2.55
  -6  -5   0   89.03    6.64
  -5  -5   0   42.89    4.22
  -4  -5   0   68.58    3.85
  -3  -5   0   37.27    3.04
  -2  -5   0   76.95    5.34
  -1  -5   0   11.37    1.24
   0  -5   0    0.22    0.49
   1  -5   0  340.68    7.75
   2  -5   0   99.57    3.78
   3  -5   0    9.96    1.12
   4  -5   0    6.04    0.95
   5  -5   0   -0.11    0.45
   6  -5   0  100.65    4.05
   7  -5   0    0.85    0.57
   8  -5   0   18.90    2.28
   9  -5   0    4.22    1.34
  10  -5   0   44.15    3.92
  11  -5   0   86.77    5.38
  12  -5   0    9.96    3.06
  13  -5   0   19.70    4.19
  14  -5   0   11.22    3.66
  15  -5   0   -0.11    2.79
 -11  -4   0   34.99    6.92
 -10  -4   0   17.33    4.96
  -9  -4   0   10.30    3.95
  -8  -4   0    1.75    1.99
  -7  -4   0   19.34    4.26
  -6  -4   0   34.81    4.02
  -5  -4   0    7.53    1.36
  -4  -4   0    0.50    0.72
  -3  -4   0  172.37    5.21
  -2  -4   0   25.64    2.78
  -1  -4   0    6.58    0.93
   0  -4   0  111.37    3.34
   1  -4   0  114.93    3.55
   2  -4   0  889.62   17.09
   3  -4   0  317.11    7.14
   4  -4   0  113.03    3.69
   5  -4   0  343.44    6.82
   6  -4   0   55.45    2.23
   7  -4   0   39.98    2.23
   8  -4   0    1.82    0.69
   9  -4   0   58.23    4.27
  10  -4   0  194.27    7.12
  11  -4   0  152.55    8.90
  12  -4   0    3.31    2.21
  13  -4   0   19.79    4.22
  14  -4   0    4.81    2.76
  15  -4   0    0.20    2.78
 -12  -3   0    5.07    5.39
 -11  -3   0    8.53    3.73
 -10  -3   0   10.79    3.26
  -9  -3   0    1.61    2.00
  -8  -3   0   77.16    8.36
  -7  -3   0   -0.20    1.10
  -6  -3   0  292.19    7.99
  -5  -3   0   19.35    1.98
  -4  -3   0   44.89    2.81
  -3  -3   0  423.88    8.78
  -2  -3   0   12.59    1.80
  -1  -3   0  316.50    6.47
   0  -3   0   17.23    1.37
   1  -3   0   30.63    1.97
   2  -3   0   56.33    1.84
   3  -3   0   17.43    1.47
   4  -3   0  121.59    3.01
   5  -3   0   93.12    2.72
   6  -3   0  412.11    8.09
   7  -3   0  172.91    4.60
   8  -3   0   43.19    2.73
   9  -3   0    5.59    1.13
  10  -3   0   15.25    2.33
  11  -3   0   23.91    4.28
  12  -3   0   -0.78    1.59
  13  -3   0   16.07    3.98
  14  -3   0   10.85    3.54
  15  -3   0   63.53   21.36
 -12  -2   0    9.09    4.67
 -11  -2   0    0.24    2.28
 -10  -2   0    5.50    2.86
  -9  -2   0   42.70    6.09
  -8  -2   0    0.38    1.16
  -7  -2   0  113.59    6.39
  -6  -2   0    5.37    1.16
  -5  -2   0    0.68    0.65
  -4  -2   0   52.97    2.46
  -3  -2   0   97.12    3.03
  -2  -2   0  880.92   14.86
  -1  -2   0   57.73    1.85
   0  -2   0   38.17    1.54
   1  -2   0    6.78    0.77
   2  -2   0   39.50    1.52
   3  -2   0   28.39    1.19
   4  -2   0  915.70   14.39
   5  -2   0   11.80    1.13
   6  -2   0   28.82    1.91
   7  -2   0   82.79    3.03
   8  -2   0  118.93    3.94
   9  -2   0   59.32    3.23
  10  -2   0    0.49    1.00
  11  -2   0    2.91    1.82
  12  -2   0  167.81   10.02
  13  -2   0    8.07    3.23
  14  -2   0   -5.89    3.05
 -13  -1   0   20.31    8.41
 -12  -1   0   18.20    4.84
 -11  -1   0    9.28    3.43
 -10  -1   0   55.98    6.90
  -9  -1   0   12.85    2.59
  -8  -1   0   -1.48    0.80
  -7  -1   0   43.15    3.03
  -6  -1   0    3.43    0.88
  -5  -1   0  108.39    3.52
  -4  -1   0  346.05    7.19
  -3  -1   0  125.35    3.24
  -2  -1   0   29.32    1.32
  -1  -1   0    8.64    0.66
   0  -1   0    2.75    0.45
   1  -1   0    2.68    0.36
   2  -1   0    7.23    0.57
   3  -1   0   60.37    1.76
   4  -1   0  318.16    5.31
   5  -1   0    6.44    0.75
   6  -1   0   10.59    1.03
   7  -1   0  204.43    4.55
   8  -1   0  304.88    7.29
   9  -1   0    3.01    1.18
  10  -1   0   34.47    3.75
  11  -1   0   10.51    2.31
  12  -1   0   -0.85    1.79
  13  -1   0    2.41    3.72
  14  -1   0    1.31    5.37
 -13   0   0   28.74    9.42
 -12   0   0   16.96    4.03
 -11   0   0    1.05    2.07
 -10   0   0    5.63    1.95
  -9   0   0   49.84    4.80
  -8   0   0  115.81    6.38
  -7   0   0    7.98    1.35
  -6   0   0    7.85    1.15
  -5   0   0    0.20    0.41
  -4   0   0  113.55    3.21
  -3   0   0   18.51    1.30
  -2   0   0   37.42    1.32
  -1   0   0    2.28    0.30
   1   0   0    2.91    0.35
   2   0   0   38.48    1.21
   3   0   0   18.11    1.15
   4   0   0  118.37    3.00
   5   0   0    0.26    0.37
   6   0   0    6.58    1.01
   7   0   0    6.29    1.07
   8   0   0   97.09    4.68
   9   0   0   39.04    3.68
  10   0   0    6.84    1.87
  11   0   0    1.19    1.90
  12   0   0   20.49    8.35
  13   0   0   22.04    8.44
 -14   1   0   14.71    6.53
 -13   1   0   -0.97    3.29
 -12   1   0   -0.20    1.82
 -11   1   0   10.03    2.50
 -10   1   0   39.55    4.17
  -9   1   0    2.38    1.35
  -8   1   0  309.63    6.67
  -7   1   0  199.13    4.75
  -6   1   0    9.92    1.05
  -5   1   0    5.81    0.75
  -4   1   0  312.75    5.51
  -3   1   0   57.23    1.62
  -2   1   0    6.30    0.64
  -1   1   0    2.88    0.31
   0   1   0    2.84    0.29
   1   1   0    7.58    0.50
   2   1   0   26.29    1.16
   3   1   0  124.35    3.03
   4   1   0  345.17    6.80
   5   1   0  102.66    3.20
   6   1   0    3.09    0.83
   7   1   0   43.19    2.80
   8   1   0   -1.10    0.74
   9   1   0   15.80    2.52
  10   1   0   69.67    7.43
  11   1   0    6.95    2.49
  12   1   0   13.63    4.11
  13   1   0   29.66    9.68
 -14   2   0    1.46    4.96
 -13   2   0   13.70    6.59
 -12   2   0  152.56    9.03
 -11   2   0    3.04    1.83
 -10   2   0    0.83    1.21
  -9   2   0   55.25    4.64
  -8   2   0  114.75    4.29
  -7   2   0   91.04    3.57
  -6   2   0   26.13    2.01
  -5   2   0   12.86    1.32
  -4   2   0  887.13   14.81
  -3   2   0   28.14    1.55
  -2   2   0   39.12    1.15
  -1   2   0    6.62    0.57
   0   2   0   41.27    1.25
   1   2   0   58.70    1.77
   2   2   0  900.13   12.72
   3   2   0   93.93    2.71
   4   2   0   51.32    2.15
   5   2   0    0.12    0.47
   6   2   0    6.56    1.13
   7   2   0  105.40    3.92
   8   2   0   -0.07    1.25
   9   2   0   53.69    6.22
  10   2   0    5.59    2.57
  11   2   0   -1.51    1.65
  12   2   0   13.73    4.30
 -14   3   0   28.26    9.32
 -13   3   0    6.73    3.80
 -12   3   0    0.29    1.64
 -11   3   0   25.43    3.61
 -10   3   0   20.72    3.00
  -9   3   0    6.52    1.75
  -8   3   0   38.98    2.90
  -7   3   0  175.51    5.11
  -6   3   0  421.64    8.67
  -5   3   0   97.88    3.09
  -4   3   0  127.22    3.41
  -3   3   0   17.32    1.05
  -2   3   0   59.37    1.77
  -1   3   0   25.58    1.07
   0   3   0   17.52    1.16
   1   3   0  320.95    6.10
   2   3   0   12.15    0.93
   3   3   0  411.32    7.11
   4   3   0   43.52    2.24
   5   3   0   22.71    1.92
   6   3   0  292.42    7.07
   7   3   0    1.53    1.04
   8   3   0   77.19    7.59
   9   3   0    2.15    1.94
  10   3   0   13.53    3.77
  11   3   0   11.13    3.78
  12   3   0    6.06    3.46
 -15   4   0    4.07    4.77
 -14   4   0    1.96    3.89
 -13   4   0   16.62    4.44
 -12   4   0    2.44    2.24
 -11   4   0  155.26    7.94
 -10   4   0  196.40    7.75
  -9   4   0   62.99    4.83
  -8   4   0    0.35    0.71
  -7   4   0   40.66    2.69
  -6   4   0   50.39    2.67
  -5   4   0  343.24    7.26
  -4   4   0  109.44    2.68
  -3   4   0  311.89    6.06
  -2   4   0  875.98   14.44
  -1   4   0  123.07    2.72
   0   4   0  109.64    2.97
   1   4   0    5.48    0.84
   2   4   0   27.07    1.39
   3   4   0  175.28    3.97
   4   4   0    2.63    0.75
   5   4   0    7.99    1.64
   6   4   0   31.38    3.25
   7   4   0   16.83    2.81
   8   4   0    1.00    1.61
   9   4   0   17.57    3.90
  10   4   0    7.68    3.24
  11   4   0   46.22    7.20
 -15   5   0    9.05    6.60
 -14   5   0    7.41    3.64
 -13   5   0   17.86    4.23
 -12   5   0   10.47    3.28
 -11   5   0   98.49    6.73
 -10   5   0   37.16    3.85
  -9   5   0    4.63    1.17
  -8   5   0   24.54    2.28
  -7   5   0    0.03    0.51
  -6   5   0  105.16    2.92
  -5   5   0    0.91    0.42
  -4   5   0    6.05    0.75
  -3   5   0   10.65    1.09
  -2   5   0   92.06    2.87
  -1   5   0  345.37    6.12
   0   5   0    0.42    0.40
   1   5   0   10.61    1.21
   2   5   0   90.12    2.55
   3   5   0   41.69    2.82
   4   5   0   63.46    4.51
   5   5   0   44.31    3.88
   6   5   0   71.26    5.06
   7   5   0    3.12    2.13
   8   5   0  108.96   10.11
   9   5   0    2.24    2.26
  10   5   0    1.08    2.38
 -15   6   0   39.50    6.98
 -14   6   0   43.79    6.62
 -13   6   0   34.77    5.90
 -12   6   0    0.50    1.90
 -11   6   0   67.60    5.50
 -10   6   0   33.69    3.70
  -9   6   0  281.73    7.60
  -8   6   0    5.11    1.21
  -7   6   0    1.51    0.74
  -6   6   0    7.08    0.86
  -5   6   0    9.69    1.11
  -4   6   0   25.55    1.84
  -3   6   0  412.04    8.33
  -2   6   0   50.94    2.59
  -1   6   0   99.31    3.09
   0   6   0    6.68    1.03
   1   6   0  193.64    5.25
   2   6   0  114.16    4.00
   3   6   0    5.45    1.21
   4   6   0  195.57    7.18
   5   6   0   98.01    5.64
   6   6   0    0.69    1.07
   7   6   0    6.31    2.76
   8   6   0   16.24    4.00
   9   6   0    3.61    3.00
  10   6   0    8.23    6.95
 -15   7   0    0.16    2.50
 -14   7   0    7.75    3.61
 -13   7   0    6.47    2.73
 -12   7   0    4.41    2.45
 -11   7   0   13.52    2.59
 -10   7   0   -0.72    0.83
  -9   7   0  119.62    4.86
  -8   7   0   39.47    3.01
  -7   7   0    4.49    1.06
  -6   7   0  198.55    5.02
  -5   7   0   86.41    3.12
  -4   7   0  172.25    4.78
  -3   7   0   42.05    2.69
  -2   7   0   -0.49    0.48
  -1   7   0    1.83    0.69
   0   7   0    4.75    1.03
   1   7   0  313.31    7.47
   2   7   0   60.95    3.69
   3   7   0   22.41    2.38
   4   7   0  164.50    6.85
   5   7   0   13.88    2.62
   6   7   0   20.76    3.20
   7   7   0    6.47    3.99
   8   7   0   -1.89    2.20
 -16   8   0    3.35    3.71
 -15   8   0   -0.77    2.66
 -14   8   0   18.06    4.58
 -13   8   0  111.04   10.27
 -12   8   0   -2.05    1.46
 -11   8   0   93.21    6.59
 -10   8   0    3.13    1.51
  -9   8   0    0.46    0.82
  -8   8   0  119.22    4.98
  -7   8   0  302.65    9.27
  -6   8   0  117.56    5.12
  -5   8   0   38.65    2.41
  -4   8   0    1.21    0.71
  -3   8   0   20.30    1.97
  -2   8   0    4.79    1.14
  -1   8   0   38.67    3.21
   0   8   0  107.38    4.72
   1   8   0    2.03    1.05
   2   8   0    0.51    0.94
   3   8   0   23.77    3.82
   4   8   0    0.90    1.59
   5   8   0   21.46    3.94
   6   8   0   41.47    8.56
   7   8   0    3.84    3.69
 -16   9   0    9.31    4.21
 -15   9   0    1.95    2.89
 -14   9   0    2.04    2.62
 -13   9   0   12.25    3.55
 -12   9   0    2.60    2.21
 -11   9   0   46.17    4.67
 -10   9   0   15.80    2.16
  -9   9   0   34.11    3.60
  -8   9   0    2.50    1.25
  -7   9   0   41.92    3.88
  -6   9   0    5.00    1.42
  -5   9   0   64.64    3.31
  -4   9   0    6.33    1.30
  -3   9   0  277.90    7.48
  -2   9   0  103.22    4.69
  -1   9   0   -0.17    0.77
   0   9   0   38.48    3.59
   1   9   0   42.17    3.79
   2   9   0    1.93    1.23
   3   9   0    3.69    2.06
   4   9   0   18.45    3.55
   5   9   0   12.33    3.27
   6   9   0   37.29    8.45
 -16  10   0    2.23    6.53
 -15  10   0   -1.94    2.29
 -14  10   0   13.18    4.17
 -13  10   0   12.42    3.74
 -12  10   0    2.13    2.12
 -11  10   0   56.94    6.92
 -10  10   0    5.83    1.67
  -9  10   0   35.31    3.96
  -8  10   0    0.09    1.10
  -7  10   0   17.46    2.70
  -6  10   0  191.62    7.42
  -5  10   0   45.05    4.13
  -4  10   0   35.74    3.01
  -3  10   0    0.07    0.84
  -2  10   0    0.12    0.83
  -1  10   0   14.29    2.32
   0  10   0    9.35    2.04
   1  10   0    7.78    1.98
   2  10   0  163.24    9.19
   3  10   0   11.80    3.08
   4  10   0    1.43    1.80
   5  10   0    5.62    2.63
 -15  11   0   38.54    6.57
 -14  11   0   16.08    4.45
 -13  11   0   -1.10    1.56
 -12  11   0    8.68    3.28
 -11  11   0    0.53    2.18
 -10  11   0    8.81    2.33
  -9  11   0    2.52    1.39
  -8  11   0   27.42    3.37
  -7  11   0  153.85    6.99
  -6  11   0   96.68    6.52
  -5  11   0   75.94    5.68
  -4  11   0   15.70    2.17
  -3  11   0   81.37    5.55
  -2  11   0   39.92    3.87
  -1  11   0   57.75    4.90
   0  11   0    0.28    1.21
   1  11   0    0.66    1.58
   2  11   0    4.03    2.19
   3  11   0   15.56    3.73
   4  11   0    1.50    2.09
 -15  12   0    5.03    3.42
 -14  12   0   14.48    4.64
 -13  12   0   18.93    4.71
 -12  12   0    9.48    3.45
 -11  12   0    0.53    1.80
 -10  12   0  199.76    8.53
  -9  12   0    4.68    1.90
  -8  12   0    1.94    1.38
  -7  12   0   12.14    2.63
  -6  12   0   -0.30    0.98
  -5  12   0    3.72    1.77
  -4  12   0   -0.13    1.16
  -3  12   0    1.35    1.26
  -2  12   0    1.44    1.31
  -1  12   0    6.36    1.94
   0  12   0   13.16    3.52
   1  12   0    0.31    1.74
   2  12   0   -0.20    1.77
   3  12   0   22.22    4.66
 -15  13   0    2.30    4.75
 -14  13   0   21.52    5.29
 -13  13   0   28.31    6.02
 -12  13   0   -1.13    2.14
 -11  13   0    9.72    3.49
 -10  13   0   21.22    3.60
  -9  13   0   20.01    3.49
  -8  13   0   24.83    3.61
  -7  13   0   14.87    2.96
  -6  13   0    4.84    2.36
  -5  13   0  115.20    9.62
  -4  13   0   20.72    4.12
  -3  13   0   16.31    3.50
  -2  13   0    0.70    1.53
  -1  13   0   17.25    3.79
   0  13   0   23.46    4.75
   1  13   0    5.95    3.15
 -13  14   0    4.94    5.24
 -12  14   0   -0.04    3.10
 -11  14   0   13.04    5.50
 -10  14   0    3.76    2.30
  -9  14   0   11.26    3.34
  -8  14   0   37.14    5.66
  -7  14   0    6.43    2.88
  -6  14   0    7.85    2.82
  -5  14   0    3.14    2.16
  -4  14   0    9.48    2.99
  -3  14   0    8.72    4.25
  -2  14   0   12.31    5.18
  -1  14   0   20.09    6.77
   0  14   0    0.30    3.81
 -11  15   0    0.52    3.62
 -10  15   0    5.84    3.03
  -9  15   0   45.92    6.62
  -8  15   0   -0.54    1.98
  -7  15   0    0.72    2.13
  -6  15   0    1.48    2.33
  -5  15   0    1.61    2.21
  -4  15   0   26.15    7.67
 -10  16   0    1.12    3.26
  -9  16   0    4.25    3.11
  -8  16   0    7.23    3.16
  -7  16   0    5.86    4.77
  -6  16   0    3.12    3.85
   8 -16   1    2.36    4.53
   9 -16   1    6.76    5.74
  10 -16   1    3.77    4.94
   4 -15   1    1.73    3.24
   5 -15   1    4.09    3.32
   6 -15   1   10.62    4.20
   7 -15   1    1.95    2.52
   8 -15   1   -0.93    2.25
   9 -15   1    0.18    2.50
  10 -15   1   12.20    4.42
  11 -15   1    2.73    2.79
   1 -14   1    1.26    4.27
   2 -14   1    4.82    3.67
   3 -14   1    5.10    2.66
   4 -14   1    3.66    2.34
   5 -14   1   22.55    4.23
   6 -14   1    9.53    3.11
   7 -14   1   60.16    6.51
   8 -14   1    4.16    2.64
   9 -14   1    8.25    3.26
  10 -14   1   30.50    5.70
  11 -14   1   -0.79    2.05
  12 -14   1   15.16    3.63
  13 -14   1    2.61    2.71
  -2 -13   1   19.01    8.13
  -1 -13   1    3.07    3.53
   0 -13   1   -0.16    3.20
   1 -13   1   18.51    5.00
   2 -13   1   31.03    5.04
   3 -13   1   34.30    4.78
   4 -13   1    4.18    2.33
   5 -13   1   -0.31    1.58
   6 -13   1    7.18    2.61
   7 -13   1    1.25    2.15
   8 -13   1   -0.02    2.04
   9 -13   1    2.34    2.34
  10 -13   1   28.73    4.28
  11 -13   1    6.65    2.36
  12 -13   1    6.94    2.38
  13 -13   1    4.45    2.75
  14 -13   1    1.16    2.45
  -3 -12   1    7.89    6.09
  -2 -12   1   18.00    5.51
  -1 -12   1   11.07    4.47
   0 -12   1   19.05    5.03
   1 -12   1    0.72    2.10
   2 -12   1    2.73    2.12
   3 -12   1    6.25    2.46
   4 -12   1    9.06    2.74
   5 -12   1    2.83    1.79
   6 -12   1    2.75    2.34
   7 -12   1   24.55    4.74
   8 -12   1   11.06    3.22
   9 -12   1   -0.01    1.23
  10 -12   1    3.32    1.73
  11 -12   1   10.45    2.59
  12 -12   1   19.19    3.42
  13 -12   1   35.26    5.66
  14 -12   1    4.53    2.76
  15 -12   1    2.40    3.67
  -4 -11   1   -0.62    3.54
  -3 -11   1   -1.69    2.76
  -2 -11   1    8.68    4.13
  -1 -11   1    7.74    3.50
   0 -11   1   14.15    4.27
   1 -11   1   11.06    2.91
   2 -11   1    8.72    2.69
   3 -11   1  122.41    8.65
   4 -11   1   14.67    2.95
   5 -11   1   73.70    7.85
   6 -11   1   -0.13    1.39
   7 -11   1   24.05    3.34
   8 -11   1   12.34    2.40
   9 -11   1    6.62    1.99
  10 -11   1   20.76    3.18
  11 -11   1   19.09    3.12
  12 -11   1    0.96    1.46
  13 -11   1   34.80    4.54
  14 -11   1    2.97    2.40
  15 -11   1    1.15    2.43
  -5 -10   1    6.06    4.13
  -4 -10   1   28.29    6.49
  -3 -10   1   15.18    4.57
  -2 -10   1    0.06    2.36
  -1 -10   1   23.09    5.20
   0 -10   1   43.71    5.40
   1 -10   1   39.25    4.88
   2 -10   1   15.66    3.07
   3 -10   1   20.47    3.33
   4 -10   1    2.02    1.49
   5 -10   1    1.50    1.64
   6 -10   1   10.87    2.13
   7 -10   1   14.08    2.47
   8 -10   1   26.98    3.19
   9 -10   1   83.27    6.04
  10 -10   1   50.49    4.62
  11 -10   1   21.10    3.22
  12 -10   1    3.05    1.72
  13 -10   1   27.32    3.81
  14 -10   1    1.90    2.12
  15 -10   1    5.05    2.79
  -7  -9   1   16.27    7.23
  -6  -9   1    3.25    3.32
  -5  -9   1    2.08    3.21
  -4  -9   1    3.36    3.25
  -3  -9   1    2.46    1.76
  -2  -9   1    2.07    2.13
  -1  -9   1   71.89    6.54
   0  -9   1   16.06    3.21
   1  -9   1  108.82    7.77
   2  -9   1    2.44    1.56
   3  -9   1    2.37    1.40
   4  -9   1   13.98    2.23
   5  -9   1   79.80    4.83
   6  -9   1   38.74    3.55
   7  -9   1   31.56    3.35
   8  -9   1   21.67    2.88
   9  -9   1   10.23    1.95
  10  -9   1   45.07    4.22
  11  -9   1    9.34    2.11
  12  -9   1    5.82    2.39
  13  -9   1    8.59    2.65
  14  -9   1   21.85    4.37
  15  -9   1   12.54    5.43
  -8  -8   1    6.66    5.32
  -7  -8   1    2.68    3.15
  -6  -8   1    0.48    2.86
  -5  -8   1    1.59    2.48
  -4  -8   1   24.54    3.96
  -3  -8   1   15.97    3.05
  -2  -8   1   22.61    4.84
  -1  -8   1   23.65    3.53
   0  -8   1    4.80    1.78
   1  -8   1   74.24    5.97
   2  -8   1   65.84    5.20
   3  -8   1  118.66    5.22
   4  -8   1   57.20    4.05
   5  -8   1    3.31    1.21
   6  -8   1    6.68    1.46
   7  -8   1    9.71    1.81
   8  -8   1    7.70    1.69
   9  -8   1  115.65    6.56
  10  -8   1   16.59    3.13
  11  -8   1  128.75    8.14
  12  -8   1    9.17    2.54
  13  -8   1   -0.07    1.50
  14  -8   1    7.08    2.69
  15  -8   1    3.52    3.58
  -9  -7   1    5.88    5.40
  -8  -7   1    0.90    3.37
  -7  -7   1   57.91    8.36
  -6  -7   1    4.90    3.12
  -5  -7   1   19.64    3.52
  -4  -7   1   14.09    2.87
  -3  -7   1   10.19    2.46
  -2  -7   1   31.62    3.90
  -1  -7   1    7.65    2.14
   0  -7   1    1.93    1.43
   1  -7   1  189.58    7.42
   2  -7   1   92.89    3.93
   3  -7   1  248.38    7.20
   4  -7   1   12.74    1.77
   5  -7   1   61.62    3.67
   6  -7   1  259.75    6.42
   7  -7   1    3.20    0.96
   8  -7   1   76.74    4.53
   9  -7   1    2.10    1.07
  10  -7   1   20.98    2.77
  11  -7   1   18.46    2.81
  12  -7   1   -0.02    1.05
  13  -7   1    6.04    2.14
  14  -7   1   49.23    6.85
  15  -7   1    0.56    2.45
  16  -7   1   17.10    8.03
  -9  -6   1   29.09    6.49
  -8  -6   1    4.38    3.10
  -7  -6   1    8.03    3.63
  -6  -6   1    6.33    2.13
  -5  -6   1   -0.76    1.17
  -4  -6   1    7.03    2.04
  -3  -6   1   35.44    3.13
  -2  -6   1    5.76    1.75
  -1  -6   1  250.75    8.96
   0  -6   1    7.98    1.83
   1  -6   1   32.88    2.43
   2  -6   1   89.54    3.69
   3  -6   1   69.65    3.41
   4  -6   1   47.54    3.17
   5  -6   1   16.10    1.48
   6  -6   1   11.26    1.48
   7  -6   1  184.17    6.11
   8  -6   1   69.54    4.22
   9  -6   1    3.21    1.19
  10  -6   1    2.47    1.17
  11  -6   1   78.36    5.53
  12  -6   1    4.23    1.62
  13  -6   1    8.76    2.31
  14  -6   1    1.36    2.13
  15  -6   1   -0.58    2.32
 -10  -5   1    6.16    3.49
  -9  -5   1   18.54    4.46
  -8  -5   1    0.34    2.21
  -7  -5   1    0.98    1.54
  -6  -5   1   86.11    6.56
  -5  -5   1    1.71    1.37
  -4  -5   1   77.88    5.63
  -3  -5   1    2.04    0.97
  -2  -5   1   64.35    4.89
  -1  -5   1   14.05    2.11
   0  -5   1  166.10    6.19
   1  -5   1   19.81    1.58
   2  -5   1  178.98    5.06
   3  -5   1   13.16    1.49
   4  -5   1  338.50    7.66
   5  -5   1  182.05    5.29
   6  -5   1   35.12    2.82
   7  -5   1   93.52    4.06
   8  -5   1  104.29    4.65
   9  -5   1   10.04    1.92
  10  -5   1    3.47    1.32
  11  -5   1   -0.08    0.99
  12  -5   1   19.98    2.96
  13  -5   1    1.59    1.98
  14  -5   1   12.07    3.83
  15  -5   1   14.02    4.14
 -11  -4   1    4.15    6.23
 -10  -4   1    3.86    3.12
  -9  -4   1    2.95    2.80
  -8  -4   1    4.09    1.97
  -7  -4   1   21.12    3.39
  -6  -4   1    1.16    1.04
  -5  -4   1    9.37    2.11
  -4  -4   1   50.04    2.85
  -3  -4   1    9.72    1.46
  -2  -4   1   45.09    3.74
  -1  -4   1  329.64    9.20
   0  -4   1   95.69    3.90
   1  -4   1  241.18    5.72
   2  -4   1   14.69    1.35
   3  -4   1    4.35    0.66
   4  -4   1   92.86    3.22
   5  -4   1   23.07    2.07
   6  -4   1   84.36    3.56
   7  -4   1  246.36    5.58
   8  -4   1   49.71    3.64
   9  -4   1   78.87    5.09
  10  -4   1    6.42    1.57
  11  -4   1   19.22    2.75
  12  -4   1   18.23    4.04
  13  -4   1    2.80    2.15
  14  -4   1   39.70    6.49
  15  -4   1    1.66    2.67
 -11  -3   1    2.04    4.89
 -10  -3   1   32.19    5.79
  -9  -3   1    3.12    1.99
  -8  -3   1  137.36    8.61
  -7  -3   1   15.33    2.67
  -6  -3   1    3.16    1.34
  -5  -3   1  118.16    6.01
  -4  -3   1  241.43    6.07
  -3  -3   1   68.01    2.80
  -2  -3   1   16.14    1.91
  -1  -3   1    3.27    0.97
   0  -3   1  467.63   10.22
   1  -3   1  169.91    4.15
   2  -3   1  169.32    3.57
   3  -3   1  471.49    9.45
   4  -3   1  237.74    5.95
   5  -3   1  173.70    4.01
   6  -3   1   66.44    2.34
   7  -3   1   11.74    1.29
   8  -3   1    3.25    0.87
   9  -3   1   38.19    3.44
  10  -3   1   12.56    2.21
  11  -3   1    9.81    1.96
  12  -3   1    3.60    2.13
  13  -3   1   19.04    4.36
  14  -3   1    0.09    2.12
  15  -3   1    3.47    4.05
 -12  -2   1   19.92    8.11
 -11  -2   1   28.62    8.91
 -10  -2   1    1.53    1.68
  -9  -2   1    5.44    2.02
  -8  -2   1   14.94    2.74
  -7  -2   1    3.63    1.40
  -6  -2   1   71.84    4.92
  -5  -2   1   95.75    3.33
  -4  -2   1   86.72    3.01
  -3  -2   1  178.52    4.36
  -2  -2   1   16.97    1.40
  -1  -2   1  172.50    4.68
   0  -2   1  136.53    2.88
   1  -2   1   44.16    1.58
   2  -2   1  136.98    3.45
   3  -2   1  169.79    3.49
   4  -2   1   16.65    1.18
   5  -2   1   17.07    1.54
   6  -2   1   39.10    2.43
   7  -2   1   67.13    2.92
   8  -2   1    4.45    1.00
   9  -2   1   30.21    2.57
  10  -2   1   29.56    3.19
  11  -2   1    2.91    2.09
  12  -2   1    1.52    1.83
  13  -2   1    9.80    3.45
  14  -2   1   21.81    8.12
 -13  -1   1    2.62    5.28
 -12  -1   1   23.94    9.18
 -11  -1   1    6.33    3.45
 -10  -1   1   14.49    2.85
  -9  -1   1   53.65    4.99
  -8  -1   1  118.26    6.57
  -7  -1   1   74.86    5.25
  -6  -1   1  191.43    6.82
  -5  -1   1   33.47    1.74
  -4  -1   1   17.28    1.13
  -3  -1   1  239.08    4.91
  -2  -1   1  173.53    4.78
  -1  -1   1   44.62    1.36
   0  -1   1   27.39    1.43
   1  -1   1   26.04    1.41
   2  -1   1   42.98    1.59
   3  -1   1  172.18    4.25
   4  -1   1    4.84    0.88
   5  -1   1  335.67    7.97
   6  -1   1   15.81    1.86
   7  -1   1  262.23    7.53
   8  -1   1   11.39    1.87
   9  -1   1   16.93    2.37
  10  -1   1   89.12    5.02
  11  -1   1   30.57    4.88
  12  -1   1   13.95    3.43
  13  -1   1   13.49    6.73
  14  -1   1    8.68    6.11
 -13   0   1   -0.61    4.48
 -12   0   1   29.29    9.01
 -11   0   1    6.29    3.20
 -10   0   1   48.42    5.06
  -9   0   1   11.01    1.80
  -8   0   1    8.23    1.53
  -7   0   1    1.68    0.93
  -6   0   1    9.64    1.75
  -5   0   1  186.07    5.90
  -4   0   1   91.98    3.55
  -3   0   1  463.93    9.81
  -2   0   1  139.55    3.69
  -1   0   1   25.23    1.16
   0   0   1    0.01    0.27
   1   0   1   23.46    1.19
   2   0   1  138.08    2.85
   3   0   1  472.10    8.01
   4   0   1   98.08    2.56
   5   0   1  181.30    4.25
   6   0   1   11.64    1.18
   7   0   1    2.11    0.95
   8   0   1    5.84    1.49
   9   0   1   12.18    2.21
  10   0   1   53.89    4.64
  11   0   1   11.64    2.46
  12   0   1   16.75    6.93
  13   0   1    2.39    5.02
 -14   1   1    3.96    5.38
 -13   1   1   14.72    6.35
 -12   1   1    9.33    3.52
 -11   1   1   15.62    4.11
 -10   1   1   87.11    6.39
  -9   1   1   24.79    2.57
  -8   1   1   11.75    1.65
  -7   1   1  266.82    6.71
  -6   1   1   15.02    1.58
  -5   1   1  337.36    7.06
  -4   1   1    4.76    0.77
  -3   1   1  170.02    3.75
  -2   1   1   43.61    1.94
  -1   1   1   26.90    1.18
   0   1   1   26.53    1.27
   1   1   1   42.61    1.71
   2   1   1  172.00    4.26
   3   1   1  238.90    4.94
   4   1   1   19.55    1.39
   5   1   1   33.24    1.85
   6   1   1  189.93    4.97
   7   1   1   73.23    4.09
   8   1   1  120.19    5.37
   9   1   1   51.67    4.45
  10   1   1   21.03    3.09
  11   1   1    3.84    2.50
  12   1   1   18.53    7.87
  13   1   1   -3.20    3.71
 -14   2   1   28.07    8.99
 -13   2   1   10.54    3.97
 -12   2   1    4.12    2.98
 -11   2   1    4.93    2.46
 -10   2   1   34.21    3.83
  -9   2   1   35.37    2.98
  -8   2   1    4.61    1.13
  -7   2   1   72.20    3.25
  -6   2   1   43.83    2.42
  -5   2   1   18.65    1.57
  -4   2   1   15.03    1.25
  -3   2   1  167.84    3.78
  -2   2   1  141.19    3.79
  -1   2   1   45.33    1.62
   0   2   1  139.72    3.06
   1   2   1  168.64    3.55
   2   2   1   16.08    1.15
   3   2   1  168.82    4.22
   4   2   1   89.72    2.91
   5   2   1   92.79    3.19
   6   2   1   70.54    3.12
   7   2   1    1.55    0.99
   8   2   1   23.39    2.82
   9   2   1    5.58    2.36
  10   2   1    6.36    2.82
  11   2   1   39.24    6.25
  12   2   1   12.06    7.50
 -14   3   1   -2.66    2.59
 -13   3   1   24.79    5.61
 -12   3   1    2.11    2.46
 -11   3   1   15.60    3.90
 -10   3   1    7.74    2.25
  -9   3   1   36.03    2.94
  -8   3   1    5.00    1.16
  -7   3   1   13.15    1.57
  -6   3   1   65.10    3.00
  -5   3   1  177.16    4.60
  -4   3   1  240.72    5.91
  -3   3   1  470.72    8.74
  -2   3   1  171.50    3.90
  -1   3   1  168.63    3.72
   0   3   1  472.67    8.29
   1   3   1    3.58    0.60
   2   3   1   15.34    1.25
   3   3   1   61.15    2.47
   4   3   1  237.43    5.82
   5   3   1  119.19    3.87
   6   3   1    4.37    1.08
   7   3   1   22.25    2.77
   8   3   1  113.00    9.35
   9   3   1    2.40    2.03
  10   3   1   38.57    6.15
  11   3   1    3.95    3.08
  12   3   1    3.61    3.38
 -15   4   1    0.71    4.02
 -14   4   1   28.79    5.03
 -13   4   1   -1.43    2.25
 -12   4   1   20.42    4.08
 -11   4   1   17.33    4.08
 -10   4   1    5.21    2.31
  -9   4   1   83.35    4.09
  -8   4   1   51.19    3.35
  -7   4   1  247.37    6.40
  -6   4   1   85.21    3.28
  -5   4   1   21.16    1.74
  -4   4   1   88.37    3.04
  -3   4   1    3.29    0.73
  -2   4   1   15.43    1.32
  -1   4   1  233.06    4.57
   0   4   1   89.37    2.77
   1   4   1  336.89    6.74
   2   4   1   46.27    2.20
   3   4   1   12.58    1.22
   4   4   1   58.77    2.94
   5   4   1   11.31    1.52
   6   4   1    1.09    1.03
   7   4   1   18.16    3.84
   8   4   1   12.07    3.41
   9   4   1    8.60    3.20
  10   4   1    3.78    2.47
  11   4   1    3.53    3.04
 -15   5   1   20.48    5.34
 -14   5   1   11.91    3.95
 -13   5   1   -1.09    1.98
 -12   5   1   15.92    3.98
 -11   5   1    1.63    1.77
 -10   5   1    0.35    1.12
  -9   5   1   13.09    1.78
  -8   5   1  117.10    4.45
  -7   5   1   96.65    3.94
  -6   5   1   31.92    2.07
  -5   5   1  180.91    4.93
  -4   5   1  327.39    7.11
  -3   5   1   17.91    1.60
  -2   5   1  173.26    4.45
  -1   5   1   18.87    1.59
   0   5   1  181.91    4.57
   1   5   1   15.28    1.48
   2   5   1   62.42    2.86
   3   5   1    3.73    0.80
   4   5   1   85.37    3.65
   5   5   1    1.04    1.07
   6   5   1   74.40    7.39
   7   5   1    3.50    2.27
   8   5   1    0.69    1.81
   9   5   1   36.88    6.32
  10   5   1    7.77    3.51
 -16   6   1    0.41    3.83
 -15   6   1    3.70    3.14
 -14   6   1    0.10    2.45
 -13   6   1    7.65    3.16
 -12   6   1    4.95    2.64
 -11   6   1   63.70    7.12
 -10   6   1    1.99    1.39
  -9   6   1    4.71    1.24
  -8   6   1   67.99    3.00
  -7   6   1  181.64    4.76
  -6   6   1   12.93    1.53
  -5   6   1   16.50    1.73
  -4   6   1   43.10    2.64
  -3   6   1   64.02    2.85
  -2   6   1   86.67    2.72
  -1   6   1   31.78    2.27
   0   6   1   12.17    1.45
   1   6   1  252.26    6.28
   2   6   1    7.06    1.24
   3   6   1   34.44    2.77
   4   6   1    4.33    1.39
   5   6   1    1.36    1.20
   6   6   1    1.31    1.75
   7   6   1    7.11    3.05
   8   6   1    3.99    2.66
   9   6   1   19.44    4.87
  10   6   1    7.74    6.58
 -16   7   1   14.15    6.64
 -15   7   1   -0.90    2.43
 -14   7   1   64.60    8.30
 -13   7   1   10.54    3.64
 -12   7   1    7.49    2.81
 -11   7   1   15.59    3.61
 -10   7   1   18.04    2.71
  -9   7   1    3.43    1.17
  -8   7   1   77.01    4.38
  -7   7   1    4.39    1.05
  -6   7   1  264.71    6.69
  -5   7   1   61.20    3.17
  -4   7   1   14.82    1.68
  -3   7   1  252.39    5.52
  -2   7   1   94.77    3.07
  -1   7   1  190.30    5.24
   0   7   1    3.13    0.91
   1   7   1   10.05    1.47
   2   7   1   31.65    2.70
   3   7   1    9.90    1.84
   4   7   1   24.91    3.27
   5   7   1   18.40    3.02
   6   7   1    9.47    3.17
   7   7   1   71.80    8.35
   8   7   1    5.17    3.01
 -16   8   1    5.49    3.40
 -15   8   1    4.19    3.00
 -14   8   1    3.39    2.77
 -13   8   1    1.23    2.13
 -12   8   1   10.10    3.20
 -11   8   1  131.00   10.22
 -10   8   1   17.14    2.77
  -9   8   1  108.66    6.24
  -8   8   1    8.90    1.97
  -7   8   1    9.39    1.97
  -6   8   1    6.90    1.27
  -5   8   1    2.92    0.96
  -4   8   1   60.63    2.80
  -3   8   1  118.27    3.65
  -2   8   1   79.21    3.62
  -1   8   1   77.06    3.90
   0   8   1    5.50    1.21
   1   8   1   24.61    2.43
   2   8   1   31.20    3.54
   3   8   1   15.31    3.06
   4   8   1   18.41    3.56
   5   8   1    1.41    1.70
   6   8   1    3.61    3.37
   7   8   1   -0.27    2.75
 -16   9   1    1.39    4.14
 -15   9   1   15.05    4.31
 -14   9   1   20.83    4.39
 -13   9   1    9.67    3.15
 -12   9   1    5.81    2.56
 -11   9   1    7.33    2.14
 -10   9   1   43.89    4.45
  -9   9   1    9.63    2.09
  -8   9   1   17.06    2.64
  -7   9   1   33.75    3.55
  -6   9   1   33.26    2.87
  -5   9   1   81.56    4.13
  -4   9   1   10.14    1.58
  -3   9   1    5.42    1.33
  -2   9   1    1.49    1.11
  -1   9   1  113.81    5.13
   0   9   1   10.91    1.90
   1   9   1   82.90    7.15
   2   9   1    1.75    1.75
   3   9   1    1.45    1.67
   4   9   1    4.40    1.98
   5   9   1    5.83    4.00
   6   9   1   -0.28    3.01
 -16  10   1    2.99    4.52
 -15  10   1    4.17    3.08
 -14  10   1    4.01    2.76
 -13  10   1   33.78    5.83
 -12  10   1   -0.72    1.68
 -11  10   1   18.52    3.06
 -10  10   1   44.12    4.57
  -9  10   1   85.15    6.20
  -8  10   1   24.33    3.29
  -7  10   1   11.67    2.37
  -6  10   1    5.59    1.70
  -5  10   1    1.07    0.90
  -4  10   1    2.14    1.05
  -3  10   1   18.52    2.57
  -2  10   1   17.88    2.58
  -1  10   1   45.43    4.11
   0  10   1   55.00    5.94
   1  10   1   28.67    4.51
   2  10   1   -0.08    1.40
   3  10   1   24.39    4.37
   4  10   1   35.98    5.39
   5  10   1   21.50    7.02
 -15  11   1    3.10    2.93
 -14  11   1    7.15    3.40
 -13  11   1   36.58    6.04
 -12  11   1    1.06    2.20
 -11  11   1   16.27    3.13
 -10  11   1   21.36    3.35
  -9  11   1    5.44    1.84
  -8  11   1   16.48    2.95
  -7  11   1   23.31    3.30
  -6  11   1    0.34    1.31
  -5  11   1   79.00    7.03
  -4  11   1   16.82    2.73
  -3  11   1  122.52    6.19
  -2  11   1    6.55    1.84
  -1  11   1   22.01    3.90
   0  11   1   23.28    4.32
   1  11   1    6.94    2.61
   2  11   1   19.37    4.19
   3  11   1   -0.31    1.76
   4  11   1    3.17    3.67
 -14  12   1    7.39    4.39
 -13  12   1   15.31    5.99
 -12  12   1   20.78    6.60
 -11  12   1    7.25    2.85
 -10  12   1    0.90    1.65
  -9  12   1    1.90    2.03
  -8  12   1   16.49    3.61
  -7  12   1   21.98    4.05
  -6  12   1    6.92    2.42
  -5  12   1   -0.30    1.24
  -4  12   1    8.37    2.18
  -3  12   1    6.54    2.03
  -2  12   1    7.93    2.65
  -1  12   1    3.18    2.04
   0  12   1   20.88    4.22
   1  12   1    4.10    2.60
   2  12   1   20.15    4.41
   3  12   1    2.33    2.85
 -14  13   1   -1.35    4.17
 -13  13   1    2.67    3.61
 -12  13   1    6.24    4.63
 -11  13   1    9.10    3.45
 -10  13   1   21.12    4.51
  -9  13   1   -1.05    1.56
  -8  13   1   -1.54    1.39
  -7  13   1   13.65    3.45
  -6  13   1    6.41    2.59
  -5  13   1   -0.01    1.69
  -4  13   1    9.52    3.08
  -3  13   1   32.51    5.76
  -2  13   1   37.39    5.77
  -1  13   1   24.21    4.90
   0  13   1    2.82    2.45
   1  13   1    3.10    2.60
 -13  14   1    3.27    4.59
 -12  14   1   13.10    6.05
 -11  14   1    1.68    2.04
 -10  14   1   33.64    5.52
  -9  14   1    3.47    2.60
  -8  14   1    7.02    3.16
  -7  14   1   59.29    7.50
  -6  14   1    5.17    2.63
  -5  14   1   31.99    5.26
  -4  14   1    3.06    3.34
  -3  14   1    0.88    3.51
  -2  14   1    6.12    3.98
  -1  14   1   -0.67    2.49
   0  14   1    2.03    4.04
 -11  15   1    3.12    2.78
 -10  15   1   12.34    3.81
  -9  15   1    3.08    2.82
  -8  15   1    2.87    2.40
  -7  15   1    9.43    3.53
  -6  15   1    5.07    2.99
  -5  15   1   12.45    5.18
  -4  15   1    8.94    5.08
  -9  16   1   19.88    7.04
  -8  16   1   10.10    5.59
  -7  16   1    9.16    7.59
   7 -16   2   22.17    9.22
   8 -16   2    3.21    5.83
   3 -15   2   -1.60    4.09
   4 -15   2   16.14    7.07
   5 -15   2   -1.47    2.47
   6 -15   2    9.01    3.43
   7 -15   2    3.16    2.68
   8 -15   2    1.97    2.34
   9 -15   2    1.59    3.04
  10 -15   2    4.32    3.22
  11 -15   2    0.87    4.46
  12 -15   2   17.49    7.27
   1 -14   2    7.98    5.40
   2 -14   2    0.58    3.26
   3 -14   2    0.31    2.92
   4 -14   2   11.93    3.61
   5 -14   2    2.92    2.54
   6 -14   2    1.14    2.17
   7 -14   2    7.33    2.75
   8 -14   2   13.38    4.17
   9 -14   2   39.19    6.56
  10 -14   2   46.04    7.07
  11 -14   2    2.48    2.80
  12 -14   2   14.08    4.34
  13 -14   2   -0.23    2.65
  -1 -13   2    1.85    2.96
   0 -13   2   50.14    8.58
   1 -13   2    3.01    3.51
   2 -13   2   48.50    7.72
   3 -13   2    2.07    2.33
   4 -13   2    8.66    3.04
   5 -13   2   49.81    6.09
   6 -13   2    2.73    2.04
   7 -13   2    6.51    3.06
   8 -13   2    0.07    1.85
   9 -13   2    4.13    2.52
  10 -13   2    0.67    2.12
  11 -13   2   -0.82    1.53
  12 -13   2    5.85    2.44
  13 -13   2   36.23    4.53
  14 -13   2    0.64    2.24
  -2 -12   2    5.70    3.03
  -1 -12   2   14.34    4.98
   0 -12   2    3.29    3.34
   1 -12   2    0.65    2.33
   2 -12   2    7.67    2.79
   3 -12   2    0.28    1.77
   4 -12   2   14.15    2.98
   5 -12   2   28.43    4.19
   6 -12   2   17.87    4.04
   7 -12   2    1.88    2.01
   8 -12   2   38.58    5.90
   9 -12   2    2.63    2.12
  10 -12   2   15.88    2.82
  11 -12   2   21.93    3.65
  12 -12   2   10.62    2.71
  13 -12   2    2.58    1.86
  14 -12   2    2.61    2.10
  -4 -11   2    1.29    4.16
  -3 -11   2    2.92    2.62
  -2 -11   2   -0.52    1.88
  -1 -11   2   22.53    5.59
   0 -11   2    2.86    2.47
   1 -11   2   46.95    7.46
   2 -11   2   -1.51    1.49
   3 -11   2   12.51    3.08
   4 -11   2  124.62    8.60
   5 -11   2    8.24    2.70
   6 -11   2   20.44    4.03
   7 -11   2   99.83    8.76
   8 -11   2    6.10    1.85
   9 -11   2    1.05    1.23
  10 -11   2    0.98    1.24
  11 -11   2    3.34    1.64
  12 -11   2    1.20    1.48
  13 -11   2   41.12    4.71
  14 -11   2    3.51    1.98
  15 -11   2   13.28    4.46
  -5 -10   2    5.21    4.27
  -4 -10   2   57.52    6.56
  -3 -10   2   -0.29    1.85
  -2 -10   2   17.70    3.54
  -1 -10   2    7.00    3.38
   0 -10   2   31.43    5.83
   1 -10   2    8.02    2.38
   2 -10   2    7.55    2.26
   3 -10   2   12.82    2.65
   4 -10   2    1.24    1.27
   5 -10   2    5.56    2.26
   6 -10   2  182.73    7.32
   7 -10   2    7.20    1.93
   8 -10   2  112.23    6.34
   9 -10   2   26.71    3.35
  10 -10   2   25.68    3.46
  11 -10   2   37.33    4.18
  12 -10   2    9.87    2.32
  13 -10   2    1.18    1.80
  14 -10   2    3.65    2.39
  15 -10   2    0.07    1.97
  -6  -9   2    1.61    3.48
  -5  -9   2   58.56    6.51
  -4  -9   2    1.57    1.93
  -3  -9   2   -0.03    1.70
  -2  -9   2    1.41    2.44
  -1  -9   2   21.53    4.67
   0  -9   2    5.61    2.17
   1  -9   2   22.93    3.58
   2  -9   2    9.93    2.39
   3  -9   2  103.79    6.77
   4  -9   2   39.09    4.84
   5  -9   2   13.82    2.21
   6  -9   2   16.15    2.33
   7  -9   2    3.07    1.30
   8  -9   2   69.53    5.16
   9  -9   2    5.53    1.65
  10  -9   2    6.20    1.74
  11  -9   2   -0.29    1.11
  12  -9   2    0.73    1.50
  13  -9   2    3.74    2.14
  14  -9   2    5.99    2.69
  15  -9   2    4.67    2.67
  -8  -8   2    5.88    6.06
  -7  -8   2    4.13    3.58
  -6  -8   2   16.01    3.65
  -5  -8   2   -1.48    1.64
  -4  -8   2   41.16    5.03
  -3  -8   2    4.16    1.80
  -2  -8   2  118.72   11.39
  -1  -8   2   84.13    8.84
   0  -8   2  144.89    8.13
   1  -8   2    1.49    1.14
   2  -8   2   45.89    4.41
   3  -8   2   42.41    4.78
   4  -8   2    9.87    1.75
   5  -8   2   16.91    2.25
   6  -8   2   31.54    3.10
   7  -8   2   24.45    2.83
   8  -8   2  137.17    6.01
   9  -8   2   16.28    2.93
  10  -8   2    6.33    2.05
  11  -8   2    9.45    2.54
  12  -8   2   15.09    3.22
  13  -8   2   51.28    6.05
  14  -8   2    1.75    2.01
  15  -8   2    2.86    3.58
  -8  -7   2   10.07    4.25
  -7  -7   2    4.86    2.40
  -6  -7   2    6.01    2.50
  -5  -7   2    5.20    2.16
  -4  -7   2   94.02    7.33
  -3  -7   2    4.02    1.74
  -2  -7   2    1.68    2.11
  -1  -7   2   23.56    3.40
   0  -7   2   13.11    2.44
   1  -7   2   52.68    4.51
   2  -7   2   59.36    3.31
   3  -7   2   30.01    2.59
   4  -7   2  271.10    7.77
   5  -7   2   35.19    2.96
   6  -7   2   37.07    3.19
   7  -7   2   10.99    2.15
   8  -7   2    6.38    1.56
   9  -7   2   12.02    2.01
  10  -7   2    7.96    1.91
  11  -7   2  129.98    6.25
  12  -7   2   33.01    4.11
  13  -7   2    3.19    1.65
  14  -7   2    3.54    1.88
  15  -7   2    2.13    2.68
  -9  -6   2   17.09    7.91
  -8  -6   2    4.26    3.08
  -7  -6   2    4.11    2.12
  -6  -6   2   19.63    3.47
  -5  -6   2   21.82    3.42
  -4  -6   2  179.00    8.79
  -3  -6   2   19.45    2.95
  -2  -6   2   27.75    3.89
  -1  -6   2   41.26    4.14
   0  -6   2   11.15    2.03
   1  -6   2  110.86    3.63
   2  -6   2   19.81    1.91
   3  -6   2   38.40    2.82
   4  -6   2  160.17    4.13
   5  -6   2  183.97    5.49
   6  -6   2   11.96    1.65
   7  -6   2   51.63    3.40
   8  -6   2   50.14    3.84
   9  -6   2   88.43    4.76
  10  -6   2    3.57    1.41
  11  -6   2    6.18    1.74
  12  -6   2   19.55    3.06
  13  -6   2    5.22    1.98
  14  -6   2   11.47    3.87
  15  -6   2    4.71    2.92
 -10  -5   2   -3.73    3.59
  -9  -5   2    3.04    4.71
  -8  -5   2   39.04    4.94
  -7  -5   2   30.48    4.14
  -6  -5   2    5.28    1.81
  -5  -5   2    3.73    1.64
  -4  -5   2    9.94    2.21
  -3  -5   2   17.08    2.60
  -2  -5   2   38.44    3.74
  -1  -5   2  185.37    6.84
   0  -5   2   86.74    4.49
   1  -5   2   61.49    2.39
   2  -5   2   50.53    1.99
   3  -5   2  112.15    3.16
   4  -5   2    7.25    1.10
   5  -5   2   80.10    3.37
   6  -5   2  105.17    4.24
   7  -5   2   58.74    3.68
   8  -5   2   54.36    4.08
   9  -5   2   39.36    3.62
  10  -5   2    4.56    1.50
  11  -5   2   26.20    3.36
  12  -5   2    7.08    2.17
  13  -5   2    0.04    1.28
  14  -5   2   51.25    6.88
  15  -5   2   -0.36    2.56
 -10  -4   2   11.21    5.70
  -9  -4   2    2.33    2.75
  -8  -4   2   12.42    2.82
  -7  -4   2  139.57    7.83
  -6  -4   2    2.61    1.46
  -5  -4   2   41.00    4.16
  -4  -4   2   10.44    2.07
  -3  -4   2  275.67    7.53
  -2  -4   2  157.45    5.96
  -1  -4   2    5.26    1.23
   0  -4   2   51.44    1.91
   1  -4   2  102.17    3.26
   2  -4   2  126.19    3.33
   3  -4   2   29.58    1.91
   4  -4   2   50.34    1.93
   5  -4   2   58.37    2.99
   6  -4   2   17.76    1.11
   7  -4   2   30.65    2.93
   8  -4   2   11.99    2.00
   9  -4   2   10.00    1.92
  10  -4   2  167.82    7.01
  11  -4   2  107.08    5.95
  12  -4   2   42.55    4.59
  13  -4   2    3.95    2.66
  14  -4   2   47.18    6.80
  15  -4   2    1.16    2.66
 -11  -3   2    2.46    4.68
 -10  -3   2    5.66    3.17
  -9  -3   2    1.03    2.08
  -8  -3   2   12.45    2.59
  -7  -3   2   10.86    2.34
  -6  -3   2  112.25    6.13
  -5  -3   2   42.18    3.93
  -4  -3   2   30.12    3.19
  -3  -3   2   38.89    2.07
  -2  -3   2  107.46    3.65
  -1  -3   2   27.47    2.15
   0  -3   2   48.00    1.80
   1  -3   2    6.31    0.89
   2  -3   2  351.21    7.57
   3  -3   2   43.36    1.92
   4  -3   2  105.55    2.89
   5  -3   2   50.45    2.03
   6  -3   2   38.58    2.05
   7  -3   2  262.59    6.35
   8  -3   2   20.93    2.52
   9  -3   2   16.72    2.48
  10  -3   2    8.48    1.94
  11  -3   2    5.31    1.72
  12  -3   2    3.41    1.67
  13  -3   2    1.38    2.08
  14  -3   2    2.61    2.49
  15  -3   2   26.34    6.83
 -12  -2   2    2.01    4.77
 -11  -2   2   40.76    6.44
 -10  -2   2    7.38    3.04
  -9  -2   2   -0.83    1.78
  -8  -2   2    5.51    1.68
  -7  -2   2    8.12    1.83
  -6  -2   2   50.67    4.10
  -5  -2   2   58.97    4.26
  -4  -2   2   19.36    2.39
  -3  -2   2   54.67    3.59
  -2  -2   2  129.94    3.42
  -1  -2   2  340.91    7.75
   0  -2   2  400.49    8.56
   2  -2   2  404.99   10.49
   3  -2   2    8.29    1.07
   4  -2   2  125.83    2.94
   5  -2   2  105.79    3.71
   6  -2   2  159.24    5.12
   7  -2   2   35.23    2.90
   8  -2   2   29.57    2.83
   9  -2   2    3.92    1.76
  10  -2   2  104.22    6.03
  11  -2   2    1.06    1.22
  12  -2   2   19.81    4.15
  13  -2   2   -1.80    1.87
  14  -2   2    8.60    3.45
 -12  -1   2   -0.92    2.63
 -11  -1   2    2.89    2.55
 -10  -1   2   49.69    6.88
  -9  -1   2    5.68    1.90
  -8  -1   2   16.59    2.70
  -7  -1   2    5.40    1.53
  -6  -1   2   40.43    3.54
  -5  -1   2  111.92    4.64
  -4  -1   2   68.63    3.72
  -3  -1   2  105.77    4.02
  -2  -1   2    8.05    0.73
  -1  -1   2  102.49    3.32
   2  -1   2   97.84    3.11
   3  -1   2  354.24    7.48
   4  -1   2   30.48    2.34
   5  -1   2    7.17    1.22
   6  -1   2  178.81    5.89
   7  -1   2   42.33    3.42
   8  -1   2   24.13    2.73
   9  -1   2   83.10    4.95
  10  -1   2   35.52    5.00
  11  -1   2    9.70    2.87
  12  -1   2   15.60    3.74
  13  -1   2    3.22    2.78
 -13   0   2   45.92    7.95
 -12   0   2   12.61    4.36
 -11   0   2    7.98    3.49
 -10   0   2   40.08    5.35
  -9   0   2    7.84    2.02
  -8   0   2  157.54    5.39
  -7   0   2   11.84    1.60
  -6   0   2    6.76    1.44
  -5   0   2   88.54    3.90
  -4   0   2   52.61    2.83
  -3   0   2   46.86    2.43
  -2   0   2  385.90    8.40
  -1   0   2  213.60    5.05
   0   0   2  376.51    9.24
   1   0   2  207.96    5.49
   2   0   2  391.28    8.69
   3   0   2   42.27    1.75
   4   0   2   52.19    1.82
   5   0   2   82.49    2.39
   6   0   2    8.67    1.52
   7   0   2    9.55    1.75
   8   0   2  155.87    6.19
   9   0   2    6.27    1.67
  10   0   2   31.57    3.75
  11   0   2    5.17    2.36
  12   0   2   12.26    3.48
  13   0   2   49.80   12.04
 -13   1   2    3.74    2.90
 -12   1   2   21.52    5.10
 -11   1   2   12.26    3.97
 -10   1   2   19.96    2.89
  -9   1   2   84.43    5.92
  -8   1   2   28.70    2.65
  -7   1   2   37.82    2.75
  -6   1   2  191.37    5.17
  -5   1   2    6.83    1.00
  -4   1   2   27.36    1.55
  -3   1   2  347.54    7.99
  -2   1   2  103.91    3.27
  -1   1   2  208.42    4.83
   0   1   2  216.29    5.23
   1   1   2  100.80    2.59
   2   1   2    7.92    1.11
   3   1   2   97.72    3.37
   4   1   2   58.79    2.35
   5   1   2  113.85    3.38
   6   1   2   47.54    3.74
   7   1   2    3.03    1.20
   8   1   2   20.21    2.73
   9   1   2    3.28    1.46
  10   1   2   44.88    4.43
  11   1   2    5.00    4.14
  12   1   2    0.77    3.54
 -14   2   2    4.09    3.26
 -13   2   2   -2.66    1.93
 -12   2   2   24.48    4.86
 -11   2   2    2.47    2.16
 -10   2   2  107.43    7.12
  -9   2   2   -0.63    0.88
  -8   2   2   28.29    3.23
  -7   2   2   37.32    2.58
  -6   2   2  158.71    4.44
  -5   2   2  113.88    3.21
  -4   2   2  131.04    4.44
  -3   2   2    9.35    1.24
  -2   2   2  387.55    8.43
  -1   2   2  100.34    3.56
   0   2   2  390.67    8.58
   1   2   2  342.77    8.31
   2   2   2  131.70    5.12
   3   2   2   50.94    2.77
   4   2   2   19.00    1.63
   5   2   2   63.31    2.79
   6   2   2   48.48    3.84
   7   2   2   13.35    2.21
   8   2   2    3.66    1.37
   9   2   2   -0.11    1.07
  10   2   2    8.16    2.78
  11   2   2   55.06    7.28
  12   2   2   12.10    7.40
 -15   3   2   20.54    8.11
 -14   3   2    5.40    3.43
 -13   3   2   -1.19    2.01
 -12   3   2    0.99    2.24
 -11   3   2    4.08    2.27
 -10   3   2    8.83    2.21
  -9   3   2   13.13    2.22
  -8   3   2   21.56    2.78
  -7   3   2  265.03    6.56
  -6   3   2   40.31    2.11
  -5   3   2   49.65    2.02
  -4   3   2  102.08    3.94
  -3   3   2   41.61    2.12
  -2   3   2  341.83    6.73
  -1   3   2    8.10    1.19
   0   3   2   45.35    2.07
   1   3   2   32.71    1.48
   2   3   2  113.62    4.14
   3   3   2   40.15    3.03
   4   3   2   28.26    2.18
   5   3   2   51.16    3.16
   6   3   2  106.72    4.95
   7   3   2   11.46    2.20
   8   3   2   13.71    2.42
   9   3   2    0.25    1.75
  10   3   2    4.79    2.51
  11   3   2    7.23    3.35
 -15   4   2    0.52    3.23
 -14   4   2   47.33    7.41
 -13   4   2    4.70    2.82
 -12   4   2   52.27    7.02
 -11   4   2  106.04    9.59
 -10   4   2  187.04    7.82
  -9   4   2    9.87    2.16
  -8   4   2   10.33    2.09
  -7   4   2   31.87    2.32
  -6   4   2   21.99    1.72
  -5   4   2   67.13    3.71
  -4   4   2   52.66    2.75
  -3   4   2   31.07    2.02
  -2   4   2  126.73    3.39
  -1   4   2  102.60    3.75
   0   4   2   50.31    2.30
   1   4   2    7.34    0.92
   2   4   2  156.85    4.13
   3   4   2  271.98    7.91
   4   4   2   12.76    1.58
   5   4   2   44.87    3.05
   6   4   2    2.67    1.19
   7   4   2  130.06    8.45
   8   4   2   14.30    3.65
   9   4   2    2.10    2.04
  10   4   2    8.76    3.33
  11   4   2   19.08    4.72
 -15   5   2    2.43    2.82
 -14   5   2   48.74    7.24
 -13   5   2    2.01    2.33
 -12   5   2   10.94    3.62
 -11   5   2   25.30    3.67
 -10   5   2    5.91    1.80
  -9   5   2   45.76    4.27
  -8   5   2   47.81    4.19
  -7   5   2   63.21    3.87
  -6   5   2  119.47    4.27
  -5   5   2   85.54    3.62
  -4   5   2    6.01    1.12
  -3   5   2  112.31    3.47
  -2   5   2   50.33    2.40
  -1   5   2   64.99    2.93
   0   5   2   80.35    3.05
   1   5   2  188.90    4.92
   2   5   2   42.13    2.93
   3   5   2   25.18    2.77
   4   5   2    9.64    1.46
   5   5   2    6.90    1.41
   6   5   2   10.62    2.81
   7   5   2   27.15    4.84
   8   5   2   59.37    7.41
   9   5   2    2.61    2.67
  10   5   2    3.63    2.81
 -15   6   2   -1.31    2.64
 -14   6   2   14.61    4.09
 -13   6   2    7.44    3.11
 -12   6   2   10.95    3.28
 -11   6   2   10.54    2.47
 -10   6   2    4.60    1.62
  -9   6   2  105.74    6.10
  -8   6   2   42.13    3.33
  -7   6   2   53.94    3.63
  -6   6   2    9.10    1.49
  -5   6   2  187.63    5.43
  -4   6   2  159.95    4.71
  -3   6   2   41.68    2.65
  -2   6   2   14.84    1.72
  -1   6   2  114.12    3.88
   0   6   2   10.99    1.43
   1   6   2   38.71    2.65
   2   6   2   28.54    3.15
   3   6   2   14.61    2.32
   4   6   2  183.36    7.15
   5   6   2   31.20    5.04
   6   6   2   21.50    4.45
   7   6   2   -0.21    1.79
   8   6   2    0.07    2.11
   9   6   2   10.32    3.68
 -15   7   2    1.01    2.50
 -14   7   2    5.25    2.92
 -13   7   2    0.58    1.97
 -12   7   2   25.70    4.81
 -11   7   2  139.55    7.83
 -10   7   2   14.25    2.69
  -9   7   2   12.64    2.36
  -8   7   2    2.79    1.10
  -7   7   2    9.55    1.65
  -6   7   2   42.95    3.12
  -5   7   2   34.75    2.67
  -4   7   2  271.90    6.81
  -3   7   2   23.03    2.11
  -2   7   2   64.46    3.55
  -1   7   2   47.02    3.17
   0   7   2   13.20    1.69
   1   7   2   25.95    3.09
   2   7   2    1.72    1.01
   3   7   2    5.83    1.66
   4   7   2  119.96    5.91
   5   7   2    0.98    1.66
   6   7   2    4.76    2.72
   7   7   2    3.14    2.68
   8   7   2   10.37    3.77
   9   7   2   24.32   10.17
 -16   8   2   -1.68    4.15
 -15   8   2   10.79    3.87
 -14   8   2    0.04    2.40
 -13   8   2   58.28    7.34
 -12   8   2   17.60    4.02
 -11   8   2   11.12    2.47
 -10   8   2    6.68    2.01
  -9   8   2   17.00    2.69
  -8   8   2  150.67    5.81
  -7   8   2   24.95    2.50
  -6   8   2   31.91    2.74
  -5   8   2   22.46    2.23
  -4   8   2   10.83    1.57
  -3   8   2   52.09    3.58
  -2   8   2   50.87    3.42
  -1   8   2    3.28    1.05
   0   8   2  140.72    6.20
   1   8   2   78.77    5.55
   2   8   2  109.91    6.55
   3   8   2    5.86    1.87
   4   8   2   45.01    4.65
   5   8   2    2.68    2.50
   6   8   2   10.12    4.97
   7   8   2    5.77    4.04
 -15   9   2    6.85    3.70
 -14   9   2    5.13    3.01
 -13   9   2    8.27    3.10
 -12   9   2   -0.10    1.80
 -11   9   2   -1.24    1.22
 -10   9   2    5.73    1.95
  -9   9   2    5.31    1.75
  -8   9   2   84.31    6.26
  -7   9   2    3.30    1.36
  -6   9   2    9.58    1.91
  -5   9   2    9.22    1.84
  -4   9   2   44.06    3.96
  -3   9   2  108.90    5.37
  -2   9   2   18.08    2.51
  -1   9   2   12.20    2.77
   0   9   2    6.39    2.08
   1   9   2   25.96    4.14
   2   9   2    3.74    1.84
   3   9   2    1.68    1.75
   4   9   2    8.37    4.75
   5   9   2   41.62    8.97
   6   9   2    4.71    4.26
 -15  10   2    2.53    4.07
 -14  10   2    7.20    4.54
 -13  10   2    4.30    4.10
 -12  10   2    6.10    2.83
 -11  10   2   28.36    4.74
 -10  10   2   33.04    5.40
  -9  10   2   26.21    4.40
  -8  10   2   97.68    8.32
  -7  10   2    7.16    2.46
  -6  10   2  169.72    7.12
  -5  10   2    3.01    1.30
  -4  10   2    0.81    1.01
  -3  10   2   10.13    2.04
  -2  10   2    8.93    2.47
  -1  10   2    7.36    2.54
   0  10   2   32.13    4.70
   1  10   2    7.96    2.59
   2  10   2   16.92    3.53
   3  10   2    0.43    1.88
   4  10   2   56.13   10.52
   5  10   2    1.95    3.81
 -14  11   2    2.71    4.53
 -13  11   2   55.59   10.90
 -12  11   2    1.23    1.79
 -11  11   2    8.78    3.36
 -10  11   2    3.05    2.12
  -9  11   2    1.82    1.79
  -8  11   2    6.72    2.59
  -7  11   2   88.96    8.14
  -6  11   2   16.38    3.40
  -5  11   2    9.05    2.17
  -4  11   2  146.47    7.03
  -3  11   2   14.18    2.83
  -2  11   2    0.63    1.37
  -1  11   2   38.85    5.28
   0  11   2    6.59    2.73
   1  11   2   25.37    4.69
   2  11   2   -0.04    1.84
   3  11   2    1.04    2.28
 -14  12   2    1.59    3.83
 -13  12   2   -1.06    2.86
 -12  12   2    5.79    2.69
 -11  12   2   35.82    5.74
 -10  12   2   23.88    4.51
  -9  12   2    4.95    2.43
  -8  12   2   52.95    6.65
  -7  12   2    1.59    1.83
  -6  12   2   21.60    4.20
  -5  12   2   21.06    4.09
  -4  12   2   12.86    2.53
  -3  12   2    1.64    1.89
  -2  12   2   12.73    3.45
  -1  12   2    3.03    2.24
   0  12   2   11.35    3.50
   1  12   2   11.50    3.33
   2  12   2   12.69    3.84
 -13  13   2   41.15    9.38
 -12  13   2    6.60    3.14
 -11  13   2    2.17    2.39
 -10  13   2   -1.10    1.79
  -9  13   2    3.80    2.10
  -8  13   2    0.89    1.94
  -7  13   2    3.05    2.12
  -6  13   2    2.68    1.99
  -5  13   2   72.36   11.47
  -4  13   2   12.76    5.03
  -3  13   2    3.98    2.26
  -2  13   2   50.98    6.97
  -1  13   2   -0.14    2.25
   0  13   2   42.49    6.58
   1  13   2   -0.15    2.50
 -12  14   2    8.79    3.70
 -11  14   2    0.38    2.35
 -10  14   2   51.58    7.28
  -9  14   2   49.35    6.61
  -8  14   2   11.93    3.58
  -7  14   2    6.94    2.90
  -6  14   2    2.61    3.61
  -5  14   2    0.55    3.17
  -4  14   2    7.22    4.24
  -3  14   2    5.73    4.41
  -2  14   2    2.98    2.72
  -1  14   2    0.61    2.46
 -12  15   2   19.27    6.36
 -11  15   2    3.07    2.62
 -10  15   2    3.13    2.84
  -9  15   2    0.94    2.33
  -8  15   2    0.66    2.53
  -7  15   2    3.68    4.34
  -6  15   2   10.89    5.52
  -5  15   2    1.90    3.54
  -9  16   2    4.90    5.01
   5 -15   3   -0.55    4.31
   6 -15   3   15.45    4.82
   7 -15   3    4.45    2.82
   8 -15   3   10.38    3.47
   9 -15   3   -2.97    2.37
   2 -14   3   10.07    6.28
   3 -14   3    0.95    3.44
   4 -14   3    2.34    3.13
   5 -14   3    8.58    3.28
   6 -14   3   15.73    3.95
   7 -14   3   50.89    6.25
   8 -14   3    2.54    2.75
   9 -14   3    3.18    2.89
  10 -14   3   16.85    4.72
  11 -14   3    0.97    2.14
  12 -14   3    7.98    5.66
   0 -13   3    0.45    3.40
   1 -13   3    7.80    4.11
   2 -13   3   23.44    6.08
   3 -13   3   36.83    7.18
   4 -13   3   10.94    3.32
   5 -13   3    1.99    1.94
   6 -13   3   -0.25    1.81
   7 -13   3   36.99    6.16
   8 -13   3    0.11    2.30
   9 -13   3    3.01    2.41
  10 -13   3   18.94    4.67
  11 -13   3    8.51    3.37
  12 -13   3   13.27    3.98
  13 -13   3    3.45    2.28
  -2 -12   3   12.56    3.73
  -1 -12   3    9.50    3.26
   0 -12   3    6.61    4.31
   1 -12   3    3.83    3.20
   2 -12   3   12.73    4.42
   3 -12   3    2.49    2.47
   4 -12   3    8.23    2.64
   5 -12   3    0.06    1.54
   6 -12   3    7.58    3.08
   7 -12   3   16.77    4.01
   8 -12   3    9.83    3.30
   9 -12   3    2.40    2.35
  10 -12   3    2.03    2.07
  11 -12   3   33.31    4.37
  12 -12   3   12.26    2.89
  13 -12   3    8.60    2.55
  14 -12   3    0.96    2.14
  -4 -11   3    2.10    4.13
  -3 -11   3   -1.31    1.78
  -2 -11   3    6.52    2.81
  -1 -11   3   19.24    5.77
   0 -11   3   13.64    4.40
   1 -11   3    3.15    3.00
   2 -11   3    0.64    2.27
   3 -11   3   88.63    7.50
   4 -11   3    6.88    2.41
   5 -11   3   36.64    4.23
   6 -11   3    5.07    2.27
   7 -11   3    8.56    2.74
   8 -11   3   23.54    4.52
   9 -11   3   41.53    4.51
  10 -11   3   15.33    2.80
  11 -11   3   11.28    2.59
  12 -11   3    3.17    1.83
  13 -11   3   26.50    4.05
  14 -11   3    2.86    2.02
  15 -11   3   12.45    8.71
  -5 -10   3    4.13    3.58
  -4 -10   3   18.45    4.19
  -3 -10   3   20.28    4.07
  -2 -10   3    1.89    1.91
  -1 -10   3   18.34    5.33
   0 -10   3   31.74    5.98
   1 -10   3   47.56    7.24
   2 -10   3   17.70    3.35
   3 -10   3   22.53    3.56
   4 -10   3    0.85    1.33
   5 -10   3    1.37    1.63
   6 -10   3   18.32    3.56
   7 -10   3   10.00    2.17
   8 -10   3   36.85    3.94
   9 -10   3   36.00    4.13
  10 -10   3   30.48    3.83
  11 -10   3    6.52    2.03
  12 -10   3   10.91    2.63
  13 -10   3   30.51    5.23
  14 -10   3    3.53    2.30
  15 -10   3    4.65    4.15
  -6  -9   3   -0.88    2.63
  -5  -9   3    2.62    2.44
  -4  -9   3    4.81    2.39
  -3  -9   3    3.26    2.13
  -2  -9   3   40.03    4.97
  -1  -9   3   40.27    6.65
   0  -9   3    6.13    2.99
   1  -9   3  116.37    8.01
   2  -9   3    8.38    2.24
   3  -9   3    6.34    1.89
   4  -9   3    8.62    2.39
   5  -9   3  141.18    8.81
   6  -9   3   56.15    4.50
   7  -9   3    3.86    1.46
   8  -9   3    2.40    1.26
   9  -9   3    5.48    1.68
  10  -9   3   57.70    6.07
  11  -9   3    0.43    1.37
  12  -9   3    4.85    2.22
  13  -9   3   11.77    3.23
  14  -9   3   11.35    3.46
  15  -9   3    9.35    4.75
  -7  -8   3    7.43    3.57
  -6  -8   3   -0.34    2.16
  -5  -8   3    2.46    1.88
  -4  -8   3    8.52    2.76
  -3  -8   3   13.11    2.97
  -2  -8   3   26.85    3.84
  -1  -8   3    1.55    2.32
   0  -8   3   -0.68    1.57
   1  -8   3   78.53    5.99
   2  -8   3   65.00    5.35
   3  -8   3  122.42    7.50
   4  -8   3    4.64    1.37
   5  -8   3   32.82    3.18
   6  -8   3   -0.48    0.74
   7  -8   3    6.73    1.73
   8  -8   3   -0.02    0.97
   9  -8   3   96.88    7.47
  10  -8   3   16.90    3.31
  11  -8   3   68.61    6.86
  12  -8   3   17.07    3.59
  13  -8   3    0.33    1.69
  14  -8   3   16.26    3.90
  15  -8   3    1.19    2.75
  -8  -7   3    7.48    4.02
  -7  -7   3   39.65    6.27
  -6  -7   3   39.26    4.96
  -5  -7   3   15.57    3.11
  -4  -7   3    7.65    2.34
  -3  -7   3    7.85    2.36
  -2  -7   3    1.22    1.48
  -1  -7   3    4.92    2.38
   0  -7   3    9.95    2.05
   1  -7   3  129.81    6.54
   2  -7   3   38.08    3.77
   3  -7   3  120.35    4.93
   4  -7   3   42.04    3.34
   5  -7   3   40.99    3.51
   6  -7   3  174.92    6.51
   7  -7   3    7.11    1.86
   8  -7   3   78.46    6.26
   9  -7   3    5.80    1.90
  10  -7   3   18.84    3.47
  11  -7   3   13.13    3.11
  12  -7   3    0.65    1.50
  13  -7   3    3.27    2.19
  14  -7   3   39.04    5.61
  15  -7   3    9.81    3.51
  -9  -6   3   16.09    7.49
  -8  -6   3    8.03    3.55
  -7  -6   3    1.09    2.06
  -6  -6   3    6.76    2.16
  -5  -6   3    5.20    2.10
  -4  -6   3   14.92    2.85
  -3  -6   3   53.03    5.01
  -2  -6   3   -0.36    1.06
  -1  -6   3  182.12   10.78
   0  -6   3   48.39    4.02
   1  -6   3   51.71    4.08
   2  -6   3   19.35    2.00
   3  -6   3   50.65    2.67
   4  -6   3   80.92    3.21
   5  -6   3   39.39    3.04
   6  -6   3   44.61    3.44
   7  -6   3  115.17    4.96
   8  -6   3   68.03    4.84
   9  -6   3    7.00    1.71
  10  -6   3    5.28    1.64
  11  -6   3   36.00    4.04
  12  -6   3    8.66    2.33
  13  -6   3   40.15    4.73
  14  -6   3    0.96    1.84
  15  -6   3    0.55    4.25
  -9  -5   3   15.17    4.52
  -8  -5   3   -0.37    2.10
  -7  -5   3   -1.59    1.58
  -6  -5   3   29.06    3.95
  -5  -5   3    0.48    1.29
  -4  -5   3  139.57    7.42
  -3  -5   3   24.26    3.16
  -2  -5   3   45.73    4.16
  -1  -5   3   30.25    3.02
   0  -5   3  118.94    5.49
   1  -5   3   15.82    1.50
   2  -5   3  153.84    4.94
   3  -5   3    3.33    0.78
   4  -5   3  156.71    5.16
   5  -5   3  127.43    3.97
   6  -5   3   54.94    3.59
   7  -5   3   44.59    3.79
   8  -5   3  103.63    5.09
   9  -5   3   12.16    2.31
  10  -5   3    1.88    1.28
  11  -5   3    4.41    1.70
  12  -5   3   16.12    2.88
  13  -5   3   -0.10    1.44
  14  -5   3    3.68    2.23
  15  -5   3    5.86    5.07
 -10  -4   3    6.33    3.39
  -9  -4   3    9.93    3.40
  -8  -4   3    7.94    3.11
  -7  -4   3   10.72    3.05
  -6  -4   3    3.98    1.69
  -5  -4   3    5.91    1.90
  -4  -4   3    4.84    1.60
  -3  -4   3   42.65    3.96
  -2  -4   3   81.64    4.50
  -1  -4   3  162.91    4.25
   0  -4   3  109.25    3.41
   1  -4   3  157.77    4.79
   2  -4   3    3.25    0.89
   3  -4   3   49.79    2.72
   4  -4   3  111.63    3.54
   5  -4   3   19.82    1.69
   6  -4   3   16.33    2.20
   7  -4   3  118.71    5.20
   8  -4   3    4.15    1.31
   9  -4   3  150.94    6.44
  10  -4   3   19.64    2.97
  11  -4   3   13.69    2.72
  12  -4   3   13.71    2.76
  13  -4   3    1.48    1.80
  14  -4   3   25.03    5.37
 -11  -3   3    5.55    3.62
 -10  -3   3   40.95    6.55
  -9  -3   3    1.26    2.14
  -8  -3   3   61.11    7.18
  -7  -3   3   13.61    3.38
  -6  -3   3    6.01    1.77
  -5  -3   3  126.95    6.20
  -4  -3   3  116.28    5.66
  -3  -3   3   40.86    3.62
  -2  -3   3    3.76    0.88
  -1  -3   3   51.15    2.82
   0  -3   3  236.08    6.61
   1  -3   3   80.46    4.02
   2  -3   3  153.63    4.89
   3  -3   3  228.05    6.51
   4  -3   3  165.94    5.19
   5  -3   3  163.17    3.94
   6  -3   3   40.71    2.78
   7  -3   3   44.42    4.95
   8  -3   3   24.75    3.75
   9  -3   3   67.70    5.18
  10  -3   3    5.85    1.77
  11  -3   3   16.35    2.89
  12  -3   3    3.29    1.73
  13  -3   3    9.45    2.77
  14  -3   3    0.15    2.27
 -12  -2   3   12.97    6.93
 -11  -2   3   27.33    5.69
 -10  -2   3   13.12    2.96
  -9  -2   3    2.26    2.23
  -8  -2   3   14.94    3.53
  -7  -2   3    5.64    2.09
  -6  -2   3   66.14    4.92
  -5  -2   3   40.92    3.72
  -4  -2   3   21.53    2.60
  -3  -2   3  153.24    5.64
  -2  -2   3    2.37    0.66
  -1  -2   3  161.52    4.20
   0  -2   3  198.10    7.20
   2  -2   3  202.18    7.60
   3  -2   3   67.86    3.25
   4  -2   3    2.88    0.63
   5  -2   3    3.07    0.98
   6  -2   3   84.21    3.93
   7  -2   3   35.06    3.17
   8  -2   3    0.78    0.93
   9  -2   3    5.99    2.09
  10  -2   3   39.75    5.43
  11  -2   3   37.30    4.43
  12  -2   3    1.28    1.57
  13  -2   3   13.73    4.14
  14  -2   3   10.50    4.98
 -13  -1   3   -0.22    5.95
 -12  -1   3    5.55    3.47
 -11  -1   3    2.71    2.70
 -10  -1   3    5.96    2.25
  -9  -1   3   55.85    5.19
  -8  -1   3  100.69    6.79
  -7  -1   3   88.17    7.44
  -6  -1   3  123.22    5.10
  -5  -1   3   62.68    4.17
  -4  -1   3   16.97    2.00
  -3  -1   3  156.11    3.80
  -2  -1   3   76.11    3.27
  -1  -1   3   10.92    1.36
   0  -1   3   28.08    2.54
   1  -1   3   29.69    3.56
   2  -1   3   11.47    1.47
   3  -1   3  162.49    4.98
   4  -1   3   50.79    2.27
   5  -1   3  156.16    5.53
   6  -1   3   36.05    3.07
   7  -1   3  186.04    6.57
   8  -1   3    3.71    1.41
   9  -1   3    5.21    2.30
  10  -1   3   39.39    5.51
  11  -1   3   16.29    4.02
  12  -1   3   25.30    4.97
  13  -1   3   13.77    4.15
 -13   0   3    0.62    3.17
 -12   0   3    9.76    3.74
 -11   0   3   11.48    3.87
 -10   0   3   27.65    3.71
  -9   0   3    4.11    1.64
  -8   0   3    0.33    1.06
  -7   0   3   12.93    2.20
  -6   0   3   36.22    3.33
  -5   0   3  120.57    3.90
  -4   0   3  106.49    3.48
  -3   0   3  233.70    5.54
  -2   0   3  198.08    4.69
  -1   0   3   27.71    2.02
   0   0   3    0.42    0.54
   1   0   3   27.08    1.97
   2   0   3  200.70    6.04
   3   0   3  231.10    6.59
   4   0   3  107.84    3.30
   5   0   3  119.64    4.88
   6   0   3   45.10    3.73
   7   0   3    9.64    1.92
   8   0   3    0.24    0.98
   9   0   3    4.16    1.54
  10   0   3   32.77    5.13
  11   0   3   18.31    4.15
  12   0   3    8.62    2.99
  13   0   3   -0.71    4.65
 -13   1   3   10.78    4.04
 -12   1   3   24.35    5.31
 -11   1   3   14.46    3.50
 -10   1   3   36.32    4.27
  -9   1   3    4.65    1.82
  -8   1   3    4.71    1.51
  -7   1   3  168.85    6.71
  -6   1   3   32.93    3.18
  -5   1   3  160.80    4.26
  -4   1   3   46.09    3.23
  -3   1   3  162.30    5.06
  -2   1   3   13.27    1.46
  -1   1   3   27.79    1.74
   0   1   3   27.58    2.11
   1   1   3   12.98    1.27
   2   1   3   76.06    3.57
   3   1   3  157.00    5.16
   4   1   3   16.21    1.55
   5   1   3   66.54    4.47
   6   1   3  127.04    5.41
   7   1   3   71.44    5.08
   8   1   3  103.92    5.59
   9   1   3   53.82    4.98
  10   1   3    6.99    2.19
  11   1   3    1.52    2.07
  12   1   3   10.53    6.40
 -14   2   3   11.05    4.27
 -13   2   3   15.68    4.76
 -12   2   3   -0.42    2.00
 -11   2   3   40.67    4.57
 -10   2   3   38.72    4.38
  -9   2   3    5.14    1.71
  -8   2   3   -0.94    0.73
  -7   2   3   43.06    3.78
  -6   2   3   74.48    4.66
  -5   2   3    2.03    0.76
  -4   2   3    3.28    0.98
  -3   2   3   69.57    3.19
  -2   2   3  203.61    4.72
  -1   2   3   12.67    0.99
   0   2   3  195.26    5.65
   1   2   3  159.25    4.18
   2   2   3    2.67    0.96
   3   2   3  156.92    5.30
   4   2   3   18.41    1.78
   5   2   3   41.94    3.72
   6   2   3   80.94    5.42
   7   2   3   11.20    2.15
   8   2   3   20.26    2.83
   9   2   3    2.14    1.56
  10   2   3   14.85    2.96
  11   2   3   27.51    9.55
 -14   3   3    1.06    2.74
 -13   3   3   14.00    4.43
 -12   3   3    3.79    2.56
 -11   3   3   15.10    2.75
 -10   3   3   12.19    2.50
  -9   3   3   61.66    4.99
  -8   3   3   29.91    3.33
  -7   3   3   43.81    3.92
  -6   3   3   43.96    3.60
  -5   3   3  153.10    5.53
  -4   3   3  160.08    5.31
  -3   3   3  230.26    5.62
  -2   3   3  165.48    5.65
  -1   3   3   73.70    3.76
   0   3   3  236.98    5.95
   1   3   3   52.03    1.92
   2   3   3    2.73    0.96
   3   3   3   42.27    3.31
   4   3   3  124.52    4.96
   5   3   3  105.96    5.26
   6   3   3    7.64    1.92
   7   3   3   19.02    2.94
   8   3   3   75.37    5.96
   9   3   3    1.80    2.15
  10   3   3   35.28    6.08
  11   3   3   -0.68    4.20
 -14   4   3   26.63    5.94
 -13   4   3    1.80    2.55
 -12   4   3   10.57    3.41
 -11   4   3   10.94    2.58
 -10   4   3   20.24    3.09
  -9   4   3  136.31    6.74
  -8   4   3    4.13    1.40
  -7   4   3  131.69    5.66
  -6   4   3   15.39    2.07
  -5   4   3   14.44    1.99
  -4   4   3  112.87    3.70
  -3   4   3   50.05    2.16
  -2   4   3    4.61    1.22
  -1   4   3  159.06    5.35
   0   4   3  107.58    3.54
   1   4   3  169.23    6.27
   2   4   3   80.32    4.34
   3   4   3   42.59    3.63
   4   4   3    2.19    0.91
   5   4   3   11.81    2.18
   6   4   3    6.97    1.91
   7   4   3   11.75    2.31
   8   4   3   10.09    3.38
   9   4   3   12.75    3.82
  10   4   3    3.83    2.94
  11   4   3    3.62    3.86
 -15   5   3   10.21    5.36
 -14   5   3    1.98    2.77
 -13   5   3    0.44    2.17
 -12   5   3   16.28    3.64
 -11   5   3    1.77    1.44
 -10   5   3   -0.29    1.16
  -9   5   3    6.58    1.96
  -8   5   3  109.83    6.57
  -7   5   3   40.85    3.76
  -6   5   3   58.28    3.62
  -5   5   3  131.89    4.90
  -4   5   3  163.73    4.70
  -3   5   3    3.83    1.23
  -2   5   3  159.72    5.67
  -1   5   3   17.07    1.80
   0   5   3  115.81    3.91
   1   5   3   32.43    3.27
   2   5   3   42.01    3.84
   3   5   3   30.44    3.24
   4   5   3  142.46    5.08
   5   5   3    0.69    1.14
   6   5   3   39.55    4.51
   7   5   3    0.26    1.58
   8   5   3   -0.25    1.94
   9   5   3   15.16    4.74
  10   5   3    7.02    3.88
 -15   6   3    1.91    2.80
 -14   6   3    3.17    2.66
 -13   6   3   30.97    5.57
 -12   6   3    7.99    2.39
 -11   6   3   40.23    4.63
 -10   6   3    4.83    1.79
  -9   6   3    4.47    1.64
  -8   6   3   73.61    4.66
  -7   6   3  116.13    4.98
  -6   6   3   41.97    3.11
  -5   6   3   30.36    3.32
  -4   6   3   81.57    5.26
  -3   6   3   41.63    3.56
  -2   6   3   12.58    1.94
  -1   6   3   58.34    3.24
   0   6   3   48.11    4.23
   1   6   3  181.14    7.11
   2   6   3   -0.05    0.93
   3   6   3   63.37    5.03
   4   6   3   25.68    3.29
   5   6   3    0.66    1.63
   6   6   3    8.21    3.12
   7   6   3    2.91    2.27
   8   6   3    6.41    3.33
   9   6   3   10.48    3.46
 -15   7   3    3.29    4.57
 -14   7   3   57.18   11.36
 -13   7   3    4.45    2.68
 -12   7   3    0.24    1.55
 -11   7   3   14.01    2.73
 -10   7   3   15.02    2.72
  -9   7   3    6.86    1.93
  -8   7   3   85.43    6.10
  -7   7   3   11.46    2.27
  -6   7   3  174.57    7.03
  -5   7   3   34.21    3.63
  -4   7   3   54.41    4.34
  -3   7   3  122.00    5.64
  -2   7   3   44.46    3.36
  -1   7   3  125.35    5.90
   0   7   3    9.34    2.13
   1   7   3    4.50    1.60
   2   7   3    2.03    1.37
   3   7   3    9.76    2.21
   4   7   3   16.24    3.79
   5   7   3   22.59    4.69
   6   7   3   33.68    5.86
   7   7   3   53.93    7.90
   8   7   3    5.28    3.49
 -15   8   3   -0.65    2.63
 -14   8   3    7.48    4.90
 -13   8   3   -2.85    2.21
 -12   8   3   10.73    3.30
 -11   8   3   79.38    7.98
 -10   8   3   23.85    4.41
  -9   8   3  107.31    8.79
  -8   8   3    0.13    1.02
  -7   8   3    5.09    1.67
  -6   8   3    0.30    0.97
  -5   8   3   21.97    2.90
  -4   8   3    3.41    1.33
  -3   8   3  117.47    4.88
  -2   8   3   79.91    4.31
  -1   8   3   76.20    5.77
   0   8   3   -0.50    0.96
   1   8   3    3.20    1.40
   2   8   3   42.26    4.50
   3   8   3   18.76    3.07
   4   8   3   12.85    3.67
   5   8   3   -0.92    1.90
   6   8   3    1.31    2.83
   7   8   3    7.49    4.92
 -14   9   3   15.38    6.21
 -13   9   3    2.23    3.30
 -12   9   3    0.92    1.83
 -11   9   3    2.64    2.01
 -10   9   3   41.85    5.94
  -9   9   3    6.05    2.34
  -8   9   3    4.96    1.64
  -7   9   3    3.73    1.57
  -6   9   3   55.97    4.86
  -5   9   3  143.12    6.69
  -4   9   3    8.93    1.80
  -3   9   3    4.97    1.38
  -2   9   3    7.97    1.99
  -1   9   3  106.86    7.43
   0   9   3    6.24    1.94
   1   9   3   35.56    5.09
   2   9   3   42.74    5.60
   3   9   3    2.24    2.08
   4   9   3    3.56    3.67
   5   9   3    1.58    3.67
 -14  10   3    6.55    5.19
 -13  10   3   39.25    9.12
 -12  10   3    9.53    3.41
 -11  10   3    4.89    2.48
 -10  10   3   31.62    5.44
  -9  10   3   49.38    6.38
  -8  10   3   27.53    4.73
  -7  10   3    6.74    1.96
  -6  10   3   22.90    3.35
  -5  10   3    2.59    1.36
  -4  10   3    2.57    1.37
  -3  10   3   20.79    3.86
  -2  10   3   18.08    3.72
  -1  10   3   42.61    5.74
   0  10   3   27.82    4.78
   1  10   3   18.03    3.86
   2  10   3    0.99    1.90
   3  10   3   13.41    5.54
   4  10   3   28.65    8.38
 -14  11   3    2.20    4.05
 -13  11   3   28.48    8.08
 -12  11   3   -0.69    1.90
 -11  11   3   17.10    4.32
 -10  11   3   19.54    4.13
  -9  11   3   34.16    5.39
  -8  11   3   20.63    4.15
  -7  11   3    7.59    2.56
  -6  11   3    2.04    1.41
  -5  11   3   31.59    3.88
  -4  11   3    7.20    2.61
  -3  11   3   81.15    8.12
  -2  11   3    1.82    1.94
  -1  11   3    9.50    3.19
   0  11   3   14.95    3.69
   1  11   3   34.28    5.64
   2  11   3    9.56    3.45
   3  11   3    1.94    3.93
 -13  12   3    2.30    3.82
 -12  12   3   11.06    3.55
 -11  12   3   35.99    6.01
 -10  12   3   -0.01    1.82
  -9  12   3    5.17    2.50
  -8  12   3   12.93    3.49
  -7  12   3    9.87    3.18
  -6  12   3    9.08    3.05
  -5  12   3   -0.15    1.53
  -4  12   3    5.53    2.69
  -3  12   3    4.76    2.40
  -2  12   3   14.53    3.96
  -1  12   3    0.10    1.95
   0  12   3   19.98    4.50
   1  12   3   10.47    3.72
 -13  13   3    0.44    2.77
 -12  13   3    8.75    3.43
 -11  13   3   11.17    3.75
 -10  13   3   10.87    3.53
  -9  13   3    2.93    2.30
  -8  13   3   -0.42    1.83
  -7  13   3   37.85    5.75
  -6  13   3    3.43    3.34
  -5  13   3   -0.49    2.99
  -4  13   3   10.47    3.33
  -3  13   3   41.76    6.64
  -2  13   3   27.66    5.38
  -1  13   3    6.06    2.90
   0  13   3    1.63    2.48
   1  13   3    6.22    5.90
 -13  14   3    1.33    4.73
 -12  14   3   14.25    4.31
 -11  14   3    0.02    2.36
 -10  14   3   18.65    4.40
  -9  14   3    3.06    2.46
  -8  14   3    1.24    2.10
  -7  14   3   48.92   10.35
  -6  14   3   10.95    5.29
  -5  14   3   10.52    5.70
  -4  14   3   15.21    6.51
  -3  14   3    2.03    2.73
  -2  14   3    5.36    2.83
 -10  15   3    6.99    4.49
  -9  15   3   -2.74    3.82
  -8  15   3   14.20    6.29
  -7  15   3    6.47    6.38
   7 -15   4   -1.67    4.83
   4 -14   4    4.38    4.33
   5 -14   4    5.07    3.86
   6 -14   4    4.69    2.70
   7 -14   4   14.94    3.86
   8 -14   4   17.21    3.90
   9 -14   4    3.17    3.17
  10 -14   4    0.00    2.80
   1 -13   4    3.54    4.49
   2 -13   4    2.63    3.75
   3 -13   4    8.14    3.95
   4 -13   4    9.14    3.89
   5 -13   4   25.77    4.60
   6 -13   4    3.71    2.38
   7 -13   4   10.18    3.13
   8 -13   4    0.95    2.27
   9 -13   4    7.30    3.32
  10 -13   4    5.59    3.01
  11 -13   4    1.53    2.26
  12 -13   4    4.19    4.49
  -1 -12   4    0.24    2.35
   0 -12   4   -1.40    3.37
   1 -12   4    1.90    3.18
   2 -12   4    2.36    3.31
   3 -12   4    2.79    2.76
   4 -12   4   -0.35    2.49
   5 -12   4    2.77    2.04
   6 -12   4    9.36    2.87
   7 -12   4    4.83    2.72
   8 -12   4    2.28    2.35
   9 -12   4    6.65    2.91
  10 -12   4  109.52   10.44
  11 -12   4    0.36    1.90
  12 -12   4    0.92    1.91
  13 -12   4    2.45    2.91
  -3 -11   4    5.24    6.32
  -2 -11   4    3.62    2.65
  -1 -11   4    1.44    2.28
   0 -11   4    1.61    2.82
   1 -11   4    9.00    4.17
   2 -11   4   22.49    5.57
   3 -11   4   21.81    5.21
   4 -11   4    2.28    1.68
   5 -11   4   35.54    4.69
   6 -11   4   30.87    5.14
   7 -11   4   14.88    3.75
   8 -11   4    6.99    2.87
   9 -11   4    1.65    2.25
  10 -11   4   -1.81    1.08
  11 -11   4   -0.52    1.42
  12 -11   4   -0.58    1.60
  13 -11   4    2.06    1.91
  -4 -10   4    1.10    2.63
  -3 -10   4    5.85    2.51
  -2 -10   4   82.44    7.70
  -1 -10   4    0.83    1.49
   0 -10   4    4.58    2.64
   1 -10   4   10.38    3.65
   2 -10   4   13.39    3.84
   3 -10   4   -0.62    1.24
   4 -10   4    9.49    2.43
   5 -10   4    0.31    1.47
   6 -10   4   73.26    7.56
   7 -10   4   10.66    3.11
   8 -10   4    6.01    1.94
   9 -10   4   12.37    2.66
  10 -10   4    0.98    1.42
  11 -10   4   10.27    2.52
  12 -10   4    0.31    1.78
  13 -10   4    8.34    3.00
  14 -10   4    0.68    2.36
  -5  -9   4    5.30    3.18
  -4  -9   4    7.91    2.89
  -3  -9   4    2.74    2.20
  -2  -9   4    1.94    1.78
  -1  -9   4   13.49    3.98
   0  -9   4    0.66    2.02
   1  -9   4    8.65    3.31
   2  -9   4   45.28    4.87
   3  -9   4   56.08    5.34
   4  -9   4    1.40    1.55
   5  -9   4   26.67    4.34
   6  -9   4    4.86    2.26
   7  -9   4   23.94    3.19
   8  -9   4    6.52    1.94
   9  -9   4    0.45    1.15
  10  -9   4   13.93    3.07
  11  -9   4   17.76    3.84
  12  -9   4    1.31    2.11
  13  -9   4    9.47    3.07
  14  -9   4    4.31    2.90
  -6  -8   4   14.24    4.44
  -5  -8   4    0.09    2.03
  -4  -8   4    1.05    1.80
  -3  -8   4    7.88    2.53
  -2  -8   4    2.71    2.03
  -1  -8   4    8.85    3.43
   0  -8   4   28.06    4.99
   1  -8   4    7.00    2.93
   2  -8   4    1.57    1.40
   3  -8   4    4.90    1.68
   4  -8   4   27.29    4.25
   5  -8   4   27.83    3.11
   6  -8   4   38.35    3.74
   7  -8   4   61.69    4.92
   8  -8   4   30.19    4.17
   9  -8   4   11.27    2.80
  10  -8   4   11.27    2.84
  11  -8   4   31.31    4.95
  12  -8   4    0.69    1.68
  13  -8   4   20.63    4.48
  14  -8   4    2.72    2.32
  -7  -7   4   10.47    3.52
  -6  -7   4    7.40    3.18
  -5  -7   4    3.17    2.62
  -4  -7   4   11.40    2.90
  -3  -7   4    8.53    2.37
  -2  -7   4   15.87    3.04
  -1  -7   4   62.92    7.44
   0  -7   4    3.43    2.21
   1  -7   4   11.42    2.24
   2  -7   4   17.26    2.60
   3  -7   4   16.87    3.17
   4  -7   4   62.40    4.36
   5  -7   4    2.53    1.21
   6  -7   4   82.40    6.31
   7  -7   4    6.42    1.93
   8  -7   4   13.06    2.74
   9  -7   4   36.41    4.71
  10  -7   4    0.73    1.40
  11  -7   4    0.52    1.49
  12  -7   4    2.36    2.08
  13  -7   4    3.37    2.31
  14  -7   4   15.22    4.08
  -8  -6   4    7.68    3.47
  -7  -6   4   10.77    3.64
  -6  -6   4    3.94    2.48
  -5  -6   4   37.71    5.65
  -4  -6   4   74.59    6.44
  -3  -6   4    5.00    1.74
  -2  -6   4   41.35    4.51
  -1  -6   4   76.31    7.61
   0  -6   4   15.40    2.69
   1  -6   4   73.95    4.61
   2  -6   4   20.40    1.89
   3  -6   4   54.22    3.89
   4  -6   4    6.13    1.47
   5  -6   4   16.03    2.22
   6  -6   4   12.29    2.03
   7  -6   4    8.83    1.89
   8  -6   4    2.73    1.30
   9  -6   4   55.38    4.78
  10  -6   4   13.90    2.62
  11  -6   4   29.25    3.79
  12  -6   4    5.42    2.09
  13  -6   4    5.49    2.31
  14  -6   4   14.76    3.33
  -9  -5   4    6.21    3.59
  -8  -5   4   25.09    5.33
  -7  -5   4    7.65    2.96
  -6  -5   4   39.68    5.84
  -5  -5   4    4.64    2.29
  -4  -5   4   30.35    3.98
  -3  -5   4   28.01    3.47
  -2  -5   4    1.21    1.09
  -1  -5   4   14.33    3.30
   0  -5   4   11.99    1.90
   1  -5   4   40.13    2.73
   2  -5   4   62.47    3.54
   3  -5   4   26.29    2.25
   4  -5   4   48.62    3.12
   5  -5   4   18.17    2.32
   6  -5   4   69.02    4.81
   7  -5   4   19.74    2.61
   8  -5   4    4.84    1.54
   9  -5   4   -0.27    1.05
  10  -5   4    1.80    1.29
  11  -5   4   38.36    4.53
  12  -5   4    3.29    1.91
  13  -5   4    0.29    1.70
  14  -5   4    7.70    2.76
 -10  -4   4    0.30    2.20
  -9  -4   4   20.79    5.15
  -8  -4   4    2.03    2.42
  -7  -4   4    0.09    1.86
  -6  -4   4    9.92    2.92
  -5  -4   4   -0.88    1.27
  -4  -4   4   33.89    3.63
  -3  -4   4   65.39    5.09
  -2  -4   4    1.91    1.11
  -1  -4   4   43.32    2.67
   0  -4   4   32.93    3.00
   1  -4   4   35.18    2.49
   2  -4   4  117.10    4.55
   3  -4   4  126.37    4.77
   4  -4   4   33.09    2.63
   5  -4   4   35.97    2.71
   6  -4   4   22.16    2.76
   7  -4   4   16.48    2.48
   8  -4   4   29.00    3.32
   9  -4   4   25.72    3.41
  10  -4   4   75.94    6.13
  11  -4   4   15.78    2.94
  12  -4   4    3.00    1.95
  13  -4   4    8.72    2.75
  14  -4   4   -1.06    1.97
 -11  -3   4    0.86    4.73
 -10  -3   4   11.60    3.12
  -9  -3   4    2.52    1.88
  -8  -3   4   33.20    5.41
  -7  -3   4    2.58    1.85
  -6  -3   4   52.20    6.09
  -5  -3   4    4.11    1.84
  -4  -3   4   14.20    2.38
  -3  -3   4   53.24    4.27
  -2  -3   4   26.86    2.98
  -1  -3   4  123.03    4.01
   0  -3   4   78.58    3.98
   1  -3   4    3.74    1.06
   2  -3   4   48.33    5.44
   3  -3   4   71.80    3.99
   4  -3   4   35.97    2.51
   5  -3   4   71.80    4.67
   6  -3   4   52.79    3.87
   7  -3   4   55.80    5.79
   8  -3   4   23.94    3.88
   9  -3   4    6.05    2.36
  10  -3   4   10.19    2.35
  11  -3   4    9.01    2.34
  12  -3   4    2.54    1.81
  13  -3   4    4.24    2.34
 -11  -2   4    0.79    2.84
 -10  -2   4    4.19    2.08
  -9  -2   4   23.56    3.74
  -8  -2   4   14.67    2.91
  -7  -2   4   38.39    5.09
  -6  -2   4    3.52    1.85
  -5  -2   4   14.49    3.09
  -4  -2   4   25.05    2.84
  -3  -2   4   63.90    4.40
  -2  -2   4  123.02    3.81
  -1  -2   4   34.77    2.95
   0  -2   4   11.77    1.60
   2  -2   4    8.40    1.44
   3  -2   4    6.58    1.10
   4  -2   4  117.37    3.97
   5  -2   4   23.97    2.69
   6  -2   4    3.36    1.20
   7  -2   4    3.14    1.18
   8  -2   4   38.44    4.95
   9  -2   4   14.98    3.45
  10  -2   4    3.79    2.32
  11  -2   4    3.49    2.16
  12  -2   4   85.22    7.02
  13  -2   4    3.20    2.10
 -12  -1   4    6.07    3.61
 -11  -1   4    1.84    2.05
 -10  -1   4   10.40    2.74
  -9  -1   4    5.94    2.01
  -8  -1   4   16.90    2.96
  -7  -1   4   13.53    2.49
  -6  -1   4   12.91    2.24
  -5  -1   4   58.39    5.55
  -4  -1   4   25.09    3.46
  -3  -1   4   34.00    3.00
  -2  -1   4    9.05    1.51
  -1  -1   4   49.57    2.84
   0  -1   4    4.02    0.94
   1  -1   4    4.23    1.01
   2  -1   4   39.91    3.30
   3  -1   4   37.57    3.13
   4  -1   4  119.47    4.14
   5  -1   4   48.41    3.89
   6  -1   4   16.23    2.36
   7  -1   4   76.26    5.29
   8  -1   4   59.43    5.23
   9  -1   4    4.64    2.19
  10  -1   4   15.70    3.72
  11  -1   4   -0.64    1.72
  12  -1   4    1.33    2.32
  13  -1   4    2.90    3.47
 -12   0   4    0.32    2.53
 -11   0   4    3.07    2.01
 -10   0   4    2.90    1.81
  -9   0   4    2.32    1.49
  -8   0   4   39.41    4.21
  -7   0   4    2.31    1.18
  -6   0   4    9.65    1.92
  -5   0   4   11.96    2.02
  -4   0   4   33.40    3.11
  -3   0   4   83.22    3.19
  -2   0   4   11.24    1.35
  -1   0   4    5.60    1.09
   0   0   4  933.92   16.35
   1   0   4    4.39    0.97
   2   0   4   10.20    1.27
   3   0   4   79.84    2.91
   4   0   4   38.13    2.71
   5   0   4    9.54    1.87
   6   0   4    9.90    1.90
   7   0   4    3.62    1.42
   8   0   4   46.03    4.42
   9   0   4    3.87    2.14
  10   0   4    1.38    2.06
  11   0   4    1.98    2.31
  12   0   4    2.33    2.82
  13   0   4   12.43    6.07
 -13   1   4    1.94    3.04
 -12   1   4    1.39    2.45
 -11   1   4   -0.83    1.42
 -10   1   4   11.77    2.76
  -9   1   4    5.84    1.83
  -8   1   4   46.91    4.53
  -7   1   4   72.95    5.31
  -6   1   4   12.27    2.13
  -5   1   4   41.20    3.39
  -4   1   4  117.14    4.80
  -3   1   4   38.66    2.98
  -2   1   4   42.83    2.58
  -1   1   4    4.87    0.86
   0   1   4    6.03    0.96
   1   1   4   38.34    2.36
   2   1   4    7.48    1.07
   3   1   4   35.80    3.29
   4   1   4   27.90    4.10
   5   1   4   67.18    4.95
   6   1   4   16.61    2.60
   7   1   4   13.99    2.51
   8   1   4   13.70    2.54
   9   1   4   12.08    2.57
  10   1   4   11.54    3.52
  11   1   4    2.99    2.41
 -13   2   4    0.48    2.56
 -12   2   4   65.30    8.22
 -11   2   4    0.31    1.58
 -10   2   4    8.81    2.39
  -9   2   4   14.00    2.56
  -8   2   4   35.45    3.87
  -7   2   4    2.40    1.19
  -6   2   4    3.70    1.29
  -5   2   4   27.52    2.86
  -4   2   4  119.80    4.67
  -3   2   4    6.13    1.16
  -2   2   4   11.40    1.28
  -1   2   4   41.92    2.00
   0   2   4   10.81    1.11
   1   2   4   45.80    2.45
   2   2   4  105.76    5.13
   3   2   4   65.42    4.09
   4   2   4   23.42    3.85
   5   2   4    9.94    2.09
   6   2   4    1.47    1.21
   7   2   4   38.64    4.20
   8   2   4   18.36    3.04
   9   2   4   25.80    3.76
  10   2   4    1.94    2.12
  11   2   4    4.21    5.01
 -14   3   4    9.36    5.70
 -13   3   4    4.08    2.93
 -12   3   4    0.76    1.78
 -11   3   4    8.31    2.41
 -10   3   4   10.13    2.57
  -9   3   4    6.71    1.93
  -8   3   4   27.27    3.31
  -7   3   4   59.83    4.71
  -6   3   4   59.69    4.39
  -5   3   4   56.70    4.05
  -4   3   4   32.38    2.67
  -3   3   4   72.90    4.84
  -2   3   4   40.26    3.40
  -1   3   4    3.63    1.15
   0   3   4   82.75    3.85
   1   3   4  123.26    5.65
   2   3   4   31.35    3.35
   3   3   4   53.46    4.21
   4   3   4   13.71    3.22
   5   3   4    3.15    1.34
   6   3   4   53.91    4.96
   7   3   4    1.03    1.35
   8   3   4   29.94    3.84
   9   3   4    1.82    1.70
  10   3   4    7.65    3.34
 -14   4   4   -1.65    2.36
 -13   4   4    5.81    3.06
 -12   4   4    2.82    1.88
 -11   4   4   16.71    3.00
 -10   4   4   70.39    5.84
  -9   4   4   28.53    3.58
  -8   4   4   31.30    3.61
  -7   4   4   18.72    2.63
  -6   4   4   26.74    3.01
  -5   4   4   37.24    3.58
  -4   4   4   32.87    3.37
  -3   4   4  118.08    5.28
  -2   4   4  116.75    5.14
  -1   4   4   42.62    3.43
   0   4   4   30.67    3.51
   1   4   4   45.58    4.14
   2   4   4    5.37    1.59
   3   4   4   67.81    4.94
   4   4   4   22.69    4.11
   5   4   4    0.78    1.18
   6   4   4    9.22    2.30
   7   4   4    1.61    1.55
   8   4   4    1.27    1.57
   9   4   4   10.38    3.75
  10   4   4    2.99    2.65
 -14   5   4    9.53    5.61
 -13   5   4   -1.57    2.90
 -12   5   4    7.79    3.12
 -11   5   4   38.26    5.74
 -10   5   4    1.56    1.69
  -9   5   4    0.29    1.63
  -8   5   4    1.58    1.67
  -7   5   4   16.31    2.69
  -6   5   4   64.23    5.00
  -5   5   4    7.59    1.81
  -4   5   4   43.73    4.06
  -3   5   4   26.05    3.01
  -2   5   4   60.11    4.32
  -1   5   4   29.23    3.66
   0   5   4   10.24    2.22
   1   5   4   18.22    2.90
   2   5   4    3.31    1.38
   3   5   4   35.55    3.82
   4   5   4   29.57    5.22
   5   5   4    1.10    1.37
   6   5   4   41.96    4.72
   7   5   4    4.20    2.67
   8   5   4   23.43    5.19
   9   5   4    3.73    3.04
 -14   6   4   18.05    6.86
 -13   6   4   14.67    6.43
 -12   6   4    5.20    2.69
 -11   6   4   39.30    5.95
 -10   6   4   10.00    2.93
  -9   6   4   63.63    5.58
  -8   6   4    6.58    2.04
  -7   6   4    7.79    2.03
  -6   6   4   10.95    2.18
  -5   6   4   18.60    2.78
  -4   6   4    3.20    1.43
  -3   6   4   55.72    4.42
  -2   6   4   20.63    2.60
  -1   6   4   74.70    5.73
   0   6   4   11.26    2.37
   1   6   4   66.79    5.37
   2   6   4   40.54    4.29
   3   6   4    5.16    1.75
   4   6   4   77.73    8.41
   5   6   4   30.89    3.92
   6   6   4    9.43    3.33
   7   6   4    5.29    3.15
   8   6   4    7.50    3.66
 -14   7   4   16.41    6.24
 -13   7   4    3.42    4.53
 -12   7   4    2.13    2.58
 -11   7   4    4.10    2.23
 -10   7   4    0.77    1.50
  -9   7   4   50.20    5.00
  -8   7   4   14.30    2.67
  -7   7   4    5.08    1.72
  -6   7   4   71.04    5.59
  -5   7   4    1.72    1.16
  -4   7   4   62.56    5.08
  -3   7   4   18.84    2.66
  -2   7   4   14.73    2.75
  -1   7   4   12.07    2.60
   0   7   4    3.61    1.70
   1   7   4   64.13    5.58
   2   7   4   15.34    2.89
   3   7   4   14.56    4.09
   4   7   4   16.66    4.27
   5   7   4    9.61    3.97
   6   7   4   10.87    4.02
   7   7   4   12.16    4.47
 -14   8   4    4.42    3.96
 -13   8   4   21.00    4.81
 -12   8   4    2.53    2.22
 -11   8   4   33.54    5.49
 -10   8   4    7.31    2.93
  -9   8   4   13.78    2.67
  -8   8   4   34.64    4.13
  -7   8   4   48.31    4.68
  -6   8   4   41.19    4.39
  -5   8   4   26.83    3.28
  -4   8   4   29.90    3.45
  -3   8   4    4.02    1.80
  -2   8   4    1.56    1.37
  -1   8   4   14.70    2.85
   0   8   4   33.43    4.19
   1   8   4    8.60    2.41
   2   8   4    8.88    2.45
   3   8   4   11.41    3.79
   4   8   4    3.14    2.83
   5   8   4    2.40    2.79
   6   8   4    8.85    3.92
   7   8   4    0.90    6.89
 -14   9   4    4.10    3.97
 -13   9   4   11.47    3.73
 -12   9   4    1.02    2.34
 -11   9   4   21.78    4.70
 -10   9   4    4.88    2.56
  -9   9   4   -1.05    1.30
  -8   9   4    6.82    1.98
  -7   9   4   19.58    3.05
  -6   9   4    9.19    2.20
  -5   9   4   30.02    3.73
  -4   9   4    2.01    1.52
  -3   9   4   57.51    5.51
  -2   9   4   45.38    5.01
  -1   9   4   11.18    2.81
   0   9   4    2.01    1.64
   1   9   4   14.63    3.04
   2   9   4    3.28    1.97
   3   9   4   -1.07    3.18
   4   9   4   10.10    5.08
   5   9   4    5.04    4.57
 -13  10   4    9.68    3.81
 -12  10   4    5.84    3.01
 -11  10   4   12.01    3.47
 -10  10   4    5.93    2.51
  -9  10   4   13.69    3.50
  -8  10   4    5.95    1.93
  -7  10   4    7.17    2.15
  -6  10   4   69.55    5.74
  -5  10   4    1.27    1.68
  -4  10   4    3.66    2.08
  -3  10   4   -1.02    1.61
  -2  10   4   13.91    3.51
  -1  10   4    7.56    2.93
   0  10   4    5.08    2.45
   1  10   4    0.92    2.00
   2  10   4   85.54   13.61
   3  10   4    5.59    4.89
 -13  11   4    3.84    2.90
 -12  11   4    4.19    2.52
 -11  11   4    2.60    2.45
 -10  11   4    1.67    2.04
  -9  11   4   -0.65    1.75
  -8  11   4   12.88    3.50
  -7  11   4   16.84    3.12
  -6  11   4   32.29    5.26
  -5  11   4   33.45    5.33
  -4  11   4    1.64    1.93
  -3  11   4   29.24    5.08
  -2  11   4   30.89    5.45
  -1  11   4    4.26    2.17
   0  11   4    2.39    2.53
   1  11   4    4.78    3.08
   2  11   4   12.26    6.11
 -13  12   4    1.83    2.79
 -12  12   4    3.31    2.76
 -11  12   4    3.07    2.49
 -10  12   4   84.71    8.82
  -9  12   4    1.86    2.41
  -8  12   4    0.67    1.78
  -7  12   4    6.48    4.25
  -6  12   4    3.47    2.35
  -5  12   4    0.46    1.92
  -4  12   4    0.59    1.88
  -3  12   4    3.70    2.43
  -2  12   4    1.67    2.46
  -1  12   4    1.51    2.63
   0  12   4    0.60    2.45
   1  12   4    0.52    4.00
 -12  13   4    1.34    2.58
 -11  13   4    0.93    2.22
 -10  13   4    4.12    2.59
  -9  13   4    5.71    3.11
  -8  13   4   -1.03    2.95
  -7  13   4    5.18    4.43
  -6  13   4    5.85    3.98
  -5  13   4   26.47    5.31
  -4  13   4   23.63    5.27
  -3  13   4    5.11    3.15
  -2  13   4    3.58    2.83
  -1  13   4    4.51    3.08
 -11  14   4    4.41    3.88
 -10  14   4   -0.04    2.27
  -9  14   4    4.98    4.68
  -8  14   4   12.83    5.90
  -7  14   4   27.20    8.04
  -6  14   4    3.77    4.57
  -5  14   4   -0.40    3.23
  -4  14   4    3.86    3.04
  -3  14   4    1.46    3.91
   8 -14   5    0.99    6.60
   3 -13   5    2.18    6.67
   4 -13   5   15.35    5.48
   5 -13   5    1.75    3.22
   6 -13   5   -1.71    2.58
   7 -13   5   -0.03    2.12
   8 -13   5   -0.92    2.56
   9 -13   5    3.85    3.13
  10 -13   5    1.10    2.76
   0 -12   5   16.06    8.22
   1 -12   5    2.72    3.75
   2 -12   5    5.48    3.86
   3 -12   5    3.74    3.35
   4 -12   5    7.08    3.67
   5 -12   5    7.59    3.97
   6 -12   5    2.78    2.03
   7 -12   5   29.44    5.64
   8 -12   5   32.08    5.88
   9 -12   5   -1.51    1.98
  10 -12   5    0.97    2.29
  11 -12   5   -1.58    2.41
  -2 -11   5   -4.39    5.09
  -1 -11   5    4.37    2.59
   0 -11   5   14.00    3.60
   1 -11   5    8.26    3.44
   2 -11   5    2.82    3.08
   3 -11   5    3.90    3.11
   4 -11   5    2.11    2.59
   5 -11   5   23.59    4.03
   6 -11   5    5.53    2.60
   7 -11   5    7.73    3.13
   8 -11   5   23.49    4.93
   9 -11   5    2.00    2.44
  10 -11   5    7.93    3.35
  11 -11   5   16.89    3.58
  12 -11   5    1.13    1.86
  -3 -10   5   -3.41    4.37
  -2 -10   5    0.44    2.37
  -1 -10   5    2.60    2.45
   0 -10   5   43.38    7.20
   1 -10   5   54.21    8.30
   2 -10   5    2.71    2.86
   3 -10   5   15.76    3.82
   4 -10   5    5.00    1.89
   5 -10   5   -0.13    1.30
   6 -10   5   19.24    4.10
   7 -10   5    0.45    1.78
   8 -10   5   23.50    4.60
   9 -10   5   -0.05    1.38
  10 -10   5   45.21    5.14
  11 -10   5    6.74    2.32
  12 -10   5    4.43    2.12
  13 -10   5    2.67    3.44
  -4  -9   5    3.10    2.80
  -3  -9   5    2.69    2.27
  -2  -9   5   -0.20    1.82
  -1  -9   5    3.39    2.13
   0  -9   5    5.71    2.96
   1  -9   5    5.32    3.18
   2  -9   5    6.11    3.06
   3  -9   5   -0.16    1.31
   4  -9   5   48.35    5.06
   5  -9   5    3.75    2.20
   6  -9   5   15.29    3.46
   7  -9   5    7.20    2.79
   8  -9   5   12.05    2.53
   9  -9   5    1.51    1.42
  10  -9   5   44.14    5.66
  11  -9   5    0.36    1.84
  12  -9   5    1.56    2.12
  13  -9   5   12.74    3.80
  -5  -8   5    0.72    2.51
  -4  -8   5   29.22    5.45
  -3  -8   5   32.83    5.62
  -2  -8   5   13.22    3.07
  -1  -8   5   11.25    2.66
   0  -8   5    1.33    2.07
   1  -8   5   11.96    3.83
   2  -8   5   65.28    7.73
   3  -8   5   68.70    5.76
   4  -8   5   42.60    5.24
   5  -8   5    5.53    2.21
   6  -8   5   38.05    3.89
   7  -8   5    0.17    1.07
   8  -8   5    1.82    1.59
   9  -8   5    6.01    2.22
  10  -8   5    2.90    2.00
  11  -8   5   12.08    3.27
  12  -8   5    4.19    2.40
  13  -8   5   -0.35    1.89
  -6  -7   5    1.20    2.39
  -5  -7   5   21.52    4.75
  -4  -7   5    9.25    3.26
  -3  -7   5    0.25    1.80
  -2  -7   5    7.27    2.40
  -1  -7   5    1.45    1.32
   0  -7   5   10.47    3.30
   1  -7   5    4.21    2.14
   2  -7   5   47.08    4.50
   3  -7   5   19.55    3.04
   4  -7   5   19.40    3.48
   5  -7   5   12.52    2.13
   6  -7   5  166.83    6.93
   7  -7   5    7.57    2.02
   8  -7   5   16.64    3.30
   9  -7   5   14.10    3.22
  10  -7   5   24.96    4.45
  11  -7   5    2.29    2.06
  12  -7   5    2.02    2.10
  13  -7   5    1.56    2.17
  -7  -6   5    5.08    3.14
  -6  -6   5    2.85    2.52
  -5  -6   5    6.97    3.24
  -4  -6   5    8.51    2.88
  -3  -6   5   10.63    3.02
  -2  -6   5   29.35    3.71
  -1  -6   5  158.58    7.66
   0  -6   5    0.12    1.65
   1  -6   5   34.78    3.69
   2  -6   5    3.90    1.44
   3  -6   5   18.94    2.47
   4  -6   5    4.43    1.41
   5  -6   5    1.85    1.28
   6  -6   5    1.23    1.31
   7  -6   5   11.02    2.78
   8  -6   5   73.64    7.01
   9  -6   5    1.79    1.40
  10  -6   5    4.64    2.46
  11  -6   5   19.79    3.96
  12  -6   5    5.24    2.54
  13  -6   5    2.46    2.16
  -8  -5   5   -0.07    2.14
  -7  -5   5    6.42    2.93
  -6  -5   5   18.09    4.38
  -5  -5   5    0.15    1.73
  -4  -5   5    4.31    2.09
  -3  -5   5    1.67    1.72
  -2  -5   5   11.64    2.28
  -1  -5   5    1.90    1.31
   0  -5   5   42.96    5.33
   1  -5   5    4.25    1.44
   2  -5   5   84.63    3.95
   3  -5   5    6.57    1.40
   4  -5   5  119.86    5.22
   5  -5   5   41.89    3.76
   6  -5   5   29.76    3.36
   7  -5   5   43.30    4.27
   8  -5   5   68.24    5.61
   9  -5   5   41.41    4.53
  10  -5   5   -1.45    1.28
  11  -5   5    4.03    2.00
  12  -5   5   26.08    4.24
  13  -5   5   -0.08    1.77
  -9  -4   5   12.95    3.30
  -8  -4   5    6.42    2.99
  -7  -4   5    5.29    2.67
  -6  -4   5    2.40    2.05
  -5  -4   5   43.87    6.07
  -4  -4   5   37.45    5.15
  -3  -4   5   18.92    3.52
  -2  -4   5    6.79    1.68
  -1  -4   5  131.02    6.53
   0  -4   5    2.16    0.91
   1  -4   5  105.49    4.18
   2  -4   5    8.97    1.68
   3  -4   5    9.60    1.60
   4  -4   5    2.32    1.05
   5  -4   5    3.65    1.74
   6  -4   5    5.37    1.95
   7  -4   5   14.16    3.16
   8  -4   5   53.51    4.88
   9  -4   5    2.70    1.49
  10  -4   5   10.58    2.60
  11  -4   5   11.60    2.77
  12  -4   5   34.34    4.66
  13  -4   5    1.23    1.89
 -10  -3   5    0.45    2.04
  -9  -3   5    3.19    2.15
  -8  -3   5   11.74    2.83
  -7  -3   5   20.14    3.99
  -6  -3   5    0.67    1.82
  -5  -3   5   71.00    6.99
  -4  -3   5   13.16    2.88
  -3  -3   5   18.97    3.21
  -2  -3   5    4.70    1.54
  -1  -3   5    6.41    1.55
   0  -3   5   99.87    3.95
   1  -3   5   59.10    4.11
   2  -3   5   96.73    7.13
   3  -3   5   85.08    3.87
   4  -3   5  106.77    4.39
   5  -3   5   82.24    5.03
   6  -3   5   20.20    3.66
   7  -3   5   12.45    2.98
   8  -3   5    1.03    1.42
   9  -3   5   11.65    3.33
  10  -3   5    0.34    1.85
  11  -3   5   20.75    3.64
  12  -3   5    1.17    1.99
  13  -3   5    0.53    2.66
 -11  -2   5   14.89    6.28
 -10  -2   5    5.36    2.54
  -9  -2   5    0.25    1.72
  -8  -2   5    8.66    2.38
  -7  -2   5   14.45    2.48
  -6  -2   5   66.39    5.53
  -5  -2   5   39.67    5.03
  -4  -2   5   10.64    2.51
  -3  -2   5   76.33    6.41
  -2  -2   5    7.07    1.58
  -1  -2   5   93.40    4.60
   0  -2   5   24.89    2.18
   1  -2   5   17.06    2.07
   2  -2   5   22.00    2.17
   3  -2   5   57.82    4.41
   4  -2   5    7.51    1.68
   5  -2   5    5.50    1.64
   6  -2   5    4.49    1.54
   7  -2   5   10.97    2.83
   8  -2   5   27.60    4.74
   9  -2   5    6.11    2.66
  10  -2   5   14.18    3.77
  11  -2   5    0.39    1.84
  12  -2   5    3.38    2.13
  13  -2   5   -1.59    3.70
 -11  -1   5    0.83    2.02
 -10  -1   5   11.27    2.90
  -9  -1   5   39.61    4.72
  -8  -1   5    6.85    1.96
  -7  -1   5   12.68    2.49
  -6  -1   5    3.84    1.52
  -5  -1   5   25.96    3.11
  -4  -1   5    3.11    1.19
  -3  -1   5  111.02    5.33
  -2  -1   5   51.74    3.85
  -1  -1   5   17.10    1.81
   0  -1   5   38.51    3.04
   1  -1   5   38.03    3.08
   2  -1   5   18.28    2.00
   3  -1   5   90.71    5.00
   4  -1   5    7.32    1.89
   5  -1   5  105.21    5.95
   6  -1   5    1.31    1.17
   7  -1   5  156.45    6.91
   8  -1   5    2.89    1.97
   9  -1   5   14.45    3.68
  10  -1   5    1.56    2.17
  11  -1   5    4.65    2.63
  12  -1   5    1.73    2.52
 -12   0   5    5.68    5.18
 -11   0   5   12.98    2.66
 -10   0   5   44.43    5.14
  -9   0   5    3.01    1.83
  -8   0   5    0.85    1.32
  -7   0   5   10.17    2.26
  -6   0   5    1.23    1.16
  -5   0   5   37.96    3.77
  -4   0   5    1.00    0.85
  -3   0   5   91.42    4.76
  -2   0   5   23.22    2.48
  -1   0   5   41.37    3.08
   0   0   5   -0.17    0.60
   1   0   5   43.03    3.26
   2   0   5   23.02    2.92
   3   0   5   93.68    5.57
   4   0   5    2.50    1.65
   5   0   5   48.19    4.51
   6   0   5    1.73    1.19
   7   0   5   12.45    2.49
   8   0   5    0.15    1.43
   9   0   5    1.75    2.01
  10   0   5   44.45    6.49
  11   0   5   16.36    4.36
  12   0   5    4.06    3.67
 -12   1   5    1.60    2.21
 -11   1   5    5.68    2.44
 -10   1   5    3.24    1.90
  -9   1   5   14.66    2.83
  -8   1   5    0.81    1.26
  -7   1   5  159.09    7.37
  -6   1   5    1.07    1.07
  -5   1   5  115.86    5.79
  -4   1   5    9.55    1.83
  -3   1   5   92.65    4.45
  -2   1   5   20.79    2.25
  -1   1   5   43.24    3.46
   0   1   5   44.06    3.41
   1   1   5   18.54    2.72
   2   1   5   56.42    4.74
   3   1   5  118.98    6.44
   4   1   5    6.37    2.46
   5   1   5   31.47    3.75
   6   1   5    2.92    1.46
   7   1   5   15.89    2.89
   8   1   5    4.36    1.69
   9   1   5   25.40    4.91
  10   1   5   10.21    3.67
  11   1   5    4.33    2.74
 -12   2   5    5.67    2.61
 -11   2   5    1.50    1.74
 -10   2   5   18.28    3.23
  -9   2   5    8.17    2.28
  -8   2   5   37.74    4.16
  -7   2   5   12.30    2.36
  -6   2   5    4.66    1.58
  -5   2   5    3.00    1.67
  -4   2   5    4.73    1.78
  -3   2   5   56.17    4.39
  -2   2   5   19.96    2.55
  -1   2   5   21.31    2.60
   0   2   5   21.71    2.48
   1   2   5   92.43    6.49
   2   2   5    5.77    1.65
   3   2   5   76.51    6.38
   4   2   5    5.88    2.22
   5   2   5   45.61    4.66
   6   2   5   60.19    5.35
   7   2   5   10.95    2.43
   8   2   5    6.02    2.12
   9   2   5    2.03    2.12
  10   2   5    3.89    2.65
  11   2   5    9.63    5.33
 -12   3   5   -1.15    2.07
 -11   3   5   27.12    5.19
 -10   3   5    1.18    2.02
  -9   3   5    7.87    2.57
  -8   3   5    8.00    2.64
  -7   3   5   20.20    3.80
  -6   3   5   18.85    3.41
  -5   3   5   67.23    6.33
  -4   3   5  113.82    6.90
  -3   3   5   95.90    6.00
  -2   3   5   87.96    5.08
  -1   3   5   58.80    4.37
   0   3   5   88.74    6.68
   1   3   5   10.38    2.33
   2   3   5    5.34    1.76
   3   3   5   14.12    3.59
   4   3   5   11.74    3.25
   5   3   5   73.86    6.17
   6   3   5    1.50    1.40
   7   3   5   26.37    3.90
   8   3   5    9.31    2.62
   9   3   5    2.14    2.07
 -13   4   5   17.07    6.36
 -12   4   5   43.51    6.70
 -11   4   5   14.40    3.96
 -10   4   5   11.35    3.60
  -9   4   5    5.25    2.45
  -8   4   5   48.56    6.17
  -7   4   5   16.97    3.57
  -6   4   5    5.84    1.71
  -5   4   5    2.14    1.31
  -4   4   5    5.87    1.67
  -3   4   5    6.40    1.68
  -2   4   5    6.57    1.72
  -1   4   5   92.70    7.79
   0   4   5    4.19    1.68
   1   4   5  115.93    6.87
   2   4   5    2.83    1.46
   3   4   5   19.33    4.21
   4   4   5   35.07    5.66
   5   4   5   44.18    5.11
   6   4   5    2.47    1.67
   7   4   5    5.01    2.15
   8   4   5    7.28    2.48
   9   4   5   17.81    4.99
 -13   5   5    0.77    2.38
 -12   5   5   22.66    4.94
 -11   5   5    5.45    2.56
 -10   5   5    2.02    1.82
  -9   5   5   48.12    6.47
  -8   5   5   64.13    5.83
  -7   5   5   35.89    4.08
  -6   5   5   24.17    3.32
  -5   5   5   40.25    4.09
  -4   5   5  109.59    6.27
  -3   5   5    6.58    1.78
  -2   5   5   62.61    6.72
  -1   5   5    2.53    1.52
   0   5   5   37.31    4.40
   1   5   5    1.97    1.50
   2   5   5   12.08    2.64
   3   5   5    3.89    2.32
   4   5   5    2.37    2.01
   5   5   5    0.53    1.47
   6   5   5   22.28    3.80
   7   5   5    0.88    1.91
   8   5   5    1.41    2.85
 -13   6   5   -0.88    2.26
 -12   6   5    4.17    2.89
 -11   6   5   19.16    3.55
 -10   6   5    3.24    1.86
  -9   6   5   -0.10    1.51
  -8   6   5   73.91    6.13
  -7   6   5    3.91    1.63
  -6   6   5   -0.43    1.11
  -5   6   5    2.30    1.40
  -4   6   5    5.61    1.64
  -3   6   5   15.42    3.48
  -2   6   5   10.65    2.87
  -1   6   5   23.64    3.67
   0   6   5    1.58    1.36
   1   6   5  149.41    7.92
   2   6   5   39.43    4.55
   3   6   5    8.49    3.40
   4   6   5   14.27    4.21
   5   6   5    6.33    2.42
   6   6   5    6.60    3.40
   7   6   5   -0.29    2.67
 -13   7   5    5.67    3.14
 -12   7   5    2.12    2.30
 -11   7   5    6.25    2.51
 -10   7   5   19.08    3.49
  -9   7   5   13.71    3.03
  -8   7   5    9.48    2.20
  -7   7   5   13.31    2.62
  -6   7   5  151.01    7.55
  -5   7   5   16.26    2.81
  -4   7   5   21.45    4.10
  -3   7   5   16.57    3.73
  -2   7   5   49.85    5.40
  -1   7   5    3.39    1.81
   0   7   5   11.84    2.56
   1   7   5   -1.13    1.20
   2   7   5    9.94    3.37
   3   7   5    0.66    1.96
   4   7   5   13.61    3.21
   5   7   5   27.16    5.93
   6   7   5    2.13    3.02
 -13   8   5    1.22    2.42
 -12   8   5    4.39    2.68
 -11   8   5   16.31    4.28
 -10   8   5    5.18    1.80
  -9   8   5    7.95    2.44
  -8   8   5    1.16    1.56
  -7   8   5    1.12    1.35
  -6   8   5   28.36    3.79
  -5   8   5    2.37    2.01
  -4   8   5   42.80    5.92
  -3   8   5   83.79    7.24
  -2   8   5   81.07    7.04
  -1   8   5   14.82    3.03
   0   8   5    4.43    2.01
   1   8   5   13.54    2.94
   2   8   5   12.75    4.30
   3   8   5   23.84    5.16
   4   8   5   41.89    7.22
   5   8   5   -0.93    3.30
   6   8   5    1.13    5.89
 -13   9   5   10.75    3.87
 -12   9   5    2.77    2.51
 -11   9   5    6.50    2.62
 -10   9   5   32.39    5.66
  -9   9   5    3.64    1.87
  -8   9   5   17.77    3.19
  -7   9   5    7.20    2.26
  -6   9   5    6.82    2.55
  -5   9   5    4.56    2.37
  -4   9   5   52.36    5.66
  -3   9   5    0.98    1.55
  -2   9   5   13.68    3.24
  -1   9   5    4.64    2.20
   0   9   5    1.52    1.78
   1   9   5    3.06    2.13
   2   9   5   -1.38    2.57
   3   9   5    1.25    2.69
   4   9   5    7.71    5.23
 -13  10   5    1.57    2.76
 -12  10   5    1.24    2.45
 -11  10   5   13.17    3.61
 -10  10   5   46.57    6.64
  -9  10   5    5.13    2.53
  -8  10   5   18.26    3.20
  -7  10   5   -0.84    1.53
  -6  10   5    8.89    3.11
  -5  10   5   -1.17    1.51
  -4  10   5    7.04    2.50
  -3  10   5   14.86    3.55
  -2  10   5    5.54    2.53
  -1  10   5   35.74    6.05
   0  10   5   40.29    6.34
   1  10   5    0.12    3.29
   2  10   5    7.22    4.95
 -13  11   5   10.01    6.36
 -12  11   5   -0.43    2.34
 -11  11   5   17.86    4.38
 -10  11   5    5.87    2.89
  -9  11   5    1.14    2.09
  -8  11   5   40.00    9.11
  -7  11   5    9.49    3.36
  -6  11   5    5.21    2.68
  -5  11   5   20.05    4.37
  -4  11   5    3.96    2.49
  -3  11   5   11.23    3.63
  -2  11   5    6.19    3.06
  -1  11   5    7.31    3.36
   0  11   5    9.54    3.55
   1  11   5    1.22    3.69
 -12  12   5    2.71    3.97
 -11  12   5    4.21    2.84
 -10  12   5    1.21    2.12
  -9  12   5    0.34    3.27
  -8  12   5   25.21    7.54
  -7  12   5   32.81    8.23
  -6  12   5    5.91    3.00
  -5  12   5    1.93    2.54
  -4  12   5    9.15    3.59
  -3  12   5    3.45    2.66
  -2  12   5    9.20    3.69
  -1  12   5    2.32    3.03
 -11  13   5    4.02    3.80
  -9  13   5    7.74    4.72
  -8  13   5   -0.41    3.10
  -7  13   5    1.17    3.62
  -6  13   5    7.76    5.19
  -5  13   5   -1.41    2.14
  -4  13   5   26.31    5.63
  -3  13   5   -0.23    2.57
   2 -12   6    4.98    8.75
   3 -12   6    2.83    5.77
   4 -12   6    4.87    4.00
   5 -12   6    8.97    4.59
   6 -12   6   15.27    5.09
   7 -12   6    2.39    2.22
   8 -12   6    3.12    2.92
   9 -12   6    2.72    3.42
   0 -11   6   -6.72    5.35
   1 -11   6    5.40    2.67
   2 -11   6    2.37    3.29
   3 -11   6   -1.35    2.70
   4 -11   6   35.08    7.04
   5 -11   6    6.08    3.54
   6 -11   6    1.18    2.01
   7 -11   6   11.42    3.80
   8 -11   6    2.49    2.50
   9 -11   6    2.45    2.59
  10 -11   6   -0.62    2.25
  -1 -10   6    0.13    2.22
   0 -10   6    3.61    2.40
   1 -10   6   -0.94    1.87
   2 -10   6   15.04    4.77
   3 -10   6    4.54    3.19
   4 -10   6    3.09    2.68
   5 -10   6    8.77    2.64
   6 -10   6   35.18    5.75
   7 -10   6    3.37    2.62
   8 -10   6   30.05    5.43
   9 -10   6    1.51    2.11
  10 -10   6    6.73    3.16
  11 -10   6    4.89    2.52
  12 -10   6    6.82    5.04
  -2  -9   6    0.49    2.31
  -1  -9   6    2.05    2.35
   0  -9   6    6.97    2.71
   1  -9   6    5.29    3.20
   2  -9   6   -0.90    2.22
   3  -9   6    7.20    3.21
   4  -9   6    1.77    2.08
   5  -9   6    4.11    1.84
   6  -9   6    9.12    2.94
   7  -9   6   -1.25    1.52
   8  -9   6   18.69    4.04
   9  -9   6   10.26    2.55
  10  -9   6   -0.52    1.47
  11  -9   6    3.76    2.58
  12  -9   6    0.11    3.03
  -4  -8   6    8.15    3.26
  -3  -8   6    4.40    2.74
  -2  -8   6   33.61    5.58
  -1  -8   6   28.48    4.99
   0  -8   6   15.63    3.25
   1  -8   6   11.25    3.85
   2  -8   6   11.79    3.66
   3  -8   6    1.25    1.87
   4  -8   6    0.70    1.51
   5  -8   6    4.51    2.33
   6  -8   6   -1.59    1.51
   7  -8   6   23.15    3.34
   8  -8   6   20.31    3.43
   9  -8   6    7.96    2.80
  10  -8   6    5.12    2.61
  11  -8   6    0.18    2.15
  12  -8   6    4.10    2.62
  -5  -7   6    0.55    2.49
  -4  -7   6    9.07    3.35
  -3  -7   6    1.25    1.77
  -2  -7   6    1.36    1.68
  -1  -7   6   23.60    4.48
   0  -7   6    2.87    1.64
   1  -7   6    5.20    2.30
   2  -7   6   16.47    3.77
   3  -7   6    2.32    1.39
   4  -7   6   49.17    5.92
   5  -7   6    1.23    1.80
   6  -7   6    3.37    1.54
   7  -7   6    2.58    1.77
   8  -7   6   13.32    3.04
   9  -7   6   -0.19    1.41
  10  -7   6    5.42    2.64
  11  -7   6   32.86    5.28
  12  -7   6   10.23    3.39
  -6  -6   6    5.88    2.94
  -5  -6   6    0.19    2.02
  -4  -6   6   30.69    5.35
  -3  -6   6    6.30    2.63
  -2  -6   6    0.68    1.58
  -1  -6   6    1.51    1.57
   0  -6   6    0.68    1.13
   1  -6   6   38.20    4.28
   2  -6   6    6.75    2.18
   3  -6   6   57.42    4.98
   4  -6   6   17.53    2.66
   5  -6   6   33.51    3.75
   6  -6   6    0.90    1.35
   7  -6   6    7.31    2.53
   8  -6   6   11.65    3.03
   9  -6   6   17.08    3.79
  10  -6   6    0.21    1.87
  11  -6   6    4.34    2.55
  12  -6   6   10.56    3.46
  -7  -5   6    6.31    2.48
  -6  -5   6    1.70    2.34
  -5  -5   6    6.39    2.85
  -4  -5   6    3.19    1.93
  -3  -5   6    2.80    1.82
  -2  -5   6    2.88    1.80
  -1  -5   6   39.69    5.22
   0  -5   6   27.30    3.50
   1  -5   6   37.70    3.95
   2  -5   6   19.10    2.32
   3  -5   6   30.29    2.71
   4  -5   6   18.87    2.73
   5  -5   6   23.19    3.16
   6  -5   6   47.81    4.60
   7  -5   6   21.69    3.31
   8  -5   6    3.62    1.67
   9  -5   6    3.67    1.82
  10  -5   6   15.30    3.14
  11  -5   6    0.37    1.55
  12  -5   6    0.03    2.00
  -8  -4   6    7.28    2.73
  -7  -4   6   44.30    5.20
  -6  -4   6    0.21    1.60
  -5  -4   6    2.29    2.08
  -4  -4   6    5.47    2.44
  -3  -4   6   45.54    5.65
  -2  -4   6   22.22    3.90
  -1  -4   6   22.47    3.69
   0  -4   6    0.90    1.04
   1  -4   6    5.65    1.11
   2  -4   6    2.89    0.86
   3  -4   6    2.44    0.97
   4  -4   6    1.54    1.14
   5  -4   6   27.00    4.17
   6  -4   6    6.08    2.30
   7  -4   6    2.17    1.68
   8  -4   6    2.21    1.45
   9  -4   6    3.06    1.80
  10  -4   6   22.66    3.72
  11  -4   6   10.44    2.85
  12  -4   6    9.68    2.96
  -9  -3   6    0.62    2.41
  -8  -3   6    0.77    1.60
  -7  -3   6    3.63    1.78
  -6  -3   6   15.02    2.87
  -5  -3   6    4.98    2.02
  -4  -3   6    1.86    1.39
  -3  -3   6   51.09    4.62
  -2  -3   6   27.82    3.28
  -1  -3   6    0.62    0.95
   0  -3   6    8.00    1.51
   1  -3   6    1.40    0.87
   2  -3   6   89.77    4.25
   3  -3   6    6.13    1.24
   4  -3   6    5.32    1.67
   5  -3   6   16.31    3.52
   6  -3   6   44.03    5.66
   7  -3   6   47.24    6.18
   8  -3   6    4.08    2.32
   9  -3   6    6.57    2.64
  10  -3   6    0.33    2.22
  11  -3   6    0.60    1.51
  12  -3   6    1.04    2.92
 -10  -2   6    0.47    3.87
  -9  -2   6    2.23    2.08
  -8  -2   6    5.63    2.27
  -7  -2   6    0.58    1.52
  -6  -2   6    9.41    2.32
  -5  -2   6   17.38    2.90
  -4  -2   6    4.20    1.56
  -3  -2   6   13.71    2.40
  -2  -2   6    5.47    1.55
  -1  -2   6   78.87    5.15
   0  -2   6   52.60    3.53
   1  -2   6   36.04    2.96
   2  -2   6   46.34    3.54
   3  -2   6    1.39    1.28
   4  -2   6    4.45    1.67
   5  -2   6   21.96    3.10
   6  -2   6   20.60    4.07
   7  -2   6    1.24    1.53
   8  -2   6    0.45    1.39
   9  -2   6   -0.37    1.81
  10  -2   6   23.14    5.03
  11  -2   6   -0.38    2.43
 -10  -1   6    9.66    2.89
  -9  -1   6    0.18    1.69
  -8  -1   6    7.06    2.24
  -7  -1   6    7.61    2.29
  -6  -1   6    6.18    1.79
  -5  -1   6   40.53    4.18
  -4  -1   6   37.00    3.80
  -3  -1   6    6.95    1.65
  -2  -1   6    0.79    0.90
  -1  -1   6   35.88    3.50
   0  -1   6   26.95    3.02
   1  -1   6   30.87    3.11
   2  -1   6   33.58    3.76
   3  -1   6   74.59    7.71
   4  -1   6    0.90    1.20
   5  -1   6   21.22    3.27
   6  -1   6   46.77    4.82
   7  -1   6    0.90    1.64
   8  -1   6   26.49    4.85
   9  -1   6   22.71    4.91
  10  -1   6    2.53    2.71
  11  -1   6    1.60    2.60
 -11   0   6   -1.61    3.31
 -10   0   6    7.57    3.37
  -9   0   6    3.60    2.57
  -8   0   6   30.01    5.03
  -7   0   6    2.51    1.78
  -6   0   6    2.35    1.75
  -5   0   6   23.00    3.79
  -4   0   6    2.48    1.57
  -3   0   6   12.66    2.81
  -2   0   6   52.20    5.03
  -1   0   6   29.14    3.25
   0   0   6   11.69    1.99
   1   0   6   24.81    3.44
   2   0   6   46.62    4.62
   3   0   6    5.57    2.47
   4   0   6    1.20    1.71
   5   0   6   26.16    3.68
   6   0   6    0.47    1.28
   7   0   6    1.68    2.07
   8   0   6   25.24    4.63
   9   0   6    4.28    2.53
  10   0   6    5.52    3.17
 -11   1   6    1.44    2.83
 -10   1   6    2.19    2.52
  -9   1   6   24.44    4.96
  -8   1   6   16.71    3.86
  -7   1   6    0.78    1.58
  -6   1   6   43.07    5.39
  -5   1   6   26.05    4.08
  -4   1   6    2.42    1.41
  -3   1   6   81.03    6.63
  -2   1   6   28.78    3.04
  -1   1   6   38.50    3.62
   0   1   6   24.08    4.00
   1   1   6   32.67    3.69
   2   1   6    0.68    1.17
   3   1   6    7.47    2.82
   4   1   6   39.46    5.91
   5   1   6   53.49    5.47
   6   1   6    4.15    1.94
   7   1   6    7.86    2.48
   8   1   6    8.20    3.12
   9   1   6    0.16    2.19
  10   1   6    6.21    3.33
 -12   2   6    2.16    4.88
 -11   2   6   -1.40    2.47
 -10   2   6   33.23    5.65
  -9   2   6   -0.07    2.01
  -8   2   6   -2.04    1.31
  -7   2   6    2.85    1.80
  -6   2   6   13.23    3.10
  -5   2   6   23.76    3.95
  -4   2   6    6.76    1.79
  -3   2   6    1.35    1.10
  -2   2   6   50.27    4.43
  -1   2   6   30.18    4.53
   0   2   6   50.49    6.03
   1   2   6   84.93    6.62
   2   2   6    5.53    1.89
   3   2   6   11.35    3.43
   4   2   6    3.22    2.22
   5   2   6   15.66    3.06
   6   2   6    9.49    2.64
   7   2   6    0.89    1.63
   8   2   6   10.33    3.52
   9   2   6    0.53    2.43
 -12   3   6    1.09    3.80
 -11   3   6    0.77    2.46
 -10   3   6   -0.28    2.09
  -9   3   6    5.32    2.71
  -8   3   6    1.33    2.13
  -7   3   6   48.92    6.22
  -6   3   6   64.53    6.79
  -5   3   6   20.21    3.21
  -4   3   6    9.65    2.22
  -3   3   6    6.10    1.82
  -2   3   6   75.32    7.55
  -1   3   6    0.66    1.32
   0   3   6    8.46    2.34
   1   3   6    4.15    1.77
   2   3   6   25.50    5.31
   3   3   6   57.25    7.68
   4   3   6    3.73    2.63
   5   3   6    2.75    1.74
   6   3   6   15.56    3.23
   7   3   6    2.36    2.15
   8   3   6    2.44    2.08
   9   3   6    3.26    3.60
 -12   4   6    8.03    3.88
 -11   4   6    8.07    3.48
 -10   4   6   28.31    5.32
  -9   4   6    8.15    2.93
  -8   4   6    4.32    2.44
  -7   4   6    1.25    1.36
  -6   4   6    5.43    1.99
  -5   4   6   31.87    4.03
  -4   4   6    0.79    1.14
  -3   4   6   -0.73    1.35
  -2   4   6    6.48    2.36
  -1   4   6    3.45    1.92
   0   4   6    1.68    1.60
   1   4   6   18.64    3.45
   2   4   6   14.51    4.12
   3   4   6   70.02    8.46
   4   4   6    0.16    1.84
   5   4   6    5.21    2.16
   6   4   6    1.60    1.77
   7   4   6   50.38    5.86
   8   4   6    5.35    2.68
 -12   5   6   -0.27    2.52
 -11   5   6    0.18    2.22
 -10   5   6    9.32    2.62
  -9   5   6    2.85    1.83
  -8   5   6    4.06    1.99
  -7   5   6   23.57    3.58
  -6   5   6   45.05    4.75
  -5   5   6   31.94    3.95
  -4   5   6   25.77    3.82
  -3   5   6   26.09    4.31
  -2   5   6   17.90    3.87
  -1   5   6   32.84    4.43
   0   5   6   28.16    4.04
   1   5   6   46.46    5.15
   2   5   6    0.09    1.96
   3   5   6    2.83    2.69
   4   5   6    4.21    2.87
   5   5   6   10.42    3.02
   6   5   6    1.13    1.97
   7   5   6   10.24    3.19
 -12   6   6    6.97    2.85
 -11   6   6    4.20    2.21
 -10   6   6    2.79    2.04
  -9   6   6   16.13    3.28
  -8   6   6   13.30    3.04
  -7   6   6   13.59    2.98
  -6   6   6    0.54    1.39
  -5   6   6   43.49    4.56
  -4   6   6   19.78    4.31
  -3   6   6   49.99    6.53
  -2   6   6    4.29    1.99
  -1   6   6   50.06    5.62
   0   6   6    0.82    1.51
   1   6   6    1.88    1.68
   2   6   6    0.53    2.02
   3   6   6    8.88    3.61
   4   6   6   28.19    6.09
   5   6   6    2.45    2.06
   6   6   6   18.35    4.08
 -12   7   6   11.04    4.09
 -11   7   6   35.60    4.87
 -10   7   6    3.86    2.15
  -9   7   6    0.90    1.67
  -8   7   6    4.74    2.08
  -7   7   6    1.77    1.43
  -6   7   6    3.98    1.78
  -5   7   6    1.12    1.89
  -4   7   6   54.60    6.89
  -3   7   6    1.97    2.09
  -2   7   6   16.29    3.41
  -1   7   6    9.40    2.75
   0   7   6    3.19    2.06
   1   7   6   28.61    5.94
   2   7   6   -0.55    1.85
   3   7   6    0.69    3.05
   4   7   6   12.92    3.21
   5   7   6    3.46    3.52
 -12   8   6    1.82    2.82
 -11   8   6    1.99    2.49
 -10   8   6    7.46    2.59
  -9   8   6    6.17    2.29
  -8   8   6   24.02    3.78
  -7   8   6   29.66    4.12
  -6   8   6    0.54    1.87
  -5   8   6    3.72    2.31
  -4   8   6    4.85    2.53
  -3   8   6    2.81    1.90
  -2   8   6   11.10    2.94
  -1   8   6   15.52    3.54
   0   8   6   28.54    4.45
   1   8   6   24.75    5.62
   2   8   6   36.95    7.07
   3   8   6    0.47    2.96
   4   8   6   12.71    5.00
 -12   9   6    1.69    2.56
 -11   9   6    3.23    2.77
 -10   9   6    2.35    1.68
  -9   9   6    6.11    2.33
  -8   9   6   25.05    4.33
  -7   9   6    0.43    2.16
  -6   9   6    5.47    2.60
  -5   9   6    3.23    2.23
  -4   9   6    3.50    2.15
  -3   9   6   22.62    3.98
  -2   9   6   -0.45    1.83
  -1   9   6    2.02    2.09
   0   9   6    6.44    2.51
   1   9   6    4.33    3.29
   2   9   6   -0.28    2.88
   3   9   6    1.96    6.23
 -11  10   6    7.42    3.29
 -10  10   6   10.99    3.62
  -9  10   6    1.66    2.63
  -8  10   6   41.87    6.59
  -7  10   6    0.94    2.08
  -6  10   6   21.89    4.77
  -5  10   6    9.33    3.01
  -4  10   6    3.64    2.12
  -3  10   6    6.38    2.57
  -2  10   6    3.21    2.10
  -1  10   6    2.50    2.49
   0  10   6    6.64    5.20
   1  10   6   -0.24    3.74
 -11  11   6    0.78    3.55
 -10  11   6    1.63    3.66
  -9  11   6    4.13    3.74
  -8  11   6   -0.78    2.23
  -7  11   6    6.24    3.04
  -6  11   6    1.01    2.30
  -5  11   6    0.54    2.05
  -4  11   6   48.41    7.09
  -3  11   6    2.89    2.57
  -2  11   6    4.19    3.06
  -1  11   6   11.11    4.04
  -8  12   6   13.05    5.89
  -7  12   6    0.50    2.53
  -6  12   6    8.33    3.47
  -5  12   6    9.67    3.77
  -4  12   6    4.70    2.84
  -3  12   6    2.01    2.97
  -2  12   6    3.65    4.70
  -6  13   6   -0.48    3.80
   3 -11   7   -3.87    5.59
   4 -11   7   -2.19    4.76
   5 -11   7   -0.69    3.61
   6 -11   7   -1.48    3.42
   8 -11   7    1.30    3.44
   1 -10   7    3.99    4.64
   2 -10   7    4.33    2.43
   3 -10   7    3.86    3.49
   4 -10   7   12.78    4.43
   5 -10   7    0.49    2.79
   6 -10   7    0.27    2.66
   7 -10   7    0.30    2.53
   8 -10   7    9.93    3.91
   9 -10   7    3.32    3.98
  -1  -9   7    0.35    4.13
   0  -9   7    0.26    2.39
   1  -9   7    6.07    2.86
   2  -9   7    2.14    1.76
   3  -9   7   -0.59    2.26
   4  -9   7    7.10    3.52
   5  -9   7   19.97    4.55
   6  -9   7   15.97    4.28
   7  -9   7    6.21    3.02
   8  -9   7    2.22    2.71
   9  -9   7   -0.03    2.48
  10  -9   7    3.96    3.73
  -2  -8   7   13.92    4.27
  -1  -8   7    1.92    2.52
   0  -8   7    2.39    2.42
   1  -8   7   16.91    3.98
   2  -8   7    3.97    1.98
   3  -8   7    1.56    2.09
   4  -8   7   -0.76    1.99
   5  -8   7    0.96    1.70
   6  -8   7   11.05    3.31
   7  -8   7   -0.14    2.06
   8  -8   7    5.07    2.18
   9  -8   7   12.56    3.70
  10  -8   7    4.17    2.86
  -4  -7   7    0.88    3.40
  -3  -7   7   -0.02    2.24
  -2  -7   7    1.84    2.06
  -1  -7   7    1.24    2.01
   0  -7   7   -0.39    1.42
   1  -7   7    7.08    2.64
   2  -7   7    0.94    1.57
   3  -7   7   11.21    3.22
   4  -7   7   -0.43    1.33
   5  -7   7    1.41    2.02
   6  -7   7    6.48    2.73
   7  -7   7    1.46    1.75
   8  -7   7   19.16    4.00
   9  -7   7    1.24    1.75
  10  -7   7   -0.63    2.25
  -5  -6   7    2.71    4.61
  -4  -6   7   -0.62    2.22
  -3  -6   7   20.90    4.47
  -2  -6   7   12.57    3.52
  -1  -6   7    5.74    2.56
   0  -6   7   15.91    3.65
   1  -6   7   -0.62    1.37
   2  -6   7    7.20    1.99
   3  -6   7    5.58    1.89
   4  -6   7    5.93    1.77
   5  -6   7    0.98    1.38
   6  -6   7    9.66    2.84
   7  -6   7    9.65    2.93
   8  -6   7    2.24    2.16
   9  -6   7    2.49    2.22
  10  -6   7   12.15    3.49
  -6  -5   7    2.37    4.60
  -5  -5   7   -0.31    1.73
  -4  -5   7   31.36    4.50
  -3  -5   7   -0.67    1.67
  -2  -5   7    6.98    2.62
  -1  -5   7    0.88    1.71
   0  -5   7    9.82    2.81
   1  -5   7    2.93    1.56
   2  -5   7   51.41    3.76
   3  -5   7    2.84    1.24
   4  -5   7   12.47    2.45
   5  -5   7   11.99    2.96
   6  -5   7    1.61    1.57
   7  -5   7    2.07    1.74
   8  -5   7    1.35    1.93
   9  -5   7    9.79    3.08
  10  -5   7   -0.92    2.08
  -7  -4   7    2.72    3.32
  -6  -4   7    8.75    2.63
  -5  -4   7    5.01    2.20
  -4  -4   7   -0.05    1.43
  -3  -4   7    0.79    1.42
  -2  -4   7    6.39    2.01
  -1  -4   7   13.77    2.54
   0  -4   7   10.84    2.24
   1  -4   7   21.09    2.56
   2  -4   7    0.57    0.71
   3  -4   7    0.95    1.02
   4  -4   7    8.33    2.29
   5  -4   7    0.20    1.33
   6  -4   7    7.44    2.25
   7  -4   7   11.29    2.82
   8  -4   7   -0.53    1.48
   9  -4   7   23.87    3.97
  10  -4   7    0.13    1.86
  11  -4   7    1.97    5.10
  -7  -3   7   -0.08    2.17
  -6  -3   7   -0.16    1.68
  -5  -3   7    3.59    1.97
  -4  -3   7   11.66    3.14
  -3  -3   7    9.15    2.80
  -2  -3   7    3.80    1.92
  -1  -3   7    1.18    1.39
   0  -3   7   11.78    2.69
   1  -3   7    2.93    1.38
   2  -3   7    6.82    1.52
   3  -3   7   19.14    3.11
   4  -3   7   23.42    4.46
   5  -3   7   46.68    5.91
   6  -3   7   10.21    3.33
   7  -3   7   -0.30    1.69
   8  -3   7    0.04    1.89
   9  -3   7   19.99    4.42
  10  -3   7   -0.52    1.81
  -8  -2   7   11.59    3.97
  -7  -2   7    0.10    2.02
  -6  -2   7    2.70    2.07
  -5  -2   7    1.43    1.77
  -4  -2   7   14.38    3.39
  -3  -2   7   59.05    6.44
  -2  -2   7    2.38    1.68
  -1  -2   7    6.26    2.07
   0  -2   7   26.66    3.30
   1  -2   7    0.79    1.21
   2  -2   7   24.41    3.59
   3  -2   7    2.29    1.71
   4  -2   7    0.12    1.25
   5  -2   7    0.98    1.89
   6  -2   7    5.86    2.55
   7  -2   7    4.85    2.55
   8  -2   7    7.24    2.99
   9  -2   7    7.06    3.20
  10  -2   7    9.41    3.58
  -8  -1   7    9.84    3.44
  -7  -1   7   19.14    4.27
  -6  -1   7    9.96    2.91
  -5  -1   7   -0.75    1.28
  -4  -1   7   -0.25    1.23
  -3  -1   7   21.84    3.93
  -2  -1   7    3.59    1.64
  -1  -1   7   -0.34    0.97
   0  -1   7   20.74    3.77
   1  -1   7   16.25    3.11
   2  -1   7    1.41    2.20
   3  -1   7    6.48    2.97
   4  -1   7    1.82    1.49
   5  -1   7    8.58    2.35
   6  -1   7    1.62    1.99
   7  -1   7    5.71    2.76
   8  -1   7    1.16    2.19
   9  -1   7    5.71    3.24
  -9   0   7   -0.48    2.36
  -8   0   7    1.58    2.33
  -7   0   7   -0.68    1.61
  -6   0   7   11.05    3.17
  -5   0   7    8.70    2.83
  -4   0   7    6.22    2.20
  -3   0   7   13.26    3.07
  -2   0   7   25.90    3.42
  -1   0   7   10.95    2.78
   0   0   7   -0.42    1.40
   1   0   7   16.95    3.04
   2   0   7   14.03    4.03
   3   0   7   23.21    5.12
   4   0   7    6.86    2.14
   5   0   7    8.45    2.50
   6   0   7    6.49    2.62
   7   0   7   -0.59    1.83
   8   0   7    4.35    2.61
   9   0   7    1.38    2.47
  -9   1   7    7.52    3.29
  -8   1   7    0.84    1.97
  -7   1   7   11.10    3.42
  -6   1   7    0.30    1.55
  -5   1   7    3.16    1.96
  -4   1   7    1.55    1.27
  -3   1   7    8.98    2.22
  -2   1   7   -0.31    1.23
  -1   1   7   11.43    3.16
   0   1   7   20.66    3.99
   1   1   7    0.13    1.27
   2   1   7    0.83    1.96
   3   1   7   15.98    4.46
   4   1   7    0.67    2.10
   5   1   7    0.43    1.52
   6   1   7    7.83    2.54
   7   1   7   14.15    4.06
   8   1   7    3.91    2.94
 -10   2   7    7.73    3.52
  -9   2   7    5.82    3.10
  -8   2   7    7.39    3.08
  -7   2   7    2.59    2.21
  -6   2   7    6.21    2.65
  -5   2   7    1.96    1.52
  -4   2   7   -0.51    1.04
  -3   2   7    4.15    1.68
  -2   2   7   17.35    3.92
  -1   2   7    0.46    1.69
   0   2   7   22.65    3.72
   1   2   7    6.97    2.16
   2   2   7    1.32    2.07
   3   2   7   45.97    7.54
   4   2   7   10.20    3.95
   5   2   7    2.05    1.82
   6   2   7    2.59    2.01
   7   2   7   -0.23    2.30
   8   2   7    6.94    3.54
 -10   3   7    0.27    2.43
  -9   3   7   15.88    4.23
  -8   3   7    0.62    2.01
  -7   3   7    0.69    1.51
  -6   3   7    3.74    1.74
  -5   3   7   47.40    5.21
  -4   3   7   14.12    2.73
  -3   3   7   17.34    4.06
  -2   3   7    5.00    2.20
  -1   3   7    1.26    1.68
   0   3   7   17.59    3.59
   1   3   7    0.45    1.59
   2   3   7    4.91    2.83
   3   3   7    6.54    3.23
   4   3   7   12.88    4.33
   5   3   7    2.47    2.12
   6   3   7    1.34    2.17
   7   3   7    1.77    2.12
 -10   4   7   -1.17    1.85
  -9   4   7   28.87    4.78
  -8   4   7   -1.08    1.42
  -7   4   7   13.40    3.04
  -6   4   7    8.16    2.41
  -5   4   7   -0.32    1.20
  -4   4   7    6.58    2.62
  -3   4   7    1.43    1.69
  -2   4   7    0.15    1.69
  -1   4   7   17.90    3.59
   0   4   7    8.48    2.71
   1   4   7    7.55    3.17
   2   4   7    5.70    3.39
   3   4   7    0.17    2.22
   4   4   7    0.56    2.40
   5   4   7    8.72    2.95
   6   4   7    7.29    2.80
   7   4   7   -1.08    2.47
 -11   5   7   -0.43    2.19
 -10   5   7    1.38    2.04
  -9   5   7    6.59    2.53
  -8   5   7    2.06    1.92
  -7   5   7    2.21    1.64
  -6   5   7    1.43    1.70
  -5   5   7    9.56    3.24
  -4   5   7    7.90    2.97
  -3   5   7    0.10    1.87
  -2   5   7   48.39    5.70
  -1   5   7    2.27    1.96
   0   5   7   12.57    3.05
   1   5   7   -0.22    1.78
   2   5   7    1.24    2.56
   3   5   7    2.48    2.90
   4   5   7   30.60    6.61
   5   5   7   -0.48    1.93
   6   5   7    6.87    3.49
 -11   6   7    9.81    3.65
 -10   6   7   13.36    3.37
  -9   6   7    0.74    1.74
  -8   6   7    0.80    1.87
  -7   6   7    7.83    2.73
  -6   6   7   20.52    4.82
  -5   6   7   -0.53    1.75
  -4   6   7    7.40    2.89
  -3   6   7    9.75    3.41
  -2   6   7    6.60    2.12
  -1   6   7   -1.21    1.44
   0   6   7   14.89    3.43
   1   6   7    5.81    3.48
   2   6   7   11.88    4.70
   3   6   7   15.78    5.28
   4   6   7    0.24    2.30
   5   6   7   -0.55    2.65
 -11   7   7   -0.51    2.40
 -10   7   7    1.81    2.20
  -9   7   7    1.16    1.94
  -8   7   7   20.86    3.73
  -7   7   7   -1.94    1.94
  -6   7   7    8.73    3.46
  -5   7   7    2.55    2.07
  -4   7   7    2.60    2.43
  -3   7   7   14.01    3.44
  -2   7   7    2.13    2.01
  -1   7   7   12.05    3.22
   0   7   7    0.72    2.38
   1   7   7   -0.26    2.75
   2   7   7    2.11    3.25
   3   7   7    1.27    3.07
   4   7   7    9.13    4.68
 -11   8   7    7.03    3.62
 -10   8   7    4.04    2.32
  -9   8   7   11.24    3.88
  -8   8   7    2.68    2.63
  -7   8   7   -0.72    2.16
  -6   8   7    6.60    2.99
  -5   8   7    2.65    2.59
  -4   8   7   -0.66    1.61
  -3   8   7    2.55    2.08
  -2   8   7    2.48    2.20
  -1   8   7   21.37    4.40
   0   8   7    3.30    3.23
   1   8   7    1.37    2.89
   2   8   7   10.27    4.75
 -10   9   7    0.45    3.61
  -9   9   7    0.98    2.49
  -8   9   7    3.48    2.73
  -7   9   7    6.04    2.97
  -6   9   7   15.19    4.33
  -5   9   7   29.56    4.95
  -4   9   7    9.67    3.24
  -3   9   7    1.61    2.15
  -2   9   7    0.82    2.12
  -1   9   7   11.70    3.43
   0   9   7    3.74    3.13
   1   9   7   -2.27    5.94
  -9  10   7    3.28    4.02
  -8  10   7   11.16    3.81
  -7  10   7    0.45    2.40
  -6  10   7   -0.14    1.88
  -5  10   7    1.09    1.97
  -4  10   7   10.27    3.39
  -3  10   7    0.92    2.38
  -2  10   7    7.36    3.02
  -1  10   7   10.51    7.92
  -8  11   7   -0.33    3.61
  -7  11   7    1.35    3.66
  -6  11   7   -0.71    3.79
  -5  11   7    4.48    3.20
  -4  11   7    3.63    5.19
  -3  11   7    1.24    5.41
   2  -9   8    1.25    6.00
   3  -9   8    4.22    3.08
   4  -9   8   -1.11    2.11
   5  -9   8    4.87    3.46
   6  -9   8    4.85    3.49
   7  -9   8    3.59    3.05
   0  -8   8   -0.74    3.56
   1  -8   8    9.29    3.38
   2  -8   8    3.25    2.80
   3  -8   8    2.53    2.39
   4  -8   8   -0.52    3.19
   5  -8   8    7.54    3.46
   6  -8   8    2.86    2.91
   7  -8   8   12.93    4.12
   8  -8   8    7.41    5.49
  -2  -7   8    2.83    4.60
  -1  -7   8   13.31    3.15
   0  -7   8    0.69    1.97
   1  -7   8    0.43    1.59
   2  -7   8    4.71    2.64
   3  -7   8    1.32    3.17
   4  -7   8    7.67    4.95
   5  -7   8   -1.16    3.46
   6  -7   8    8.31    3.44
   7  -7   8    3.01    3.02
   8  -7   8    9.88    2.94
   9  -7   8    2.40    3.46
  -2  -6   8    2.53    2.36
  -1  -6   8    4.03    2.61
   0  -6   8    4.14    2.28
   1  -6   8   13.68    3.42
   2  -6   8    2.47    2.84
   5  -6   8    1.80    2.22
   6  -6   8    2.60    1.82
   7  -6   8    3.63    2.42
   8  -6   8    3.07    2.47
   9  -6   8    0.04    3.43
  -3  -5   8    6.92    2.82
  -2  -5   8    2.08    2.27
  -1  -5   8    2.79    2.31
   0  -5   8   10.57    3.14
   1  -5   8   13.29    3.37
   4  -5   8   14.85    4.92
   5  -5   8   12.94    2.91
   6  -5   8   14.53    3.77
   7  -5   8    3.40    2.37
   8  -5   8    1.79    2.18
  -4  -4   8    3.09    2.51
  -3  -4   8   12.29    3.37
  -2  -4   8    3.75    2.18
  -1  -4   8   15.73    3.58
   0  -4   8    5.06    1.87
   1  -4   8    2.92    2.42
   3  -4   8   13.16    4.49
   4  -4   8    3.83    2.07
   5  -4   8   10.28    2.87
   6  -4   8    5.96    2.22
   7  -4   8    2.11    2.10
   8  -4   8    0.73    2.14
  -5  -3   8    1.25    2.19
  -4  -3   8    3.09    2.15
  -3  -3   8   20.83    4.13
  -2  -3   8    0.63    1.78
  -1  -3   8   11.10    2.55
   0  -3   8    2.48    2.05
   1  -3   8    5.95    2.31
   2  -3   8   15.59    3.42
   3  -3   8    8.30    3.12
   4  -3   8    0.02    1.99
   5  -3   8    8.16    3.22
   6  -3   8   21.46    4.81
   7  -3   8    6.97    3.28
   8  -3   8    6.05    3.46
   9  -3   8    1.73    5.02
  -6  -2   8    3.71    2.69
  -5  -2   8    8.18    2.79
  -4  -2   8    7.03    2.67
  -3  -2   8    8.95    2.68
  -2  -2   8   12.87    2.81
  -1  -2   8   14.44    3.60
   0  -2   8   -0.03    1.64
   1  -2   8   11.18    2.91
   2  -2   8   -1.04    1.99
   3  -2   8    5.96    2.50
   4  -2   8   19.02    4.73
   5  -2   8    0.82    2.03
   6  -2   8    1.56    2.34
   7  -2   8   -0.41    1.99
   8  -2   8    2.97    2.93
  -7  -1   8   15.92    6.05
  -6  -1   8   -0.54    1.99
  -5  -1   8   12.93    3.76
  -4  -1   8   11.22    3.33
  -3  -1   8    3.24    1.81
  -2  -1   8    8.94    3.19
  -1  -1   8    9.20    3.19
   0  -1   8    2.98    2.20
   1  -1   8    3.53    2.79
   2  -1   8    5.39    3.24
   3  -1   8   13.27    3.24
   4  -1   8    9.84    3.00
   5  -1   8   13.69    4.26
   6  -1   8    3.11    2.23
   7  -1   8   10.51    4.04
   8  -1   8    4.70    5.66
  -7   0   8    1.07    2.28
  -6   0   8   -2.23    1.81
  -5   0   8    9.50    2.84
  -4   0   8    3.26    1.86
  -3   0   8    6.36    2.47
  -2   0   8    1.70    2.11
  -1   0   8    2.30    2.09
   0   0   8  107.30    8.65
   1   0   8    1.89    2.58
   2   0   8   -0.80    2.23
   3   0   8    4.76    3.12
   4   0   8    1.42    2.07
   5   0   8    8.06    3.42
   6   0   8    0.77    2.46
   7   0   8    0.62    2.85
  -8   1   8   13.04    5.82
  -7   1   8   10.32    3.45
  -6   1   8    0.76    1.75
  -5   1   8   19.69    3.67
  -4   1   8   11.51    2.85
  -3   1   8   23.28    4.71
  -2   1   8   11.71    3.59
  -1   1   8    3.34    2.48
   0   1   8    1.52    1.78
   1   1   8    9.51    3.90
   2   1   8    4.77    2.89
   3   1   8    5.39    3.14
   4   1   8   11.66    3.34
   5   1   8   13.92    3.56
   6   1   8    3.42    2.90
  -8   2   8    5.45    2.74
  -7   2   8    0.40    1.89
  -6   2   8    2.95    1.99
  -5   2   8    1.14    1.77
  -4   2   8    9.44    3.40
  -3   2   8    2.33    2.19
  -2   2   8    1.20    1.96
  -1   2   8    6.87    3.05
   0   2   8    0.22    1.61
   1   2   8   20.29    5.06
   2   2   8   17.03    5.18
   3   2   8    6.83    3.66
   4   2   8    4.08    2.51
   5   2   8    2.68    2.26
   6   2   8    3.22    3.15
  -9   3   8    8.97    5.97
  -8   3   8    9.70    3.04
  -7   3   8    8.36    2.91
  -6   3   8   17.11    3.23
  -5   3   8    7.16    3.33
  -4   3   8    2.77    2.23
  -3   3   8    3.81    2.63
  -2   3   8   13.58    3.88
  -1   3   8    0.83    1.77
   0   3   8    3.94    2.95
   1   3   8   10.51    4.15
   2   3   8    2.46    3.07
   3   3   8   21.67    5.93
   4   3   8    1.49    2.20
   5   3   8    2.31    2.40
   6   3   8    9.54    5.97
  -9   4   8    6.41    4.99
  -8   4   8    4.61    2.51
  -7   4   8    2.31    2.28
  -6   4   8    3.32    2.39
  -5   4   8   18.14    4.53
  -4   4   8   -0.56    1.73
  -3   4   8   13.46    3.64
  -2   4   8   17.11    3.69
  -1   4   8    1.74    1.84
   0   4   8    1.43    2.62
   1   4   8   16.19    4.97
   2   4   8    2.16    2.82
   3   4   8   16.28    5.15
   4   4   8    3.68    2.81
   5   4   8   -1.29    3.97
  -9   5   8   -0.38    3.44
  -8   5   8    0.68    2.50
  -7   5   8    6.25    3.22
  -6   5   8   12.55    3.95
  -5   5   8    9.75    3.51
  -4   5   8   20.75    4.54
  -3   5   8    3.10    2.43
  -2   5   8    6.95    2.66
  -1   5   8    8.67    2.81
   0   5   8   12.04    4.39
   1   5   8    5.40    3.54
   2   5   8   -0.90    2.71
   3   5   8    1.37    3.00
   4   5   8    1.31    5.21
  -8   6   8    5.30    3.22
  -7   6   8    1.61    2.46
  -6   6   8    3.41    2.93
  -5   6   8    0.45    2.13
  -4   6   8    0.38    2.20
  -3   6   8   23.38    4.16
  -2   6   8    5.48    2.51
  -1   6   8   18.14    4.23
   0   6   8    2.43    2.94
   1   6   8    8.04    4.36
   2   6   8    5.08    3.72
  -8   7   8   10.38    5.76
  -7   7   8   -0.60    2.39
  -6   7   8    6.56    3.47
  -5   7   8   -1.57    1.93
  -4   7   8   13.18    3.55
  -3   7   8    5.05    2.72
  -2   7   8    3.71    2.69
  -1   7   8    0.84    2.68
   0   7   8    1.78    3.12
   1   7   8    3.48    4.86
  -7   8   8   13.51    4.62
  -6   8   8    4.08    3.04
  -5   8   8   12.76    4.37
  -4   8   8    1.04    2.31
  -3   8   8    1.62    2.24
  -2   8   8    1.54    2.38
  -1   8   8   10.74    7.83
  -5   9   8    6.99    4.19
  -4   9   8   -0.29    2.74
  -3   9   8    5.54    4.17
  -1  -5   9   -0.14    2.04
   0  -5   9   13.01    5.66
   6  -5   9   -1.19    2.09
  -2  -4   9    2.85    2.24
  -1  -4   9    9.83    3.62
   0  -4   9    1.25    2.50
   5  -4   9    0.52    2.15
   6  -4   9    0.80    2.51
  -3  -3   9    3.31    2.85
  -2  -3   9    0.30    2.48
  -1  -3   9   -1.11    2.28
   0  -3   9    6.21    3.49
   1  -3   9    5.55    3.79
   2  -3   9   13.29    8.17
   3  -3   9   10.28    4.17
   4  -3   9    3.09    2.33
   5  -3   9    0.57    2.21
   6  -3   9    0.82    2.43
  -4  -2   9    0.11    3.24
  -3  -2   9   -0.49    2.44
  -2  -2   9   -0.56    2.25
  -1  -2   9    6.70    3.33
   0  -2   9    4.09    3.50
   1  -2   9    1.47    3.52
   2  -2   9    5.97    2.76
   3  -2   9    8.53    4.14
   4  -2   9   -0.53    2.35
   5  -2   9    1.57    2.74
   6  -2   9    0.41    4.61
  -5  -1   9    0.45    3.44
  -4  -1   9   -1.25    2.29
  -3  -1   9    2.75    2.61
  -2  -1   9    9.37    3.38
  -1  -1   9    1.26    2.37
   0  -1   9   -0.20    2.54
   1  -1   9    2.93    2.81
   2  -1   9    1.44    2.98
   3  -1   9    9.23    3.80
   4  -1   9   -0.82    2.35
   5  -1   9    8.97    4.24
  -4   0   9    1.15    2.44
  -3   0   9    6.65    3.15
  -2   0   9    4.36    2.92
  -1   0   9    0.52    2.02
   0   0   9   -2.63    2.56
   1   0   9   -1.05    2.57
   2   0   9    2.02    3.00
   3   0   9    7.06    2.96
   4   0   9    0.80    2.79
  -5   1   9   13.66    5.16
  -4   1   9   -0.50    2.22
  -3   1   9    5.37    3.24
  -2   1   9    0.77    2.50
  -1   1   9   -0.07    2.08
   0   1   9   -0.47    2.49
   1   1   9    3.10    3.26
   2   1   9    4.82    3.26
   3   1   9    0.04    2.64
   4   1   9    0.43    2.54
  -5   2   9    2.16    2.66
  -4   2   9   -3.24    2.11
  -3   2   9    5.56    2.96
  -2   2   9    3.30    3.05
  -1   2   9    0.13    2.45
   0   2   9    0.54    2.64
   1   2   9    7.98    3.86
   2   2   9   -0.02    2.98
   3   2   9    0.97    3.16
   4   2   9   -0.61    4.49
  -5   3   9    0.78    2.65
  -4   3   9    2.76    2.69
  -3   3   9    6.77    3.62
  -2   3   9    8.14    3.14
  -1   3   9    6.04    3.53
   0   3   9    7.63    3.77
   1   3   9   -0.43    2.50
   2   3   9   -0.16    2.99
   3   3   9    5.85    5.34
  -5   4   9   -2.68    2.94
  -4   4   9    1.46    2.61
  -3   4   9    1.20    2.55
  -2   4   9   -0.02    1.99
  -1   4   9    2.30    2.94
   0   4   9   -0.29    2.86
   1   4   9    6.67    5.59
  -5   5   9    3.46    4.48
  -4   5   9    8.94    5.14
  -3   5   9    2.00    2.32
  -2   5   9    1.50    2.32
  -1   5   9   -0.55    4.11
  -4   6   9   -0.76    3.11
  -3   6   9   -0.35    3.30
   0   0   0    0.00    0.00
;
_shelx_hkl_checksum              71789
loop_
_space_group_symop_operation_xyz
'x, y, z'
'-y, x-y, z'
'-x+y, -x, z'
'-x, -y, z+1/2'
'y, -x+y, z+1/2'
'x-y, x, z+1/2'
loop_
_atom_site_label
_atom_site_type_symbol
_atom_site_fract_x
_atom_site_fract_y
_atom_site_fract_z
_atom_site_U_iso_or_equiv
_atom_site_adp_type
_atom_site_occupancy
_atom_site_site_symmetry_order
_atom_site_calc_flag
_atom_site_refinement_flags_posn
_atom_site_refinement_flags_adp
_atom_site_refinement_flags_occupancy
_atom_site_disorder_assembly
_atom_site_disorder_group
La La 0.14718(9) 0.37497(8) 0.40878(19) 0.0244(2) Uani 1 1 d . . . . .
AgA Ag 0.0000 0.0000 0.000(2) 0.080(4) Uani 0.460(9) 3 d S T P . .
AgB Ag 0.0000 0.0000 0.205(8) 0.080(4) Uani 0.140(9) 3 d S T P . .
Ga Ga 0.3333 0.6667 0.8240(4) 0.0197(5) Uani 1 3 d S T P . .
Se1 Se 0.25200(19) 0.15124(18) 0.4457(3) 0.0348(4) Uani 1 1 d . . . . .
Se2 Se 0.52007(15) 0.09298(16) 0.1784(2) 0.0212(3) Uani 1 1 d . . . . .
Se3 Se 0.3333 0.6667 0.1940(4) 0.0211(5) Uani 1 3 d S T P . .
loop_
_atom_site_aniso_label
_atom_site_aniso_U_11
_atom_site_aniso_U_22
_atom_site_aniso_U_33
_atom_site_aniso_U_23
_atom_site_aniso_U_13
_atom_site_aniso_U_12
La 0.0201(4) 0.0166(3) 0.0363(5) -0.0033(4) -0.0035(4) 0.0090(3)
AgA 0.0242(12) 0.0242(12) 0.191(13) 0.000 0.000 0.0121(6)
AgB 0.0242(12) 0.0242(12) 0.191(13) 0.000 0.000 0.0121(6)
Ga 0.0216(8) 0.0216(8) 0.0158(11) 0.000 0.000 0.0108(4)
Se1 0.0385(9) 0.0249(7) 0.0498(12) -0.0100(7) -0.0102(8) 0.0224(7)
Se2 0.0208(7) 0.0180(6) 0.0193(6) 0.0007(6) 0.0020(6) 0.0055(5)
Se3 0.0224(7) 0.0224(7) 0.0184(11) 0.000 0.000 0.0112(4)
loop_
_atom_type_symbol
_atom_type_description
_atom_type_scat_dispersion_real
_atom_type_scat_dispersion_imag
_atom_type_scat_source
Ga Ga 0.2307 1.6083 'International Tables Vol C Tables 4.2.6.8 and 6.1.1.4'
Se Se -0.0929 2.2259 'International Tables Vol C Tables 4.2.6.8 and 6.1.1.4'
Ag Ag -0.8971 1.1015 'International Tables Vol C Tables 4.2.6.8 and 6.1.1.4'
La La -0.2871 2.4523 'International Tables Vol C Tables 4.2.6.8 and 6.1.1.4'
loop_
_geom_angle_atom_site_label_1
_geom_angle_atom_site_label_2
_geom_angle_atom_site_label_3
_geom_angle
_geom_angle_site_symmetry_1
_geom_angle_site_symmetry_3
Se2 La Se3 78.47(5) 5_565 .
Se2 La Se1 98.79(5) 5_565 2
Se3 La Se1 147.19(6) . 2
Se2 La Se1 139.93(7) 5_565 .
Se3 La Se1 121.04(5) . .
Se1 La Se1 82.09(7) 2 .
Se2 La Se2 78.66(6) 5_565 6
Se3 La Se2 76.80(5) . 6
Se1 La Se2 135.25(6) 2 6
Se1 La Se2 73.47(5) . 6
Se2 La Se1 141.51(5) 5_565 6_554
Se3 La Se1 83.45(6) . 6_554
Se1 La Se1 78.84(5) 2 6_554
Se1 La Se1 78.29(5) . 6_554
Se2 La Se1 129.55(5) 6 6_554
Se2 La Se2 72.30(3) 5_565 2
Se3 La Se2 77.65(4) . 2
Se1 La Se2 70.53(5) 2 2
Se1 La Se2 141.77(5) . 2
Se2 La Se2 144.43(5) 6 2
Se1 La Se2 70.77(5) 6_554 2
Se2 La AgA 124.5(2) 5_565 4
Se3 La AgA 156.9(2) . 4
Se1 La AgA 41.24(4) 2 4
Se1 La AgA 41.12(4) . 4
Se2 La AgA 104.06(16) 6 4
Se1 La AgA 78.4(3) 6_554 4
Se2 La AgA 109.13(11) 2 4
Se2 La AgB 146.3(4) 5_565 .
Se3 La AgB 130.1(7) . .
Se1 La AgB 47.6(3) 2 .
Se1 La AgB 47.4(3) . .
Se2 La AgB 120.9(4) 6 .
Se1 La AgB 48.3(8) 6_554 .
Se2 La AgB 94.5(4) 2 .
AgA La AgB 30.1(7) 4 .
AgB AgA AgB 180.0 . 4_554
AgB AgA Se1 98.5(4) . 5_554
AgB AgA Se1 81.5(4) 4_554 5_554
AgB AgA Se1 98.5(4) . 4_554
AgB AgA Se1 81.5(4) 4_554 4_554
Se1 AgA Se1 117.88(18) 5_554 4_554
AgB AgA Se1 98.5(4) . 6_554
AgB AgA Se1 81.5(4) 4_554 6_554
Se1 AgA Se1 117.88(18) 5_554 6_554
Se1 AgA Se1 117.87(18) 4_554 6_554
AgB AgA AgA 180.0 . 4_554
AgB AgA AgA 0.000(3) 4_554 4_554
Se1 AgA AgA 81.5(4) 5_554 4_554
Se1 AgA AgA 81.5(4) 4_554 4_554
Se1 AgA AgA 81.5(4) 6_554 4_554
AgB AgA AgA 0.000(3) . 4
AgB AgA AgA 180.0 4_554 4
Se1 AgA AgA 98.5(4) 5_554 4
Se1 AgA AgA 98.5(4) 4_554 4
Se1 AgA AgA 98.5(4) 6_554 4
AgA AgA AgA 180.0 4_554 4
AgB AgA La 99.5(3) . 4_554
AgB AgA La 80.5(3) 4_554 4_554
Se1 AgA La 58.73(7) 5_554 4_554
Se1 AgA La 59.67(7) 4_554 4_554
Se1 AgA La 162.0(6) 6_554 4_554
AgA AgA La 80.5(3) 4_554 4_554
AgA AgA La 99.5(3) 4 4_554
AgB AgA La 99.5(3) . 5_554
AgB AgA La 80.5(3) 4_554 5_554
Se1 AgA La 59.67(7) 5_554 5_554
Se1 AgA La 162.0(6) 4_554 5_554
Se1 AgA La 58.73(7) 6_554 5_554
AgA AgA La 80.5(3) 4_554 5_554
AgA AgA La 99.5(3) 4 5_554
La AgA La 117.32(14) 4_554 5_554
AgB AgA La 99.5(3) . 6_554
AgB AgA La 80.5(3) 4_554 6_554
Se1 AgA La 162.0(6) 5_554 6_554
Se1 AgA La 58.73(7) 4_554 6_554
Se1 AgA La 59.67(7) 6_554 6_554
AgA AgA La 80.5(3) 4_554 6_554
AgA AgA La 99.5(3) 4 6_554
La AgA La 117.32(14) 4_554 6_554
La AgA La 117.32(14) 5_554 6_554
AgA AgB AgA 180.0 . 4
AgA AgB Se1 123.5(9) . 2
AgA AgB Se1 56.5(9) 4 2
AgA AgB Se1 123.5(9) . .
AgA AgB Se1 56.5(9) 4 .
Se1 AgB Se1 92.5(12) 2 .
AgA AgB Se1 123.5(9) . 3
AgA AgB Se1 56.5(9) 4 3
Se1 AgB Se1 92.5(12) 2 3
Se1 AgB Se1 92.5(12) . 3
AgA AgB Se1 54.6(9) . 5_554
AgA AgB Se1 125.4(9) 4 5_554
Se1 AgB Se1 178.1(18) 2 5_554
Se1 AgB Se1 88.80(5) . 5_554
Se1 AgB Se1 88.80(5) 3 5_554
AgA AgB Se1 54.6(9) . 4_554
AgA AgB Se1 125.4(9) 4 4_554
Se1 AgB Se1 88.79(5) 2 4_554
Se1 AgB Se1 178.1(18) . 4_554
Se1 AgB Se1 88.80(5) 3 4_554
Se1 AgB Se1 89.9(12) 5_554 4_554
AgA AgB Se1 54.6(9) . 6_554
AgA AgB Se1 125.4(9) 4 6_554
Se1 AgB Se1 88.79(5) 2 6_554
Se1 AgB Se1 88.80(5) . 6_554
Se1 AgB Se1 178.1(18) 3 6_554
Se1 AgB Se1 89.9(12) 5_554 6_554
Se1 AgB Se1 89.9(12) 4_554 6_554
AgA AgB AgB 180.0 . 4
AgA AgB AgB 0.000(2) 4 4
Se1 AgB AgB 56.5(9) 2 4
Se1 AgB AgB 56.5(9) . 4
Se1 AgB AgB 56.5(9) 3 4
Se1 AgB AgB 125.4(9) 5_554 4
Se1 AgB AgB 125.4(9) 4_554 4
Se1 AgB AgB 125.4(9) 6_554 4
AgA AgB AgB 0.000(2) . 4_554
AgA AgB AgB 180.0 4 4_554
Se1 AgB AgB 123.5(9) 2 4_554
Se1 AgB AgB 123.5(9) . 4_554
Se1 AgB AgB 123.5(9) 3 4_554
Se1 AgB AgB 54.6(9) 5_554 4_554
Se1 AgB AgB 54.6(9) 4_554 4_554
Se1 AgB AgB 54.6(9) 6_554 4_554
AgB AgB AgB 180.0 4 4_554
AgA AgB La 110.6(8) . .
AgA AgB La 69.4(8) 4 .
Se1 AgB La 53.8(4) 2 .
Se1 AgB La 54.6(4) . .
Se1 AgB La 126.0(17) 3 .
Se1 AgB La 126.2(4) 5_554 .
Se1 AgB La 125.4(4) 4_554 .
Se1 AgB La 55.96(11) 6_554 .
AgB AgB La 69.4(8) 4 .
AgB AgB La 110.6(8) 4_554 .
AgA AgB La 110.6(8) . 2
AgA AgB La 69.4(8) 4 2
Se1 AgB La 54.6(4) 2 2
Se1 AgB La 126.0(17) . 2
Se1 AgB La 53.8(4) 3 2
Se1 AgB La 125.4(4) 5_554 2
Se1 AgB La 55.96(11) 4_554 2
Se1 AgB La 126.2(4) 6_554 2
AgB AgB La 69.4(8) 4 2
AgB AgB La 110.6(8) 4_554 2
La AgB La 108.3(8) . 2
Se3 Ga Se2 112.69(7) 1_556 6
Se3 Ga Se2 112.69(7) 1_556 4_665
Se2 Ga Se2 106.07(8) 6 4_665
Se3 Ga Se2 112.69(7) 1_556 5_565
Se2 Ga Se2 106.07(8) 6 5_565
Se2 Ga Se2 106.07(8) 4_665 5_565
AgA Se1 AgB 41.9(8) 4 .
AgA Se1 AgB 26.9(8) 4 4
AgB Se1 AgB 68.83(6) . 4
AgA Se1 La 80.03(6) 4 3
AgB Se1 La 78.56(6) . 3
AgB Se1 La 83.84(16) 4 3
AgA Se1 La 79.22(6) 4 .
AgB Se1 La 77.91(6) . .
AgB Se1 La 83.15(16) 4 .
La Se1 La 155.96(7) 3 .
AgA Se1 La 102.6(4) 4 5
AgB Se1 La 144.5(9) . 5
AgB Se1 La 75.7(9) 4 5
La Se1 La 98.52(6) 3 5
La Se1 La 97.73(6) . 5
Ga Se2 La 88.68(6) 4_664 6_654
Ga Se2 La 86.16(6) 4_664 5_554
La Se2 La 101.22(6) 6_654 5_554
Ga Se2 La 121.11(8) 4_664 3
La Se2 La 146.25(5) 6_654 3
La Se2 La 96.62(5) 5_554 3
Ga Se3 La 116.82(5) 1_554 3_565
Ga Se3 La 116.82(5) 1_554 2_665
La Se3 La 101.22(6) 3_565 2_665
Ga Se3 La 116.82(5) 1_554 .
La Se3 La 101.22(6) 3_565 .
La Se3 La 101.22(6) 2_665 .
loop_
_geom_bond_atom_site_label_1
_geom_bond_atom_site_label_2
_geom_bond_distance
_geom_bond_site_symmetry_2
La Se2 2.9799(17) 5_565
La Se3 3.0351(16) .
La Se1 3.0487(17) 2
La Se1 3.0866(18) .
La Se2 3.0896(18) 6
La Se1 3.165(2) 6_554
La Se2 3.2143(17) 2
La AgA 3.513(3) 4
La AgB 3.701(19) .
AgA AgB 1.31(5) .
AgA AgB 1.88(5) 4_554
AgA Se1 2.352(3) 5_554
AgA Se1 2.352(3) 4_554
AgA Se1 2.352(3) 6_554
AgA AgA 3.1883(5) 4_554
AgA AgA 3.1883(5) 4
AgA La 3.513(3) 4_554
AgA La 3.513(3) 5_554
AgA La 3.513(3) 6_554
AgB AgA 1.88(5) 4
AgB Se1 2.79(3) 2
AgB Se1 2.79(3) .
AgB Se1 2.79(3) 3
AgB Se1 2.85(3) 5_554
AgB Se1 2.85(3) 4_554
AgB Se1 2.85(3) 6_554
AgB AgB 3.1883(5) 4
AgB AgB 3.1883(5) 4_554
AgB La 3.701(18) 2
Ga Se3 2.359(4) 1_556
Ga Se2 2.4079(19) 6
Ga Se2 2.4079(19) 4_665
Ga Se2 2.4079(19) 5_565
Se1 AgA 2.352(3) 4
Se1 AgB 2.85(3) 4
Se1 La 3.0487(17) 3
Se1 La 3.165(2) 5
Se2 Ga 2.4079(19) 4_664
Se2 La 2.9799(17) 6_654
Se2 La 3.0896(18) 5_554
Se2 La 3.2143(17) 3
Se3 Ga 2.359(4) 1_554
Se3 La 3.0350(16) 3_565
Se3 La 3.0350(16) 2_665
