#------------------------------------------------------------------------------
#$Date: 2021-03-23 10:28:49 +0200 (Tue, 23 Mar 2021) $
#$Revision: 263242 $
#$URL: file:///home/coder/svn-repositories/cod/cif/1/56/11/1561197.cif $
#------------------------------------------------------------------------------
#
# This file is available in the Crystallography Open Database (COD),
# http://www.crystallography.net/
#
# All data on this site have been placed in the public domain by the
# contributors.
#
data_1561197
loop_
_publ_author_name
'Duan, Hui'
'Dan, Wenyan'
'Fang, Xiangdong'
_publ_section_title
;
 Zinc-coordinated MOFs complexes regulated by hydrogen bonds: Synthesis,
 structure and luminescence study toward broadband white-light emission
;
_journal_name_full               'Journal of Solid State Chemistry'
_journal_page_first              159
_journal_page_last               164
_journal_paper_doi               10.1016/j.jssc.2018.01.024
_journal_volume                  260
_journal_year                    2018
_chemical_formula_sum            'C5 H5 N3 O2'
_chemical_formula_weight         139.12
_space_group_crystal_system      monoclinic
_space_group_IT_number           9
_space_group_name_Hall           'C -2yc'
_space_group_name_H-M_alt        'C 1 c 1'
_atom_sites_solution_hydrogens   mixed
_cell_angle_alpha                90
_cell_angle_beta                 94.623(5)
_cell_angle_gamma                90
_cell_formula_units_Z            4
_cell_length_a                   3.6563(3)
_cell_length_b                   11.7958(10)
_cell_length_c                   13.1011(11)
_cell_measurement_reflns_used    2321
_cell_measurement_temperature    298(2)
_cell_measurement_theta_max      68.19
_cell_measurement_theta_min      6.78
_cell_volume                     563.20(8)
_computing_cell_refinement       'Bruker SAINT'
_computing_data_collection       'Bruker APEX3'
_computing_data_reduction        'Bruker SAINT'
_computing_molecular_graphics    'Bruker SHELXTL'
_computing_publication_material  'Bruker SHELXTL'
_computing_structure_refinement  'SHELXL-2016/6 (Sheldrick, 2016)'
_computing_structure_solution    'SHELXT 2014/5 (Sheldrick, 2014)'
_diffrn_ambient_temperature      298(2)
_diffrn_measured_fraction_theta_full 0.996
_diffrn_measured_fraction_theta_max 0.996
_diffrn_measurement_device_type  'Bruker APEX-III CMOS'
_diffrn_measurement_method       '\f and \w scans'
_diffrn_radiation_type           CuK\a
_diffrn_radiation_wavelength     1.54178
_diffrn_reflns_av_R_equivalents  0.0504
_diffrn_reflns_av_unetI/netI     0.0434
_diffrn_reflns_Laue_measured_fraction_full 0.996
_diffrn_reflns_Laue_measured_fraction_max 0.996
_diffrn_reflns_limit_h_max       3
_diffrn_reflns_limit_h_min       -4
_diffrn_reflns_limit_k_max       14
_diffrn_reflns_limit_k_min       -14
_diffrn_reflns_limit_l_max       15
_diffrn_reflns_limit_l_min       -15
_diffrn_reflns_number            3794
_diffrn_reflns_point_group_measured_fraction_full 0.891
_diffrn_reflns_point_group_measured_fraction_max 0.886
_diffrn_reflns_theta_full        67.679
_diffrn_reflns_theta_max         68.256
_diffrn_reflns_theta_min         6.781
_exptl_absorpt_coefficient_mu    1.122
_exptl_absorpt_correction_type   multi-scan
_exptl_absorpt_process_details   sadabs
_exptl_crystal_colour            colourless
_exptl_crystal_density_diffrn    1.641
_exptl_crystal_description       block
_exptl_crystal_F_000             288
_exptl_crystal_size_max          0.120
_exptl_crystal_size_mid          0.090
_exptl_crystal_size_min          0.080
_exptl_transmission_factor_max   0.7531
_exptl_transmission_factor_min   0.5601
_refine_diff_density_max         0.266
_refine_diff_density_min         -0.235
_refine_diff_density_rms         0.059
_refine_ls_abs_structure_details
; 
 Flack x determined using 271 quotients [(I+)-(I-)]/[(I+)+(I-)] 
 (Parsons, Flack and Wagner, Acta Cryst. B69 (2013) 249-259). 
;
_refine_ls_abs_structure_Flack   -0.2(4)
_refine_ls_extinction_method     none
_refine_ls_goodness_of_fit_ref   1.100
_refine_ls_hydrogen_treatment    constr
_refine_ls_matrix_type           full
_refine_ls_number_parameters     91
_refine_ls_number_reflns         919
_refine_ls_number_restraints     2
_refine_ls_restrained_S_all      1.099
_refine_ls_R_factor_all          0.0705
_refine_ls_R_factor_gt           0.0609
_refine_ls_shift/su_max          0.000
_refine_ls_shift/su_mean         0.000
_refine_ls_structure_factor_coef Fsqd
_refine_ls_weighting_details
'w=1/[\s^2^(Fo^2^)+(0.1090P)^2^+0.2176P] where P=(Fo^2^+2Fc^2^)/3'
_refine_ls_weighting_scheme      calc
_refine_ls_wR_factor_gt          0.1644
_refine_ls_wR_factor_ref         0.1761
_reflns_Friedel_coverage         0.767
_reflns_Friedel_fraction_full    0.783
_reflns_Friedel_fraction_max     0.775
_reflns_number_gt                771
_reflns_number_total             919
_reflns_threshold_expression     'I > 2\s(I)'
_cod_data_source_file            Hapc.cif
_cod_data_source_block           170522a_a
_cod_original_sg_symbol_H-M      'C c'
_cod_database_code               1561197
_shelx_space_group_comment
; 
The symmetry employed for this shelxl refinement is uniquely defined 
by the following loop, which should always be used as a source of 
symmetry information in preference to the above space-group names. 
They are only intended as comments. 
;
_shelx_estimated_absorpt_t_min   0.877
_shelx_estimated_absorpt_t_max   0.916
_shelx_res_file
; 
TITL 170522a_a.res in Cc 
    170522a_a.res 
    created by SHELXL-2016/6 at 19:31:42 on 08-Nov-2017 
REM Old TITL 170522a in C2/c 
REM SHELXT solution in Cc 
REM R1 0.135,  Rweak 0.010,  Alpha 0.001,  Orientation as input 
REM Flack x =  0.241 ( 0.390 ) from Parsons' quotients 
REM Formula found by SHELXT:  C5 N3 O2 
CELL  1.54178   3.6563  11.7958  13.1011   90.000   94.623   90.000 
ZERR   4.000   0.0003   0.0010   0.0011    0.000    0.005    0.000 
LATT -7 
SYMM X, -Y, 1/2+Z 
SFAC C H N O 
UNIT 20 20 12 8 
TEMP 24.850 
L.S. 10 
BOND $H 
LIST 4 
EQIV $1 x-1/2, -y+1/2, z+1/2 
HTAB O1 N1_$1 
EQIV $3 x, -y+1, z-1/2 
HTAB N3 O1_$3 
EQIV $4 x+1/2, -y+1/2, z-1/2 
HTAB N3 O2_$4 
FMAP 2 
acta 
conf 
size 0.12 0.09 0.08 
PLAN 20 
WGHT    0.109000    0.217600 
FVAR       0.86191 
N1    3    0.674408    0.315797    0.373430    11.00000    0.07111    0.04821 = 
         0.05437   -0.00342    0.01391    0.00500 
C1    1    0.439552    0.244121    0.636597    11.00000    0.06518    0.04886 = 
         0.06336   -0.00334    0.01771   -0.00222 
O1    4    0.324813    0.300782    0.712674    11.00000    0.09113    0.05001 = 
         0.06076   -0.00100    0.02271   -0.00283 
AFIX   3 
H1A   2    0.285150    0.257008    0.759143    11.00000   -1.20000 
AFIX   0 
C5    1    0.414295    0.427180    0.532330    11.00000    0.06492    0.05176 = 
         0.05635   -0.00406    0.01489    0.00187 
AFIX  43 
H5    2    0.317644    0.464790    0.586454    11.00000   -1.20000 
AFIX   0 
C4    1    0.603813    0.429297    0.370074    11.00000    0.06317    0.04905 = 
         0.05880    0.00037    0.01218    0.00202 
C2    1    0.496179    0.310216    0.544055    11.00000    0.05722    0.04767 = 
         0.05078   -0.00400    0.00986    0.00259 
O2    4    0.502042    0.142210    0.639353    11.00000    0.10687    0.05014 = 
         0.06958    0.00559    0.02838    0.00822 
N2    3    0.467165    0.485446    0.449381    11.00000    0.07381    0.04806 = 
         0.05846   -0.00246    0.01328    0.00857 
N3    3    0.673554    0.485676    0.287931    11.00000    0.09389    0.04804 = 
         0.05989    0.00463    0.02128    0.01088 
AFIX  93 
H3A   2    0.633013    0.557443    0.284457    11.00000   -1.20000 
H3AB  2    0.759966    0.450991    0.237377    11.00000   -1.20000 
AFIX   0 
C3    1    0.621566    0.258303    0.458716    11.00000    0.06513    0.04921 = 
         0.05885   -0.00099    0.01740    0.00339 
AFIX  43 
H3    2    0.670483    0.180933    0.460917    11.00000   -1.20000 
AFIX   0 
HKLF 4 
  
  
  
  
REM  170522a_a.res in Cc 
REM R1 =  0.0609 for     771 Fo > 4sig(Fo)  and  0.0705 for all     919 data 
REM     91 parameters refined using      2 restraints 
  
END 
  
WGHT      0.1086      0.2189 
  
REM Highest difference peak  0.266,  deepest hole -0.235,  1-sigma level  0.059 
Q1    1   0.2664  0.2381  0.8016  11.00000  0.05    0.25 
Q2    1   0.7783  0.3731  0.2955  11.00000  0.05    0.21 
Q3    1   0.6932  0.1506  0.4772  11.00000  0.05    0.20 
Q4    1   0.6728  0.2047  0.3814  11.00000  0.05    0.18 
Q5    1   0.2245  0.4131  0.6861  11.00000  0.05    0.17 
Q6    1   0.5520  0.4556  0.6475  11.00000  0.05    0.15 
Q7    1   0.6359  0.6337  0.3703  11.00000  0.05    0.15 
Q8    1   0.5520  0.6230  0.3116  11.00000  0.05    0.14 
Q9    1   0.6821  0.6294  0.3944  11.00000  0.05    0.14 
Q10   1   0.4947  0.1954  0.5475  11.00000  0.05    0.14 
Q11   1   0.7301  0.3845  0.6092  11.00000  0.05    0.14 
Q12   1   0.3941  0.5799  0.4415  11.00000  0.05    0.14 
Q13   1   0.3739  0.1874  0.7154  11.00000  0.05    0.14 
Q14   1   0.4520  0.5801  0.2490  11.00000  0.05    0.13 
Q15   1   0.4537  0.5251  0.1905  11.00000  0.05    0.13 
Q16   1   0.3670  0.0255  0.6065  11.00000  0.05    0.13 
Q17   1   0.5708  0.3653  0.4605  11.00000  0.05    0.13 
Q18   1   0.4194  0.1534  0.4332  11.00000  0.05    0.13 
Q19   1   0.6426  0.1338  0.7524  11.00000  0.05    0.12 
Q20   1   0.2435  0.3662  0.7849  11.00000  0.05    0.12 
;
_shelx_res_checksum              46280
_shelx_hkl_file
; 
   2   0   0  350.66   20.30 
   2   0   0  343.17   22.80 
   2   0   0  290.97   21.20 
  -2   0   0  294.37   18.20 
  -2   0   0  254.97   18.00 
   1  -1   0 2359.76  138.19 
  -1  -1   0 2467.85  138.99 
   1  -1   0 2238.68  138.59 
   1   1   0 2617.04  138.99 
  -1   1   0 2172.98  138.09 
   1   1   0 2325.17  138.39 
  -3  -1   0   22.60    3.10 
  -3  -1   0   16.40    2.60 
  -3   1   0   20.00    3.70 
   3   1   0   11.00    5.20 
  -3   1   0   18.70    3.10 
  -3   1   0   20.20    3.00 
  -3   1   0   18.20    2.80 
  -3   1   0   19.30    3.20 
   0  -2   0  392.16   22.70 
   0  -2   0  391.06   22.60 
   0   2   0  378.76   22.30 
   0   2   0  385.56   22.70 
   0   2   0  349.27   23.20 
   2  -2   0   -0.80    8.80 
  -2  -2   0    6.30    2.10 
   2  -2   0    8.60    4.70 
   2  -2   0    5.80    4.60 
  -2  -2   0    6.50    1.90 
  -2   2   0    4.80    1.70 
  -2   2   0    3.80    1.00 
   2   2   0    7.40    7.60 
   2   2   0    4.30    2.40 
  -4  -2   0    1.40    1.10 
  -4  -2   0   -1.00    1.70 
   1  -3   0  358.26   21.90 
   1  -3   0  394.06   22.50 
   1  -3   0  399.06   21.20 
  -1  -3   0  343.77   22.60 
   1   3   0  333.67   22.40 
   1   3   0  318.07   21.90 
  -1   3   0  369.46   21.40 
   1   3   0  357.56   23.50 
  -3  -3   0   28.90    3.30 
  -3  -3   0   22.20    3.30 
  -3  -3   0   26.80    2.90 
   3  -3   0   15.00    5.20 
  -3   3   0   25.50    2.80 
  -3   3   0   20.50    4.60 
   3   3   0   19.10    6.40 
  -3   3   0   23.70    2.70 
  -3   3   0   21.60    3.40 
  -3   3   0   24.50    2.80 
   0  -4   0 1261.37   75.39 
   0  -4   0 1194.78   74.99 
   0   4   0 1280.67   74.49 
   0   4   0 1231.98   75.39 
   0   4   0 1390.16   75.39 
  -2  -4   0    3.40    2.10 
  -2  -4   0    4.20    1.70 
  -2  -4   0    4.90    2.30 
   2  -4   0    8.50    8.30 
  -2  -4   0    4.30    2.80 
   2  -4   0    3.30    2.20 
  -2   4   0    5.00    2.00 
  -2   4   0    5.20    1.60 
  -2   4   0    3.60    1.60 
  -2   4   0    4.40    2.50 
  -2   4   0    4.80    3.00 
  -2   4   0    6.60    2.10 
  -2   4   0    3.10    0.90 
   2   4   0    1.70    3.50 
  -4  -4   0    2.90    1.50 
  -4  -4   0    2.90    1.20 
  -4  -4   0    3.30    1.50 
   1  -5   0  661.03   39.10 
  -1  -5   0  578.34   39.40 
   1  -5   0  637.94   37.70 
  -1   5   0  616.34   37.10 
   1   5   0  641.14   38.70 
  -1   5   0  636.54   39.20 
  -1   5   0  642.94   37.00 
   1   5   0  593.34   39.10 
   3  -5   0   -5.50    6.20 
  -3  -5   0    2.80    2.10 
  -3  -5   0    2.00    1.80 
  -3  -5   0    2.90    1.80 
  -3   5   0   -1.70    2.80 
  -3   5   0    3.60    2.70 
   3   5   0    2.40    9.10 
  -3   5   0    1.40    0.90 
  -3   5   0    3.60    1.30 
   0  -6   0  169.18   13.40 
   0  -6   0  167.68   11.60 
   0   6   0  172.48   10.50 
   0   6   0  166.58   14.10 
   0   6   0  174.18   13.20 
  -2  -6   0   10.70    2.20 
   2  -6   0   11.00    3.70 
  -2  -6   0    9.20    2.40 
  -2  -6   0   10.20    2.40 
  -2   6   0    5.60    2.60 
  -2   6   0   11.00    1.90 
   2   6   0   -2.00    5.50 
  -2   6   0    7.70    2.80 
  -2   6   0    9.50    1.80 
  -2   6   0    3.80    2.80 
  -2   6   0   13.30    2.80 
  -1  -7   0  280.67   18.40 
   1  -7   0  308.97   19.70 
  -1  -7   0  278.27   18.00 
  -1  -7   0  289.17   18.10 
  -1  -7   0  292.47   18.10 
  -1   7   0  277.47   18.20 
  -1   7   0  306.57   18.30 
  -1   7   0  312.47   17.90 
   1   7   0  326.57   21.70 
  -1   7   0  299.97   17.80 
  -1   7   0  306.57   18.00 
  -3   7   0    3.40    1.20 
  -3   7   0    4.30    2.30 
   0  -8   0   23.00    6.00 
   0   8   0   19.20    3.10 
   0   8   0   17.80    2.20 
   0   8   0   18.90    3.00 
  -2  -8   0   13.60    3.10 
  -2  -8   0   19.60    2.80 
  -2  -8   0   21.80    2.70 
   2  -8   0   20.20    6.40 
   2   8   0    5.30   12.20 
  -2   8   0    9.80    4.50 
  -2   8   0   18.70    2.50 
  -2   8   0   21.60    2.20 
  -2   8   0   17.90    2.80 
  -2   8   0   22.00    3.30 
  -1  -9   0   -0.40    1.50 
  -1  -9   0   -1.10    2.50 
   1  -9   0    0.90    6.20 
  -1  -9   0   -1.20    2.30 
  -1   9   0   -0.90    1.50 
  -1   9   0   -0.20    1.00 
   1   9   0    1.30    2.20 
  -1   9   0   -0.70    1.20 
  -1   9   0    0.10    3.10 
  -1   9   0   -0.70    1.30 
  -3  -9   0   -0.40    1.40 
  -3  -9   0    0.60    1.20 
  -3  -9   0    0.20    1.00 
  -3   9   0    0.20    1.10 
   3   9   0   -0.60    1.20 
  -3   9   0    0.20    0.90 
   0 -10   0    4.30    1.70 
   0  10   0    3.80    1.40 
   0  10   0    4.50    1.90 
   0  10   0    5.60    1.90 
  -2 -10   0   13.00    2.10 
  -2 -10   0    8.20    2.40 
  -2  10   0   13.30    2.80 
  -2  10   0   14.30    2.20 
  -2  10   0   12.80    1.70 
  -1 -11   0   95.39    6.50 
   1 -11   0   98.29    6.50 
  -1 -11   0   92.39    6.50 
   1  11   0   94.09    6.90 
  -1  11   0   91.79    6.70 
   1  11   0   92.39    6.30 
  -1  11   0   97.89    7.00 
  -1  11   0   98.79    6.20 
  -1  11   0   93.49    6.20 
   0  12   0   18.40    5.30 
  -2 -12   0    4.70    1.30 
  -2  12   0    6.70    1.80 
   2  12   0    5.80    1.30 
  -2  12   0    3.20    0.90 
  -1 -13   0    7.30    1.60 
   1 -13   0    4.70    1.40 
  -1  13   0    1.40    1.40 
   1  13   0    4.10    1.00 
  -1  13   0    4.60    1.30 
   0 -14   0    1.10    1.20 
   0  14   0    0.70    0.70 
   0  14   0    1.30    0.90 
  -4   0   1    0.50    2.10 
   2   0  -1   -4.40    4.60 
   2   0  -1    1.60    7.60 
  -2   0   1    0.50    1.00 
   0   0  -1    0.30    0.50 
   0   0  -1    0.10    0.30 
   0   0  -1    0.10    0.30 
   0   0   1    0.10    0.40 
   0   0   1    0.00    0.60 
   0   0  -1   -0.30    0.40 
   2   0   1   -0.60    3.70 
   2   0   1    4.40    6.00 
   2   0   1    4.10    5.20 
  -4   0  -1    0.60    1.50 
  -3  -1   1   22.90    5.30 
  -3  -1   1   20.10    4.10 
  -3  -1   1   25.90    2.90 
  -3  -1   1   16.00    3.60 
  -3  -1   1   29.40    3.30 
  -3   1   1   23.50    4.90 
  -3   1   1   33.00    4.30 
  -3   1   1   22.50    3.60 
  -3   1   1   15.30    3.30 
  -3   1   1   19.50    4.10 
  -3   1   1   30.20    3.90 
   3   1  -1   24.20    5.80 
  -3   1   1   21.80    3.40 
  -1  -1   1  481.25   29.80 
   1  -1  -1  488.15   29.40 
  -1   1   1  476.85   28.60 
   1   1  -1  499.35   29.80 
   1  -1   1 9999.00  546.55 
   1  -1   1 9089.39  546.65 
   1   1   1 8275.27  546.15 
   1   1   1 9542.45  546.75 
   1   1   1 9907.81  546.85 
   1   1   1 9368.46  546.25 
   3  -1   1   10.30    4.30 
  -3  -1  -1   11.00    2.30 
  -3  -1  -1   13.10    2.80 
  -3  -1  -1   10.30    2.10 
  -3  -1  -1    5.50    2.20 
  -3   1  -1    7.00    1.80 
  -3   1  -1   10.50    2.20 
  -3   1  -1   10.70    2.30 
  -3   1  -1   15.10    2.80 
   3   1   1   10.80    5.50 
  -3   1  -1   12.10    3.00 
  -4  -2   1    1.00    1.30 
  -4  -2   1    1.30    1.60 
  -2  -2   1  183.38   12.00 
   2  -2  -1  216.68   14.10 
   2  -2  -1  205.58   15.40 
   2  -2  -1  204.98   21.10 
  -2  -2   1  168.88   11.90 
   2   2  -1  191.78   12.40 
   2   2  -1  201.38   19.30 
  -2   2   1  185.78   11.80 
  -2   2   1  208.58   11.90 
   0  -2  -1 1533.55   94.49 
   0  -2  -1 1593.04   94.39 
   0  -2  -1 1472.25   94.19 
   0  -2   1 1512.25   94.39 
   0  -2   1 1560.64   94.59 
   0   2   1 1547.25   94.19 
   0   2  -1 1631.44   94.59 
   0   2   1 1725.03   94.49 
   0   2  -1 1696.43   94.59 
   0   2   1 1853.81   94.09 
   0   2   1 1593.94   94.49 
   2  -2   1  152.88   18.60 
  -2  -2  -1  167.68   10.70 
  -2  -2  -1  166.58   10.90 
  -2  -2  -1  175.58   10.80 
   2  -2   1  210.98   18.30 
  -2   2  -1  171.58   10.50 
  -2   2  -1  154.18   10.40 
   2   2   1  177.38   16.00 
  -2   2  -1  165.68   10.70 
  -2   2  -1  168.28   10.70 
   2   2   1  181.28   11.60 
  -4  -2  -1    1.00    1.10 
  -4  -2  -1    1.70    1.30 
  -3  -3   1   12.30    2.40 
  -3  -3   1    2.90    3.00 
  -3  -3   1    8.80    2.20 
  -3  -3   1    4.80    2.60 
  -3   3   1    7.40    1.90 
  -3   3   1   11.90    3.10 
  -3   3   1    6.30    3.50 
   3   3  -1    5.50    6.30 
  -3   3   1   10.10    2.40 
   3   3  -1    6.30    3.30 
  -1  -3   1  103.89    8.60 
   1  -3  -1  121.89    8.20 
   1  -3  -1  109.49    6.60 
   1  -3  -1  114.59    7.40 
   1  -3  -1  107.99    6.90 
   1   3  -1   98.29    7.40 
   1   3  -1   90.89   10.50 
  -1   3   1  106.59    6.70 
   1  -3   1  367.66   21.30 
   1  -3   1  352.16   20.90 
  -1  -3  -1  340.47   21.80 
   1  -3   1  360.86   21.60 
   1  -3   1  363.76   20.50 
  -1   3  -1  356.46   21.70 
   1   3   1  330.77   21.40 
   1   3   1  340.07   21.60 
   1   3   1  332.37   21.40 
  -1   3  -1  343.77   20.80 
  -3  -3  -1    1.60    2.00 
   3  -3   1    3.50    4.70 
  -3  -3  -1    1.30    1.80 
  -3  -3  -1    2.00    1.60 
  -3   3  -1    0.50    0.90 
  -3   3  -1    1.60    1.40 
  -3   3  -1   -0.50    3.40 
   3   3   1   -0.70    6.60 
  -3   3  -1    3.80    2.00 
  -3   3  -1    1.40    1.80 
  -4  -4   1   11.50    1.70 
  -4  -4   1   12.30    2.10 
  -2  -4   1  118.09    8.40 
  -2  -4   1   97.59   21.30 
  -2  -4   1  125.49    8.70 
  -2  -4   1  137.09    8.90 
   2  -4  -1  150.78   17.90 
  -2  -4   1  133.79   10.40 
  -2  -4   1  130.99    8.50 
  -2   4   1  133.69    9.00 
  -2   4   1  133.59    8.30 
  -2   4   1  132.09    8.20 
   2   4  -1  126.29   10.50 
  -2   4   1  140.19    8.70 
   2   4  -1  139.39    8.70 
  -2   4   1  132.29    8.40 
  -2   4   1  132.19    8.40 
   0  -4  -1  184.38   12.60 
   0  -4  -1  200.38   13.10 
   0  -4  -1  199.38   12.20 
   0  -4   1  202.18   12.70 
   0  -4   1  194.18   13.20 
   0   4  -1  188.88   12.00 
   0   4   1  228.18   13.20 
   0   4   1  198.98   12.10 
   0   4  -1  204.58   13.00 
   0   4  -1  193.88   13.10 
   0   4   1  213.88   13.30 
  -2  -4  -1    4.20    2.70 
  -2  -4  -1    8.50    2.20 
   2  -4   1    5.00    8.60 
  -2  -4  -1    6.60    1.90 
   2  -4   1    8.00    2.40 
  -2  -4  -1    7.30    2.30 
  -2  -4  -1    2.30    2.70 
  -2   4  -1    4.00    2.70 
  -2   4  -1    7.60    1.60 
  -2   4  -1    9.20    2.20 
  -2   4  -1    6.40    1.60 
  -2   4  -1    5.30    1.60 
   2   4   1    3.60    3.50 
  -2   4  -1    7.20    2.00 
  -4  -4  -1    1.30    0.80 
  -4  -4  -1    1.40    1.30 
  -3  -5   1   31.90    3.80 
  -3  -5   1   37.70    3.90 
  -3  -5   1   44.40    3.70 
   3  -5  -1   36.80    8.70 
  -3  -5   1   36.30    3.40 
  -3   5   1   29.40    3.80 
  -3   5   1   35.00    3.50 
  -3   5   1   34.30    4.70 
   3   5  -1   18.70    9.30 
  -3   5   1   38.20    3.10 
   1  -5  -1   70.69    7.90 
   1  -5  -1   65.49    5.40 
  -1  -5   1   54.39    9.30 
   1   5  -1   49.10    9.30 
   1   5  -1   66.39    6.50 
  -1   5   1   62.49    4.40 
  -1   5   1   66.79    8.70 
  -1   5   1   68.39    4.60 
   1  -5   1  487.55   28.40 
   1  -5   1  487.15   29.70 
  -1  -5  -1  424.96   30.10 
   1   5   1  462.25   28.90 
  -1   5  -1  453.15   27.80 
  -1   5  -1  482.95   29.90 
  -1   5  -1  468.85   27.60 
   1   5   1  469.65   30.00 
   1   5   1  448.76   27.80 
  -3  -5  -1    2.30    1.60 
   3  -5   1   12.80    6.40 
  -3  -5  -1    2.10    1.80 
  -3  -5  -1    1.40    1.80 
  -3   5  -1    2.10    1.40 
  -3   5  -1    7.10    4.80 
   3   5   1    4.50    3.30 
   3   5   1    5.30    9.00 
  -3   5  -1    1.90    2.60 
  -3   5  -1    3.50    1.00 
  -2  -6   1    8.30    2.00 
  -2  -6   1    8.00    2.30 
   2  -6  -1    7.20    3.80 
  -2  -6   1    6.60    2.10 
  -2  -6   1    8.80    2.30 
  -2   6   1    5.80    3.10 
  -2   6   1    7.10    2.90 
  -2   6   1    6.10    2.50 
   2   6  -1   11.70    6.20 
  -2   6   1    7.10    1.60 
  -2   6   1    8.70    1.80 
   0  -6   1 1059.09   63.19 
   0  -6   1 1030.50   64.39 
   0  -6  -1 1044.50   63.09 
   0  -6  -1 1070.19   64.19 
   0   6  -1 1072.69   63.69 
   0   6   1  998.00   62.09 
   0   6  -1 1011.30   64.29 
   0   6  -1 1083.19   61.99 
   0   6   1 1079.99   62.19 
   0   6   1 1106.29   63.79 
   0   6   1 1075.99   64.19 
  -2  -6  -1  204.18   13.70 
   2  -6   1  248.88   15.30 
  -2  -6  -1  219.98   13.70 
  -2  -6  -1  218.48   13.70 
  -2  -6  -1  217.78   13.50 
  -2   6  -1  211.58   13.40 
  -2   6  -1  219.08   13.50 
  -2   6  -1  230.48   13.30 
   2   6   1  220.78   17.70 
   2   6   1  198.68   13.90 
  -2   6  -1  203.48   13.90 
  -2   6  -1  220.28   14.00 
  -2   6  -1  211.08   14.80 
  -2   6  -1  224.48   13.30 
  -3  -7   1   20.10    3.60 
  -3  -7   1   12.30    2.00 
  -3   7   1   13.90    3.10 
  -3   7   1   15.40    3.20 
  -3   7   1   16.40    2.80 
  -1  -7   1   52.89    4.20 
  -1  -7   1   44.90    4.00 
   1  -7  -1   45.00    6.30 
  -1  -7   1   38.60    5.00 
  -1   7   1   51.59    3.70 
  -1   7   1   53.49    3.90 
  -1   7   1   56.19    4.40 
   1   7  -1   61.99    9.40 
  -1   7   1   55.19    4.30 
  -1   7   1   52.09    3.80 
  -1  -7  -1  190.98   12.10 
  -1  -7  -1  186.68   11.90 
   1  -7   1  196.48   13.60 
  -1  -7  -1  184.38   12.60 
  -1  -7  -1  134.99   23.10 
  -1  -7  -1  186.88   12.10 
   1   7   1  184.08   16.20 
  -1   7  -1  199.58   11.80 
  -1   7  -1  200.28   11.80 
  -1   7  -1  198.48   12.20 
  -1   7  -1  199.68   11.70 
  -3   7  -1    0.30    1.00 
  -3   7  -1    1.10    0.90 
  -2  -8   1    1.50    2.00 
  -2  -8   1    3.90    2.00 
   2  -8  -1    0.70    5.50 
  -2  -8   1    3.70    1.70 
  -2   8   1    2.60    1.30 
  -2   8   1    6.80    4.60 
   2   8  -1    6.00   11.10 
  -2   8   1    3.50    1.60 
  -2   8   1    1.30    1.90 
  -2   8   1    2.60    1.20 
   0  -8   1  180.68   14.80 
   0  -8  -1  165.08   11.20 
   0  -8  -1  186.08   15.00 
   0   8   1  163.08   11.10 
   0   8   1  191.48   11.50 
   0   8   1  163.78   11.20 
   0   8  -1  181.58   11.60 
   0   8  -1  188.28   11.20 
   0   8   1  183.08   11.00 
   0   8  -1  186.98   11.00 
   2  -8   1   -3.40    5.70 
  -2  -8  -1    4.00    2.00 
  -2  -8  -1    0.10    2.10 
  -2  -8  -1    1.90    1.80 
   2   8   1    2.80    2.70 
   2   8   1    6.40   12.00 
  -2   8  -1    0.10    2.00 
  -2   8  -1    3.30    3.60 
  -2   8  -1    1.50    2.10 
  -2   8  -1    3.00    1.30 
  -2   8  -1    1.60    0.90 
  -3  -9   1    3.30    1.30 
  -3  -9   1    2.10    1.30 
  -3  -9   1    0.60    1.40 
  -3   9   1    1.70    1.30 
  -3   9   1    4.00    1.00 
   3   9  -1    1.80    1.10 
  -3   9   1    1.50    1.90 
  -1  -9   1   39.10    3.80 
   1  -9  -1   43.90    8.20 
  -1  -9   1   38.40    3.60 
  -1   9   1   34.20    3.80 
  -1   9   1   41.20    3.70 
  -1   9   1   41.60    3.20 
  -1   9   1   40.70    3.20 
  -1   9   1   40.20    4.90 
   1   9  -1   37.70    4.40 
  -1  -9  -1   10.90    2.30 
  -1  -9  -1    3.10    2.50 
  -1  -9  -1    8.10    1.90 
   1  -9   1   13.10    6.80 
  -1   9  -1    6.10    1.40 
   1   9   1    8.90    2.00 
  -1   9  -1    6.40    1.50 
   1   9   1    5.60    2.30 
  -1   9  -1    9.20    2.00 
  -1   9  -1   12.60    3.30 
  -1   9  -1    8.50    2.10 
  -3  -9  -1    1.10    1.00 
  -3  -9  -1    0.30    1.10 
  -3   9  -1    1.60    0.90 
  -3   9  -1    1.70    1.00 
  -2 -10   1    1.60    1.40 
  -2 -10   1    1.30    2.40 
  -2  10   1    4.10    1.30 
  -2  10   1    3.80    1.20 
  -2  10   1    2.60    1.50 
   0 -10   1   47.20    4.00 
   0 -10  -1   43.40    3.90 
   0  10  -1   46.90    5.00 
   0  10   1   46.50    3.60 
   0  10  -1   43.80    3.90 
   0  10  -1   49.20    4.40 
   0  10   1   49.10    4.20 
   0  10  -1   50.09    3.70 
  -2 -10  -1    8.50    2.60 
  -2 -10  -1   11.60    2.30 
  -2  10  -1   13.20    2.60 
   2  10   1   10.60    1.90 
   2  10   1    6.00    2.40 
  -2  10  -1   12.80    2.20 
  -2  10  -1   14.60    2.20 
  -2  10  -1   11.50    2.50 
  -2  10  -1    3.30    6.70 
  -1 -11   1   26.60    2.70 
   1 -11  -1   29.30    3.00 
   1  11  -1   21.20    3.30 
  -1  11   1   26.20    3.00 
  -1  11   1   26.60    2.30 
   1  11  -1   24.10    2.50 
  -1  11   1   25.60    2.50 
  -1  11   1   16.80    5.90 
  -1 -11  -1    3.70    1.70 
  -1 -11  -1    5.40    2.00 
   1 -11   1    5.90    2.00 
  -1  11  -1    6.10    1.30 
  -1  11  -1   11.00    4.60 
   1  11   1    5.80    2.00 
   1  11   1    6.70    1.40 
  -1  11  -1    8.30    2.20 
  -1  11  -1    4.90    1.20 
  -1  11  -1    3.10    1.60 
  -2 -12   1    8.10    1.70 
   2  12  -1    5.60    1.30 
  -2  12   1    7.30    1.30 
  -2  12   1    5.20    1.40 
  -2  12   1    9.80    1.80 
   2  12  -1    3.80    1.50 
   0 -12  -1   34.20    3.40 
   0  12  -1   19.80    5.40 
   0  12  -1   37.10    3.30 
   2 -12   1   14.40    2.30 
   2  12   1    9.10    1.50 
  -2  12  -1   12.90    1.40 
  -2  12  -1   14.80    2.20 
   1 -13  -1   14.70    3.00 
  -1 -13   1   14.50    1.90 
   1  13  -1   10.60    2.10 
  -1  13   1   14.60    2.00 
   1  13  -1   11.50    1.60 
  -1  13   1   15.80    1.50 
  -1 -13  -1   12.60    1.80 
   1 -13   1   14.00    1.90 
  -1  13  -1    9.80    1.60 
  -1  13  -1   12.30    1.90 
   1  13   1   10.80    2.00 
   1  13   1   10.60    1.50 
  -1  13  -1    9.50    1.80 
   0 -14  -1   20.00    2.10 
   0 -14  -1   19.60    2.20 
   0  14   1   17.70    1.50 
   0  14  -1   11.70    1.90 
   0  14  -1   13.50    1.50 
   0  14   1   14.60    1.90 
  -4   0   2   33.50    3.50 
   2   0  -2  406.96   25.90 
   2   0  -2  395.86   30.40 
   0   0  -2  109.79    6.50 
   0   0   2  123.09    6.90 
   0   0  -2   99.79    6.80 
   0   0   2  101.49    6.60 
   0   0  -2  104.89    6.60 
   0   0  -2  111.69    6.80 
   2   0   2 2331.37  140.39 
   2   0   2 2599.64  141.09 
   2   0   2 2323.77  139.79 
   2   0   2 2717.53  140.99 
  -2   0  -2 2084.89  139.79 
  -2   0  -2 2257.57  139.69 
  -2   0  -2 2382.56  139.69 
   2   0   2 2437.76  139.89 
  -2   0  -2 2301.67  139.59 
  -2   0  -2 2443.86  139.89 
  -4   0  -2   -1.20    1.30 
  -3  -1   2   38.40    4.20 
  -3  -1   2   31.30    6.10 
  -3  -1   2   35.50    3.80 
   3  -1  -2   29.40    6.40 
  -3  -1   2   44.60    3.90 
   3   1  -2   43.50    9.00 
  -3   1   2   26.60    3.90 
  -3   1   2   45.40    4.40 
  -3   1   2   40.10    5.60 
  -3   1   2   30.60    4.20 
  -3   1   2   39.10    4.10 
  -1  -1   2  121.19    9.20 
  -1   1   2  121.19    7.40 
   1   1  -2  122.49    7.80 
   1   1  -2  130.59    9.40 
   1  -1   2 3447.26  193.98 
  -1  -1  -2 3231.48  194.08 
   1  -1   2 3395.16  194.18 
  -1  -1  -2 3438.86  194.38 
   1  -1   2 3502.95  194.28 
   1  -1   2 3136.89  193.88 
   1   1   2 2818.72  194.38 
   1   1   2 3408.56  194.28 
  -1   1  -2 3320.17  194.08 
  -1   1  -2 3519.45  194.18 
   1   1   2 3474.15  194.18 
   1   1   2 3162.48  194.18 
  -3  -1  -2   52.39    4.50 
  -3  -1  -2   53.69    4.70 
  -3  -1  -2   69.79    4.90 
  -3  -1  -2   63.79    4.50 
  -3   1  -2   72.39    5.50 
  -3   1  -2   59.09    4.60 
  -3   1  -2   58.89    4.80 
  -3   1  -2   59.39    4.30 
  -3   1  -2   55.39    4.50 
   3   1   2   62.09   10.00 
  -4  -2   2    2.90    1.50 
  -4  -2   2    2.80    1.50 
  -2  -2   2  197.28   12.70 
  -2  -2   2  207.08   12.90 
  -2  -2   2  206.08   13.60 
   2  -2  -2  224.18   16.90 
   2  -2  -2  235.78   34.00 
  -2  -2   2  203.18   12.80 
  -2   2   2  206.38   12.60 
  -2   2   2  228.38   12.70 
  -2   2   2  206.08   13.10 
   2   2  -2  207.18   13.40 
   2   2  -2  207.98   21.10 
  -2   2   2  181.48   12.50 
  -2   2   2  209.08   12.60 
   0  -2  -2 1063.39   64.29 
   0  -2  -2 1040.20   64.09 
   0  -2   2 1093.69   64.49 
   0  -2   2 1118.89   64.29 
   0  -2  -2 1065.99   64.29 
   0   2  -2 1129.49   64.39 
   0   2  -2 1074.09   64.39 
   0   2   2 1198.88   64.49 
   0   2   2 1095.39   64.09 
   0   2   2 1047.30   64.29 
  -2  -2  -2  939.71   61.99 
  -2  -2  -2 1074.59   62.09 
  -2  -2  -2  925.71   62.09 
  -2  -2  -2 1042.40   62.19 
   2  -2   2 1081.19   62.39 
   2  -2   2 1076.59   63.39 
   2  -2   2 1193.68   63.29 
   2  -2   2 1041.70   61.99 
  -2   2  -2 1102.59   62.09 
  -2   2  -2 1036.60   62.19 
   2   2   2 1061.99   63.09 
  -2   2  -2 1041.40   62.09 
  -2   2  -2 1099.69   61.99 
  -4  -2  -2    0.60    1.00 
  -4  -2  -2    2.20    1.20 
  -4   2  -2    0.40    2.50 
  -3  -3   2    0.80    2.60 
   3  -3  -2   -0.80    4.70 
  -3  -3   2    0.90    2.70 
  -3  -3   2    1.30    4.00 
  -3  -3   2    1.20    1.90 
  -3  -3   2    1.90    1.80 
  -3   3   2    2.10    1.60 
  -3   3   2    1.20    2.50 
   3   3  -2    0.60    6.30 
  -3   3   2    3.10    2.20 
   3   3  -2    1.80    3.90 
  -3   3   2    0.90    1.30 
   1  -3  -2  885.31   50.09 
  -1  -3   2  750.62   50.79 
   1  -3  -2  817.82   49.60 
   1  -3  -2  889.21   50.59 
   1  -3  -2  896.11   49.40 
   1   3  -2  789.22   50.09 
  -1   3   2  838.62   49.20 
   1   3  -2  847.22   50.99 
   1  -3   2  548.85   31.80 
   1  -3   2  533.35   30.80 
  -1  -3  -2  517.35   31.90 
   1  -3   2  514.85   31.20 
   1  -3   2  554.04   32.10 
  -1  -3  -2  475.45   31.50 
   1   3   2  522.95   31.80 
  -1   3  -2  542.85   31.80 
  -1   3  -2  542.35   31.10 
   1   3   2  504.85   31.60 
   1   3   2  502.95   31.60 
  -3  -3  -2    4.80    2.10 
  -3  -3  -2    2.90    1.90 
   3  -3   2    4.00    6.00 
  -3  -3  -2    7.70    1.90 
  -3  -3  -2    2.70    2.10 
  -3   3  -2    3.80    3.40 
   3   3   2    4.10    7.00 
  -3   3  -2    3.10    1.00 
  -3   3  -2    3.40    1.80 
  -3   3  -2    5.00    1.40 
  -3   3  -2    3.60    1.90 
  -4  -4   2    0.60    1.00 
  -4  -4   2    0.10    1.10 
  -2  -4   2   56.19    6.50 
  -2  -4   2   64.69    4.80 
  -2  -4   2   60.59    5.40 
   2  -4  -2   66.79    5.60 
  -2  -4   2   59.79    5.00 
  -2  -4   2   62.29    5.50 
  -2  -4   2   56.99    4.50 
  -2   4   2   67.79    5.00 
  -2   4   2   59.99    4.30 
  -2   4   2   60.09    4.40 
   2   4  -2   65.59    4.70 
   2   4  -2   62.89    7.00 
  -2   4   2   60.09    4.50 
  -2   4   2   58.49    4.90 
   0  -4   2  365.46   22.10 
   0  -4  -2  336.17   22.10 
   0  -4  -2  367.96   22.50 
   0  -4   2  363.06   22.70 
   0  -4  -2  355.86   21.70 
   0   4  -2  387.46   22.50 
   0   4   2  343.57   22.50 
   0   4  -2  352.56   22.80 
   0   4   2  372.36   22.60 
   0   4   2  378.06   21.70 
  -2  -4  -2  175.18   10.80 
   2  -4   2  176.88   11.40 
  -2  -4  -2  166.08   10.90 
  -2  -4  -2  169.58   10.60 
  -2  -4  -2  164.28   10.80 
  -2   4  -2  166.18   10.50 
  -2   4  -2  182.88   10.40 
  -2   4  -2  176.58   10.60 
  -2   4  -2  172.08   10.50 
   2   4   2  139.89   12.60 
  -2   4  -2  165.18   11.00 
  -4  -4  -2   -0.10    1.00 
  -4  -4  -2    0.40    0.80 
   3  -5  -2  123.29   12.60 
  -3  -5   2  129.99    8.30 
  -3  -5   2  104.49    8.40 
  -3  -5   2  128.39    8.30 
  -3  -5   2  119.19    8.40 
  -3   5   2  133.99    8.20 
  -3   5   2  125.19    7.90 
  -3   5   2  127.89    8.30 
   3   5  -2  114.09   16.70 
  -3   5   2  120.09    8.70 
   1  -5  -2  125.79    8.90 
  -1  -5   2  107.09   12.20 
   1  -5  -2  129.79    7.80 
   1  -5  -2  138.89   11.30 
   1   5  -2  126.29   13.00 
  -1   5   2  127.69    8.00 
  -1   5   2  131.09    8.10 
   1   5  -2  129.59   12.30 
   1   5  -2  116.29   10.10 
   1  -5   2  203.68   14.40 
   1  -5   2  195.28   12.20 
   1   5   2  163.18   14.00 
  -1   5  -2  191.28   14.70 
  -1   5  -2  189.28   11.60 
   1   5   2  152.58   14.50 
   1   5   2  173.28   13.50 
  -1   5  -2  199.98   11.40 
   1   5   2  188.98   11.60 
  -3  -5  -2   13.60    2.60 
  -3  -5  -2   15.10    2.80 
  -3  -5  -2   18.20    2.20 
   3  -5   2   11.90    7.70 
  -3   5  -2   15.80    2.30 
  -3   5  -2   13.60    2.20 
  -3   5  -2   17.40    2.30 
   3   5   2   12.00    9.90 
  -3   5  -2   13.50    2.90 
  -2  -6   2  175.68   10.70 
   2  -6  -2  186.68   12.70 
  -2  -6   2  160.18   10.80 
  -2  -6   2  178.88   10.80 
  -2  -6   2  157.68   10.80 
  -2   6   2  159.88   10.40 
  -2   6   2  167.98   11.00 
  -2   6   2  165.68   10.70 
   2   6  -2  162.48   14.80 
  -2   6   2  172.18   10.40 
   0  -6  -2  107.59   10.60 
   0  -6   2  106.49    8.50 
   0  -6   2  111.59   11.10 
   0  -6  -2  106.79    8.40 
   0   6  -2  100.89   11.40 
   0   6  -2  115.29   10.90 
   0   6  -2  103.09    7.00 
   0   6   2  106.39    7.10 
   0   6   2   96.99   10.90 
   0   6   2  110.29    7.90 
   0   6  -2  111.89    6.90 
   0   6   2  109.39   11.50 
  -2  -6  -2    0.60    1.90 
  -2  -6  -2    0.30    1.80 
  -2  -6  -2    0.50    1.80 
   2  -6   2   -1.80    3.40 
  -2   6  -2    1.10    0.90 
   2   6   2   -0.90    2.10 
  -2   6  -2    4.10    2.60 
   2   6   2   -1.20    5.80 
  -2   6  -2    0.20    1.50 
  -2   6  -2    3.00    3.00 
  -2   6  -2   -1.00    1.20 
  -2   6  -2   -0.70    2.50 
  -3  -7   2   30.30    3.50 
  -3   7   2   36.90    3.70 
  -3   7   2   38.50    3.30 
  -3   7   2   33.50    3.90 
  -1  -7   2   38.00    3.50 
  -1  -7   2   36.10    3.50 
   1  -7  -2   39.10    6.00 
   1   7  -2   37.80    8.50 
  -1   7   2   35.40    3.00 
  -1   7   2   36.00    3.50 
  -1   7   2   35.20    3.10 
  -1   7   2   38.00    3.80 
  -1   7   2   37.60    3.30 
  -1  -7  -2  286.77   18.00 
   1  -7   2  298.17   19.70 
  -1  -7  -2  274.87   17.80 
  -1  -7  -2  292.67   17.70 
  -1  -7  -2  265.57   18.20 
  -1   7  -2  299.57   17.60 
  -1   7  -2  283.77   18.10 
   1   7   2  292.37   22.10 
  -1   7  -2  315.97   18.10 
  -1   7  -2  298.17   17.70 
   1   7   2  302.57   18.30 
  -1   7  -2  302.77   17.70 
  -3  -7  -2    1.90    1.20 
  -3  -7  -2    1.10    1.30 
  -3  -7  -2    3.00    1.80 
  -3   7  -2    1.90    1.00 
  -3   7  -2    3.30    1.20 
  -2  -8   2    2.50    2.20 
  -2  -8   2    1.40    1.70 
   2  -8  -2    5.60    6.10 
  -2  -8   2    2.20    1.80 
  -2   8   2    0.90    1.70 
  -2   8   2    0.80    1.20 
   2   8  -2   -3.20   11.20 
  -2   8   2    1.30    1.20 
  -2   8   2    1.30    1.40 
   0  -8  -2   29.30    7.70 
   0  -8   2   22.10    6.90 
   0  -8  -2   33.30    3.50 
   0   8  -2   38.50    3.10 
   0   8   2   38.10    3.90 
   0   8  -2   37.10    4.10 
   0   8  -2   40.40    3.50 
   0   8   2   40.70    3.00 
  -2  -8  -2   41.20    3.90 
  -2  -8  -2   34.20    3.80 
   2  -8   2   42.30   10.40 
  -2  -8  -2   38.30    3.60 
  -2   8  -2   40.20    3.20 
  -2   8  -2   39.20    4.50 
  -2   8  -2   37.40    3.10 
  -2   8  -2   31.80    5.50 
   2   8   2   36.50   16.20 
  -3  -9   2    6.90    1.60 
  -3  -9   2    8.80    2.00 
   3   9  -2    5.80    2.20 
  -3   9   2   11.70    2.40 
  -1  -9   2    7.60    2.10 
   1  -9  -2    5.10    2.40 
  -1  -9   2    6.00    1.80 
   1  -9  -2   10.10    7.10 
  -1   9   2    4.60    3.70 
  -1   9   2    6.50    1.80 
  -1   9   2    5.60    1.40 
  -1   9   2    5.90    1.40 
  -1   9   2    6.40    1.80 
  -1  -9  -2    4.50    2.10 
   1  -9   2   12.00    7.20 
  -1  -9  -2    5.30    1.90 
   1   9   2    6.40    2.30 
  -1   9  -2   10.30    3.30 
  -1   9  -2    8.50    1.80 
   1   9   2    6.70    1.70 
  -1   9  -2    2.40    1.30 
  -1   9  -2    4.60    1.90 
  -1   9  -2    4.90    1.70 
  -3  -9  -2    0.20    1.00 
  -3  -9  -2    0.80    1.00 
  -3   9  -2   -0.10    0.80 
  -3   9  -2    0.80    0.80 
  -2 -10   2   29.50    4.20 
  -2  10   2   34.70    3.90 
  -2  10   2   33.00    2.70 
   0 -10  -2   42.00    3.90 
   0 -10   2   50.59    4.00 
   0  10  -2   45.00    3.80 
   0  10   2   47.20    4.20 
   0  10  -2   48.90    5.00 
   0  10  -2   50.19    4.30 
   0  10  -2   44.10    3.60 
   0  10   2   50.59    3.60 
  -2 -10  -2   20.20    2.80 
  -2  10  -2   22.30    2.70 
  -2  10  -2   24.90    3.40 
  -2  10  -2   29.90    3.00 
  -2  10  -2   13.20    6.60 
   2  10   2   23.30    2.50 
   1 -11  -2   31.60    3.20 
  -1 -11   2   26.50    2.70 
  -1  11   2   29.80    2.40 
  -1  11   2   25.70    2.70 
   1  11  -2   24.30    2.60 
   1  11  -2   25.40    3.20 
  -1  11   2   32.20    3.10 
  -1 -11  -2   23.00    2.70 
  -1 -11  -2   22.00    2.60 
   1  11   2   25.30    2.40 
   1  11   2   20.30    3.10 
  -1  11  -2   24.50    2.30 
  -1  11  -2   26.90    2.80 
  -1  11  -2   24.50    3.60 
  -1  11  -2   19.00    3.00 
  -1  11  -2   18.00    4.80 
  -2 -12   2    3.10    1.10 
  -2 -12   2    3.70    3.10 
  -2  12   2    6.30    1.70 
  -2  12   2    4.30    1.00 
   2  12  -2    1.40    0.90 
  -2  12   2    4.60    1.40 
   2  12  -2    1.30    1.20 
  -2  12   2    3.60    1.00 
   0 -12  -2   41.60    3.00 
   0 -12  -2   40.30    3.20 
   0 -12   2   37.60    3.20 
   0  12   2   30.50    2.60 
   0  12  -2   24.10    3.00 
   0  12   2   27.10    3.10 
   0  12  -2   22.70    5.50 
   0  12  -2   33.60    2.60 
   0  12   2   14.00    6.50 
   0  12  -2   32.00    3.90 
  -2 -12  -2    3.80    1.30 
   2 -12   2    5.50    1.70 
  -2  12  -2    6.10    1.10 
   2  12   2    2.80    1.00 
  -2  12  -2    5.60    1.70 
  -1 -13   2    7.10    1.70 
  -1  13   2    6.00    1.20 
   1  13  -2    5.70    1.30 
  -1  13   2    8.10    1.70 
   1  13  -2    6.70    1.80 
  -1 -13  -2   38.20    2.90 
   1 -13   2   40.40    2.80 
  -1  13  -2   34.00    3.40 
   1  13   2   31.50    2.60 
   1  13   2   27.40    3.10 
  -1  13  -2   33.00    2.70 
  -1  13  -2   35.70    3.00 
   0 -14  -2    1.10    1.60 
   0 -14  -2    1.30    1.20 
   0 -14   2    0.30    0.90 
   0  14  -2    0.60    0.80 
   0  14  -2    1.30    0.90 
   0  14   2    0.50    0.90 
   0  14   2    0.60    0.60 
  -4   0   3   -1.80    1.80 
  -4   0   3   -2.20    2.10 
  -2   0   3    0.40    2.40 
   2   0  -3    0.10    1.90 
   2   0  -3   -2.50    3.30 
   0   0  -3    0.00    0.80 
   0   0  -3    1.70    1.30 
   0   0  -3    0.40    1.00 
   0   0   3   -0.70    1.20 
   0   0   3    0.00    0.70 
   0   0  -3    1.00    0.70 
  -2   0  -3    1.50    2.00 
  -2   0  -3   -0.50    2.50 
  -2   0  -3    2.50    2.00 
   2   0   3   -1.10    2.00 
  -2   0  -3    0.70    1.50 
  -2   0  -3   -0.10    1.80 
  -2   0  -3    0.60    1.30 
  -4   0  -3    0.40    1.20 
  -3  -1   3   90.79    7.70 
  -3  -1   3   85.49    6.40 
  -3  -1   3   96.99    6.50 
  -3  -1   3   83.19    6.40 
   3  -1  -3   66.49    9.00 
   3   1  -3   91.09   11.30 
  -3   1   3   89.89    7.30 
  -3   1   3  103.39    6.40 
  -3   1   3   75.89    6.40 
  -3   1   3   96.39    6.70 
   1  -1  -3  440.16   27.60 
   1  -1  -3  521.55   27.90 
   1   1  -3  397.86   27.80 
   1   1  -3  499.45   28.20 
   1  -1   3   80.69    5.00 
   1  -1   3   72.49    5.20 
   1  -1   3   78.99    5.50 
   1  -1   3   72.49    6.80 
  -1  -1  -3   74.49    5.10 
  -1  -1  -3   74.39    5.80 
   1  -1   3   77.29    5.30 
   1   1   3   83.09    7.60 
  -1   1  -3   81.29    5.60 
   1   1   3   78.19    5.90 
   1   1   3   76.19    5.60 
  -1   1  -3   86.39    5.20 
  -3  -1  -3  133.19    8.20 
   3  -1   3  101.39   12.10 
  -3  -1  -3  110.79    7.90 
  -3  -1  -3  130.69    7.80 
  -3  -1  -3  115.49    7.70 
  -3   1  -3  110.89    7.80 
   3   1   3  107.69   13.00 
  -3   1  -3  123.59    7.60 
  -3   1  -3  123.19    7.90 
  -3   1  -3  120.69    7.90 
  -4  -2   3    3.00    1.70 
  -4  -2   3    4.80    2.00 
  -4  -2   3    2.90    1.50 
   2  -2  -3  314.67   17.40 
  -2  -2   3  264.77   17.40 
  -2  -2   3  268.87   16.60 
  -2  -2   3  251.37   16.50 
   2  -2  -3  286.47   16.60 
  -2  -2   3  255.37   16.60 
   2  -2  -3  276.57   20.90 
   2   2  -3  284.97   17.60 
  -2   2   3  267.87   16.80 
  -2   2   3  275.27   16.40 
  -2   2   3  257.77   16.40 
  -2   2   3  256.67   16.30 
   0  -2  -3  424.66   27.70 
   0  -2  -3  436.96   27.40 
   0  -2   3  456.85   27.90 
   0  -2   3  490.35   27.70 
   0  -2  -3  466.35   27.70 
   0   2  -3  451.85   27.20 
   0   2  -3  451.85   27.80 
   0   2  -3  484.85   27.80 
   0   2   3  441.76   27.30 
   0   2  -3  450.75   27.30 
   0   2   3  515.05   27.90 
  -2  -2  -3  365.96   21.30 
  -2  -2  -3  348.77   21.50 
  -2  -2  -3  346.07   21.50 
  -2  -2  -3  346.07   21.30 
   2  -2   3  345.77   21.80 
   2  -2   3  335.17   26.80 
  -2   2  -3  351.66   21.30 
  -2   2  -3  367.96   21.20 
  -2   2  -3  353.76   21.50 
  -2   2  -3  353.96   21.40 
  -2   2  -3  364.76   21.70 
   2   2   3  367.06   22.90 
  -4  -2  -3    1.10    1.00 
  -4   2  -3    1.10    1.50 
  -3  -3   3    5.80    3.90 
  -3  -3   3    5.10    3.90 
  -3  -3   3    3.60    2.60 
  -3  -3   3   12.40    2.60 
  -3  -3   3   11.20    2.40 
   3  -3  -3    2.40    5.30 
   3   3  -3   10.20    6.80 
  -3   3   3    9.40    2.70 
  -3   3   3   10.20    2.20 
  -3   3   3    7.70    2.20 
  -1  -3   3  469.45   31.50 
   1  -3  -3  521.25   30.20 
   1  -3  -3  531.25   29.80 
   1  -3  -3  568.14   31.30 
   1  -3  -3  523.45   31.10 
   1   3  -3  425.46   30.40 
  -1   3   3  470.35   29.40 
  -1  -3  -3  185.38   13.00 
  -1  -3  -3  212.48   13.20 
   1  -3   3  209.68   12.80 
   1  -3   3  207.78   12.30 
   1  -3   3  209.58   13.20 
   1   3   3  181.28   12.90 
  -1   3  -3  209.38   13.20 
  -1   3  -3  190.48   12.30 
   1   3   3  206.78   13.50 
  -1   3  -3  200.48   12.30 
  -3  -3  -3   98.69    7.10 
  -3  -3  -3  117.89    7.50 
  -3  -3  -3   92.09    7.00 
  -3  -3  -3  102.49    7.00 
   3  -3   3  119.49   12.30 
   3   3   3   82.89   13.30 
  -3   3  -3  115.29    8.20 
  -3   3  -3  101.89    7.00 
  -3   3  -3  110.29    6.80 
  -4  -4   3    2.20    1.20 
  -4  -4   3    1.10    1.10 
  -2  -4   3  200.68   12.10 
  -2  -4   3  181.58   11.70 
  -2  -4   3  186.08   12.00 
   2  -4  -3  202.68   12.80 
  -2  -4   3  184.88   11.60 
  -2  -4   3  184.68   13.00 
  -2  -4   3  174.78   12.20 
  -2   4   3  191.08   11.70 
  -2   4   3  185.48   11.50 
  -2   4   3  194.08   12.00 
  -2   4   3  192.08   11.50 
   2   4  -3  170.38   13.60 
   0  -4  -3  344.47   20.90 
   0  -4  -3  355.66   21.70 
   0  -4   3  314.57   21.80 
   0  -4   3  342.87   21.30 
   0  -4  -3  318.67   21.30 
   0   4   3  341.67   20.80 
   0   4   3  375.46   21.90 
   0   4  -3  339.57   21.90 
   0   4  -3  347.87   20.60 
   0   4  -3  360.26   21.70 
   0   4   3  352.86   21.70 
  -2  -4  -3  264.87   17.00 
  -2  -4  -3  258.77   16.90 
  -2  -4  -3  276.97   17.10 
  -2  -4  -3  269.67   16.80 
   2  -4   3  294.87   18.00 
  -2   4  -3  287.67   16.70 
  -2   4  -3  306.37   16.70 
  -2   4  -3  276.77   16.80 
  -2   4  -3  287.37   17.20 
  -2   4  -3  268.57   16.80 
   2   4   3  248.78   19.20 
  -4  -4  -3    1.70    1.00 
  -4  -4  -3    2.20    1.00 
   3  -5  -3   17.10    6.90 
  -3  -5   3   12.80    3.00 
  -3  -5   3   18.80    3.20 
  -3  -5   3   17.80    2.60 
  -3  -5   3   18.60    2.70 
  -3  -5   3   11.90    3.00 
  -3   5   3   19.40    2.60 
  -3   5   3   20.10    3.30 
   3   5  -3   11.60    9.50 
  -3   5   3   19.10    3.50 
  -3   5   3   20.70    2.30 
   1  -5  -3  122.79   11.30 
   1  -5  -3  106.19    7.70 
  -1  -5   3  104.69   12.60 
  -1  -5   3  102.19    7.30 
   1  -5  -3  108.29    8.20 
  -1   5   3  119.59    7.10 
   1   5  -3  111.39    9.70 
   1   5  -3  111.09    8.90 
  -1   5   3  108.89    8.30 
  -1   5   3  105.99    6.90 
  -1   5   3  111.79    7.20 
   1  -5   3  117.69    8.60 
  -1  -5  -3  115.49   12.10 
   1  -5   3  134.59   12.00 
  -1  -5  -3  100.49    7.30 
  -1  -5  -3   95.69    7.40 
  -1   5  -3  110.29   12.60 
   1   5   3   99.59   10.70 
   1   5   3  111.89    9.80 
  -1   5  -3  113.59    7.20 
  -1   5  -3  111.89    7.30 
  -1   5  -3  122.59    7.30 
  -1   5  -3  118.49    7.50 
  -1   5  -3  121.39    7.20 
   1   5   3  117.89   12.00 
  -3  -5  -3   10.00    2.00 
  -3  -5  -3   11.40    2.50 
  -3  -5  -3    4.70    1.90 
   3  -5   3   11.30    8.90 
  -3   5  -3   11.80    2.10 
  -3   5  -3    5.40    4.40 
  -3   5  -3    9.00    1.70 
   3   5   3   -5.80   10.40 
  -3   5  -3   10.40    2.70 
   3   5   3    5.60    3.60 
  -3   5  -3    9.30    2.00 
  -2  -6   3   73.59    6.10 
  -2  -6   3   79.69    5.90 
  -2  -6   3   83.69    5.70 
   2  -6  -3   77.19    8.50 
  -2  -6   3   74.29    6.20 
  -2  -6   3   88.99    5.90 
  -2   6   3   82.49    6.20 
  -2   6   3   90.49    5.60 
   2   6  -3   77.89   10.80 
  -2   6   3   84.99    5.50 
  -2   6   3   76.19    5.80 
   0  -6  -3  158.38   11.30 
   0  -6   3  142.89   14.50 
   0  -6   3  174.48   11.90 
   0  -6  -3  159.88   13.70 
   0  -6  -3  161.88   11.70 
   0   6  -3  180.28   16.40 
   0   6  -3  160.78   10.40 
   0   6  -3  144.69   15.10 
   0   6   3  157.58   14.50 
   0   6  -3  158.88   10.20 
   0   6   3  166.18    9.80 
   0   6   3  147.79   14.60 
   0   6  -3  165.48   10.00 
   0   6   3  153.38   11.30 
  -2  -6  -3   11.70    2.80 
  -2  -6  -3   12.20    2.50 
   2  -6   3   15.60    4.50 
  -2  -6  -3   10.10    2.60 
  -2  -6  -3   12.80    2.90 
  -2   6  -3   12.20    2.10 
  -2   6  -3   12.00    2.90 
  -2   6  -3   12.30    2.00 
  -2   6  -3   16.80    3.50 
   2   6   3    4.00    6.60 
  -2   6  -3   14.90    1.90 
   2   6   3   10.10    3.00 
  -3  -7   3  104.39    7.70 
  -3  -7   3  115.69    8.60 
  -3   7   3  124.39    7.40 
  -3   7   3  121.59    7.90 
  -3   7   3  101.39    7.80 
  -3   7   3  119.39    8.10 
  -1  -7   3   66.59    4.90 
  -1  -7   3   57.69    6.40 
  -1  -7   3   65.19    4.80 
   1  -7  -3   65.69    7.90 
  -1   7   3   63.69    4.50 
  -1   7   3   70.99    4.80 
  -1   7   3   60.99    5.40 
   1   7  -3   54.39   10.00 
   1   7  -3   54.29    5.00 
  -1   7   3   69.89    5.10 
  -1   7   3   68.09    4.70 
  -1  -7  -3   75.59    6.20 
  -1  -7  -3   81.99    5.80 
  -1  -7  -3   36.20   21.20 
  -1  -7  -3   75.49    6.50 
  -1  -7  -3   73.39    5.70 
   1  -7   3   76.69    8.40 
  -1   7  -3   81.29    6.20 
  -1   7  -3   74.09    5.70 
   1   7   3   84.99    6.80 
  -1   7  -3   87.59    5.60 
  -1   7  -3   85.39    5.50 
   1   7   3   70.39   13.10 
  -1   7  -3   89.39    6.50 
   1   7   3   86.89    5.50 
  -3  -7  -3    5.10    1.60 
  -3   7  -3   -3.80    7.70 
  -2  -8   3   38.10    3.40 
  -2  -8   3   35.80    3.70 
  -2  -8   3   31.10    3.80 
   2  -8  -3   31.50    7.90 
   2   8  -3   17.50   13.10 
  -2   8   3   37.60    3.70 
  -2   8   3   32.10    3.00 
  -2   8   3   39.50    3.00 
  -2   8   3   36.20    3.90 
   0  -8   3   13.90    2.60 
   0  -8   3   -4.40    7.10 
   0  -8  -3   11.90    2.80 
   0   8  -3   12.80    2.70 
   0   8   3   12.10    2.00 
   0   8   3   18.20    3.00 
   0   8  -3   13.20    2.40 
   0   8   3   11.60    2.80 
   0   8  -3   13.30    2.90 
   0   8  -3   10.20    2.00 
  -2  -8  -3   23.00    3.00 
   2  -8   3   18.40    7.60 
  -2  -8  -3   16.00    3.10 
  -2  -8  -3   17.30    2.70 
   2   8   3   16.20    2.70 
   2   8   3   11.60   18.40 
  -2   8  -3   18.70    2.10 
  -2   8  -3   14.60    4.00 
  -2   8  -3   16.00    4.10 
  -3  -9   3   50.59    4.30 
  -3  -9   3   51.59    4.20 
  -3  -9   3   62.19    4.20 
  -3   9   3   63.19    4.60 
  -3   9   3   61.39    4.20 
  -1  -9   3    9.20    2.20 
   1  -9  -3    8.40    7.80 
  -1  -9   3    7.10    1.80 
   1  -9  -3    6.00    2.20 
  -1   9   3    9.60    2.00 
  -1   9   3    8.80    1.60 
  -1   9   3    6.20    4.50 
  -1   9   3    6.90    1.90 
  -1   9   3   10.60    2.50 
  -1  -9  -3   38.20    3.40 
  -1  -9  -3   34.30    3.70 
   1  -9   3   26.40   10.20 
  -1   9  -3   40.70    4.10 
   1   9   3   40.40    4.30 
  -1   9  -3   39.80    3.50 
  -1   9  -3   37.20    3.70 
   1   9   3   39.30    3.20 
  -1   9  -3   32.70    4.50 
  -1   9  -3   34.00    3.00 
  -3  -9  -3   14.00    1.90 
  -3  -9  -3   13.10    1.80 
  -3   9  -3   15.70    1.70 
  -3   9  -3   18.60    2.20 
  -2 -10   3  103.59    6.40 
  -2 -10   3   98.69    6.60 
   2  10  -3   85.69    7.10 
  -2  10   3   94.79    6.40 
  -2  10   3   99.29    6.20 
   0 -10   3   25.00    3.20 
   0 -10  -3   30.20    3.10 
   0  10   3   27.80    3.20 
   0  10   3   27.00    2.50 
   0  10  -3   23.60    3.40 
   0  10  -3   22.00    4.50 
   0  10  -3   24.80    2.70 
   0  10  -3   24.10    2.80 
  -2 -10  -3   13.70    2.60 
  -2 -10  -3   17.40    2.40 
  -2 -10  -3   10.80    2.40 
  -2  10  -3   14.60    3.30 
  -2  10  -3   18.50    1.80 
   2  10   3    9.90    2.10 
  -2  10  -3   14.40    6.30 
  -2  10  -3   17.30    2.50 
  -1 -11   3   79.19    5.40 
   1  11  -3   78.09    5.80 
  -1  11   3   76.09    4.90 
  -1  11   3   82.59    5.20 
   1  11  -3   61.59    7.60 
  -1  11   3   71.19    5.50 
   1  11  -3   69.59    5.00 
   1  11   3   12.80    3.60 
  -1  11  -3    9.50    3.00 
  -1  11  -3   16.00    1.80 
  -1  11  -3   11.50    4.50 
  -1  11  -3   19.20    2.20 
  -1  11  -3   16.00    3.30 
  -2 -12   3   21.00    2.10 
  -2 -12   3   17.40    2.40 
   2  12  -3   14.90    1.80 
  -2  12   3   22.80    1.80 
  -2  12   3   19.70    2.20 
  -2  12   3   22.80    1.90 
   2  12  -3   15.40    2.30 
   0 -12  -3   39.20    2.90 
   0 -12  -3   35.10    3.30 
   0 -12   3   34.70    2.90 
   0  12   3   32.90    3.20 
   0  12  -3   29.00    3.10 
   0  12  -3   21.50    5.60 
   0  12  -3   29.70    3.10 
   0  12  -3   32.20    2.70 
   0  12   3   33.50    2.60 
   2 -12   3    1.20    1.10 
  -2 -12  -3    1.20    0.90 
   2  12   3    0.30    1.20 
  -2  12  -3    1.20    0.70 
  -1 -13   3    0.20    1.00 
   1  13  -3    0.50    1.00 
  -1  13   3    0.70    0.90 
  -1  13   3    1.10    0.70 
   1  13  -3    0.60    0.80 
  -1 -13  -3    4.50    1.60 
  -1 -13  -3    4.00    1.30 
   1  13   3    3.10    0.80 
   1  13   3    2.30    1.60 
  -1  13  -3    3.10    1.10 
  -4   0   4   -0.40    2.00 
  -4   0   4    1.00    1.80 
  -4   0   4    0.70    3.10 
  -2   0   4   57.19    5.00 
  -2   0   4   69.59    4.90 
   2   0  -4   66.49    5.80 
  -2   0   4   63.59    5.60 
  -2   0   4   65.29    5.10 
   0   0  -4  251.47   16.50 
   0   0  -4  247.38   16.80 
   0   0  -4  275.27   16.10 
   0   0  -4  281.97   16.80 
   0   0   4  300.67   16.90 
  -2   0  -4  139.19    9.10 
  -2   0  -4  139.19    9.70 
  -2   0  -4  136.09   10.40 
  -2   0  -4  140.19    9.20 
  -2   0  -4  157.48    9.50 
   2   0   4  141.29   10.40 
  -2   0  -4  155.88    9.30 
  -4   0  -4    1.20    1.20 
  -4   0  -4    2.30    1.10 
  -3  -1   4   13.10    2.70 
   3  -1  -4   11.60    6.30 
  -3  -1   4   11.50    2.50 
  -3  -1   4   20.50    3.20 
  -3  -1   4    7.00    3.30 
  -3   1   4    8.60    2.40 
  -3   1   4   15.10    3.20 
  -3   1   4   16.30    2.50 
   3   1  -4    7.80    6.90 
  -3   1   4   12.20    3.10 
   1  -1  -4 1176.18   62.39 
   1  -1  -4  947.21   61.39 
   1  -1  -4 1079.79   63.29 
   1   1  -4  910.91   61.49 
   1   1  -4 1089.49   63.09 
  -1  -1  -4   15.30    2.80 
  -1  -1  -4    8.70    2.00 
  -1  -1  -4   13.10    1.70 
   1  -1   4   16.70    2.50 
   1  -1   4   17.80    3.70 
   1   1   4   13.10    3.00 
  -1   1  -4   14.60    2.50 
  -1   1  -4   14.10    2.00 
  -1   1  -4   11.20    1.80 
   1   1   4   10.20    2.70 
   3  -1   4   29.10    8.20 
  -3  -1  -4   28.50    3.00 
  -3  -1  -4   31.20    3.20 
  -3  -1  -4   39.00    3.00 
  -3   1  -4   27.00    4.20 
  -3   1  -4   32.70    2.90 
   3   1   4   27.90    9.50 
  -3   1  -4   36.40    3.40 
  -3   1  -4   26.70    3.10 
  -4  -2   4    1.20    1.80 
  -4  -2   4    0.20    1.30 
  -4   2   4    2.10    2.00 
  -4   2   4    2.60    2.90 
  -2  -2   4  151.08   10.10 
  -2  -2   4  159.88   11.00 
   2  -2  -4  176.48   11.00 
  -2  -2   4  157.28   10.20 
  -2  -2   4  150.08   10.10 
   2   2  -4  174.08   11.70 
  -2   2   4  157.58   10.00 
  -2   2   4  170.28   10.60 
  -2   2   4  146.19   10.20 
  -2   2   4  163.78    9.90 
   0  -2  -4  732.13   45.10 
   0  -2   4  802.52   45.40 
   0  -2  -4  730.53   44.90 
   0  -2   4  788.32   45.10 
   0  -2  -4  746.23   44.80 
   0   2  -4  701.93   45.10 
   0   2  -4  751.12   45.10 
   0   2   4  703.23   44.70 
   0   2  -4  790.12   44.40 
   0   2  -4  768.12   44.60 
   0   2   4  794.72   45.20 
  -2  -2  -4  159.58    9.90 
  -2  -2  -4  136.49    9.80 
  -2  -2  -4  147.09    9.90 
  -2  -2  -4  140.09    9.60 
  -2  -2  -4  162.98    9.70 
   2  -2   4  149.49   10.80 
  -2   2  -4  147.49    9.90 
  -2   2  -4  161.18    9.50 
  -2   2  -4  158.68    9.70 
   2   2   4  137.39   12.10 
  -2   2  -4  163.98    9.70 
  -2   2  -4  152.18    9.70 
  -4  -2  -4   21.10    2.00 
  -4   2  -4   25.00    3.20 
  -3  -3   4   63.29    6.80 
  -3  -3   4   68.19    5.00 
  -3  -3   4   57.29    5.20 
   3  -3  -4   42.90    9.60 
  -3  -3   4   61.49    4.90 
  -3  -3   4   67.89    5.70 
  -3   3   4   73.09    4.70 
  -3   3   4   58.59    5.60 
  -3   3   4   68.29    5.60 
  -3   3   4   57.59    4.60 
   1  -3  -4 1133.69   64.89 
  -1  -3   4 1031.80   66.09 
   1  -3  -4 1188.08   64.49 
   1  -3  -4 1115.19   65.69 
   1   3  -4  982.70   64.99 
   1  -3   4   95.09    7.20 
   1  -3   4   66.99    8.10 
  -1  -3  -4   76.29    5.80 
  -1  -3  -4   89.89    7.40 
  -1  -3  -4   83.89    6.70 
  -1   3  -4   95.59    5.80 
   1   3   4   75.59    8.50 
   1   3   4   76.59    6.20 
   1   3   4   95.49    7.90 
  -1   3  -4   92.19    7.10 
  -1   3  -4   90.89    6.30 
  -3  -3  -4   77.49    6.10 
  -3  -3  -4   87.19    6.60 
  -3  -3  -4   97.09    6.70 
  -3  -3  -4   96.89    6.20 
   3  -3   4   79.19   12.70 
  -3   3  -4   89.89    6.30 
  -3   3  -4   96.89    6.30 
  -3   3  -4   87.69    5.90 
  -3   3  -4   93.69    7.70 
  -4  -4   4    0.40    0.90 
  -4  -4   4    1.50    1.40 
  -4   4   4    0.00    3.20 
  -2  -4   4  187.88   13.50 
  -2  -4   4  210.28   14.80 
  -2  -4   4  244.28   13.80 
   2  -4  -4  225.38   15.00 
  -2  -4   4  213.18   13.50 
  -2  -4   4  207.98   13.70 
  -2   4   4  222.18   13.80 
  -2   4   4  225.28   13.60 
  -2   4   4  221.88   13.40 
   2   4  -4  227.28   16.10 
  -2   4   4  230.38   13.30 
   0  -4   4  570.34   34.50 
   0  -4  -4  583.84   34.80 
   0  -4   4  579.04   35.40 
   0  -4  -4  546.15   34.10 
   0  -4  -4  571.44   34.50 
   0   4   4  558.14   34.80 
   0   4  -4  509.85   33.50 
   0   4   4  531.75   33.90 
   0   4  -4  551.44   35.00 
   0   4  -4  615.34   35.00 
   0   4  -4  570.74   33.70 
   0   4   4  620.34   35.00 
  -2  -4  -4    8.60    2.30 
  -2  -4  -4    5.50    2.10 
   2  -4   4    7.30    3.40 
  -2  -4  -4    7.20    2.30 
  -2   4  -4   11.20    1.80 
  -2   4  -4    6.10    2.60 
  -2   4  -4   11.30    2.30 
  -2   4  -4   11.70    2.70 
  -2   4  -4    9.70    1.90 
  -3  -5   4   -0.70    2.40 
  -3  -5   4    2.90    1.80 
  -3  -5   4    1.20    2.10 
  -3  -5   4    1.70    1.60 
   3  -5  -4    7.10    7.20 
   3   5  -4   -3.30   10.10 
  -3   5   4    3.10    1.50 
  -3   5   4    1.30    1.80 
  -3   5   4    1.70    1.40 
  -3   5   4    1.60    1.80 
  -1  -5   4  440.26   25.70 
   1  -5  -4  457.55   27.00 
  -1  -5   4  381.06   30.40 
  -1  -5   4  374.66   25.50 
   1  -5  -4  498.35   29.70 
  -1  -5   4  430.56   25.80 
   1  -5  -4  454.05   26.40 
  -1   5   4  432.86   25.50 
  -1   5   4  425.06   25.80 
   1   5  -4  451.45   27.50 
  -1   5   4  410.56   25.50 
  -1   5   4  421.46   25.40 
  -1   5   4  418.46   26.30 
  -1  -5  -4  133.19   12.70 
  -1  -5  -4  141.99    9.40 
  -1  -5  -4  149.09   14.80 
  -1  -5  -4  139.99    9.10 
   1  -5   4  133.49   14.30 
   1  -5   4  156.68   10.70 
  -1  -5  -4  139.79    9.60 
  -1   5  -4  147.59    9.00 
  -1   5  -4  153.98   15.70 
  -1   5  -4  154.78    9.00 
   1   5   4  132.89   13.90 
   1   5   4  138.89   11.90 
  -1   5  -4  137.59    9.10 
  -1   5  -4  146.19    9.40 
  -1   5  -4  148.89    9.20 
  -3  -5  -4    3.70    1.30 
  -3  -5  -4    4.80    1.60 
  -3   5  -4    2.20    2.20 
  -3   5  -4    4.00    2.40 
  -3   5  -4    7.80    1.90 
  -3   5  -4    6.00    1.30 
   3   5   4    1.40    3.90 
  -3   5  -4   -2.60    4.40 
  -2  -6   4  115.59    7.50 
   2  -6  -4  113.29   10.50 
  -2  -6   4  120.19    7.60 
  -2  -6   4  106.79    7.90 
  -2  -6   4  107.29    7.60 
  -2  -6   4  111.59    7.90 
   2   6  -4  108.29   12.70 
  -2   6   4  112.79    7.80 
  -2   6   4  111.19    7.80 
  -2   6   4  106.29    7.20 
  -2   6   4  116.89    7.20 
   0  -6  -4    6.10    6.60 
   0  -6  -4   -2.20    3.90 
   0  -6  -4   -1.90    4.60 
   0  -6   4    3.00    1.90 
   0  -6   4    2.60    7.30 
   0  -6   4    1.20    3.70 
   0   6  -4    1.30    1.70 
   0   6   4   -0.10    4.80 
   0   6  -4    2.40    3.10 
   0   6  -4   -0.40    1.40 
   0   6  -4   -0.80    3.40 
   0   6   4   -0.20    2.00 
   0   6   4    1.30    1.60 
   0   6   4    1.20    7.30 
   0   6   4    3.70    1.50 
   0   6  -4    2.90    1.50 
  -2  -6  -4   27.00    3.30 
   2  -6   4   21.60    5.70 
  -2  -6  -4   24.70    3.50 
  -2  -6  -4   28.20    3.10 
  -2  -6  -4   31.60    3.10 
   2   6   4   26.70    4.40 
  -2   6  -4   29.90    2.80 
   2   6   4   27.00    9.60 
  -2   6  -4   28.00    2.80 
  -2   6  -4   27.90    4.10 
  -2   6  -4   25.60    4.40 
  -2   6  -4   30.90    2.70 
  -3  -7   4   70.49    5.10 
  -3  -7   4   72.59    5.00 
  -3   7   4   69.09    4.80 
  -3   7   4   61.49    5.30 
  -3   7   4   75.39    4.80 
  -1  -7   4  220.68   13.90 
  -1  -7   4  240.68   14.00 
  -1  -7   4  202.78   14.20 
   1  -7  -4  240.38   16.80 
  -1   7   4  207.18   14.20 
   1   7  -4  212.08   18.50 
  -1   7   4  233.98   14.30 
   1   7  -4  245.88   14.20 
  -1   7   4  238.28   13.90 
  -1   7   4  231.38   14.10 
   1  -7   4   44.70    7.60 
  -1  -7  -4   37.20    3.90 
  -1   7  -4   39.50    4.00 
   1   7   4   41.80    3.60 
  -1   7  -4   41.40    5.10 
  -1   7  -4   37.50    3.30 
  -1   7  -4   41.20    3.40 
   1   7   4   26.60    9.90 
  -3  -7  -4    2.00    1.40 
  -3  -7  -4    1.00    1.40 
  -3  -7  -4    1.70    1.20 
  -3   7  -4    1.50    1.20 
  -3   7  -4    1.10    0.80 
  -2  -8   4  560.24   33.30 
  -2  -8   4  559.44   33.40 
  -2  -8   4  523.95   33.40 
   2  -8  -4  577.34   37.20 
   2   8  -4  576.44   42.50 
  -2   8   4  536.85   33.60 
  -2   8   4  582.94   33.10 
  -2   8   4  555.34   33.10 
   0  -8   4   57.89    5.00 
   0  -8  -4   65.89    5.40 
   0   8   4   65.39    5.20 
   0   8   4   76.49    4.60 
   0   8  -4   64.79    5.50 
   0   8  -4   70.39    5.20 
   0   8  -4   70.79    5.70 
   0   8  -4   58.99    5.40 
  -2  -8  -4   20.20    2.90 
   2  -8   4   39.70    9.60 
  -2  -8  -4   22.60    3.10 
  -2  -8  -4   26.40    3.10 
   2   8   4    3.10   21.80 
  -2   8  -4   19.00    4.60 
  -2   8  -4   29.40    2.70 
   2   8   4   16.00    2.80 
  -2   8  -4   23.40    2.40 
  -3  -9   4    2.80    1.40 
  -3  -9   4    6.60    1.50 
   3   9  -4    2.90    1.60 
  -3   9   4    4.90    1.40 
  -3   9   4    3.20    1.30 
  -1  -9   4  120.29    8.20 
   1  -9  -4  123.39   19.60 
  -1  -9   4  118.19    8.00 
  -1   9   4  125.29    8.00 
   1   9  -4  125.19    8.40 
  -1   9   4  132.69    7.90 
  -1   9   4  126.99    8.50 
  -1  -9  -4    2.60    1.80 
   1  -9   4    6.00   10.40 
  -1  -9  -4    1.00    1.90 
   1   9   4    2.50    1.40 
  -1   9  -4    1.50    1.30 
   1   9   4    1.50    2.30 
  -1   9  -4    1.10    2.00 
  -1   9  -4    1.70    1.20 
  -1   9  -4    4.50    3.10 
  -3  -9  -4    1.70    1.00 
  -3  -9  -4    1.30    1.00 
  -3   9  -4    0.80    0.80 
  -3   9  -4    1.50    0.90 
  -2 -10   4  100.49    6.10 
  -2 -10   4   81.39    6.10 
  -2  10   4   89.59    6.30 
  -2  10   4  100.19    6.00 
   2  10  -4   75.29    6.70 
  -2  10   4   92.19    5.80 
   0 -10  -4   73.19    5.40 
   0 -10   4   59.49    5.20 
   0  10   4   75.69    5.40 
   0  10  -4   64.89    5.40 
   0  10  -4   62.39    6.50 
   0  10  -4   70.19    4.90 
   0  10  -4   75.19    5.00 
   0  10   4   69.99    4.80 
  -2 -10  -4    1.50    1.50 
  -2 -10  -4    1.50    1.70 
  -2  10  -4    5.00    5.00 
  -2  10  -4    1.30    0.90 
  -2  10  -4    0.70    1.00 
   2  10   4    2.00    1.50 
  -1 -11   4    6.70    2.00 
  -1 -11   4   12.80    2.50 
  -1  11   4    8.50    2.30 
   1  11  -4    9.20    4.80 
   1  11  -4    4.80    1.80 
  -1  11   4    9.80    2.00 
  -1  11   4    9.90    2.30 
  -1 -11  -4   35.10    3.10 
  -1 -11  -4   30.50    2.90 
  -1  11  -4   38.00    3.20 
   1  11   4   22.20    3.70 
   1  11   4   30.30    2.60 
  -1  11  -4   27.50    2.70 
  -1  11  -4   21.40    5.10 
  -2 -12   4    5.30    1.50 
  -2 -12   4    3.40    1.40 
  -2  12   4    5.60    1.20 
   2  12  -4    6.30    1.30 
  -2  12   4    8.60    1.20 
  -2  12   4    8.40    1.50 
  -2  12   4    6.80    1.60 
   0 -12  -4    0.10    2.00 
   0 -12   4    2.40    1.20 
   0 -12  -4    1.20    1.10 
   0  12  -4    4.30    5.00 
   0  12   4    1.60    0.90 
   0  12   4    1.90    1.40 
   0  12  -4    0.30    1.30 
   0  12  -4    2.00    1.20 
   0  12  -4    0.10    1.30 
   1 -13  -4    3.30    1.00 
  -1 -13   4    1.50    1.00 
   1  13  -4    0.80    1.10 
  -1  13   4    2.40    0.70 
  -1  13   4    1.10    0.90 
   1  13  -4    1.20    0.80 
  -1 -13  -4    4.90    1.50 
  -1 -13  -4    5.20    1.40 
   1  13   4    2.80    0.90 
  -1  13  -4    6.80    1.40 
  -1  13  -4    4.40    1.50 
  -4   0   5    0.10    1.70 
  -4   0   5   -0.10    2.80 
  -4   0   5    0.80    2.60 
  -4   0   5   -0.60    1.70 
  -2   0   5   -0.40    1.80 
  -2   0   5   -1.50    2.00 
  -2   0   5    1.10    1.80 
   2   0  -5   -0.10    2.60 
  -2   0   5   -0.30    2.40 
   0   0   5   -0.90    2.20 
   0   0  -5    0.80    2.10 
   0   0  -5    0.00    1.20 
   0   0  -5   -0.40    2.00 
   0   0  -5    0.80    1.70 
  -2   0  -5   -0.50    1.20 
  -2   0  -5   -0.40    1.70 
   2   0   5    0.30    3.30 
  -2   0  -5   -1.00    1.70 
  -2   0  -5   -1.60    1.70 
  -2   0  -5    1.10    1.70 
  -4   0  -5   -2.00    1.10 
  -4   0  -5   -0.20    0.90 
  -3  -1   5    8.20    3.30 
  -3  -1   5   11.20    2.90 
   3  -1  -5   12.40    7.10 
  -3  -1   5   12.10    2.70 
  -3  -1   5   15.50    2.80 
   3   1  -5   13.40    7.40 
  -3   1   5   19.70    4.00 
  -3   1   5   10.60    2.90 
  -3   1   5   17.50    2.50 
   1  -1  -5  125.99    7.70 
   1  -1  -5   98.79    7.60 
   1   1  -5  107.19    6.50 
   1   1  -5   94.69    7.60 
   1  -1   5  253.67   15.70 
  -1  -1  -5  243.58   16.00 
  -1  -1  -5  248.68   15.00 
  -1  -1  -5  254.47   14.90 
  -1   1  -5  245.08   14.90 
   1   1   5  240.88   18.60 
  -1   1  -5  240.78   14.90 
   1   1   5  232.68   15.90 
  -3  -1  -5    1.60    1.50 
  -3  -1  -5    1.90    1.40 
  -3  -1  -5    0.30    1.30 
   3  -1   5    2.20    8.80 
   3   1   5   -5.40    9.70 
  -3   1  -5    1.40    1.30 
  -3   1  -5    0.10    1.00 
  -3   1  -5    1.00    1.20 
  -4  -2   5    1.00    1.20 
  -4  -2   5   -0.80    1.60 
  -4  -2   5   -0.60    1.60 
  -4   2   5   -0.10    2.30 
  -4   2   5    1.10    1.60 
   2  -2  -5  362.96   22.60 
  -2  -2   5  353.86   21.50 
  -2  -2   5  348.17   21.30 
  -2  -2   5  347.07   22.00 
  -2  -2   5  360.96   21.30 
  -2  -2   5  327.47   21.20 
  -2   2   5  326.67   21.50 
  -2   2   5  369.16   21.20 
   2   2  -5  367.66   23.10 
  -2   2   5  387.76   21.10 
  -2   2   5  336.47   21.30 
   0  -2  -5 1779.52  104.09 
   0  -2   5 1835.62  104.29 
   0  -2   5 1871.71  104.69 
   0  -2  -5 1821.72  104.49 
   0  -2  -5 1606.74  103.99 
   0   2  -5 1730.13  104.29 
   0   2  -5 1781.42  103.49 
   0   2  -5 1775.92  103.89 
   0   2  -5 1716.83  104.39 
   0   2   5 1701.83  103.89 
   0   2   5 1823.62  104.49 
  -2  -2  -5    0.00    1.60 
  -2  -2  -5    0.80    1.70 
  -2  -2  -5    3.80    2.00 
   2  -2   5   -0.70    3.20 
  -2  -2  -5    3.00    2.30 
  -2  -2  -5    1.10    2.00 
  -2   2  -5    1.60    1.20 
  -2   2  -5   -1.00    1.60 
  -2   2  -5    1.40    2.00 
  -2   2  -5    0.80    1.60 
   2   2   5    3.60    5.20 
  -4  -2  -5    1.70    1.40 
  -4   2  -5    1.10    1.40 
  -3  -3   5   -0.80    3.30 
  -3  -3   5    2.00    2.50 
   3  -3  -5    6.80    7.00 
  -3  -3   5    1.20    2.20 
  -3  -3   5    4.10    2.00 
  -3  -3   5    3.50    2.00 
  -3   3   5    4.10    2.20 
  -3   3   5    2.80    1.70 
   3   3  -5   -2.40    8.70 
  -3   3   5    3.20    1.70 
   1  -3  -5   39.50    4.40 
   1  -3  -5   26.90    7.20 
  -1  -3   5   27.80    6.80 
   1  -3  -5   46.40    4.90 
   1   3  -5   26.40    7.50 
  -1  -3  -5   91.09    9.10 
   1  -3   5   86.69    8.50 
  -1  -3  -5  110.69    7.00 
   1  -3   5   99.69    7.90 
   1   3   5  102.89    8.80 
   1   3   5   74.59    9.40 
  -1   3  -5  104.19    8.10 
  -1   3  -5  102.69    8.10 
  -1   3  -5  110.19    6.60 
  -1   3  -5  100.39    6.70 
   3  -3   5   20.50    9.70 
  -3  -3  -5   22.90    2.50 
  -3  -3  -5   20.00    2.60 
  -3  -3  -5   21.60    2.70 
  -3   3  -5   21.20    2.80 
  -3   3  -5   21.00    2.10 
  -3   3  -5   16.10    4.30 
  -3   3  -5   26.90    2.70 
   3   3   5    1.40   11.30 
  -4  -4   5    0.60    0.90 
  -4  -4   5    0.30    1.30 
  -4   4   5   -0.60    2.30 
  -4   4   5   -0.90    1.80 
  -4   4   5    1.00    1.70 
   2  -4  -5   28.70    6.20 
  -2  -4   5   37.00    3.90 
  -2  -4   5   34.50    3.30 
  -2  -4   5   28.50    3.80 
  -2   4   5   27.70    4.00 
  -2   4   5   39.00    3.80 
   2   4  -5   37.00    7.20 
  -2   4   5   31.90    2.90 
   0  -4  -5  377.36   24.20 
   0  -4  -5  429.46   24.70 
   0  -4   5  388.36   24.30 
   0  -4   5  366.16   26.10 
   0  -4  -5  403.86   24.00 
   0   4  -5  361.56   23.00 
   0   4  -5  386.96   23.00 
   0   4   5  369.86   23.70 
   0   4   5  390.16   25.00 
   0   4  -5  400.26   25.00 
   0   4  -5  357.76   23.50 
  -2  -4  -5    2.70    1.80 
   2  -4   5    6.10    4.30 
  -2  -4  -5    1.40    1.90 
  -2  -4  -5    2.10    2.30 
  -2  -4  -5    0.20    2.00 
   2   4   5    7.10    6.60 
  -2   4  -5    3.00    2.60 
  -2   4  -5    1.80    1.80 
  -2   4  -5    2.00    1.00 
  -2   4  -5    1.70    1.40 
  -2   4  -5    0.90    1.80 
  -3  -5   5    3.30    1.70 
   3  -5  -5   -2.90    8.10 
  -3  -5   5    4.80    2.10 
  -3  -5   5    6.30    1.70 
  -3  -5   5    4.00    2.50 
  -3   5   5    5.30    1.50 
  -3   5   5    3.80    1.40 
  -3   5   5    4.40    1.90 
   3   5  -5   -2.30   11.90 
   1  -5  -5   22.70    5.00 
  -1  -5   5   15.20    2.70 
  -1  -5   5   19.80    3.40 
  -1  -5   5   13.70    9.80 
   1  -5  -5   12.00    8.00 
  -1  -5   5   17.60    2.90 
   1  -5  -5   24.30    5.90 
  -1  -5   5   20.70    2.40 
  -1  -5   5   21.10    2.90 
  -1   5   5   23.90    3.10 
   1   5  -5   16.00    4.80 
  -1   5   5   22.20    2.70 
  -1   5   5   19.80    2.30 
  -1  -5  -5   44.60    4.00 
   1  -5   5   22.20    9.00 
  -1  -5  -5   39.10    3.50 
   1  -5   5   37.50    6.10 
  -1  -5  -5   37.40    4.40 
  -1  -5  -5   31.60    4.50 
  -1   5  -5   41.80    3.60 
  -1   5  -5   43.10    3.60 
  -1   5  -5   49.60    3.50 
  -1   5  -5   48.90    3.70 
  -3  -5  -5    0.90    1.40 
  -3  -5  -5    1.80    1.20 
  -3  -5  -5    1.10    1.40 
  -3   5  -5    2.00    1.50 
  -3   5  -5    6.20    4.80 
  -3   5  -5    1.60    2.70 
   3   5   5    3.20    4.20 
  -3   5  -5    2.60    0.90 
  -3   5  -5    1.90    1.70 
  -2  -6   5    7.40    2.40 
  -2  -6   5    7.00    3.10 
   2  -6  -5    6.60    5.20 
  -2  -6   5   11.80    2.50 
  -2  -6   5    8.70    2.10 
  -2  -6   5    9.30    2.50 
  -2   6   5   11.70    1.90 
  -2   6   5    8.90    1.70 
  -2   6   5    8.50    2.40 
  -2   6   5   11.00    3.00 
   2   6  -5   12.40    7.90 
   0  -6   5   32.20    8.00 
   0  -6   5   29.70    3.10 
   0  -6   5   28.20   10.50 
   0  -6  -5   30.90    9.20 
   0  -6  -5   32.20    7.40 
   0  -6  -5   32.00    8.30 
   0   6  -5   31.80    3.00 
   0   6  -5   33.90    3.40 
   0   6  -5   40.90    3.70 
   0   6   5   31.90    3.70 
   0   6   5   36.80    2.90 
   0   6   5   34.40    4.40 
  -2  -6  -5   19.10    3.00 
  -2  -6  -5   17.60    3.00 
   2  -6   5   21.00    7.00 
  -2  -6  -5   21.50    2.70 
  -2   6  -5   18.20    2.30 
   2   6   5   15.70   11.50 
  -2   6  -5   24.70    2.60 
   2   6   5   26.50    4.80 
  -2   6  -5   25.00    4.50 
  -2   6  -5   23.30    2.40 
  -2   6  -5   21.40    3.80 
  -3  -7   5    1.60    1.40 
  -3  -7   5    0.60    1.20 
  -3   7   5    0.90    1.40 
  -3   7   5   -0.30    1.10 
  -3   7   5    0.70    1.10 
  -1  -7   5  179.38   13.10 
  -1  -7   5  201.88   12.90 
  -1  -7   5  177.98   13.70 
   1  -7  -5  227.28   16.40 
  -1   7   5  218.08   12.70 
  -1   7   5  230.68   12.90 
   1   7  -5  224.28   13.00 
   1   7  -5  216.18   19.20 
  -1   7   5  208.28   13.20 
  -1  -7  -5    5.40    2.30 
  -1  -7  -5    5.00    1.90 
   1  -7   5    7.10    5.50 
  -1   7  -5    7.40    2.70 
  -1   7  -5    7.10    1.60 
   1   7   5   -3.60   11.30 
  -1   7  -5    9.80    3.30 
  -1   7  -5    4.60    1.30 
  -3  -7  -5    0.00    0.90 
  -3  -7  -5    0.30    1.00 
  -3  -7  -5    0.60    1.40 
  -3   7  -5    1.00    1.20 
  -3   7  -5    0.90    0.80 
  -2  -8   5   46.30    3.70 
   2  -8  -5   36.70   10.40 
  -2  -8   5   36.70    3.90 
  -2  -8   5   41.20    4.00 
  -2   8   5   46.10    4.10 
  -2   8   5   42.10    3.30 
   2   8  -5   30.30   19.30 
  -2   8   5   43.50    3.50 
   0  -8   5   17.50    2.70 
   0  -8  -5    8.80    3.10 
   0   8  -5   15.70    3.20 
   0   8   5   17.80    2.00 
   0   8   5   16.60    3.30 
   0   8  -5   10.80    2.30 
   0   8  -5   13.60    2.40 
   0   8  -5   12.60    3.50 
   2  -8   5    2.30   10.90 
  -2  -8  -5    4.50    1.90 
  -2  -8  -5    5.80    1.90 
  -2  -8  -5    3.10    1.90 
  -2   8  -5    5.40    4.30 
  -2   8  -5    5.30    1.30 
  -2   8  -5    2.80    1.00 
  -3  -9   5    7.60    1.40 
  -3  -9   5    1.90    1.40 
  -3   9   5    3.40    1.40 
  -3   9   5    7.50    2.00 
  -3   9   5    7.40    1.60 
  -3   9   5    5.00    1.10 
  -1  -9   5  929.61   54.49 
  -1  -9   5  922.21   54.49 
   1  -9  -5  982.40   59.99 
  -1   9   5  939.71   54.89 
  -1   9   5  852.01   54.39 
  -1   9   5  877.91   54.29 
   1   9  -5  959.10   54.49 
   1   9  -5  934.21   55.19 
  -1  -9  -5   66.09    5.00 
   1  -9   5   51.89   16.10 
  -1  -9  -5   68.79    5.20 
  -1   9  -5   67.89    6.30 
  -1   9  -5   67.19    5.70 
  -1   9  -5   68.09    6.60 
  -1   9  -5   64.79    4.80 
   1   9   5   76.29    4.80 
  -2 -10   5   46.70    3.50 
  -2 -10   5   40.00    3.70 
  -2  10   5   46.80    3.40 
  -2  10   5   41.40    3.20 
  -2  10   5   41.80    3.80 
  -2  10   5   46.80    3.70 
   0 -10  -5  148.49    9.90 
   0 -10  -5  160.08    9.60 
   0 -10   5  144.09    9.50 
   0  10  -5  144.59    9.50 
   0  10   5  157.98    9.90 
   0  10  -5  149.59   10.00 
   0  10   5  147.89    9.30 
   0  10  -5  152.18   10.90 
   0  10  -5  145.89    9.40 
  -2 -10  -5    2.50    1.30 
  -2 -10  -5    2.30    1.50 
  -2  10  -5    3.50    0.90 
  -2  10  -5    2.30    1.00 
  -1 -11   5    3.30    1.70 
  -1 -11   5    4.90    1.20 
  -1  11   5    3.50    1.40 
  -1  11   5    2.80    0.90 
   1  11  -5   -2.20    4.90 
   1  11  -5    5.00    1.30 
   1  11  -5    4.60    1.60 
  -1  11   5    3.10    1.70 
  -1 -11  -5    5.20    1.80 
  -1 -11  -5    3.40    1.50 
  -1  11  -5    5.20    1.90 
  -1  11  -5    7.70    4.70 
   1  11   5    5.50    1.30 
  -1  11  -5    6.90    1.40 
  -2 -12   5    7.30    1.60 
  -2  12   5   11.40    2.10 
  -2  12   5    9.40    1.50 
   2  12  -5    6.50    1.30 
   2  12  -5    5.80    1.50 
  -2  12   5    8.70    1.20 
   0 -12   5   11.00    1.70 
   0 -12  -5    9.00    1.70 
   0  12   5    7.20    1.30 
   0  12  -5    5.00    1.40 
   0  12   5    4.30    1.50 
   0  12  -5    6.90    1.70 
   0  12  -5    6.60    1.40 
  -1 -13   5   33.20    2.40 
  -1  13   5   28.60    2.50 
   1  13  -5   23.40    2.50 
   1  13  -5   25.80    2.30 
  -4   0   6    2.50    2.20 
  -4   0   6    1.10    1.70 
  -4   0   6    1.20    1.50 
  -2   0   6   96.09    6.70 
  -2   0   6   83.49    6.80 
  -2   0   6  103.09    6.50 
   2   0  -6   98.79    9.00 
  -2   0   6  108.09    7.50 
   0   0  -6   21.70    4.60 
   0   0  -6   12.10    3.20 
   0   0  -6   12.70    3.10 
   0   0   6   10.70    3.50 
   0   0  -6   16.60    2.00 
  -2   0  -6   57.29    4.50 
  -2   0  -6   61.99    4.90 
  -2   0  -6   51.69    4.50 
   2   0   6   53.99    8.00 
  -2   0  -6   61.89    4.70 
  -2   0  -6   61.79    4.60 
   3  -1  -6   -4.10    7.90 
  -3  -1   6    3.20    1.80 
  -3  -1   6    1.00    2.40 
  -3  -1   6   -1.40    2.50 
  -3  -1   6    0.90    1.70 
  -3  -1   6    1.70    2.70 
  -3   1   6   -0.80    1.70 
   3   1  -6   -3.70    8.60 
  -3   1   6   -1.90    1.90 
  -3   1   6   -1.10    2.50 
  -3   1   6   -1.10    2.10 
   1  -1  -6  187.38   18.30 
   1  -1  -6  214.98   13.80 
   1  -1  -6  213.28   13.70 
   1  -1  -6  206.38   15.30 
   1   1  -6  192.98   13.90 
   1   1  -6  208.08   13.70 
   1   1  -6  211.08   12.80 
   1   1  -6  199.48   18.10 
  -1  -1  -6   55.49    4.50 
  -1  -1  -6   67.09    4.40 
  -1  -1  -6   52.39    4.40 
   1  -1   6   65.49    6.20 
  -1  -1  -6   45.50    7.90 
   1  -1   6   67.99    7.70 
  -1  -1  -6   63.79    4.60 
  -1   1  -6   53.09    8.00 
   1   1   6   56.79    6.60 
  -1   1  -6   56.59    4.50 
  -1   1  -6   63.89    4.50 
   1   1   6   50.59    7.70 
  -3  -1  -6    1.50    1.20 
  -3  -1  -6    0.00    1.20 
   3  -1   6    3.50   11.40 
  -3  -1  -6    2.80    1.70 
  -3   1  -6    0.70    1.10 
  -3   1  -6    0.80    1.10 
   3   1   6  -10.30   11.60 
  -3   1  -6    1.80    1.30 
  -4  -2   6   12.90    2.20 
  -4  -2   6   11.90    1.90 
  -4   2   6    8.30    2.40 
  -4   2   6   12.20    2.60 
  -4   2   6    7.50    1.80 
  -2  -2   6   31.00    3.10 
  -2  -2   6   32.10    4.20 
  -2  -2   6   34.80    3.40 
  -2  -2   6   30.80    4.90 
  -2  -2   6   36.80    3.40 
   2  -2  -6   31.00    6.20 
  -2   2   6   32.20    3.30 
  -2   2   6   33.10    2.90 
  -2   2   6   32.50    3.70 
  -2   2   6   39.10    4.00 
   2   2  -6   35.30    6.30 
   0  -2  -6  296.47   20.60 
   0  -2  -6  317.27   20.10 
   0  -2   6  301.27   20.60 
   0  -2  -6  308.57   19.50 
   0  -2   6  307.27   19.80 
   0  -2  -6  273.97   19.50 
   0   2  -6  317.77   18.50 
   0   2  -6  312.67   20.10 
   0   2  -6  317.57   19.50 
   0   2   6  298.07   20.00 
   0   2  -6  324.47   18.60 
   0   2  -6  321.87   20.20 
  -2  -2  -6   20.20    2.70 
  -2  -2  -6   15.80    3.30 
  -2  -2  -6   20.10    2.90 
   2  -2   6   16.40    4.90 
  -2  -2  -6   20.90    2.40 
   2   2   6   11.60    7.10 
  -2   2  -6   21.50    2.80 
  -2   2  -6   22.40    2.80 
  -2   2  -6   26.00    2.60 
  -2   2  -6   21.20    3.20 
  -3  -3   6    4.50    2.30 
  -3  -3   6    5.10    1.90 
  -3  -3   6    3.70    3.70 
   3  -3  -6    4.00    8.30 
  -3  -3   6    6.60    2.40 
  -3  -3   6    9.00    2.10 
  -3   3   6    3.10    1.70 
  -3   3   6    5.70    2.20 
   3   3  -6   18.40   10.50 
  -3   3   6    5.20    1.70 
  -3   3   6    5.50    2.30 
   1  -3  -6  881.61   52.19 
  -1  -3   6  736.73   51.09 
  -1  -3   6  860.91   51.79 
  -1  -3   6  803.82   55.29 
  -1  -3   6  965.60   51.19 
   1  -3  -6  867.91   52.49 
  -1  -3   6  886.31   51.29 
   1  -3  -6  887.71   59.29 
   1  -3  -6  928.31   53.99 
   1   3  -6  864.01   52.79 
   1   3  -6  954.90   51.19 
  -1   3   6  890.91   50.99 
  -1   3   6  819.42   51.39 
  -1   3   6  809.32   51.09 
  -1  -3  -6  695.93   43.10 
  -1  -3  -6  768.62   43.30 
  -1  -3  -6  662.23   43.00 
  -1  -3  -6  825.42   43.30 
  -1  -3  -6  673.63   45.00 
   1  -3   6  679.43   44.50 
  -1   3  -6  705.33   43.10 
  -1   3  -6  766.52   44.50 
  -1   3  -6  775.42   43.10 
   1   3   6  698.93   45.20 
  -1   3  -6  737.43   43.30 
  -1   3  -6  753.82   43.10 
  -3  -3  -6    0.70    1.00 
  -3  -3  -6    2.00    1.30 
  -3   3  -6    0.40    0.80 
  -3   3  -6   -0.20    0.90 
  -3   3  -6    0.00    3.90 
  -3   3  -6    0.50    1.50 
  -4   4   6    4.80    2.00 
  -4   4   6    5.50    1.60 
  -4   4   6    4.40    1.60 
  -2  -4   6   42.10    3.80 
  -2  -4   6   44.70    4.20 
   2  -4  -6   30.80    7.40 
  -2  -4   6   43.90    3.70 
  -2  -4   6   42.50    5.50 
  -2  -4   6   37.70    4.30 
  -2   4   6   45.30    4.20 
   2   4  -6   47.10    8.80 
  -2   4   6   42.70    3.50 
  -2   4   6   47.80    3.30 
   0  -4  -6  485.75   28.90 
   0  -4   6  441.96   28.60 
   0  -4   6  444.96   30.70 
   0  -4  -6  420.76   26.90 
   0  -4  -6  468.65   28.70 
   0   4  -6  434.46   28.10 
   0   4  -6  447.56   27.00 
   0   4   6  454.65   30.00 
   0   4  -6  492.65   27.20 
   0   4  -6  443.76   30.20 
   0   4  -6  431.66   27.20 
   0   4  -6  486.45   29.90 
   2  -4   6    4.10    5.30 
  -2  -4  -6    5.60    2.00 
  -2  -4  -6    8.90    2.20 
  -2  -4  -6    7.70    2.20 
  -2   4  -6    5.80    3.00 
  -2   4  -6    3.10    2.00 
  -2   4  -6    7.90    2.00 
  -2   4  -6    7.90    2.10 
  -2   4  -6    4.20    1.50 
   2   4   6   -0.60    8.00 
  -3  -5   6    5.30    1.60 
  -3  -5   6    3.40    1.40 
  -3  -5   6    3.80    1.80 
  -3  -5   6    2.30    2.10 
  -3   5   6    3.20    1.30 
  -3   5   6    4.70    1.30 
  -1  -5   6  149.79    9.50 
  -1  -5   6  152.08    9.80 
  -1  -5   6  139.79    9.60 
  -1  -5   6  139.49    9.70 
  -1  -5   6  146.59    9.40 
   1  -5  -6  147.59   11.90 
   1  -5  -6  145.59   15.40 
  -1   5   6  168.78    9.90 
  -1   5   6  150.28    9.20 
   1   5  -6  143.19   12.90 
  -1   5   6  150.08    9.50 
   1  -5   6    3.20    4.20 
  -1  -5  -6    4.20    1.80 
  -1  -5  -6    4.70    2.50 
  -1  -5  -6    3.30    2.00 
  -1  -5  -6    2.40    3.00 
  -1   5  -6    4.20    1.70 
   1   5   6   -4.80    6.20 
  -1   5  -6    3.40    1.30 
  -1   5  -6    2.10    1.80 
  -1   5  -6    1.90    1.80 
  -1   5  -6    4.60    2.20 
  -3  -5  -6    0.30    1.10 
  -3  -5  -6    0.80    1.20 
  -3  -5  -6    0.90    1.10 
  -3   5  -6   -4.10    4.60 
   3   5   6    7.70    4.80 
  -3   5  -6   -0.10    2.50 
  -3   5  -6    1.90    1.00 
  -3   5  -6    0.30    0.80 
  -2  -6   6   25.60    3.00 
  -2  -6   6   32.40    2.90 
  -2  -6   6   27.80    3.10 
  -2  -6   6   24.30    3.30 
   2  -6  -6   13.60    6.70 
  -2   6   6   30.30    3.20 
   2   6  -6   15.70    9.80 
  -2   6   6   26.70    2.80 
   2   6  -6   25.00    3.80 
  -2   6   6   27.40    2.50 
   0  -6  -6   16.40   10.80 
   0  -6  -6   22.40   11.70 
   0  -6  -6   13.80   12.30 
   0  -6   6   23.70    2.70 
   0   6  -6   25.00    2.70 
   0   6   6   15.80    3.60 
   0   6  -6   17.20    3.40 
   0   6   6   25.90    2.70 
   0   6   6   24.50    4.30 
   0   6  -6   24.10    3.00 
  -2  -6  -6    4.70    1.90 
  -2  -6  -6    3.90    1.90 
   2  -6   6    3.10    7.60 
  -2   6  -6    2.60    1.40 
   2   6   6    4.00   14.60 
  -2   6  -6    3.00    3.70 
  -2   6  -6    2.40    1.40 
  -2   6  -6    2.70    2.70 
   2   6   6    2.20    4.40 
  -2   6  -6    1.40    0.80 
  -3  -7   6    3.10    1.40 
  -3  -7   6    3.60    1.30 
  -3   7   6    4.50    1.30 
  -3   7   6    2.40    1.40 
  -3   7   6    5.10    1.80 
  -3   7   6    4.50    1.30 
  -1  -7   6  101.39    6.70 
   1  -7  -6   98.09   12.20 
  -1  -7   6   97.69    7.00 
  -1   7   6  109.69    6.50 
   1   7  -6   98.09    7.00 
   1   7  -6  106.99    7.60 
  -1   7   6  101.29    6.80 
  -1   7   6   96.99    7.10 
  -1  -7  -6  118.79    8.00 
   1  -7   6  130.39   14.70 
  -1  -7  -6  123.19    8.40 
  -1   7  -6  122.79    8.10 
  -1   7  -6  124.09    8.90 
   1   7   6  117.99    7.90 
  -1   7  -6  126.39    7.90 
  -3  -7  -6    0.70    0.90 
  -3  -7  -6    0.20    1.00 
  -3  -7  -6    1.60    1.20 
  -3   7  -6    0.70    0.80 
  -3   7  -6    2.30    1.60 
  -2  -8   6   12.90    2.80 
  -2  -8   6   15.40    3.10 
   2  -8  -6   10.10   11.30 
  -2  -8   6   17.70    2.20 
  -2   8   6   20.70    2.20 
  -2   8   6   17.20    1.90 
   0  -8  -6 1058.49   65.59 
   0  -8   6 1088.29   65.59 
   0   8  -6 1082.49   65.39 
   0   8  -6 1148.99   66.19 
   0   8   6 1145.09   65.89 
   0   8  -6 1212.38   66.09 
   0   8   6 1168.18   65.39 
   0   8  -6 1006.40   65.49 
  -2  -8  -6   22.80    3.50 
  -2  -8  -6   15.90    2.90 
  -2  -8  -6   18.30    3.20 
  -2   8  -6   14.80    4.90 
  -2   8  -6   24.20    2.50 
  -2   8  -6   18.60    2.00 
  -3  -9   6   -0.70    0.80 
  -3  -9   6    0.10    1.20 
  -3   9   6   -0.10    0.90 
  -3   9   6    0.30    1.00 
  -3   9   6   -0.30    1.20 
  -3   9   6    0.00    0.80 
  -1  -9   6  134.09    8.40 
  -1  -9   6  131.59    8.40 
  -1   9   6  123.29    8.40 
   1   9  -6  139.59    9.90 
  -1   9   6  135.19    8.80 
  -1   9   6  125.49    8.20 
   1   9  -6  121.49    8.40 
  -1   9   6  128.49    8.10 
  -1  -9  -6   45.40    4.30 
  -1  -9  -6   54.39    3.90 
  -1   9  -6   42.50    5.50 
  -1   9  -6   47.60    4.10 
  -1   9  -6   44.70    4.50 
  -1   9  -6   44.50    3.60 
   1   9   6   46.60    3.70 
  -2 -10   6    5.00    1.80 
  -2 -10   6   13.00    1.70 
  -2  10   6    9.50    2.00 
  -2  10   6    9.00    1.50 
  -2  10   6   10.00    1.80 
  -2  10   6   10.90    2.00 
   0 -10  -6  126.09    7.70 
   0 -10   6  120.79    7.80 
   0 -10   6  115.19    7.70 
   0  10  -6  114.39   10.10 
   0  10  -6  123.99    8.20 
   0  10  -6  108.29    7.50 
   0  10   6  111.09    8.00 
   0  10   6  118.89    7.50 
   0  10  -6  117.19    7.60 
  -2 -10  -6    2.20    1.30 
  -2 -10  -6    0.80    1.30 
  -2  10  -6    2.80    1.70 
  -2  10  -6    1.70    0.90 
  -1 -11   6    3.30    1.50 
  -1 -11   6    2.70    1.20 
   1 -11  -6    6.20    1.50 
   1  11  -6    2.80    1.20 
  -1  11   6    3.80    1.50 
   1  11  -6    4.10    6.10 
   1  11  -6    2.60    1.60 
  -1  11   6    2.30    1.00 
  -1 -11  -6   -0.60    1.20 
  -1 -11  -6   -0.20    1.70 
  -1  11  -6    0.70    0.90 
   1  11   6    0.70    1.10 
  -1  11  -6   -0.40    1.70 
   0 -12  -6   14.60    1.70 
   0 -12   6   15.70    1.80 
   0  12  -6   10.00    2.20 
   0  12  -6   11.40    1.70 
   0  12   6   12.50    1.50 
  -4   0   7    1.10    1.40 
  -4   0   7   -0.40    1.40 
  -4   0   7    0.80    1.60 
  -4   0   7    0.50    1.90 
   2   0  -7   -0.80    4.40 
  -2   0   7   -0.10    1.70 
  -2   0   7    0.60    2.20 
  -2   0   7   -2.20    2.30 
   0   0  -7    0.20    1.10 
   0   0  -7    1.90    2.70 
   0   0  -7    3.00    4.00 
   0   0  -7    1.00    4.40 
   0   0   7    3.50    4.90 
   0   0  -7   -7.60    4.00 
   0   0  -7    0.00    1.80 
  -2   0  -7   -0.10    1.70 
  -2   0  -7   -0.30    1.20 
  -2   0  -7   -0.40    2.40 
   2   0   7   -2.80    6.00 
  -2   0  -7   -0.20    1.60 
  -3  -1   7   12.40    2.60 
  -3  -1   7   15.00    2.40 
  -3  -1   7    9.30    3.20 
  -3  -1   7   11.00    2.60 
   3  -1  -7    3.60    9.40 
  -3   1   7   16.20    3.40 
  -3   1   7   15.50    2.30 
  -3   1   7    7.70    2.50 
   3   1  -7    3.80   10.40 
  -3   1   7   16.90    2.60 
  -1  -1   7  122.39    8.20 
  -1  -1   7  120.29    8.90 
  -1  -1   7  115.19    8.10 
  -1  -1   7  139.69    8.20 
   1  -1  -7  129.99   10.70 
   1  -1  -7  135.09   10.00 
   1  -1  -7  129.39   23.30 
   1  -1  -7  125.29   13.60 
   1   1  -7  132.29   10.20 
  -1   1   7  110.49    8.60 
  -1   1   7  129.59    8.00 
   1   1  -7  137.89   10.80 
  -1   1   7  120.99    8.00 
  -1   1   7  109.39    8.10 
   1   1  -7  140.69    8.50 
   1  -1   7  190.78   14.40 
  -1  -1  -7  218.58   12.70 
  -1  -1  -7  199.68   12.40 
  -1  -1  -7  200.88   12.40 
  -1  -1  -7  165.18   16.20 
  -1  -1  -7  194.98   12.40 
  -1   1  -7  216.68   12.50 
  -1   1  -7  192.38   16.90 
  -1   1  -7  200.68   12.40 
   1   1   7  190.88   15.00 
  -1   1  -7  189.28   12.40 
  -1   1  -7  205.58   12.50 
  -3   1  -7    1.10    1.20 
  -4  -2   7    4.00    1.80 
  -4  -2   7    4.70    1.90 
  -4   2   7    4.90    1.50 
  -4   2   7    2.60    1.90 
  -4   2   7    3.00    1.50 
   2  -2  -7   27.90    7.10 
  -2  -2   7   31.10    3.70 
  -2  -2   7   35.60    3.20 
  -2  -2   7   35.00    4.00 
  -2  -2   7   34.80    3.60 
  -2  -2   7   31.90    5.00 
  -2   2   7   34.70    3.00 
  -2   2   7   32.00    3.70 
  -2   2   7   41.80    4.20 
  -2   2   7   31.10    3.40 
   2   2  -7   24.00    6.60 
   0  -2   7  433.36   27.20 
   0  -2  -7  413.26   25.30 
   0  -2  -7  410.06   26.50 
   0  -2  -7  422.86   26.80 
   0   2  -7  444.76   26.70 
   0   2  -7  425.56   25.20 
   0   2  -7  429.96   27.50 
   0   2  -7  418.56   27.40 
   0   2   7  377.66   27.20 
   0   2  -7  436.96   25.20 
   2  -2   7   57.09   10.10 
  -2  -2  -7   68.19    4.90 
  -2  -2  -7   62.09    4.70 
  -2  -2  -7   64.69    4.80 
  -2  -2  -7   60.99    5.20 
  -2   2  -7   67.49    5.60 
  -2   2  -7   63.79    5.10 
  -2   2  -7   61.39    4.70 
  -2   2  -7   66.39    4.80 
   2   2   7   56.19   12.30 
  -3  -3   7   46.50    3.90 
  -3  -3   7   44.50    4.30 
  -3  -3   7   43.30    5.90 
  -3  -3   7   43.50    3.80 
  -3  -3   7   43.90    4.20 
   3   3  -7   18.70   13.50 
  -3   3   7   47.40    4.50 
  -3   3   7   46.30    3.60 
  -3   3   7   44.40    4.20 
  -1  -3   7  106.89    7.30 
   1  -3  -7  105.09    9.50 
  -1  -3   7  115.39    7.80 
   1  -3  -7  117.09   15.50 
   1  -3  -7  127.59   12.00 
  -1  -3   7  105.79    7.40 
  -1  -3   7  115.99    8.90 
  -1  -3   7  105.39    7.30 
  -1   3   7  115.19    7.20 
   1   3  -7  109.59   10.20 
  -1   3   7  122.99    8.00 
   1   3  -7  119.99    7.70 
  -1   3   7  103.29    7.00 
   1   3  -7  111.99    7.70 
   1   3  -7   85.09   12.10 
  -1   3   7  102.79    7.40 
  -1   3   7  109.79    7.30 
  -1  -3  -7   31.10    4.30 
  -1  -3  -7   31.10    3.50 
  -1  -3  -7   28.90    3.70 
  -1  -3  -7   32.40    3.20 
   1  -3   7   28.50    6.20 
   1   3   7   21.00    6.70 
  -1   3  -7   38.10    3.60 
  -1   3  -7   23.80    9.80 
  -1   3  -7   31.80    3.50 
  -1   3  -7   34.10    3.20 
  -1   3  -7   27.00    4.30 
  -1   3  -7   31.20    2.90 
  -3  -3  -7    0.80    1.10 
  -3  -3  -7    1.50    1.10 
  -3   3  -7   -0.30    0.80 
  -3   3  -7    5.50    4.90 
  -3   3  -7    1.90    1.70 
  -3   3  -7    0.80    0.90 
  -2  -4   7   17.70    2.60 
  -2  -4   7   14.70    3.70 
  -2  -4   7   17.10    2.60 
   2  -4  -7   14.80    6.40 
  -2  -4   7   21.50    3.00 
  -2  -4   7   20.30    3.30 
  -2   4   7   19.40    3.00 
  -2   4   7   18.90    3.50 
  -2   4   7   15.90    2.60 
  -2   4   7   19.30    2.60 
  -2   4   7   16.40    2.30 
   2   4  -7   18.10    7.50 
   0  -4  -7  123.09   14.40 
   0  -4  -7  133.09   12.30 
   0  -4   7  130.89   17.90 
   0  -4   7  101.19    8.00 
   0  -4   7  110.69   11.90 
   0  -4  -7  121.89   13.10 
   0  -4  -7  126.49    7.80 
   0   4  -7  104.39   17.80 
   0   4  -7  121.59    7.80 
   0   4  -7  115.09   12.00 
   0   4  -7  132.99    8.00 
  -2  -4  -7   21.80    2.80 
  -2  -4  -7   15.60    2.90 
  -2  -4  -7   20.10    2.60 
   2  -4   7   16.20    7.20 
  -2   4  -7   19.70    2.50 
  -2   4  -7   16.20    3.80 
  -2   4  -7   19.20    2.40 
   2   4   7   22.70   11.20 
  -2   4  -7   19.20    3.20 
  -2   4  -7   18.80    2.90 
  -3  -5   7    2.00    1.40 
  -3  -5   7   -0.10    1.90 
  -3  -5   7    1.20    1.40 
  -3  -5   7    0.20    1.70 
  -3   5   7    1.90    1.10 
  -3   5   7    1.50    1.30 
  -3   5   7    0.90    1.80 
  -3   5   7    2.10    1.40 
  -1  -5   7   36.90    3.60 
  -1  -5   7   33.20    4.20 
  -1  -5   7   35.50    3.60 
   1  -5  -7   42.40    7.80 
  -1  -5   7   38.10    3.30 
  -1   5   7   31.50    4.40 
  -1   5   7   38.40    3.20 
   1   5  -7   36.70    8.60 
  -1   5   7   42.20    4.20 
   1   5  -7   40.50    4.80 
  -1   5   7   44.60    3.20 
  -1   5   7   38.20    3.70 
  -1  -5  -7   29.80    4.10 
  -1  -5  -7   29.20    3.10 
   1  -5   7   34.40    6.90 
  -1  -5  -7   32.30    3.90 
  -1  -5  -7   32.60    4.20 
  -1   5  -7   30.50    3.20 
  -1   5  -7   34.20    3.20 
  -1   5  -7   27.90    3.30 
   1   5   7   12.40    9.90 
  -1   5  -7   26.60    3.80 
  -1   5  -7   30.50    3.10 
  -3  -5  -7    0.50    1.00 
  -3  -5  -7    1.10    1.00 
  -3   5  -7    0.70    2.30 
  -3   5  -7    0.20    0.90 
  -3   5  -7    0.30    0.80 
  -2  -6   7   27.40    3.70 
  -2  -6   7   37.50    3.20 
  -2  -6   7   33.10    3.30 
   2  -6  -7   30.10    8.80 
  -2  -6   7   36.70    3.40 
  -2   6   7   39.00    3.30 
  -2   6   7   39.60    3.00 
   2   6  -7   35.00    3.80 
  -2   6   7   36.20    3.70 
   2   6  -7   33.50   13.50 
  -2   6   7   35.60    3.30 
   0  -6   7   19.10    2.60 
   0  -6  -7   19.90    2.60 
   0   6  -7   19.70    2.40 
   0   6   7   23.40    2.70 
   0   6  -7   23.00    3.50 
   0   6  -7   25.90    3.60 
   2  -6   7    2.50   10.30 
  -2  -6  -7   11.80    2.40 
  -2  -6  -7   10.40    2.30 
  -2  -6  -7    6.90    2.10 
  -2   6  -7    7.10    4.10 
  -2   6  -7    9.00    3.00 
   2   6   7    4.80    6.00 
  -2   6  -7   12.20    2.10 
   2   6   7   30.60   21.60 
  -2   6  -7   12.80    1.90 
  -2   6  -7    9.50    2.00 
  -3  -7   7    5.50    1.50 
  -3  -7   7    6.30    1.50 
  -3   7   7    3.80    1.70 
  -3   7   7    5.30    1.40 
  -3   7   7    4.60    1.10 
  -3   7   7    5.20    1.60 
  -1  -7   7    1.60    2.60 
   1  -7  -7    8.50    8.80 
  -1  -7   7    1.60    1.40 
  -1  -7   7    2.10    2.10 
   1   7  -7    0.90    1.70 
  -1   7   7    2.70    1.30 
  -1   7   7    2.80    2.10 
  -1   7   7    2.50    1.40 
   1   7  -7    2.20    3.40 
  -1   7   7    2.60    2.10 
  -1  -7  -7  191.78   12.10 
   1  -7   7  129.49   24.30 
  -1  -7  -7  182.18   11.80 
  -1   7  -7  191.28   12.70 
  -1   7  -7  193.58   11.70 
  -1   7  -7  197.68   12.00 
  -3  -7  -7    0.50    0.80 
  -3  -7  -7    1.20    1.00 
  -3   7  -7    1.50    0.80 
  -2  -8   7   -0.30    1.00 
  -2   8   7    1.30    0.80 
  -2   8   7    1.90    1.30 
  -2   8   7    0.70    1.20 
   2   8  -7    1.40    2.80 
  -2   8   7    1.30    1.30 
   0  -8   7   22.50    2.70 
   0  -8  -7   19.60    2.40 
   0  -8  -7   16.70    3.90 
   0   8   7   14.80    3.90 
   0   8  -7   22.90    4.30 
   0   8  -7   21.40    2.50 
   0   8  -7   20.80    3.80 
   0   8   7   19.30    2.30 
  -2  -8  -7   26.50    2.70 
  -2  -8  -7   21.10    2.80 
  -2   8  -7   23.50    2.60 
  -2   8  -7   29.60    2.30 
  -2   8  -7   16.10    5.50 
  -1  -9   7    3.80    1.50 
  -1  -9   7    6.00    1.70 
  -1   9   7    1.90    2.00 
   1   9  -7   11.20    5.40 
  -1   9   7    4.80    1.90 
   1   9  -7    6.70    1.90 
  -1   9   7    6.40    1.60 
  -1   9   7    4.20    1.20 
  -1  -9  -7  274.57   17.40 
   1  -9   7  251.37   16.70 
  -1  -9  -7  286.97   16.80 
  -1   9  -7  283.97   17.70 
  -1   9  -7  271.47   16.60 
   2 -10  -7    2.30    1.40 
  -2 -10   7    2.10    1.00 
  -2  10   7    0.90    1.20 
  -2  10   7    2.20    1.30 
  -2  10   7    1.30    0.90 
   2  10  -7    2.40    1.60 
  -2  10   7    0.80    1.10 
   0 -10  -7  184.58   10.60 
   0 -10   7  188.88   10.80 
   0  10  -7  149.19   10.60 
   0  10   7  155.38   11.10 
  -2 -10  -7    2.30    1.20 
  -2 -10  -7    5.40    1.30 
  -2  10  -7    4.00    1.20 
   1 -11  -7   36.10    4.80 
  -1 -11   7   32.80    2.60 
   1  11  -7   26.20    3.00 
   1  11  -7   25.40    2.60 
   1  11  -7   24.70    3.10 
  -1  11   7   32.10    2.40 
  -1 -11  -7   54.59    3.80 
  -1  11  -7   48.80    3.50 
   0 -12   7    3.10    1.10 
   0 -12  -7    2.20    1.00 
   0  12  -7    1.30    1.30 
   0  12  -7    1.00    0.90 
   0  12   7    0.90    0.80 
  -2   0   8   13.10    2.60 
   2   0  -8    9.40    2.20 
  -2   0   8   12.90    2.40 
  -2   0   8    9.30    3.10 
   2   0  -8   12.20    6.50 
  -2   0   8   13.00    3.00 
   0   0  -8   69.59    4.60 
   0   0  -8   62.79    4.50 
   0   0   8   45.90   11.70 
   0   0  -8   54.59    8.40 
   0   0   8   46.30    4.20 
   0   0  -8   55.29    8.10 
   0   0  -8   46.50   10.20 
  -2   0  -8   67.79    6.60 
  -2   0  -8   76.99    5.60 
  -2   0  -8   84.19    5.90 
  -2   0  -8   85.89    5.70 
  -3  -1   8   51.39    4.70 
  -3  -1   8   59.29    5.80 
  -3  -1   8   74.69    4.70 
  -3  -1   8   53.49    5.10 
  -3   1   8   67.49    4.70 
  -3   1   8   58.69    4.60 
  -3   1   8   73.99    5.50 
  -3   1   8   61.89    5.00 
  -1  -1   8   39.10    3.90 
  -1  -1   8   32.90    3.20 
  -1  -1   8   41.30    3.50 
   1  -1  -8   25.60    9.80 
  -1  -1   8   34.80    4.10 
  -1  -1   8   32.30    5.50 
   1  -1  -8   38.00    6.60 
   1   1  -8   36.80    3.90 
  -1   1   8   42.10    5.10 
  -1   1   8   36.00    3.30 
  -1   1   8   32.60    3.20 
  -1   1   8   35.40    3.60 
   1   1  -8   37.30    7.00 
  -1  -1  -8  130.39    8.10 
  -1  -1  -8  124.19    7.80 
  -1  -1  -8  118.39    7.90 
   1  -1   8  100.69   11.60 
  -1   1  -8  123.19    7.80 
  -1   1  -8  100.69    8.00 
   1   1   8  102.09   12.70 
  -1   1  -8  113.89    7.90 
  -1   1  -8  118.19    7.80 
  -1   1  -8  122.09    7.80 
  -3  -1  -8    0.70    1.00 
  -3  -1  -8    1.30    1.10 
  -3   1  -8    0.70    1.10 
  -3   1  -8    0.60    1.00 
  -3   1  -8    1.00    1.20 
   2  -2  -8  141.99   13.70 
  -2  -2   8  153.08   10.00 
  -2  -2   8  148.39    9.90 
  -2  -2   8  157.28    9.90 
  -2  -2   8  151.08   11.10 
  -2  -2   8  158.58    9.90 
  -2   2   8  156.38   10.40 
  -2   2   8  144.09    9.80 
  -2   2   8  154.68    9.80 
  -2   2   8  157.78    9.70 
   2   2  -8  164.98   15.30 
   0  -2  -8  140.39    9.10 
   0  -2   8  129.29    8.90 
   0  -2  -8  129.79    8.90 
   0  -2   8  124.79   13.90 
   0  -2  -8  131.89   13.10 
   0   2  -8  151.98    9.10 
   0   2  -8  142.09    8.90 
   0   2  -8  156.48   14.30 
  -2  -2  -8   26.60    3.40 
  -2  -2  -8   25.60    3.00 
  -2  -2  -8   27.50    3.00 
   2  -2   8   15.60    8.90 
   2   2   8   26.80   11.40 
  -2   2  -8   22.80    3.90 
  -2   2  -8   30.60    2.90 
  -2   2  -8   26.20    3.00 
  -2   2  -8   24.50    2.80 
  -3  -3   8   61.69    4.80 
  -3   3   8   60.49    4.90 
  -3   3   8   66.69    4.90 
  -1  -3   8  111.49    8.00 
  -1  -3   8  110.59    7.50 
  -1  -3   8  115.19    7.60 
  -1  -3   8  112.99    9.10 
   1  -3  -8  114.89   10.90 
  -1  -3   8  115.19    7.50 
  -1   3   8  121.29    8.30 
  -1   3   8  116.79    7.30 
  -1   3   8  109.59    7.40 
   1   3  -8  107.99    8.10 
  -1   3   8  114.89    7.60 
   1   3  -8  116.19   12.10 
  -1  -3  -8    8.30    2.40 
   1  -3   8    5.70    2.70 
  -1  -3  -8    5.80    1.50 
   1  -3   8    8.10    5.80 
  -1  -3  -8    5.00    2.70 
  -1   3  -8    8.20    2.00 
   1   3   8    3.20    7.90 
  -1   3  -8    5.00    1.30 
  -1   3  -8    6.00    2.60 
  -1   3  -8    3.70    2.20 
  -1   3  -8    9.40    2.10 
  -3  -3  -8    1.70    1.00 
  -3  -3  -8    1.20    1.00 
  -3   3  -8    2.70    1.80 
  -3   3  -8    1.90    0.90 
  -3   3  -8    1.40    0.90 
  -2  -4   8    1.80    2.20 
  -2  -4   8   -2.00    3.00 
  -2  -4   8   -0.20    1.90 
   2  -4  -8    0.50    7.50 
  -2  -4   8    2.80    1.60 
  -2  -4   8    2.20    1.60 
  -2   4   8    1.40    1.80 
  -2   4   8    1.50    1.70 
   2   4  -8    4.80    9.40 
  -2   4   8    0.80    2.40 
  -2   4   8    1.70    1.80 
  -2   4   8    1.00    1.30 
   0  -4   8  144.59   10.30 
   0  -4  -8  163.28   10.20 
   0  -4  -8  156.88   10.40 
   0   4  -8  166.78   10.20 
   0   4  -8  168.18   10.60 
   0   4  -8  167.68   10.40 
  -2  -4  -8   21.70    2.70 
   2  -4   8   19.00   10.50 
  -2  -4  -8   24.50    2.90 
  -2   4  -8   27.20    3.60 
  -2   4  -8   26.90    4.80 
  -2   4  -8   21.30    2.50 
   2   4   8   26.10   15.20 
  -2   4  -8   19.70    2.90 
  -2   4  -8   22.90    3.40 
  -3  -5   8    2.30    2.10 
  -3  -5   8    5.80    1.50 
  -3  -5   8    3.30    1.70 
  -3   5   8    5.40    1.90 
  -3   5   8    3.90    1.70 
  -3   5   8    3.10    1.30 
  -1  -5   8   43.50    3.90 
  -1  -5   8   41.00    4.50 
  -1  -5   8   48.60    3.50 
   1  -5  -8   25.20    7.80 
   1  -5  -8   45.60    5.20 
  -1  -5   8   39.10    3.80 
  -1   5   8   43.20    4.00 
   1   5  -8   36.40    5.10 
  -1   5   8   52.69    3.50 
  -1   5   8   42.30    4.60 
   1   5  -8   27.40   11.70 
  -1   5   8   44.10    4.50 
  -1   5   8   45.80    3.70 
  -1  -5  -8  178.08   11.50 
   1  -5   8  152.78   17.50 
  -1  -5  -8  172.78   11.10 
  -1  -5  -8  182.08   11.50 
  -1   5  -8  167.78   11.80 
  -1   5  -8  194.58   11.10 
  -1   5  -8  176.68   11.10 
  -1   5  -8  172.98   11.30 
  -1   5  -8  178.08   11.00 
  -3  -5  -8    1.50    0.90 
  -3  -5  -8    2.10    1.00 
  -3   5  -8    1.30    2.10 
  -3   5  -8    2.50    1.00 
  -3   5  -8    1.80    1.10 
  -2  -6   8   29.50    3.60 
  -2  -6   8   29.90    3.20 
   2  -6  -8    8.40   10.60 
  -2  -6   8   30.10    3.10 
  -2  -6   8   39.00    3.00 
  -2   6   8   27.30    3.10 
   2   6  -8   29.60    3.40 
  -2   6   8   32.00    3.50 
  -2   6   8   33.40    2.80 
   2   6  -8   35.70   19.40 
  -2   6   8   35.30    3.10 
   0  -6  -8   31.10    3.60 
   0  -6  -8   27.70    3.10 
   0  -6   8   28.00    2.90 
   0   6   8   23.20    3.10 
   0   6  -8   29.00    2.90 
   0   6  -8   22.50    3.70 
   0   6  -8   33.40    4.40 
  -2  -6  -8   82.19    6.00 
  -2  -6  -8   79.09    6.10 
  -2   6  -8   87.19    8.10 
   2   6   8   54.29   11.30 
  -2   6  -8   89.89    6.60 
  -2   6  -8   97.09    6.40 
  -2   6  -8   90.59    5.80 
  -2   6  -8   88.09    6.00 
  -3  -7   8   14.50    1.70 
  -3  -7   8   14.50    1.90 
  -3   7   8   14.10    2.20 
  -3   7   8   12.00    2.30 
  -3   7   8   12.40    1.70 
   1  -7  -8   21.20    2.80 
  -1  -7   8   17.00    3.10 
  -1  -7   8   19.60    2.30 
   1  -7  -8   20.50   13.50 
  -1  -7   8   14.50    3.50 
  -1   7   8   14.10    3.10 
  -1   7   8   17.00    3.10 
  -1   7   8   19.60    2.60 
   1   7  -8   25.00    5.40 
   1   7  -8   18.90    2.80 
  -1   7   8   21.80    2.20 
  -1  -7  -8   86.59    6.10 
  -1  -7  -8   87.19    6.70 
  -1   7  -8   91.19    7.60 
  -1   7  -8   88.79    6.00 
  -2  -8   8    5.00    2.00 
  -2   8   8    7.10    1.30 
  -2   8   8    4.20    1.50 
  -2   8   8    4.20    1.50 
   2   8  -8    4.90    2.10 
  -2   8   8    9.10    1.90 
   0  -8   8    9.20    2.10 
   0  -8  -8    7.10    1.80 
   0   8  -8   11.10    4.20 
   0   8   8    4.30    2.30 
   0   8  -8    9.60    2.90 
   0   8  -8    7.60    1.70 
   0   8   8    5.70    1.60 
  -2  -8  -8   55.29    4.50 
  -2  -8  -8   61.29    4.50 
   2  -8   8   57.29    4.50 
  -2   8  -8   56.69    4.50 
  -2   8  -8   71.59    4.20 
   1  -9  -8    1.00    1.50 
  -1  -9   8    1.00    1.10 
  -1  -9   8    2.90    1.80 
  -1   9   8    1.10    1.00 
  -1  -9  -8   56.09    4.30 
   1  -9   8   53.69    4.10 
  -1   9  -8   49.10    6.90 
  -1   9  -8   46.50    4.50 
  -1   9  -8   50.79    4.10 
   2 -10  -8    7.80    2.10 
  -2 -10   8   14.40    1.60 
  -2  10   8    9.80    1.90 
  -2  10   8   10.10    1.40 
   2  10  -8   11.10    2.20 
   0 -10   8   36.20    3.20 
   0 -10  -8   35.70    2.90 
   0 -10   8   33.00    2.90 
   0  10  -8   30.40    3.80 
   0  10   8   31.20    2.80 
   0  10  -8   35.90    2.90 
  -2  10  -8   18.30    1.80 
   1 -11  -8   12.00    1.60 
  -1 -11   8    9.10    1.70 
  -1 -11   8   12.80    2.10 
  -1  11   8   10.40    1.40 
   1  11  -8    5.80    1.70 
   1  11  -8   10.10    2.20 
  -1 -11  -8   19.80    1.90 
   1 -11   8   17.30    2.20 
  -1  11  -8   14.90    1.60 
   0 -12   8    2.00    0.90 
   0 -12  -8    2.60    0.90 
   0  12   8    1.00    1.00 
  -2   0   9    1.70    2.10 
  -2   0   9   -1.90    2.60 
   2   0  -9   -0.40    1.80 
   2   0  -9   -5.40    8.30 
  -2   0   9    1.70    1.50 
  -2   0   9    0.50    1.70 
   0   0   9   -0.70    1.50 
   0   0  -9   -0.70    1.20 
  -2   0  -9    0.50    1.40 
   2   0   9  -11.10   12.90 
  -2   0  -9    0.60    1.30 
  -3  -1   9  170.48   10.00 
  -3  -1   9  157.98   10.10 
  -3  -1   9  153.78   10.00 
  -3  -1   9  133.59   10.90 
  -3   1   9  169.78   10.10 
  -3   1   9  176.28   10.00 
  -3   1   9  156.48   10.10 
  -3   1   9  131.39   10.60 
   1  -1  -9  124.89    8.70 
  -1  -1   9  130.19    8.90 
  -1  -1   9  146.29   10.30 
   1  -1  -9  125.39   12.60 
  -1  -1   9  122.39    8.60 
  -1  -1   9  134.39    8.50 
  -1   1   9  122.09    9.60 
  -1   1   9  132.59    8.50 
   1   1  -9  139.69   13.30 
   1   1  -9  127.89    8.80 
  -1  -1  -9   21.30    2.60 
   1  -1   9   16.50    8.50 
  -1  -1  -9   18.60    3.40 
  -1  -1  -9   17.50    2.90 
   1   1   9   10.50   10.40 
  -1   1  -9   23.80    3.90 
  -1   1  -9   19.50    2.70 
  -1   1  -9   18.80    3.20 
  -3  -1  -9    4.20    1.20 
  -3  -1  -9    6.20    1.50 
  -3   1  -9    6.40    1.50 
  -3   1  -9    8.10    1.30 
  -2  -2   9   95.69    6.70 
   2  -2  -9   73.59   13.70 
  -2  -2   9   99.89    6.50 
  -2  -2   9   89.99    6.60 
  -2  -2   9   89.29    6.50 
  -2  -2   9   91.09    7.90 
   2   2  -9   83.19   15.00 
  -2   2   9   97.99    6.50 
  -2   2   9   94.19    6.30 
  -2   2   9   97.29    7.30 
  -2   2   9   91.09    6.50 
   0  -2  -9  104.39    7.20 
   0  -2  -9  108.19    7.40 
   0  -2   9   98.49    7.00 
   0   2   9   97.89    6.90 
   0   2  -9  110.09    7.70 
   0   2  -9  106.59    7.10 
   2  -2   9   10.70   12.30 
   2  -2   9    4.30    2.20 
  -2  -2  -9    3.90    1.70 
  -2  -2  -9    3.70    1.60 
  -2  -2  -9    3.80    1.50 
  -2   2  -9    5.60    3.60 
   2   2   9  -12.10   14.20 
  -2   2  -9    2.20    1.20 
  -2   2  -9    3.30    1.70 
  -2   2  -9    3.30    1.60 
  -3  -3   9   19.50    4.70 
  -3  -3   9   22.70    3.10 
  -3  -3   9   21.90    3.00 
  -3  -3   9   23.30    3.00 
  -3  -3   9   28.50    2.40 
   3  -3  -9   17.70    4.40 
  -3   3   9   24.50    3.30 
  -3   3   9   21.10    3.10 
  -3   3   9   18.80    3.20 
  -1  -3   9   17.50    2.50 
   1  -3  -9   16.30    7.70 
  -1  -3   9   16.10    2.80 
  -1  -3   9   19.80    2.90 
  -1  -3   9   13.30    6.50 
  -1  -3   9   18.20    3.50 
   1   3  -9    8.70    9.10 
  -1   3   9   16.30    2.70 
   1   3  -9   15.30    3.80 
  -1   3   9   19.10    2.40 
  -1   3   9   18.80    2.60 
  -1  -3  -9   37.30    3.60 
   1  -3   9   24.40   10.10 
  -1  -3  -9   38.30    3.60 
  -1  -3  -9   33.80    4.30 
   1  -3   9   31.70    4.10 
  -1   3  -9   39.10    3.50 
  -1   3  -9   34.70    3.40 
   1   3   9   20.40   12.80 
  -1   3  -9   38.00    3.60 
  -1   3  -9   36.90    4.50 
  -1   3  -9   39.00    3.60 
  -3  -3  -9   -0.10    0.70 
  -3  -3  -9   -0.70    0.70 
  -3   3  -9    2.10    1.00 
  -3   3  -9    1.60    1.70 
  -3   3  -9    0.80    0.80 
   2  -4  -9   19.50   10.90 
  -2  -4   9   32.10    5.20 
  -2  -4   9   41.20    3.40 
  -2  -4   9   41.50    3.40 
  -2  -4   9   37.80    4.10 
  -2  -4   9   31.50    3.50 
  -2   4   9   32.80    3.90 
  -2   4   9   33.40    3.00 
   2   4  -9   18.70   14.00 
  -2   4   9   42.10    3.70 
  -2   4   9   41.10    3.70 
   0  -4  -9   71.49    5.50 
   0  -4  -9   68.49    5.20 
   0   4  -9   66.39    6.10 
   0   4  -9   67.89    5.20 
   0   4  -9   68.89    5.10 
  -2  -4  -9   16.50    2.60 
  -2  -4  -9   20.40    2.60 
  -2  -4  -9   12.50    3.50 
  -2   4  -9   20.40    2.60 
  -2   4  -9   20.60    3.10 
  -2   4  -9   14.60    4.20 
  -2   4  -9   16.80    2.10 
  -3  -5   9   19.10    2.40 
  -3  -5   9   20.40    2.10 
  -3  -5   9   21.10    2.20 
  -3   5   9   16.00    2.00 
  -3   5   9   20.20    2.70 
  -3   5   9   16.10    2.70 
  -1  -5   9   20.00    2.90 
  -1  -5   9   24.30    2.50 
   1  -5  -9   27.80    3.50 
   1  -5  -9   13.00   10.40 
  -1  -5   9   17.70    3.20 
  -1   5   9   24.30    2.60 
  -1   5   9   23.10    3.20 
  -1   5   9   21.70    3.90 
  -1   5   9   26.60    2.70 
  -1  -5  -9    3.50    1.60 
   1  -5   9    8.90   13.90 
  -1  -5  -9    9.00    1.90 
  -1   5  -9    5.70    3.60 
  -1   5  -9    3.80    1.70 
  -1   5  -9    6.60    2.00 
  -1   5  -9    3.00    1.30 
  -1   5  -9    3.90    1.80 
  -3  -5  -9    2.70    0.90 
  -3  -5  -9    1.30    0.90 
  -3   5  -9    1.40    0.80 
  -2  -6   9   47.50    3.50 
  -2  -6   9   44.50    3.70 
  -2  -6   9   39.40    3.70 
  -2   6   9   45.70    3.70 
  -2   6   9   42.50    4.10 
  -2   6   9   45.90    3.40 
   2   6  -9   40.90    3.70 
   0  -6  -9    7.20    1.90 
   0  -6   9    7.80    2.00 
   0  -6  -9    6.00    1.80 
   0   6  -9    4.80    1.90 
   0   6   9    3.90    1.60 
   0   6   9    4.60    2.10 
   0   6  -9    8.80    3.80 
  -2  -6  -9   10.50    2.20 
  -2  -6  -9    8.60    1.80 
  -2   6  -9    8.00    1.60 
  -2   6  -9    7.10    4.80 
  -2   6  -9   14.00    2.10 
  -2   6  -9   11.40    1.90 
  -3  -7   9    2.30    1.10 
  -3  -7   9    2.90    1.00 
   3  -7  -9    2.20    1.60 
  -3   7   9    2.10    1.00 
  -3   7   9    3.50    1.20 
  -3   7   9    0.40    1.10 
  -1  -7   9   17.40    3.30 
  -1  -7   9   24.30    2.40 
   1  -7  -9   24.20    2.90 
  -1   7   9   20.90    2.30 
  -1   7   9   17.60    3.30 
   1   7  -9   17.00    2.60 
  -1   7   9   22.90    2.70 
  -1  -7  -9    1.90    1.90 
   1  -7   9    4.60    2.10 
  -1  -7  -9    2.90    1.60 
  -1   7  -9    2.00    1.20 
  -1   7  -9   -1.40    4.20 
  -1   7  -9    3.40    1.40 
  -2  -8   9   16.40    2.80 
  -2  -8   9   22.00    2.00 
  -2   8   9   21.50    2.40 
  -2   8   9   16.00    1.80 
   2   8  -9   17.90    2.70 
   0  -8  -9    0.10    1.50 
   0  -8  -9   -0.10    1.40 
   0  -8   9    0.80    1.30 
   0   8   9    0.00    1.90 
   0   8  -9   -0.80    1.20 
   0   8  -9   -5.30    4.60 
   0   8   9    0.30    1.50 
   0   8  -9    0.00    2.20 
   2  -8   9    2.30    1.60 
  -2  -8  -9    0.70    1.50 
  -2  -8  -9    1.00    1.00 
  -2   8  -9    2.20    0.90 
  -1  -9   9    4.00    1.70 
   1  -9  -9    2.80    1.70 
  -1  -9   9    5.50    1.40 
   1   9  -9    2.10    1.30 
   1   9  -9    0.90    1.80 
   1   9  -9    2.30    1.70 
  -1   9   9    1.20    1.70 
  -1  -9  -9    9.00    1.80 
   1  -9   9    8.40    1.80 
  -1   9  -9    9.00    1.50 
   2 -10  -9   22.90    2.90 
  -2  10   9   14.60    3.50 
  -2  10   9   19.10    1.70 
   0 -10   9    6.60    1.50 
   0 -10  -9    4.70    1.40 
   0 -10   9    6.40    1.60 
   0  10   9    4.10    1.40 
   0  10  -9    4.40    1.20 
  -1 -11   9   17.50    1.80 
   1  11  -9   12.50    2.00 
  -1  11   9   15.90    1.60 
   1  11  -9   15.30    2.40 
  -1 -11  -9    7.60    1.40 
  -1  11  -9    8.00    1.20 
   2   0 -10  942.51   60.09 
  -2   0  10  914.31   55.89 
  -2   0  10  964.60   55.19 
   2   0 -10  893.31   55.49 
  -2   0  10  985.30   55.09 
  -2   0  10  897.41   55.19 
   0   0  10  180.48   10.70 
   0   0 -10  157.28   10.90 
  -2   0 -10   17.40    2.80 
  -2   0 -10   21.60    2.50 
  -2   0 -10   17.10    2.30 
  -3  -1  10   27.90    3.00 
  -3  -1  10   18.40    3.90 
  -3  -1  10   24.40    3.10 
  -3  -1  10   31.50    2.60 
  -3   1  10   22.90    3.60 
  -3   1  10   24.70    3.20 
  -3   1  10   33.20    2.70 
  -3   1  10   28.40    2.60 
   1  -1 -10  153.28   10.40 
  -1  -1  10  147.79   10.10 
  -1  -1  10  171.38   11.80 
  -1  -1  10  146.79   10.50 
  -1  -1  10  162.98   10.10 
   1  -1 -10  160.08   17.40 
  -1  -1  10  154.28   10.00 
   1   1 -10  160.68   10.40 
  -1   1  10  153.18   10.10 
   1   1 -10  169.78   19.30 
  -1   1  10  159.88   10.30 
  -1   1  10  163.98   10.10 
  -1   1  10  163.88   11.50 
   1  -1  10   12.80    2.60 
   1  -1  10    2.30   15.10 
  -1  -1 -10   12.80    2.60 
  -1  -1 -10   13.90    2.40 
  -1   1 -10    7.20    2.30 
  -1   1 -10    5.10    3.70 
   1   1  10   28.90   20.90 
  -1   1 -10   11.10    2.50 
  -1   1 -10    7.50    2.20 
  -3  -1 -10    0.80    1.00 
  -3  -1 -10    1.00    0.80 
  -3   1 -10    1.20    1.20 
  -3   1 -10    0.80    0.70 
  -3   1 -10   -0.10    1.50 
   3   1  10    0.80    1.40 
  -2  -2  10   59.89    5.00 
  -2  -2  10   65.09    6.10 
   2  -2 -10   53.69   13.70 
  -2  -2  10   66.49    4.60 
  -2  -2  10   66.09    5.00 
  -2  -2  10   58.29    4.80 
  -2   2  10   57.29    4.90 
  -2   2  10   61.79    4.70 
  -2   2  10   68.49    5.80 
  -2   2  10   61.19    4.60 
   2   2 -10   49.90   14.90 
   0  -2 -10   36.10    3.60 
   0  -2  10   39.30    3.60 
   0   2 -10   38.30    3.60 
   0   2  10   42.30    3.60 
  -2  -2 -10    3.50    1.30 
  -2  -2 -10    1.70    1.50 
  -2  -2 -10    3.30    1.50 
   2  -2  10    2.10    2.50 
  -2   2 -10    2.50    1.30 
  -2   2 -10    3.10    4.40 
  -2   2 -10    2.60    1.30 
  -2   2 -10    6.40    1.80 
  -3  -3  10    1.70    1.80 
  -3  -3  10    2.30    2.60 
  -3  -3  10    1.70    1.60 
  -3  -3  10    5.00    1.30 
  -3   3  10    2.80    1.80 
  -3   3  10    4.20    1.30 
  -3   3  10    5.30    2.10 
  -3   3  10    2.60    1.80 
  -1  -3  10   13.60    3.20 
   1  -3 -10   19.10    3.20 
  -1  -3  10   17.80    3.10 
  -1  -3  10   23.40    2.60 
   1  -3 -10   12.60   12.00 
  -1  -3  10   25.80    5.40 
  -1  -3  10   24.40    2.80 
  -1   3  10   16.50    3.70 
   1   3 -10   21.80    3.80 
  -1   3  10   18.80    2.90 
  -1   3  10   27.40    2.70 
  -1   3  10   18.80    3.00 
  -1  -3 -10   48.60    4.20 
   1  -3  10   43.40    4.20 
   1  -3  10    7.30   25.20 
  -1  -3 -10   47.80    3.90 
  -1   3 -10   48.70    4.00 
  -1   3 -10   41.10    3.90 
  -1   3 -10   42.40    5.70 
  -1   3 -10   46.60    4.00 
  -1   3 -10   45.80    4.00 
  -3  -3 -10   -0.60    0.70 
  -3  -3 -10   -0.30    0.80 
  -3   3 -10    0.90    1.30 
  -3   3 -10    0.60    0.60 
  -3   3 -10    0.20    0.90 
  -2  -4  10   32.10    3.20 
  -2  -4  10   28.60    3.70 
  -2  -4  10   35.40    4.80 
  -2  -4  10   30.90    3.30 
  -2  -4  10   37.20    3.00 
  -2   4  10   35.20    3.30 
   2   4 -10   15.10   27.20 
  -2   4  10   28.50    3.80 
  -2   4  10   37.30    3.30 
  -2   4  10   30.00    2.90 
   0  -4 -10   10.10    2.30 
   0  -4  10    7.60    2.30 
   0   4 -10    4.00    1.50 
   0   4  10    7.20    2.10 
   0   4 -10    7.00    1.80 
  -2  -4 -10    1.90    1.40 
  -2  -4 -10    2.10    2.40 
  -2  -4 -10   -0.60    1.00 
  -2   4 -10   -0.40    0.90 
  -2   4 -10    1.20    4.90 
  -2   4 -10    0.60    1.10 
  -2   4 -10    2.00    1.90 
  -3  -5  10    4.00    1.30 
   3  -5 -10    1.80    1.90 
  -3  -5  10    5.90    2.20 
  -3   5  10    2.20    1.40 
  -3   5  10    2.60    1.50 
  -1  -5  10   62.19    4.20 
   1  -5 -10   56.89    4.60 
  -1  -5  10   55.69    4.50 
   1  -5 -10   58.29    5.10 
  -1   5  10   49.60    4.20 
  -1   5  10   52.39    5.60 
   1   5 -10   51.79    4.30 
  -1   5  10   63.69    4.50 
  -1   5  10   53.19    4.40 
  -1  -5 -10    2.00    1.60 
  -1  -5 -10    0.80    1.40 
  -1   5 -10    1.20    1.20 
  -1   5 -10    3.50    1.80 
  -1   5 -10    2.10    1.50 
  -1   5 -10    3.00    4.40 
  -2  -6  10    1.70    1.40 
  -2  -6  10    1.80    1.50 
  -2  -6  10    2.40    1.10 
  -2   6  10    2.50    1.40 
  -2   6  10    1.50    1.10 
   2   6 -10    2.10    1.50 
  -2   6  10    0.70    1.70 
   0  -6 -10    4.50    2.00 
   0  -6  10    9.00    1.90 
   0  -6 -10    4.70    1.90 
   0   6 -10    1.10    4.80 
   0   6  10    4.50    1.90 
   0   6 -10    6.50    1.60 
  -2  -6 -10    8.60    1.80 
  -2   6 -10   15.10    2.00 
  -2   6 -10   13.30    2.00 
   1  -7 -10   81.99    6.40 
  -1  -7  10   83.39    5.30 
   1   7 -10   71.79    5.40 
  -1   7  10   74.59    5.40 
  -1  -7 -10   -0.10    1.70 
   1  -7  10    2.10    2.40 
  -1   7 -10    0.80    1.10 
  -1   7 -10    1.70    1.70 
  -1   7 -10    4.60    5.60 
  -2  -8  10    3.40    1.00 
   2  -8 -10    1.00    1.50 
  -2  -8  10    3.20    2.20 
  -2   8  10    1.10    1.30 
  -2   8  10    2.00    1.30 
   2   8 -10    0.80    1.30 
  -2   8  10    1.50    0.90 
   0  -8 -10    3.90    1.60 
   0  -8 -10    2.10    1.70 
   0   8  10    5.00    2.00 
  -2  -8 -10    2.60    1.00 
   2  -8  10    2.30    1.40 
   2   8  10    1.70    1.10 
  -2   8 -10    2.10    0.90 
  -2   8 -10    2.90    1.00 
  -1  -9  10    2.10    1.00 
   1  -9 -10    1.50    1.40 
   1  -9 -10    0.70    1.30 
  -1   9  10    1.10    1.10 
   1   9 -10    0.30    1.70 
  -1   9  10   -1.00    2.10 
   1   9 -10    0.00    1.10 
   1  -9  10   -0.10    1.00 
  -1  -9 -10    0.90    1.00 
  -1   9 -10    0.60    0.80 
   1   9  10    0.20    1.60 
   0 -10 -10   12.50    1.70 
   0 -10  10    9.30    2.00 
   0 -10  10   12.10    1.60 
   0  10 -10   12.30    1.60 
  -2   0  11   -0.70    1.20 
   2   0 -11    3.50   17.80 
   2   0 -11    0.20    1.90 
  -2   0  11   -0.80    1.60 
  -2   0  11   -0.40    1.70 
  -2   0  11    0.20    2.50 
   0   0 -11   -0.20    1.20 
   0   0  11    1.00    1.50 
  -2   0 -11    0.30    1.30 
  -2   0 -11   -0.40    1.10 
  -2   0 -11   -0.90    1.20 
   2   0  11   -1.00    1.40 
  -3  -1  11   -0.40    1.30 
  -3  -1  11   -1.20    2.00 
  -3  -1  11    1.30    1.10 
  -3  -1  11   -0.10    1.40 
  -3   1  11   -0.10    1.80 
  -3   1  11    0.20    1.20 
  -3   1  11    0.10    1.00 
  -3   1  11    0.20    1.40 
  -1  -1  11  505.45   31.60 
  -1  -1  11  550.84   30.60 
  -1  -1  11  485.25   30.60 
   1  -1 -11  508.35   31.00 
  -1  -1  11  539.25   30.70 
  -1   1  11  564.94   30.80 
  -1   1  11  506.15   30.60 
  -1   1  11  488.55   31.30 
   1   1 -11  540.15   31.00 
  -1   1  11  441.16   31.40 
   1  -1  11   41.10    3.80 
  -1  -1 -11   40.80    3.80 
   1   1  11   45.60    3.80 
  -1   1 -11   39.70    3.90 
  -2  -2  11   11.50    2.50 
  -2  -2  11   16.80    2.10 
   2  -2 -11   16.30    3.30 
  -2  -2  11    9.70    3.10 
  -2  -2  11   16.30    3.00 
  -2   2  11   13.30    2.60 
  -2   2  11   15.10    3.60 
  -2   2  11   18.00    2.10 
  -2   2  11   11.00    2.10 
   0  -2  11   43.40    3.70 
   0  -2 -11   31.10    4.40 
   0  -2 -11   38.90    4.00 
   0   2 -11   45.20    3.60 
   0   2  11   41.00    3.60 
   0   2 -11   43.90    4.10 
  -2  -2 -11    2.70    1.50 
  -2  -2 -11    3.10    1.20 
  -2  -2 -11    1.20    1.40 
  -2   2 -11    4.20    1.70 
  -2   2 -11    4.00    1.20 
  -2   2 -11    2.90    1.20 
  -3  -3  11    5.00    1.50 
  -3  -3  11    3.30    1.30 
  -3   3  11    1.60    1.70 
  -3   3  11    3.40    1.50 
  -3   3  11    3.10    1.20 
  -1  -3  11    2.20    1.40 
  -1  -3  11   -0.70    2.20 
   1  -3 -11   -0.50    1.30 
  -1  -3  11    1.50    1.60 
  -1   3  11    1.00    3.30 
  -1   3  11   -0.10    1.70 
  -1   3  11    3.10    2.30 
  -1   3  11    0.50    1.50 
   1   3 -11    2.00    1.70 
  -1  -3 -11    0.70    1.70 
  -1  -3 -11    0.70    1.20 
   1  -3  11    0.40    2.00 
  -1   3 -11    5.30    8.60 
  -1   3 -11    1.30    1.70 
  -1   3 -11    1.30    1.80 
  -1   3 -11   -0.10    1.10 
  -1   3 -11    0.20    1.70 
  -2  -4  11    1.70    1.90 
  -2  -4  11    2.30    1.50 
   2  -4 -11    2.80    1.60 
  -2  -4  11    6.40    1.60 
  -2   4  11    4.00    2.20 
  -2   4  11    6.80    1.70 
  -2   4  11    5.80    1.70 
   0  -4  11    2.60    2.00 
   0  -4  11    2.80    2.00 
   0  -4 -11    3.10    2.10 
   0   4  11    2.50    1.70 
   0   4 -11    1.00    1.50 
  -2  -4 -11   -0.20    1.40 
  -2  -4 -11    0.50    1.00 
  -2   4 -11    1.50    1.70 
  -2   4 -11    0.90    0.80 
  -2   4 -11    0.20    1.00 
  -1  -5  11   13.70    2.40 
   1  -5 -11   15.00    3.10 
  -1  -5  11   19.50    2.00 
  -1   5  11    9.50    3.80 
  -1   5  11   17.40    2.40 
   1   5 -11   17.90    2.40 
  -1   5  11   14.10    2.60 
  -1  -5 -11    1.30    1.50 
  -1  -5 -11    1.90    1.40 
  -1   5 -11    1.60    1.30 
  -1   5 -11    5.10    5.80 
  -2  -6  11   43.30    3.50 
  -2  -6  11   52.39    3.40 
  -2   6  11   43.30    4.20 
  -2   6  11   47.90    3.70 
  -2   6  11   40.60    3.40 
   0  -6 -11   97.49    6.40 
   0  -6 -11   95.79    6.80 
   0  -6  11   96.29    6.30 
   0   6 -11  102.79    6.30 
   0   6 -11   76.09    6.90 
   0   6  11   86.29    6.20 
   2  -6  11    0.80    1.10 
  -2  -6 -11    0.00    0.80 
  -2   6 -11    0.30    0.70 
  -1  -7  11   23.30    2.20 
   1  -7 -11   16.60    3.30 
   1  -7 -11   22.70    3.20 
   1   7 -11   24.10    2.40 
   1  -7  11    1.40    1.40 
  -1  -7 -11    1.20    1.10 
  -1   7 -11    1.80    1.10 
   1   7  11    1.50    1.40 
  -1   7 -11    0.90    1.10 
  -2  -8  11    2.50    0.90 
   2  -8 -11    1.10    1.30 
  -2   8  11    0.80    1.70 
  -2   8  11    2.80    1.70 
   2   8 -11    1.80    1.30 
  -2   8  11    1.20    1.00 
   0  -8 -11    2.90    1.50 
   0  -8 -11    2.10    1.30 
   0  -8  11    3.00    1.20 
   0   8  11    4.00    1.70 
   0   8 -11    2.20    1.20 
   1  -9 -11    0.70    2.30 
   1  -9 -11    0.10    1.20 
  -1  -9  11    2.20    0.90 
  -1   9  11   -0.30    1.70 
   1   9 -11    0.80    0.90 
   1   9 -11    0.50    2.10 
   1  -9  11    5.40    1.50 
   1  -9  11    3.60    1.10 
  -1  -9 -11    1.70    0.90 
  -1   9 -11    2.50    0.80 
   1   9  11    2.00    1.70 
   0 -10 -11    3.60    1.20 
   0  10 -11    3.20    0.90 
  -2   0  12    1.90    1.50 
  -2   0  12    1.60    2.50 
  -2   0  12    1.40    1.10 
  -2   0  12    1.50    1.80 
   2   0 -12    2.60    2.10 
  -2   0 -12   10.60    2.30 
  -2   0 -12    7.30    1.50 
  -2   0 -12    3.30    1.70 
   2   0  12    6.90    1.80 
  -3  -1  12    0.40    1.30 
  -3  -1  12    0.40    1.10 
  -3  -1  12    0.90    0.90 
  -3   1  12    0.00    1.20 
  -3   1  12    1.70    1.70 
  -3   1  12    1.10    1.30 
  -3   1  12   -0.50    1.10 
   1  -1 -12  127.19    9.20 
  -1  -1  12  134.09    8.80 
  -1  -1  12  152.38    8.90 
  -1   1  12  138.79    8.80 
   1   1 -12  128.89    9.20 
   1  -1  12   44.40    3.70 
  -1  -1 -12   44.00    4.00 
  -1   1 -12   47.60    3.90 
   1   1  12   41.50    3.80 
  -1   1 -12   33.50    4.80 
  -2  -2  12   16.30    3.90 
  -2  -2  12   14.10    2.50 
   2  -2 -12   15.00    3.30 
  -2   2  12   22.50    2.50 
  -2   2  12   22.10    2.20 
  -2   2  12   19.00    2.60 
  -2   2  12   15.30    4.00 
   0  -2  12   68.79    5.10 
   0  -2 -12   67.49    5.40 
   0  -2  12   72.59    5.20 
   0   2 -12   66.39    5.50 
   0   2 -12   70.39    5.00 
   0   2  12   72.19    5.10 
  -2  -2 -12    1.50    1.50 
  -2  -2 -12    2.30    1.00 
  -2   2 -12    1.80    1.00 
  -2   2 -12    2.00    1.00 
   2   2  12    1.60    1.20 
  -2   2 -12    0.60    1.50 
   1  -3 -12    0.90    1.30 
  -1  -3  12    6.80    1.80 
  -1  -3  12    4.40    1.40 
  -1   3  12    6.60    1.70 
   1   3 -12    2.70    1.90 
  -1   3  12    2.30    2.00 
  -1  -3 -12    0.10    2.30 
  -1  -3 -12   -0.30    1.00 
   1  -3  12   -0.40    2.00 
   1   3  12    0.10    1.40 
  -1   3 -12    0.70    1.10 
  -1   3 -12    2.30    1.70 
  -2  -4  12   13.00    1.90 
  -2  -4  12    3.70    1.70 
   2  -4 -12   14.20    2.80 
  -2  -4  12    8.40    1.60 
  -2   4  12    5.10    1.60 
  -2   4  12    8.10    2.10 
  -2   4  12    8.50    1.90 
  -2   4  12    4.50    2.50 
   0  -4 -12   33.00    3.40 
   0  -4  12   30.70    3.40 
   0  -4  12   34.10    3.10 
   0   4 -12   36.40    3.00 
   0   4  12   35.10    3.10 
   0   4 -12   32.60    3.70 
  -2  -4 -12    0.00    0.80 
   2   4  12   -1.10    1.00 
  -2   4 -12    0.30    0.80 
  -2   4 -12    0.30    1.20 
   1  -5 -12   17.00    2.80 
  -1  -5  12   12.20    2.20 
  -1  -5  12   14.90    1.70 
   1   5 -12   14.10    2.90 
  -1   5  12   14.40    2.20 
  -1  -5 -12   25.10    2.40 
   1  -5  12   20.60    2.60 
  -1  -5 -12   22.10    3.10 
  -1   5 -12   23.60    2.30 
  -1   5 -12   19.50    2.80 
   1   5  12   22.60    2.60 
  -2  -6  12    0.60    0.90 
   2  -6 -12   -0.90    1.10 
  -2  -6  12    0.50    1.10 
  -2   6  12    1.20    1.20 
   2   6 -12    0.00    1.00 
  -2   6  12    1.70    2.70 
  -2   6  12   -0.30    1.30 
   0  -6 -12   -1.00    1.60 
   0  -6 -12    0.40    1.20 
   0  -6  12    3.20    1.20 
   0   6  12    1.90    1.40 
   0   6 -12    2.90    1.80 
   0   6 -12    2.50    1.20 
   1  -7 -12   26.70    3.10 
  -1  -7  12   26.70    2.20 
   1   7 -12   22.50    2.40 
  -1  -7 -12    3.40    1.20 
   1  -7  12    4.40    1.10 
   1   7  12    7.60    1.50 
  -1   7 -12    4.30    1.00 
  -1   7 -12    1.60    1.30 
   0  -8 -12    2.30    1.50 
   0  -8 -12    3.60    1.40 
   0  -8  12    6.80    1.20 
   0   8 -12    5.20    1.20 
   0   8  12    4.80    1.80 
  -2   0  13   -0.50    1.40 
  -2   0  13    0.10    1.00 
  -2   0  13    0.60    2.60 
  -2   0  13   -1.40    2.10 
   0   0  13   -0.30    1.20 
   0   0 -13    0.80    1.10 
  -2   0 -13   -0.30    0.90 
  -2   0 -13    0.10    1.00 
   2   0  13    0.60    1.30 
  -1  -1  13    1.40    1.60 
   1  -1 -13    1.30    1.30 
  -1  -1  13    1.70    1.30 
   1   1 -13    1.40    1.40 
  -1   1  13    1.00    1.10 
  -1  -1 -13   73.09    5.40 
  -1  -1 -13   62.99    5.20 
   1  -1  13   76.39    5.20 
  -1   1 -13   76.09    5.50 
   1   1  13   81.89    5.20 
   2  -2 -13    1.90    2.20 
  -2  -2  13    2.10    1.70 
  -2   2  13    1.90    1.50 
  -2   2  13    1.90    1.90 
  -2   2  13    3.70    2.80 
   0  -2 -13   51.09    4.30 
   0   2 -13   49.99    4.30 
   0   2  13   52.89    3.90 
  -2  -2 -13    3.00    1.00 
  -2  -2 -13    2.00    1.90 
  -2   2 -13    1.30    0.80 
  -2   2 -13    1.50    1.10 
  -1  -3  13    6.70    1.60 
   1  -3 -13    4.70    1.40 
  -1  -3  13    7.60    1.80 
   1   3 -13   11.30    1.80 
   1  -3  13   24.90    3.00 
  -1  -3 -13   22.80    2.60 
  -1  -3 -13   26.70    3.00 
   1   3  13   27.90    2.60 
  -1   3 -13   27.10    2.90 
  -2  -4  13    4.00    1.80 
   2   4 -13    4.00    1.10 
  -2   4  13    3.80    2.00 
  -2   4  13    5.20    1.40 
  -2   4  13    2.80    2.40 
   0  -4  13   10.70    2.20 
   0  -4 -13   12.40    2.30 
   0  -4  13   16.40    2.00 
   0   4  13   14.10    1.90 
   0   4 -13   14.30    2.00 
   1  -5 -13   16.70    2.60 
  -1  -5  13   12.40    2.10 
  -1  -5  13   16.00    1.80 
   1   5 -13   13.60    1.70 
  -1   5  13   14.10    2.10 
  -1  -5 -13    4.10    1.30 
  -1  -5 -13    3.40    1.40 
  -1   5 -13    1.90    1.60 
   1   5  13    7.20    1.60 
  -1   5 -13    6.00    1.40 
   0  -6 -13    4.50    1.20 
   0  -6 -13    5.40    2.00 
   0   6 -13    7.30    1.40 
   0   6  13    3.50    1.20 
   1  -7 -13    0.30    1.10 
   1   7 -13    1.00    0.80 
   0   8 -13    3.40    0.90 
  -2   0  14    2.80    0.90 
   0   0 -14   25.10    2.90 
   0   0  14   27.20    2.90 
   0   0  14   29.80    2.70 
  -1  -1  14    2.30    1.00 
   1  -1 -14    1.60    1.20 
  -1   1  14    2.50    1.20 
   1   1 -14    0.10    1.40 
   1   1 -14    1.00    1.10 
   1  -1  14   26.10    2.40 
  -1  -1 -14   24.70    2.80 
   1  -1  14   33.00    2.70 
   1   1  14   31.80    2.40 
   1   1  14   19.20    2.70 
  -1   1 -14   19.20    2.80 
  -2  -2  14   18.90    1.80 
  -2   2  14   19.60    1.80 
   2   2 -14   16.50    1.80 
   0  -2  14   11.10    1.90 
   0  -2 -14    9.00    2.10 
   0  -2  14   11.00    1.80 
   0   2 -14    8.40    1.90 
   0   2  14   11.90    1.80 
  -1  -3  14    3.30    1.30 
   1  -3 -14    0.70    1.00 
  -1  -3  14    1.90    1.00 
  -1   3  14    1.70    1.10 
   1   3 -14    0.40    0.90 
   1  -3  14   22.60    2.10 
  -1  -3 -14   15.00    2.60 
  -1   3 -14   17.50    2.50 
   1   3  14   19.10    1.90 
   0  -4 -14    1.10    1.00 
   0  -4  14    3.70    1.10 
   0  -4  14    0.90    1.60 
   0   4 -14    0.60    1.50 
   0   4 -14    0.40    0.90 
   0   4  14    1.60    1.10 
   1  -5 -14    2.70    1.20 
  -1  -5  14    5.00    1.60 
  -1  -5  14    5.70    1.30 
   1   5 -14    1.80    0.90 
  -1   5  14    2.50    1.00 
  -1  -5 -14    0.60    1.20 
   0  -6  14    4.50    1.10 
   0   6  14    4.30    1.40 
   0   6 -14    2.90    1.00 
   0   0 -15   -0.70    1.00 
   0   0  15    0.20    0.90 
   1  -1 -15    0.80    1.10 
   1  -1 -15    2.50    1.40 
   1   1 -15    4.60    2.00 
   0  -2  15   -0.20    0.80 
   0  -2 -15    1.20    0.90 
   0  -2  15    0.60    2.10 
   0   2 -15   -1.00    1.10 
   0   2  15    0.60    0.90 
   0   2 -15   -0.70    1.40 
  -1  -3  15    9.00    1.50 
   1   3 -15    7.20    1.30 
   0  -4 -15   -0.70    0.80 
   0  -4  15    0.40    0.90 
   0   4 -15    1.10    1.10 
   0   4  15    0.00    0.80 
   0   0   0    0.00    0.00 
  
_computing_structure_solution     'SHELXT 2014/5 (Sheldrick, 2014)' 
;
_shelx_hkl_checksum              76863
loop_
_space_group_symop_operation_xyz
'x, y, z'
'x, -y, z+1/2'
'x+1/2, y+1/2, z'
'x+1/2, -y+1/2, z+1/2'
loop_
_atom_site_label
_atom_site_type_symbol
_atom_site_fract_x
_atom_site_fract_y
_atom_site_fract_z
_atom_site_U_iso_or_equiv
_atom_site_adp_type
_atom_site_occupancy
_atom_site_site_symmetry_order
_atom_site_calc_flag
_atom_site_refinement_flags_posn
_atom_site_refinement_flags_adp
_atom_site_refinement_flags_occupancy
_atom_site_disorder_assembly
_atom_site_disorder_group
N1 N 0.6744(14) 0.3158(4) 0.3734(4) 0.0574(14) Uani 1 1 d . . . . .
C1 C 0.4396(16) 0.2441(5) 0.6366(5) 0.0585(15) Uani 1 1 d . . . . .
O1 O 0.3248(13) 0.3008(3) 0.7127(3) 0.0664(13) Uani 1 1 d . . . . .
H1A H 0.285150 0.257008 0.759143 0.080 Uiso 1 1 d R U . . .
C5 C 0.4143(16) 0.4272(5) 0.5323(4) 0.0571(15) Uani 1 1 d . . . . .
H5 H 0.317644 0.464790 0.586454 0.069 Uiso 1 1 calc R U . . .
C4 C 0.6038(17) 0.4293(4) 0.3701(5) 0.0566(14) Uani 1 1 d . . . . .
C2 C 0.4962(18) 0.3102(5) 0.5441(5) 0.0516(12) Uani 1 1 d . . . . .
O2 O 0.5020(15) 0.1422(4) 0.6394(4) 0.0744(15) Uani 1 1 d . . . . .
N2 N 0.4672(14) 0.4854(4) 0.4494(4) 0.0597(13) Uani 1 1 d . . . . .
N3 N 0.6736(16) 0.4857(4) 0.2879(4) 0.0665(14) Uani 1 1 d . . . . .
H3A H 0.633013 0.557443 0.284457 0.080 Uiso 1 1 calc R U . . .
H3AB H 0.759966 0.450991 0.237377 0.080 Uiso 1 1 calc R U . . .
C3 C 0.6216(15) 0.2583(5) 0.4587(4) 0.0571(15) Uani 1 1 d . . . . .
H3 H 0.670483 0.180933 0.460917 0.068 Uiso 1 1 calc R U . . .
loop_
_atom_site_aniso_label
_atom_site_aniso_U_11
_atom_site_aniso_U_22
_atom_site_aniso_U_33
_atom_site_aniso_U_23
_atom_site_aniso_U_13
_atom_site_aniso_U_12
N1 0.071(4) 0.048(2) 0.054(3) -0.003(2) 0.014(3) 0.005(2)
C1 0.065(4) 0.049(2) 0.063(3) -0.003(3) 0.018(3) -0.002(3)
O1 0.091(3) 0.050(2) 0.061(2) -0.0010(19) 0.023(2) -0.0028(19)
C5 0.065(4) 0.052(3) 0.056(3) -0.004(2) 0.015(3) 0.002(2)
C4 0.063(4) 0.049(3) 0.059(3) 0.000(3) 0.012(2) 0.002(3)
C2 0.057(3) 0.048(2) 0.051(3) -0.004(3) 0.010(2) 0.003(2)
O2 0.107(4) 0.050(2) 0.070(3) 0.0056(19) 0.028(3) 0.008(2)
N2 0.074(3) 0.048(2) 0.058(3) -0.002(2) 0.013(2) 0.009(2)
N3 0.094(4) 0.048(2) 0.060(3) 0.005(2) 0.021(2) 0.011(2)
C3 0.065(4) 0.049(3) 0.059(3) -0.001(3) 0.017(3) 0.003(2)
loop_
_atom_type_symbol
_atom_type_description
_atom_type_scat_dispersion_real
_atom_type_scat_dispersion_imag
_atom_type_scat_source
C C 0.0181 0.0091 'International Tables Vol C Tables 4.2.6.8 and 6.1.1.4'
H H 0.0000 0.0000 'International Tables Vol C Tables 4.2.6.8 and 6.1.1.4'
N N 0.0311 0.0180 'International Tables Vol C Tables 4.2.6.8 and 6.1.1.4'
O O 0.0492 0.0322 'International Tables Vol C Tables 4.2.6.8 and 6.1.1.4'
loop_
_geom_angle_atom_site_label_1
_geom_angle_atom_site_label_2
_geom_angle_atom_site_label_3
_geom_angle
_geom_angle_site_symmetry_1
_geom_angle_site_symmetry_3
C3 N1 C4 119.1(5) . .
O2 C1 O1 123.7(6) . .
O2 C1 C2 120.5(6) . .
O1 C1 C2 115.9(5) . .
C1 O1 H1A 109.5 . .
N2 C5 C2 123.7(6) . .
N2 C5 H5 118.1 . .
C2 C5 H5 118.1 . .
N3 C4 N2 119.3(5) . .
N3 C4 N1 118.5(5) . .
N2 C4 N1 122.2(5) . .
C3 C2 C5 115.1(6) . .
C3 C2 C1 120.6(5) . .
C5 C2 C1 124.3(6) . .
C5 N2 C4 117.7(5) . .
C4 N3 H3A 120.0 . .
C4 N3 H3AB 120.0 . .
H3A N3 H3AB 120.0 . .
N1 C3 C2 122.1(5) . .
N1 C3 H3 119.0 . .
C2 C3 H3 119.0 . .
loop_
_geom_bond_atom_site_label_1
_geom_bond_atom_site_label_2
_geom_bond_distance
_geom_bond_site_symmetry_2
N1 C3 1.334(8) .
N1 C4 1.364(7) .
C1 O2 1.224(8) .
C1 O1 1.298(7) .
C1 C2 1.470(9) .
O1 H1A 0.8201 .
C5 N2 1.313(8) .
C5 C2 1.418(8) .
C5 H5 0.9300 .
C4 N3 1.308(8) .
C4 N2 1.361(7) .
C2 C3 1.385(8) .
N3 H3A 0.8600 .
N3 H3AB 0.8600 .
C3 H3 0.9300 .
loop_
_geom_hbond_atom_site_label_D
_geom_hbond_atom_site_label_H
_geom_hbond_atom_site_label_A
_geom_hbond_distance_DH
_geom_hbond_distance_HA
_geom_hbond_distance_DA
_geom_hbond_angle_DHA
_geom_hbond_site_symmetry_A
O1 H1A N1 0.82 1.80 2.611(6) 169.4 4_455
N3 H3A O1 0.86 2.19 2.956(7) 148.9 2_564
N3 H3AB O2 0.86 1.96 2.808(7) 170.7 4_554
loop_
_geom_torsion_atom_site_label_1
_geom_torsion_atom_site_label_2
_geom_torsion_atom_site_label_3
_geom_torsion_atom_site_label_4
_geom_torsion
_geom_torsion_site_symmetry_1
_geom_torsion_site_symmetry_2
_geom_torsion_site_symmetry_3
_geom_torsion_site_symmetry_4
C3 N1 C4 N3 176.7(6) . . . .
C3 N1 C4 N2 -2.7(10) . . . .
N2 C5 C2 C3 -3.1(9) . . . .
N2 C5 C2 C1 179.8(6) . . . .
O2 C1 C2 C3 -0.1(10) . . . .
O1 C1 C2 C3 179.4(6) . . . .
O2 C1 C2 C5 176.8(7) . . . .
O1 C1 C2 C5 -3.7(9) . . . .
C2 C5 N2 C4 0.9(9) . . . .
N3 C4 N2 C5 -177.3(6) . . . .
N1 C4 N2 C5 2.1(9) . . . .
C4 N1 C3 C2 0.2(9) . . . .
C5 C2 C3 N1 2.5(9) . . . .
C1 C2 C3 N1 179.7(6) . . . .
