#------------------------------------------------------------------------------
#$Date: 2021-03-30 12:23:06 +0300 (Tue, 30 Mar 2021) $
#$Revision: 263445 $
#$URL: file:///home/coder/svn-repositories/cod/cif/1/56/13/1561368.cif $
#------------------------------------------------------------------------------
#
# This file is available in the Crystallography Open Database (COD),
# http://www.crystallography.net/
#
# All data on this site have been placed in the public domain by the
# contributors.
#
data_1561368
loop_
_publ_author_name
'Nolas, George S.'
'Hassan, M. Shafiq'
'Dong, Yongkwan'
'Martin, Joshua'
_publ_section_title
;
 Synthesis, crystal structure and electrical properties of the tetrahedral
 quaternary chalcogenides CuM2InTe4 (M=Zn, Cd)
;
_journal_name_full               'Journal of Solid State Chemistry'
_journal_page_first              50
_journal_page_last               54
_journal_paper_doi               10.1016/j.jssc.2016.03.038
_journal_volume                  242
_journal_year                    2016
_chemical_formula_sum            'Cd0.5 Cu0.25 In0.25 Te'
_chemical_formula_weight         228.40
_space_group_IT_number           216
_space_group_name_Hall           'F -4 2 3'
_space_group_name_H-M_alt        'F -4 3 m'
_symmetry_cell_setting           cubic
_symmetry_space_group_name_H-M   'F -4 3 m'
_cell_angle_alpha                90.0
_cell_angle_beta                 90.0
_cell_angle_gamma                90.0
_cell_formula_units_Z            4
_cell_length_a                   6.34257(4)
_cell_length_b                   6.34257
_cell_length_c                   6.34257
_cell_volume                     255.1501(16)
_computing_structure_refinement  GSAS
_diffrn_radiation_polarisn_ratio 0.87
_diffrn_radiation_probe          x-ray
_exptl_absorpt_correction_T_max  1.00000
_exptl_absorpt_correction_T_min  1.00000
_exptl_absorpt_process_details
;   GSAS Absorption/surface roughness correction: function number 0
 No correction is applied.
;
_pd_calc_method                  'Rietveld Refinement'
_pd_instr_location               ' ?'
_pd_meas_2theta_range_inc        0.01998
_pd_meas_2theta_range_max        99.98992
_pd_meas_2theta_range_min        10.0
_pd_meas_number_of_points        4505
_pd_phase_name                   1
_pd_proc_2theta_range_inc        0.01998
_pd_proc_2theta_range_max        99.98992
_pd_proc_2theta_range_min        10.0
_pd_proc_info_datetime           2015-03-13T09:42:46
_pd_proc_info_excluded_regions   ' ?'
_pd_proc_ls_background_function
;   GSAS Background function number 1 with 18 terms.
 Shifted Chebyshev function of 1st kind
      1:    2063.50     2:   -2308.31     3:    1771.93     4:   -1355.11    
      5:    1042.11     6:   -792.588     7:    602.544     8:   -422.549    
      9:    318.949    10:   -252.730    11:    197.353    12:   -120.366    
     13:    72.4382    14:   -43.7812    15:    28.7403    16:    1.91818    
     17:   -23.6856    18:    25.9527    
;
_pd_proc_ls_peak_cutoff          0.00100
_pd_proc_ls_profile_function
;
 CW Profile function number 3 with  19 terms
 Pseudovoigt profile coefficients as parameterized in
 P. Thompson, D.E. Cox & J.B. Hastings (1987). J. Appl. Cryst.,20,79-83.
 Asymmetry correction of L.W. Finger, D.E. Cox & A. P. Jephcoat (1994).
 J. Appl. Cryst.,27,892-900.
 #1(GU)   =  546.809 #2(GV)   = -185.000 #3(GW)   =   26.602
 #4(GP)   =    3.502 #5(LX)   =    6.253 #6(LY)   =   27.985
 #7(S/L)  =   0.0005 #8(H/L)  =   0.0005
 #9(trns) =    -2.99 #10(shft)=  -7.5858
 #11(stec)=    -3.27 #12(ptec)=     2.06 #13(sfec)=     0.00
 #14(L11) =    0.000 #15(L22) =    0.000 #16(L33) =    0.000
 #17(L12) =    0.000 #18(L13) =    0.000 #19(L23) =    0.000
 Peak tails are ignored  where the intensity is below 0.0010 times the peak
   Aniso. broadening axis   0.0   0.0   1.0
;
_pd_proc_ls_prof_R_factor        0.0324
_pd_proc_ls_prof_wR_expected     0.0236
_pd_proc_ls_prof_wR_factor       0.0418
_pd_proc_number_of_points        4505
_pd_spec_mounting                ' ?'
_refine_ls_goodness_of_fit_all   1.78
_refine_ls_matrix_type           full
_refine_ls_number_parameters     22
_refine_ls_number_restraints     0
_refine_ls_R_Fsqd_factor         0.03144
_refine_ls_shift/su_max          0.01
_refine_ls_shift/su_mean         0.00
_reflns_d_resolution_high        1.057
_reflns_d_resolution_low         3.662
_reflns_limit_h_max              6
_reflns_limit_h_min              1
_reflns_limit_k_max              4
_reflns_limit_k_min              0
_reflns_limit_l_max              3
_reflns_limit_l_min              0
_reflns_number_total             30
_cod_data_source_file            mmc1.cif
_cod_data_source_block           CuCd2InTe4
_cod_depositor_comments
;
The following automatic conversions were performed:

data item '_geom_angle_publ_flag' value 'N' was changed to 'n' in
accordance with the built-in table derived from the CIF Core
dictionary named 'cif_core.dic' version 2.4.5 last updated on
2014-11-21 (84 times).

data item '_geom_bond_publ_flag' value 'N' was changed to 'n' in
accordance with the built-in table derived from the CIF Core
dictionary named 'cif_core.dic' version 2.4.5 last updated on
2014-11-21 (24 times).

Automatic conversion script
Id: cif_fix_values 8369 2020-08-20 11:38:08Z andrius 
;
_cod_original_cell_volume        255.150(5)
_cod_original_formula_sum        'Cd0.50 Cu0.25 In0.25 Te'
_cod_database_code               1561368
_gsas_exptl_extinct_corr_t_min   1.00000
_gsas_exptl_extinct_corr_t_max   1.00000
loop_
_symmetry_equiv_pos_site_id
_symmetry_equiv_pos_as_xyz
1 +x,+y,+z
2 +z,+x,+y
3 +y,+z,+x
4 +y,-x,-z
5 -z,+y,-x
6 -x,-z,+y
7 -x,-y,+z
8 -z,+x,-y
9 -y,-z,+x
10 +x,-y,-z
11 +z,-x,-y
12 -y,+z,-x
13 -y,+x,-z
14 -z,-y,+x
15 +x,-z,-y
16 +x,+z,+y
17 +y,+x,+z
18 +z,+y,+x
19 +y,-z,-x
20 -y,-x,+z
21 +z,-y,-x
22 -x,+z,-y
23 -x,+y,-z
24 -z,-x,+y
101 +x,+y+1/2,+z+1/2
102 +z,+x+1/2,+y+1/2
103 +y,+z+1/2,+x+1/2
104 +y,-x+1/2,-z+1/2
105 -z,+y+1/2,-x+1/2
106 -x,-z+1/2,+y+1/2
107 -x,-y+1/2,+z+1/2
108 -z,+x+1/2,-y+1/2
109 -y,-z+1/2,+x+1/2
110 +x,-y+1/2,-z+1/2
111 +z,-x+1/2,-y+1/2
112 -y,+z+1/2,-x+1/2
113 -y,+x+1/2,-z+1/2
114 -z,-y+1/2,+x+1/2
115 +x,-z+1/2,-y+1/2
116 +x,+z+1/2,+y+1/2
117 +y,+x+1/2,+z+1/2
118 +z,+y+1/2,+x+1/2
119 +y,-z+1/2,-x+1/2
120 -y,-x+1/2,+z+1/2
121 +z,-y+1/2,-x+1/2
122 -x,+z+1/2,-y+1/2
123 -x,+y+1/2,-z+1/2
124 -z,-x+1/2,+y+1/2
201 +x+1/2,+y,+z+1/2
202 +z+1/2,+x,+y+1/2
203 +y+1/2,+z,+x+1/2
204 +y+1/2,-x,-z+1/2
205 -z+1/2,+y,-x+1/2
206 -x+1/2,-z,+y+1/2
207 -x+1/2,-y,+z+1/2
208 -z+1/2,+x,-y+1/2
209 -y+1/2,-z,+x+1/2
210 +x+1/2,-y,-z+1/2
211 +z+1/2,-x,-y+1/2
212 -y+1/2,+z,-x+1/2
213 -y+1/2,+x,-z+1/2
214 -z+1/2,-y,+x+1/2
215 +x+1/2,-z,-y+1/2
216 +x+1/2,+z,+y+1/2
217 +y+1/2,+x,+z+1/2
218 +z+1/2,+y,+x+1/2
219 +y+1/2,-z,-x+1/2
220 -y+1/2,-x,+z+1/2
221 +z+1/2,-y,-x+1/2
222 -x+1/2,+z,-y+1/2
223 -x+1/2,+y,-z+1/2
224 -z+1/2,-x,+y+1/2
301 +x+1/2,+y+1/2,+z
302 +z+1/2,+x+1/2,+y
303 +y+1/2,+z+1/2,+x
304 +y+1/2,-x+1/2,-z
305 -z+1/2,+y+1/2,-x
306 -x+1/2,-z+1/2,+y
307 -x+1/2,-y+1/2,+z
308 -z+1/2,+x+1/2,-y
309 -y+1/2,-z+1/2,+x
310 +x+1/2,-y+1/2,-z
311 +z+1/2,-x+1/2,-y
312 -y+1/2,+z+1/2,-x
313 -y+1/2,+x+1/2,-z
314 -z+1/2,-y+1/2,+x
315 +x+1/2,-z+1/2,-y
316 +x+1/2,+z+1/2,+y
317 +y+1/2,+x+1/2,+z
318 +z+1/2,+y+1/2,+x
319 +y+1/2,-z+1/2,-x
320 -y+1/2,-x+1/2,+z
321 +z+1/2,-y+1/2,-x
322 -x+1/2,+z+1/2,-y
323 -x+1/2,+y+1/2,-z
324 -z+1/2,-x+1/2,+y
loop_
_atom_site_type_symbol
_atom_site_label
_atom_site_fract_x
_atom_site_fract_y
_atom_site_fract_z
_atom_site_occupancy
_atom_site_thermal_displace_type
_atom_site_U_iso_or_equiv
_atom_site_symmetry_multiplicity
Cu CU1 0.0 0.0 0.0 0.25 Uiso 0.0302(10) 4
In IN2 0.0 0.0 0.0 0.25 Uiso 0.0302(10) 4
Cd CD3 0.0 0.0 0.0 0.5 Uiso 0.0302(10) 4
Te TE4 0.25 0.25 0.25 1.0 Uiso 0.0316(8) 4
loop_
_atom_type_symbol
_atom_type_number_in_cell
_atom_type_scat_dispersion_real
_atom_type_scat_dispersion_imag
_atom_type_scat_Cromer_Mann_a1
_atom_type_scat_Cromer_Mann_a2
_atom_type_scat_Cromer_Mann_a3
_atom_type_scat_Cromer_Mann_a4
_atom_type_scat_Cromer_Mann_b1
_atom_type_scat_Cromer_Mann_b2
_atom_type_scat_Cromer_Mann_b3
_atom_type_scat_Cromer_Mann_b4
_atom_type_scat_Cromer_Mann_c
_atom_type_scat_source
Cu 1.0 0.000 0.000 13.3380 3.58280 7.16760 0.24700 5.61580 11.3966 1.67350
64.8126 1.19100 International_Tables_Vol_C
In 1.0 0.000 0.000 19.1624 0.54760 18.5596 6.37760 4.29480 25.8499 2.03960
92.8029 4.93910 International_Tables_Vol_C
Cd 2.0 0.000 0.000 19.2214 0.59460 17.6444 6.90890 4.46100 24.7008 1.60290
87.4825 5.06940 International_Tables_Vol_C
Te 4.0 0.000 0.000 19.9644 4.81742 19.0138 0.42088 6.14487 28.5284 2.52390
70.8403 4.35200 International_Tables_Vol_C
loop_
_diffrn_radiation_wavelength
_diffrn_radiation_wavelength_wt
_diffrn_radiation_type
_diffrn_radiation_wavelength_id
1.540600 1.000 K\a~1~ 1
1.544400 0.500 K\a~2~ 2
loop_
_geom_angle_atom_site_label_1
_geom_angle_atom_site_label_2
_geom_angle_atom_site_label_3
_geom_angle
_geom_angle_site_symmetry_1
_geom_angle_site_symmetry_2
_geom_angle_site_symmetry_3
_geom_angle_publ_flag
TE4 CU1 TE4 109.47120(20) 1_555 . 4_555 n
TE4 CU1 TE4 109.47120(20) 1_555 . 5_555 n
TE4 CU1 TE4 109.4712(5) 1_555 . 6_555 n
TE4 CU1 TE4 109.4712(5) 4_555 . 5_555 n
TE4 CU1 TE4 109.47120(20) 4_555 . 6_555 n
TE4 CU1 TE4 109.47120(20) 5_555 . 6_555 n
TE4 IN2 TE4 109.47120(20) 1_555 . 4_555 n
TE4 IN2 TE4 109.47120(20) 1_555 . 5_555 n
TE4 IN2 TE4 109.4712(5) 1_555 . 6_555 n
TE4 IN2 TE4 109.4712(5) 4_555 . 5_555 n
TE4 IN2 TE4 109.47120(20) 4_555 . 6_555 n
TE4 IN2 TE4 109.47120(20) 5_555 . 6_555 n
TE4 CD3 TE4 109.47120(20) 1_555 . 4_555 n
TE4 CD3 TE4 109.47120(20) 1_555 . 5_555 n
TE4 CD3 TE4 109.4712(5) 1_555 . 6_555 n
TE4 CD3 TE4 109.4712(5) 4_555 . 5_555 n
TE4 CD3 TE4 109.47120(20) 4_555 . 6_555 n
TE4 CD3 TE4 109.47120(20) 5_555 . 6_555 n
CU1 TE4 CU1 109.47120(20) 1_555 . 101_555 n
CU1 TE4 CU1 109.47120(20) 1_555 . 201_555 n
CU1 TE4 CU1 109.4712(5) 1_555 . 301_555 n
CU1 TE4 IN2 0.0 1_555 . 1_555 n
CU1 TE4 IN2 109.47120(20) 1_555 . 101_555 n
CU1 TE4 IN2 109.47120(20) 1_555 . 201_555 n
CU1 TE4 IN2 109.4712(5) 1_555 . 301_555 n
CU1 TE4 CD3 0.0 1_555 . 1_555 n
CU1 TE4 CD3 109.47120(20) 1_555 . 101_555 n
CU1 TE4 CD3 109.47120(20) 1_555 . 201_555 n
CU1 TE4 CD3 109.4712(5) 1_555 . 301_555 n
CU1 TE4 CU1 109.4712(5) 101_555 . 201_555 n
CU1 TE4 CU1 109.47120(20) 101_555 . 301_555 n
CU1 TE4 IN2 109.47120(20) 101_555 . 1_555 n
CU1 TE4 IN2 0.0 101_555 . 101_555 n
CU1 TE4 IN2 109.4712(5) 101_555 . 201_555 n
CU1 TE4 IN2 109.47120(20) 101_555 . 301_555 n
CU1 TE4 CD3 109.47120(20) 101_555 . 1_555 n
CU1 TE4 CD3 0.0 101_555 . 101_555 n
CU1 TE4 CD3 109.4712(5) 101_555 . 201_555 n
CU1 TE4 CD3 109.47120(20) 101_555 . 301_555 n
CU1 TE4 CU1 109.47120(20) 201_555 . 301_555 n
CU1 TE4 IN2 109.47120(20) 201_555 . 1_555 n
CU1 TE4 IN2 109.4712(5) 201_555 . 101_555 n
CU1 TE4 IN2 0.0 201_555 . 201_555 n
CU1 TE4 IN2 109.47120(20) 201_555 . 301_555 n
CU1 TE4 CD3 109.47120(20) 201_555 . 1_555 n
CU1 TE4 CD3 109.4712(5) 201_555 . 101_555 n
CU1 TE4 CD3 0.0 201_555 . 201_555 n
CU1 TE4 CD3 109.47120(20) 201_555 . 301_555 n
CU1 TE4 IN2 109.4712(5) 301_555 . 1_555 n
CU1 TE4 IN2 109.47120(20) 301_555 . 101_555 n
CU1 TE4 IN2 109.47120(20) 301_555 . 201_555 n
CU1 TE4 IN2 0.0 301_555 . 301_555 n
CU1 TE4 CD3 109.4712(5) 301_555 . 1_555 n
CU1 TE4 CD3 109.47120(20) 301_555 . 101_555 n
CU1 TE4 CD3 109.47120(20) 301_555 . 201_555 n
CU1 TE4 CD3 0.0 301_555 . 301_555 n
IN2 TE4 IN2 109.47120(20) 1_555 . 101_555 n
IN2 TE4 IN2 109.47120(20) 1_555 . 201_555 n
IN2 TE4 IN2 109.4712(5) 1_555 . 301_555 n
IN2 TE4 CD3 0.0 1_555 . 1_555 n
IN2 TE4 CD3 109.47120(20) 1_555 . 101_555 n
IN2 TE4 CD3 109.47120(20) 1_555 . 201_555 n
IN2 TE4 CD3 109.4712(5) 1_555 . 301_555 n
IN2 TE4 IN2 109.4712(5) 101_555 . 201_555 n
IN2 TE4 IN2 109.47120(20) 101_555 . 301_555 n
IN2 TE4 CD3 109.47120(20) 101_555 . 1_555 n
IN2 TE4 CD3 0.0 101_555 . 101_555 n
IN2 TE4 CD3 109.4712(5) 101_555 . 201_555 n
IN2 TE4 CD3 109.47120(20) 101_555 . 301_555 n
IN2 TE4 IN2 109.47120(20) 201_555 . 301_555 n
IN2 TE4 CD3 109.47120(20) 201_555 . 1_555 n
IN2 TE4 CD3 109.4712(5) 201_555 . 101_555 n
IN2 TE4 CD3 0.0 201_555 . 201_555 n
IN2 TE4 CD3 109.47120(20) 201_555 . 301_555 n
IN2 TE4 CD3 109.4712(5) 301_555 . 1_555 n
IN2 TE4 CD3 109.47120(20) 301_555 . 101_555 n
IN2 TE4 CD3 109.47120(20) 301_555 . 201_555 n
IN2 TE4 CD3 0.0 301_555 . 301_555 n
CD3 TE4 CD3 109.47120(20) 1_555 . 101_555 n
CD3 TE4 CD3 109.47120(20) 1_555 . 201_555 n
CD3 TE4 CD3 109.4712(5) 1_555 . 301_555 n
CD3 TE4 CD3 109.4712(5) 101_555 . 201_555 n
CD3 TE4 CD3 109.47120(20) 101_555 . 301_555 n
CD3 TE4 CD3 109.47120(20) 201_555 . 301_555 n
loop_
_geom_bond_atom_site_label_1
_geom_bond_atom_site_label_2
_geom_bond_distance
_geom_bond_site_symmetry_1
_geom_bond_site_symmetry_2
_geom_bond_publ_flag
CU1 TE4 2.746410(10) . 1_555 n
CU1 TE4 2.746410(10) . 4_555 n
CU1 TE4 2.746410(10) . 5_555 n
CU1 TE4 2.746410(10) . 6_555 n
IN2 TE4 2.746410(10) . 1_555 n
IN2 TE4 2.746410(10) . 4_555 n
IN2 TE4 2.746410(10) . 5_555 n
IN2 TE4 2.746410(10) . 6_555 n
CD3 TE4 2.746410(10) . 1_555 n
CD3 TE4 2.746410(10) . 4_555 n
CD3 TE4 2.746410(10) . 5_555 n
CD3 TE4 2.746410(10) . 6_555 n
TE4 CU1 2.746410(10) . 1_555 n
TE4 CU1 2.746410(10) . 101_555 n
TE4 CU1 2.746410(10) . 201_555 n
TE4 CU1 2.746410(10) . 301_555 n
TE4 IN2 2.746410(10) . 1_555 n
TE4 IN2 2.746410(10) . 101_555 n
TE4 IN2 2.746410(10) . 201_555 n
TE4 IN2 2.746410(10) . 301_555 n
TE4 CD3 2.746410(10) . 1_555 n
TE4 CD3 2.746410(10) . 101_555 n
TE4 CD3 2.746410(10) . 201_555 n
TE4 CD3 2.746410(10) . 301_555 n
loop_
_pd_meas_counts_total
_pd_proc_ls_weight
_pd_proc_intensity_bkg_calc
_pd_calc_intensity_total
10767.0 0.0000929 11341.44238 11341.42285
10896.0 0.0000918 11259.52539 11259.50586
10745.0 0.0000931 11178.20605 11178.18750
10681.0 0.0000936 11097.49805 11097.47852
10674.0 0.0000937 11017.39160 11017.37207
10665.0 0.0000938 10937.89063 10937.87109
10589.0 0.0000944 10858.98535 10858.96582
10709.0 0.0000934 10780.67871 10780.65918
10520.0 0.0000951 10702.97559 10702.95605
10392.0 0.0000962 10625.85742 10625.83789
10334.0 0.0000968 10549.32813 10549.30859
10386.0 0.0000963 10473.40137 10473.38184
10209.0 0.0000980 10398.05469 10398.03516
10175.0 0.0000983 10323.30078 10323.28027
10243.0 0.0000976 10249.12012 10249.10059
10038.0 0.0000996 10175.53125 10175.51172
9938.0 0.0001006 10102.52051 10102.50098
9879.0 0.0001012 10030.08398 10030.06348
9885.0 0.0001012 9958.22754 9958.20703
9881.0 0.0001012 9886.93750 9886.91797
9668.0 0.0001034 9816.22852 9816.20801
9756.0 0.0001025 9746.07910 9746.05957
9631.0 0.0001038 9676.49805 9676.47754
9507.0 0.0001052 9607.48828 9607.46777
9513.0 0.0001051 9539.03125 9539.01074
9562.0 0.0001046 9471.12988 9471.10938
9502.0 0.0001052 9403.79883 9403.77832
9459.0 0.0001057 9337.01367 9336.99316
9298.0 0.0001076 9270.78516 9270.76465
9229.0 0.0001084 9205.09961 9205.07910
9056.0 0.0001104 9139.96094 9139.94043
9201.0 0.0001087 9075.37598 9075.35547
9172.0 0.0001090 9011.32520 9011.30566
9043.0 0.0001106 8947.81641 8947.79688
8978.0 0.0001114 8884.84180 8884.82129
8863.0 0.0001128 8822.39844 8822.37793
8826.0 0.0001133 8760.49512 8760.47461
8744.0 0.0001144 8699.11621 8699.09668
8982.0 0.0001113 8638.26270 8638.24219
8498.0 0.0001177 8577.93652 8577.91699
8426.0 0.0001187 8518.12207 8518.10254
8501.0 0.0001176 8458.83984 8458.81934
8490.0 0.0001178 8400.06152 8400.04199
8440.0 0.0001185 8341.79883 8341.77832
8401.0 0.0001190 8284.04688 8284.02734
8510.0 0.0001175 8226.79785 8226.77832
8138.0 0.0001229 8170.06201 8170.04248
8167.0 0.0001224 8113.82080 8113.80127
8091.0 0.0001236 8058.07813 8058.05859
8264.0 0.0001210 8002.83643 8002.81689
8140.0 0.0001229 7948.08203 7948.06250
8129.0 0.0001230 7893.81787 7893.79834
8002.0 0.0001250 7840.04883 7840.02930
7912.0 0.0001264 7786.75684 7786.73779
8038.0 0.0001244 7733.95313 7733.93359
7927.0 0.0001262 7681.62451 7681.60498
7887.0 0.0001268 7629.76514 7629.74609
7823.0 0.0001278 7578.39258 7578.37354
7907.0 0.0001265 7527.48242 7527.46338
7674.0 0.0001303 7477.04297 7477.02393
7687.0 0.0001301 7427.06543 7427.04639
7673.0 0.0001303 7377.54736 7377.52832
7535.0 0.0001327 7328.49268 7328.47412
7456.0 0.0001341 7279.89209 7279.87354
7494.0 0.0001334 7231.74316 7231.72412
7370.0 0.0001357 7184.04736 7184.02881
7489.0 0.0001335 7136.79395 7136.77539
7368.0 0.0001357 7089.99316 7089.97461
7153.0 0.0001398 7043.62695 7043.60840
7253.0 0.0001379 6997.69922 6997.68066
7099.0 0.0001409 6952.20947 6952.19141
7139.0 0.0001401 6907.14697 6907.12842
7040.0 0.0001420 6862.52246 6862.50439
7005.0 0.0001428 6818.31836 6818.29980
7087.0 0.0001411 6774.53955 6774.52148
6912.0 0.0001447 6731.18311 6731.16504
6951.0 0.0001439 6688.24121 6688.22314
6761.0 0.0001479 6645.71436 6645.69629
6896.0 0.0001450 6603.60449 6603.58643
6709.0 0.0001491 6561.90186 6561.88379
6752.0 0.0001481 6520.60400 6520.58643
6758.0 0.0001480 6479.70850 6479.69092
6663.0 0.0001501 6439.21191 6439.19434
6523.0 0.0001533 6399.12207 6399.10449
6520.0 0.0001534 6359.41895 6359.40137
6355.0 0.0001574 6320.10791 6320.09082
6478.0 0.0001544 6281.18799 6281.17090
6419.0 0.0001558 6242.64795 6242.63086
6401.0 0.0001562 6204.50098 6204.48340
6164.0 0.0001622 6166.72852 6166.71143
6332.0 0.0001579 6129.33203 6129.31494
6159.0 0.0001624 6092.31152 6092.29443
6134.0 0.0001630 6055.66113 6055.64453
6299.0 0.0001588 6019.38281 6019.36621
6091.0 0.0001642 5983.46680 5983.45020
6101.0 0.0001639 5947.91406 5947.89697
6088.0 0.0001643 5912.72461 5912.70801
5948.0 0.0001681 5877.88770 5877.87109
5880.0 0.0001701 5843.40430 5843.38770
5825.0 0.0001717 5809.27930 5809.26270
5948.0 0.0001681 5775.49854 5775.48242
5815.0 0.0001720 5742.06445 5742.04834
5893.0 0.0001697 5708.97266 5708.95654
5764.0 0.0001735 5676.21826 5676.20215
5726.0 0.0001746 5643.80664 5643.79053
5693.0 0.0001757 5611.72803 5611.71191
5608.0 0.0001783 5579.98047 5579.96436
5422.0 0.0001844 5548.56299 5548.54688
5641.0 0.0001773 5517.46924 5517.45313
5413.0 0.0001847 5486.70215 5486.68652
5405.0 0.0001850 5456.25488 5456.23877
5517.0 0.0001813 5426.12451 5426.10840
5319.0 0.0001880 5396.31299 5396.29736
5330.0 0.0001876 5366.80859 5366.79297
5222.0 0.0001915 5337.62061 5337.60498
5360.0 0.0001866 5308.73535 5308.71973
5379.0 0.0001859 5280.15479 5280.13916
5139.0 0.0001946 5251.87793 5251.86279
5002.0 0.0001999 5223.89844 5223.88330
5085.0 0.0001967 5196.21826 5196.20313
4945.0 0.0002022 5168.83008 5168.81494
5224.0 0.0001914 5141.73242 5141.71729
4993.0 0.0002003 5114.92529 5114.91016
4885.0 0.0002047 5088.40283 5088.38770
5027.0 0.0001989 5062.16260 5062.14795
4951.0 0.0002020 5036.20703 5036.19189
4865.0 0.0002055 5010.52783 5010.51270
4880.0 0.0002049 4985.12500 4985.10986
4804.0 0.0002082 4959.99463 4959.97998
4800.0 0.0002083 4935.13086 4935.11621
4786.0 0.0002089 4910.54297 4910.52832
4636.0 0.0002157 4886.21484 4886.20068
4744.0 0.0002108 4862.15283 4862.13867
4622.0 0.0002164 4838.34912 4838.33447
4582.0 0.0002182 4814.80225 4814.78760
4570.0 0.0002188 4791.51465 4791.50000
4602.0 0.0002173 4768.47803 4768.46338
4607.0 0.0002171 4745.69092 4745.67676
4522.0 0.0002211 4723.15479 4723.14063
4454.0 0.0002245 4700.86133 4700.84717
4477.0 0.0002234 4678.81543 4678.80176
4409.0 0.0002268 4657.00635 4656.99268
4436.0 0.0002254 4635.43604 4635.42236
4484.0 0.0002230 4614.10547 4614.09180
4326.0 0.0002312 4593.00439 4592.99072
4336.0 0.0002306 4572.13867 4572.12500
4245.0 0.0002356 4551.49951 4551.48584
4391.0 0.0002277 4531.08838 4531.07471
4223.0 0.0002368 4510.90137 4510.88770
4145.0 0.0002413 4490.93604 4490.92236
4280.0 0.0002336 4471.18848 4471.17529
4255.0 0.0002350 4451.66309 4451.64990
4163.0 0.0002402 4432.35107 4432.33789
4272.0 0.0002341 4413.25195 4413.23828
4062.0 0.0002462 4394.36328 4394.35010
4264.0 0.0002345 4375.68311 4375.66992
4026.0 0.0002484 4357.21191 4357.19873
4206.0 0.0002378 4338.94238 4338.92920
3991.0 0.0002506 4320.87598 4320.86279
4108.0 0.0002434 4303.00830 4302.99512
4133.0 0.0002420 4285.33789 4285.32471
4102.0 0.0002438 4267.86621 4267.85352
4195.0 0.0002384 4250.58594 4250.57275
4059.0 0.0002464 4233.49658 4233.48389
4023.0 0.0002486 4216.59766 4216.58496
4097.0 0.0002441 4199.88477 4199.87207
4043.0 0.0002473 4183.35938 4183.34668
3960.0 0.0002525 4167.01465 4167.00195
4029.0 0.0002482 4150.85107 4150.83838
3992.0 0.0002505 4134.86768 4134.85498
4028.0 0.0002483 4119.05957 4119.04688
4010.0 0.0002494 4103.42969 4103.41699
3953.0 0.0002530 4087.97144 4087.95898
3951.0 0.0002531 4072.68262 4072.67017
4000.0 0.0002500 4057.56470 4057.55225
3929.0 0.0002545 4042.61230 4042.59985
3859.0 0.0002591 4027.82397 4027.81152
3870.0 0.0002584 4013.20264 4013.19043
3750.0 0.0002667 3998.74048 3998.72827
3852.0 0.0002596 3984.43848 3984.42627
3811.0 0.0002624 3970.29346 3970.28125
3905.0 0.0002561 3956.30347 3956.29150
3745.0 0.0002670 3942.46948 3942.45752
3899.0 0.0002565 3928.78638 3928.77441
3765.0 0.0002656 3915.25293 3915.24097
3806.0 0.0002627 3901.86890 3901.85693
3827.0 0.0002613 3888.63062 3888.61865
3924.0 0.0002548 3875.53857 3875.52686
3874.0 0.0002581 3862.58838 3862.57666
3765.0 0.0002656 3849.78027 3849.76855
3879.0 0.0002578 3837.11133 3837.09961
3723.0 0.0002686 3824.57959 3824.56787
3872.0 0.0002583 3812.18604 3812.17432
3756.0 0.0002662 3799.92505 3799.91333
3633.0 0.0002753 3787.79761 3787.78613
3856.0 0.0002593 3775.80103 3775.78955
3791.0 0.0002638 3763.93433 3763.92285
3700.0 0.0002703 3752.19385 3752.18237
3771.0 0.0002652 3740.58154 3740.57007
3802.0 0.0002630 3729.09375 3729.08228
3708.0 0.0002697 3717.72949 3717.71826
3651.0 0.0002739 3706.48511 3706.47363
3840.0 0.0002604 3695.35938 3695.34814
3735.0 0.0002677 3684.35522 3684.34375
3656.0 0.0002735 3673.46509 3673.45386
3738.0 0.0002675 3662.69189 3662.68066
3700.0 0.0002703 3652.03125 3652.02002
3694.0 0.0002707 3641.48169 3641.47046
3581.0 0.0002793 3631.04492 3631.03394
3687.0 0.0002712 3620.71606 3620.70508
3601.0 0.0002777 3610.49512 3610.48413
3708.0 0.0002697 3600.38110 3600.37012
3559.0 0.0002810 3590.37085 3590.35986
3733.0 0.0002679 3580.46533 3580.45459
3728.0 0.0002682 3570.66064 3570.64966
3622.0 0.0002761 3560.95630 3560.94531
3561.0 0.0002808 3551.35229 3551.34155
3638.0 0.0002749 3541.84448 3541.83374
3582.0 0.0002792 3532.43506 3532.42432
3569.0 0.0002802 3523.12012 3523.10938
3586.0 0.0002789 3513.89795 3513.88721
3651.0 0.0002739 3504.76953 3504.75879
3564.0 0.0002806 3495.73120 3495.72046
3508.0 0.0002851 3486.78198 3486.77148
3517.0 0.0002843 3477.92310 3477.91235
3520.0 0.0002841 3469.15015 3469.13965
3453.0 0.0002896 3460.46436 3460.45361
3519.0 0.0002842 3451.86206 3451.85156
3637.0 0.0002750 3443.34302 3443.33276
3471.0 0.0002881 3434.90747 3434.89722
3590.0 0.0002786 3426.55225 3426.54175
3604.0 0.0002775 3418.27734 3418.26709
3580.0 0.0002793 3410.08105 3410.07080
3493.0 0.0002863 3401.96118 3401.95093
3458.0 0.0002892 3393.91968 3393.90942
3492.0 0.0002864 3385.95166 3385.94141
3539.0 0.0002826 3378.05835 3378.04810
3540.0 0.0002825 3370.23755 3370.22729
3459.0 0.0002891 3362.48828 3362.47803
3429.0 0.0002916 3354.81104 3354.80078
3480.0 0.0002874 3347.20190 3347.19165
3408.0 0.0002934 3339.66260 3339.65234
3445.0 0.0002903 3332.18945 3332.17944
3376.0 0.0002962 3324.78271 3324.77271
3293.0 0.0003037 3317.44336 3317.43335
3387.0 0.0002952 3310.16626 3310.15625
3325.0 0.0003008 3302.95313 3302.94312
3415.0 0.0002928 3295.80273 3295.79272
3422.0 0.0002922 3288.71265 3288.70264
3275.0 0.0003053 3281.68237 3281.67261
3376.0 0.0002962 3274.71289 3274.70313
3417.0 0.0002927 3267.80103 3267.79126
3241.0 0.0003085 3260.94727 3260.93750
3297.0 0.0003033 3254.14868 3254.13892
3317.0 0.0003015 3247.40576 3247.39624
3326.0 0.0003007 3240.71875 3240.70898
3391.0 0.0002949 3234.08398 3234.07422
3320.0 0.0003012 3227.50293 3227.49316
3300.0 0.0003030 3220.97290 3220.96338
3291.0 0.0003039 3214.49390 3214.48438
3238.0 0.0003088 3208.06616 3208.05664
3281.0 0.0003048 3201.68726 3201.67773
3311.0 0.0003020 3195.35620 3195.34668
3137.0 0.0003188 3189.07251 3189.06299
3226.0 0.0003100 3182.83594 3182.82642
3196.0 0.0003129 3176.64600 3176.63647
3201.0 0.0003124 3170.50073 3170.49146
3155.0 0.0003170 3164.39966 3164.39014
3233.0 0.0003093 3158.34229 3158.33276
3280.0 0.0003049 3152.32715 3152.31787
3127.0 0.0003198 3146.35376 3146.34448
3333.0 0.0003000 3140.42285 3140.41357
3182.0 0.0003143 3134.53125 3134.52197
3175.0 0.0003150 3128.68018 3128.67114
3094.0 0.0003232 3122.86768 3122.85840
3141.0 0.0003184 3117.09326 3117.08423
3252.0 0.0003075 3111.35767 3111.34863
3350.0 0.0002985 3105.65747 3105.64844
3115.0 0.0003210 3099.99487 3099.98584
3127.0 0.0003198 3094.36646 3094.35742
3099.0 0.0003227 3088.77319 3088.76416
3128.0 0.0003197 3083.21460 3083.20557
3190.0 0.0003135 3077.68921 3077.68018
3159.0 0.0003166 3072.19702 3072.18799
3078.0 0.0003249 3066.73657 3066.72754
3003.0 0.0003330 3061.30786 3061.29907
3137.0 0.0003188 3055.91089 3055.90186
3138.0 0.0003187 3050.54346 3050.53467
3171.0 0.0003154 3045.20630 3045.19727
3141.0 0.0003184 3039.89844 3039.88965
3099.0 0.0003227 3034.61792 3034.60913
2986.0 0.0003349 3029.36743 3029.35864
3122.0 0.0003203 3024.14331 3024.13452
3025.0 0.0003306 3018.94580 3018.93726
3030.0 0.0003300 3013.77539 3013.76685
3089.0 0.0003237 3008.63037 3008.62183
3077.0 0.0003250 3003.51074 3003.50195
3045.0 0.0003284 2998.41602 2998.40747
2955.0 0.0003384 2993.34546 2993.33691
3031.0 0.0003299 2988.29834 2988.28979
2979.0 0.0003357 2983.27466 2983.26611
2992.0 0.0003342 2978.27319 2978.26489
3013.0 0.0003319 2973.29517 2973.28662
3076.0 0.0003251 2968.33862 2968.33008
3005.0 0.0003328 2963.40332 2963.39478
2953.0 0.0003386 2958.48804 2958.47949
3043.0 0.0003286 2953.59351 2953.58521
2897.0 0.0003452 2948.71973 2948.71143
3034.0 0.0003296 2943.86426 2943.85620
2960.0 0.0003378 2939.02930 2939.02100
3047.0 0.0003282 2934.21167 2934.20361
2987.0 0.0003348 2929.41284 2929.40454
2998.0 0.0003336 2924.63257 2924.62451
2964.0 0.0003374 2919.86865 2919.86060
2918.0 0.0003427 2915.12207 2915.11401
2875.0 0.0003478 2910.39233 2910.38428
2892.0 0.0003458 2905.67798 2905.66992
2964.0 0.0003374 2900.98022 2900.97217
2949.0 0.0003391 2896.29810 2896.29028
2877.0 0.0003476 2891.63062 2891.62280
2910.0 0.0003436 2886.97876 2886.97070
2899.0 0.0003449 2882.34033 2882.33252
2893.0 0.0003457 2877.71655 2877.70874
2967.0 0.0003370 2873.10645 2873.09863
2961.0 0.0003377 2868.50952 2868.50171
2823.0 0.000354 2863.92651 2863.91870
2947.0 0.0003393 2859.35547 2859.34766
2829.0 0.000353 2854.79688 2854.78931
2873.0 0.0003481 2850.25098 2850.24316
2939.0 0.0003403 2845.71704 2845.70947
2898.0 0.0003451 2841.19434 2841.18677
2898.0 0.0003451 2836.68237 2836.67480
2883.0 0.0003469 2832.18188 2832.17432
2895.0 0.0003454 2827.69312 2827.68555
2839.0 0.000352 2823.21313 2823.20557
2837.0 0.000352 2818.74438 2818.73682
2794.0 0.000358 2814.28540 2814.27808
2939.0 0.0003403 2809.83594 2809.82861
2848.0 0.000351 2805.39600 2805.38867
2727.0 0.000367 2800.96533 2800.95801
2838.0 0.000352 2796.54346 2796.53613
2732.0 0.000366 2792.13086 2792.12354
2888.0 0.0003463 2787.72559 2787.71826
2772.0 0.000361 2783.33008 2783.32275
2834.0 0.000353 2778.94189 2778.93457
2760.0 0.000362 2774.56104 2774.55396
2811.0 0.000356 2770.18896 2770.18188
2786.0 0.000359 2765.82349 2765.81641
2809.0 0.000356 2761.46533 2761.45825
2828.0 0.000354 2757.11475 2757.10767
2778.0 0.000360 2752.77124 2752.76416
2816.0 0.000355 2748.43384 2748.42676
2827.0 0.000354 2744.10278 2744.09570
2788.0 0.000359 2739.77832 2739.77124
2802.0 0.000357 2735.46069 2735.45386
2766.0 0.000362 2731.14844 2731.14136
2714.0 0.000368 2726.84229 2726.83545
2741.0 0.000365 2722.54175 2722.53491
2752.0 0.000363 2718.24658 2718.23975
2675.0 0.000374 2713.95776 2713.95093
2766.0 0.000362 2709.67358 2709.66675
2760.0 0.000362 2705.39453 2705.38770
2687.0 0.000372 2701.12061 2701.11401
2757.0 0.000363 2696.85132 2696.84473
2737.0 0.000365 2692.58691 2692.58032
2723.0 0.000367 2688.32764 2688.32104
2709.0 0.000369 2684.07227 2684.06567
2743.0 0.000365 2679.82178 2679.81519
2749.0 0.000364 2675.57544 2675.56885
2653.0 0.000377 2671.33325 2671.32666
2729.0 0.000366 2667.09546 2667.08911
2631.0 0.000380 2662.86133 2662.85474
2687.0 0.000372 2658.63184 2658.62524
2728.0 0.000367 2654.40576 2654.39941
2712.0 0.000369 2650.18262 2650.17627
2692.0 0.000371 2645.96436 2645.95825
2668.0 0.000375 2641.74976 2641.74365
2573.0 0.000389 2637.53784 2637.53149
2693.0 0.000371 2633.32959 2633.32349
2552.0 0.000392 2629.12476 2629.11865
2530.0 0.000395 2624.92432 2624.91797
2682.0 0.000373 2620.72534 2620.71924
2700.0 0.000370 2616.53076 2616.52490
2562.0 0.000390 2612.33936 2612.33325
2575.0 0.000388 2608.15039 2608.14429
2675.0 0.000374 2603.96558 2603.95947
2641.0 0.000379 2599.78271 2599.77661
2564.0 0.000390 2595.60303 2595.59692
2649.0 0.000378 2591.42651 2591.42065
2572.0 0.000389 2587.25195 2587.24609
2514.0 0.000398 2583.08179 2583.07593
2632.0 0.000380 2578.91382 2578.90796
2534.0 0.000395 2574.74829 2574.74268
2451.0 0.000408 2570.58618 2570.58032
2438.0 0.000410 2566.42603 2566.42041
2554.0 0.000392 2562.26904 2562.26343
2498.0 0.000400 2558.11475 2558.10913
2475.0 0.000404 2553.96362 2553.95801
2433.0 0.000411 2549.81421 2549.80884
2377.0 0.000421 2545.66797 2545.66235
2521.0 0.000397 2541.52417 2541.51880
2507.0 0.000399 2537.38354 2537.37817
2503.0 0.000400 2533.24561 2533.24023
2507.0 0.000399 2529.11035 2529.10498
2409.0 0.000415 2524.97656 2524.97119
2469.0 0.000405 2520.84619 2520.84082
2466.0 0.000406 2516.71924 2516.71411
2437.0 0.000410 2512.59399 2512.58887
2482.0 0.000403 2508.47144 2508.46631
2508.0 0.000399 2504.35229 2504.34717
2443.0 0.000409 2500.23511 2500.22998
2403.0 0.000416 2496.12061 2496.11548
2445.0 0.000409 2492.00952 2492.00464
2353.0 0.000425 2487.90063 2487.89575
2415.0 0.000414 2483.79517 2483.79004
2341.0 0.000427 2479.69116 2479.68628
2370.0 0.000422 2475.59155 2475.58667
2500.0 0.000400 2471.49414 2471.48926
2456.0 0.000407 2467.39966 2467.39478
2457.0 0.000407 2463.30811 2463.30322
2456.0 0.000407 2459.21973 2459.21484
2355.0 0.000425 2455.13330 2455.12842
2446.0 0.000409 2451.05103 2451.04614
2372.0 0.000422 2446.97144 2446.96680
2448.0 0.000408 2442.89478 2442.89014
2404.0 0.000416 2438.82104 2438.81641
2328.0 0.000430 2434.75049 2434.74585
2313.0 0.000432 2430.68408 2430.67944
2376.0 0.000421 2426.61963 2426.61523
2340.0 0.000427 2422.55981 2422.55542
2287.0 0.000437 2418.50244 2418.49805
2291.0 0.000436 2414.44849 2414.44409
2310.0 0.000433 2410.39844 2410.39404
2237.0 0.000447 2406.35132 2406.34692
2326.0 0.000430 2402.30762 2402.30322
2314.0 0.000432 2398.26807 2398.26367
2360.0 0.000424 2394.23169 2394.22754
2342.0 0.000427 2390.19946 2390.19531
2296.0 0.000436 2386.17065 2386.16650
2334.0 0.000428 2382.14551 2382.14136
2276.0 0.000439 2378.12476 2378.12061
2243.0 0.000446 2374.10742 2374.10327
2366.0 0.000423 2370.09399 2370.08984
2372.0 0.000422 2366.08521 2366.08130
2244.0 0.000446 2362.08057 2362.07642
2324.0 0.000430 2358.07935 2358.07544
2236.0 0.000447 2354.08301 2354.07910
2220.0 0.000450 2350.08984 2350.08594
2189.0 0.000457 2346.10229 2346.09839
2311.0 0.000433 2342.11890 2342.11499
2209.0 0.000453 2338.13989 2338.13599
2264.0 0.000442 2334.16479 2334.16089
2265.0 0.000442 2330.19458 2330.19067
2210.0 0.000452 2326.22998 2326.22632
2171.0 0.000461 2322.26904 2322.26538
2132.0 0.000469 2318.31299 2318.30933
2162.0 0.000463 2314.36255 2314.35889
2270.0 0.000441 2310.41626 2310.41260
2166.0 0.000462 2306.47510 2306.47168
2133.0 0.000469 2302.53979 2302.53638
2148.0 0.000466 2298.60864 2298.60522
2237.0 0.000447 2294.68384 2294.68042
2169.0 0.000461 2290.76294 2290.75952
2148.0 0.000466 2286.84863 2286.84546
2172.0 0.000460 2282.93921 2282.93604
2178.0 0.000459 2279.03516 2279.03198
2149.0 0.000465 2275.13721 2275.13403
2142.0 0.000467 2271.24512 2271.24194
2223.0 0.000450 2267.35791 2267.35474
2262.0 0.000442 2263.47681 2263.47363
2109.0 0.000474 2259.60181 2259.59888
2117.0 0.000472 2255.73267 2255.72974
2179.0 0.000459 2251.86914 2251.86621
2107.0 0.000475 2248.01196 2248.00903
2131.0 0.000469 2244.16187 2244.15894
2171.0 0.000461 2240.31665 2240.31372
2097.0 0.000477 2236.47925 2236.47632
2050.0 0.000488 2232.64697 2232.64404
2114.0 0.000473 2228.82129 2228.81836
2198.0 0.000455 2225.00293 2225.00024
2083.0 0.000480 2221.19043 2221.18774
2116.0 0.000473 2217.38477 2217.38208
2150.0 0.000465 2213.58643 2213.58374
2146.0 0.000466 2209.79443 2209.79175
2228.0 0.000449 2206.00952 2206.00708
2120.0 0.000472 2202.23169 2202.22900
2165.0 0.000462 2198.46045 2198.45776
2136.0 0.000468 2194.69702 2194.69458
2115.0 0.000473 2190.94043 2190.93774
2066.0 0.000484 2187.19165 2187.18921
2094.0 0.000478 2183.44995 2183.44751
2128.0 0.000470 2179.71558 2179.71313
2162.0 0.000463 2175.98877 2175.98633
2102.0 0.000476 2172.26978 2172.26733
2044.0 0.000489 2168.55737 2168.55518
2191.0 0.000456 2164.85400 2164.85181
2126.0 0.000470 2161.15820 2161.15601
2250.0 0.000444 2157.47046 2157.46826
2142.0 0.000467 2153.78979 2153.78760
2137.0 0.000468 2150.11768 2150.11548
2193.0 0.000456 2146.45435 2146.45215
2177.0 0.000459 2142.79834 2142.79639
2290.0 0.000437 2139.15063 2139.14868
2232.0 0.000448 2135.51172 2135.50977
2204.0 0.000454 2131.88062 2131.87866
2182.0 0.000458 2128.25854 2128.25659
2251.0 0.000444 2124.64453 2124.64282
2129.0 0.000470 2121.03979 2121.03784
2305.0 0.000434 2117.44312 2117.44116
2230.0 0.000448 2113.85449 2113.85278
2131.0 0.000469 2110.27612 2110.27441
2152.0 0.000465 2106.70605 2106.70435
2197.0 0.000455 2103.14478 2103.14307
2251.0 0.000444 2099.59277 2099.59106
2237.0 0.000447 2096.04956 2096.04785
2256.0 0.000443 2092.51587 2092.51440
2272.0 0.000440 2088.99097 2088.98926
2275.0 0.000440 2085.47559 2085.47412
2114.0 0.000473 2081.96948 2081.96802
2217.0 0.000451 2078.47266 2078.47119
2153.0 0.000464 2074.98511 2074.98389
2275.0 0.000440 2071.50806 2071.50684
2223.0 0.000450 2068.04004 2068.03857
2075.0 0.000482 2064.58154 2064.58032
2208.0 0.000453 2061.13257 2061.13135
2154.0 0.000464 2057.69336 2057.69214
2290.0 0.000437 2054.26465 2054.26343
2216.0 0.000451 2050.84521 2050.84399
2201.0 0.000454 2047.43604 2047.43481
2168.0 0.000461 2044.03613 2044.03491
2230.0 0.000448 2040.64795 2040.64673
2311.0 0.000433 2037.26855 2037.26746
2239.0 0.000447 2033.89954 2033.89844
2251.0 0.000444 2030.54077 2030.53979
2293.0 0.000436 2027.19263 2027.19153
2246.0 0.000445 2023.85498 2023.85400
2323.0 0.000430 2020.52698 2020.52600
2172.0 0.000460 2017.21021 2017.20923
2316.0 0.000432 2013.90344 2013.90259
2244.0 0.000446 2010.60657 2010.60571
2210.0 0.000452 2007.32178 2007.32104
2260.0 0.000442 2004.04700 2004.04626
2318.0 0.000431 2000.78284 2000.78210
2182.0 0.000458 1997.52954 1997.52881
2266.0 0.000441 1994.28687 1994.28625
2227.0 0.000449 1991.05566 1991.05493
2126.0 0.000470 1987.83459 1987.83398
2070.0 0.000483 1984.62524 1984.62463
2145.0 0.000466 1981.42627 1981.42566
2138.0 0.000468 1978.23828 1978.23767
2117.0 0.000472 1975.06116 1975.06067
2118.0 0.000472 1971.89661 1971.89600
2113.0 0.000473 1968.74231 1968.74182
2114.0 0.000473 1965.59863 1965.59814
2079.0 0.000481 1962.46729 1962.46680
2116.0 0.000473 1959.34644 1959.34607
2164.0 0.000462 1956.23743 1956.23706
2131.0 0.000469 1953.13940 1953.13904
2118.0 0.000472 1950.05286 1950.05261
2068.0 0.000484 1946.97766 1946.97742
2122.0 0.000471 1943.91406 1943.91382
2034.0 0.000492 1940.86279 1940.86255
2029.0 0.000493 1937.82214 1937.82190
2123.0 0.000471 1934.79309 1934.79285
2030.0 0.000493 1931.77625 1931.77600
2052.0 0.000487 1928.77026 1928.77014
2032.0 0.000492 1925.77686 1925.77673
1969.0 0.000508 1922.79504 1922.79492
2011.0 0.000497 1919.82446 1919.82446
1957.0 0.000511 1916.86572 1916.86572
1908.0 0.000524 1913.91858 1913.91858
1970.0 0.000508 1910.98401 1910.98413
1937.0 0.000516 1908.06091 1908.06104
1956.0 0.000511 1905.14990 1905.15002
1955.0 0.000512 1902.25061 1902.25085
1966.0 0.000509 1899.36328 1899.36353
1997.0 0.000501 1896.48779 1896.48792
1940.0 0.000515 1893.62512 1893.62537
1880.0 0.000532 1890.77380 1890.77405
1883.0 0.000531 1887.93408 1887.93445
1912.0 0.000523 1885.10693 1885.10730
1864.0 0.000536 1882.29175 1882.29199
1952.0 0.000512 1879.48926 1879.48962
1921.0 0.000521 1876.69812 1876.69861
1874.0 0.000534 1873.91968 1873.92017
1944.0 0.000514 1871.15295 1871.15344
1896.0 0.000527 1868.39844 1868.39893
1906.0 0.000525 1865.65625 1892.88452
1825.0 0.000548 1862.92627 1890.57007
1907.0 0.000524 1860.20837 1888.27734
1862.0 0.000537 1857.50281 1899.56030
1993.0 0.000502 1854.80908 1897.51868
1868.0 0.000535 1852.12866 1895.50549
1859.0 0.000538 1849.45996 1893.51990
1896.0 0.000527 1846.80347 1891.56287
1885.0 0.000531 1844.15881 1889.63452
1888.0 0.000530 1841.52673 1887.73596
1959.0 0.000510 1838.90698 1885.86755
1908.0 0.000524 1836.30005 1884.03052
1909.0 0.000524 1833.70520 1882.22437
1972.0 0.000507 1831.12231 1880.45032
1847.0 0.000541 1828.55212 1878.70911
1843.0 0.000543 1825.99341 1877.00085
1871.0 0.000534 1823.44836 1875.32739
1864.0 0.000536 1820.91479 1873.68823
1856.0 0.000539 1818.39368 1872.08496
1844.0 0.000542 1815.88477 1870.51794
1818.0 0.000550 1813.38867 1868.98865
1797.0 0.000556 1810.90479 1867.49756
1850.0 0.000541 1808.43311 1866.04541
1818.0 0.000550 1805.97400 1864.63379
1786.0 0.000560 1803.52673 1863.26270
1754.0 0.000570 1801.09155 1861.93384
1833.0 0.000546 1798.66968 1860.64868
1757.0 0.000569 1796.25977 1859.40808
1771.0 0.000565 1793.86194 1858.21289
1774.0 0.000564 1791.47632 1857.06458
1735.0 0.000576 1789.10315 1855.96484
1756.0 0.000569 1786.74255 1854.91479
1768.0 0.000566 1784.39380 1853.91565
1733.0 0.000577 1782.05774 1852.96973
1714.0 0.000583 1779.73352 1852.07776
1772.0 0.000564 1777.42163 1851.24170
1699.0 0.000589 1775.12195 1850.46399
1736.0 0.000576 1772.83533 1849.74597
1790.0 0.000559 1770.55981 1849.08911
1766.0 0.000566 1768.29688 1848.49634
1806.0 0.000554 1766.04651 1847.97009
1811.0 0.000552 1763.80774 1847.51160
1765.0 0.000567 1761.58154 1847.12402
1768.0 0.000566 1759.36719 1846.80969
1748.0 0.000572 1757.16541 1846.57214
1856.0 0.000539 1754.97522 1846.41284
1814.0 0.000551 1752.79688 1846.33569
1771.0 0.000565 1750.63147 1846.34375
1769.0 0.000565 1748.47766 1846.44067
1769.0 0.000565 1746.33569 1846.62964
1709.0 0.000585 1744.20605 1846.91528
1743.0 0.000574 1742.08813 1847.30066
1822.0 0.000549 1739.98242 1847.79053
1801.0 0.000555 1737.88879 1848.38989
1765.0 0.000567 1735.80676 1849.10315
1780.0 0.000562 1733.73682 1849.93579
1748.0 0.000572 1731.67834 1850.89319
1747.0 0.000572 1729.63245 1851.98071
1789.0 0.000559 1727.59778 1853.20520
1812.0 0.000552 1725.57495 1854.57361
1807.0 0.000553 1723.56384 1856.09302
1778.0 0.000562 1721.56482 1857.77100
1817.0 0.000550 1719.57703 1859.61548
1766.0 0.000566 1717.60144 1861.63550
1795.0 0.000557 1715.63708 1863.84033
1802.0 0.000555 1713.68445 1866.24048
1809.0 0.000553 1711.74341 1868.84668
1815.0 0.000551 1709.81372 1871.67090
1837.0 0.000544 1707.89624 1874.72424
1798.0 0.000556 1705.98975 1878.02246
1839.0 0.000544 1704.09497 1881.57922
1864.0 0.000536 1702.21143 1885.40991
1836.0 0.000545 1700.33911 1889.53235
1906.0 0.000525 1698.47852 1893.96423
1888.0 0.000530 1696.62903 1898.72693
1846.0 0.000542 1694.79089 1903.84143
1741.0 0.000574 1692.96375 1909.33167
1846.0 0.000542 1691.14771 1915.22424
1862.0 0.000537 1689.34363 1921.54443
1830.0 0.000546 1687.55029 1928.32666
1859.0 0.000538 1685.76794 1935.60315
1862.0 0.000537 1683.99670 1943.41064
1829.0 0.000547 1682.23621 1951.78943
1985.0 0.000504 1680.48682 1960.78442
1847.0 0.000541 1678.74878 1970.44324
1898.0 0.000527 1677.02148 1980.82214
1915.0 0.000522 1675.30481 1991.97961
1967.0 0.000508 1673.59937 2003.98218
2045.0 0.000489 1671.90405 2016.90417
2051.0 0.000488 1670.22021 2030.82092
2096.0 0.000477 1668.54651 2045.83154
2226.0 0.000449 1666.88379 2062.03491
2175.0 0.000460 1665.23157 2079.54443
2211.0 0.000452 1663.58960 2098.48804
2113.0 0.000473 1661.95874 2119.00757
2207.0 0.000453 1660.33765 2141.26978
2149.0 0.000465 1658.72754 2165.45776
2207.0 0.000453 1657.12744 2191.77979
2269.0 0.000441 1655.53772 2220.47852
2318.0 0.000431 1653.95874 2251.81177
2249.0 0.000445 1652.38977 2286.11157
2337.0 0.000428 1650.83081 2323.73145
2340.0 0.000427 1649.28198 2365.08887
2309.0 0.000433 1647.74341 2410.66919
2350.0 0.000426 1646.21484 2461.03174
2295.0 0.000436 1644.69629 2516.85278
2463.0 0.000406 1643.18750 2578.90845
2494.0 0.000401 1641.68884 2648.12524
2551.0 0.000392 1640.19995 2725.60693
2514.0 0.000398 1638.72058 2812.68726
2641.0 0.000379 1637.25171 2910.91504
2731.0 0.000366 1635.79199 3022.28540
2787.0 0.000359 1634.34180 3149.14795
2907.0 0.0003440 1632.90149 3294.43701
3097.0 0.0003229 1631.47046 3461.82300
3245.0 0.0003082 1630.04919 3655.96387
3560.0 0.0002809 1628.63708 3883.03906
3665.0 0.0002729 1627.23462 4151.35596
4111.0 0.0002432 1625.84143 4472.73926
4532.0 0.0002207 1624.45715 4864.74902
5131.0 0.0001949 1623.08276 5353.82178
5659.0 0.0001767 1621.71729 5981.03076
6567.0 0.0001523 1620.36084 6807.39160
7845.0 0.0001275 1619.01331 7920.45557
9394.0 0.0001065 1617.67480 9437.68945
11915.0 0.0000839 1616.34558 11503.54102
14885.0 0.0000672 1615.02527 14278.06738
18676.0 0.0000535 1613.71350 17909.50781
23141.0 0.0000432 1612.41064 22489.32422
27992.0 0.0000357 1611.11621 27970.43359
33394.0 0.0000299 1609.83093 34019.15234
37949.0 0.0000264 1608.55420 39849.80078
42391.0 0.0000236 1607.28564 44245.90234
44954.0 0.0000222 1606.02563 46138.57813
45274.0 0.0000221 1604.77441 45298.73047
42318.0 0.0000236 1603.53162 42207.13281
37720.0 0.0000265 1602.29688 37512.86328
31756.0 0.0000315 1601.07043 31949.14258
25790.0 0.0000388 1599.85242 26317.55273
20515.0 0.0000487 1598.64246 21231.40430
16160.0 0.0000619 1597.44019 16981.74023
13017.0 0.0000768 1596.24707 13612.54004
10282.0 0.0000973 1595.06079 11031.91113
8320.0 0.0001202 1593.88293 9100.25293
7165.0 0.0001396 1592.71289 7670.73486
6197.0 0.0001614 1591.55078 6612.58643
5302.0 0.0001886 1590.39612 5820.41895
4692.0 0.0002131 1589.24951 5215.06836
4219.0 0.0002370 1588.11023 4740.80127
3941.0 0.0002537 1586.97852 4359.70068
3664.0 0.0002729 1585.85449 4046.52271
3380.0 0.0002959 1584.73828 3784.61938
3179.0 0.0003146 1583.62903 3562.40649
3015.0 0.0003317 1582.52698 3371.89771
2887.0 0.0003464 1581.43237 3207.17627
2781.0 0.000360 1580.34509 3063.73633
2680.0 0.000373 1579.26489 2938.06396
2572.0 0.000389 1578.19189 2827.31616
2548.0 0.000392 1577.12573 2729.23169
2413.0 0.000414 1576.06653 2641.94995
2417.0 0.000414 1575.01440 2563.93872
2334.0 0.000428 1573.96899 2493.91748
2260.0 0.000442 1572.93066 2430.85498
2248.0 0.000445 1571.89868 2373.81958
2239.0 0.000447 1570.87390 2322.07349
2192.0 0.000456 1569.85535 2274.97485
2179.0 0.000459 1568.84338 2231.97754
2142.0 0.000467 1567.83826 2192.61694
2145.0 0.000466 1566.83923 2156.47949
2181.0 0.000459 1565.84668 2123.22021
2029.0 0.000493 1564.86035 2092.53613
2075.0 0.000482 1563.88000 2064.15845
2086.0 0.000479 1562.90649 2037.86951
2087.0 0.000479 1561.93884 2013.44934
2068.0 0.000484 1560.97729 1990.72534
2049.0 0.000488 1560.02185 1969.53931
2008.0 0.000498 1559.07190 1949.75098
2013.0 0.000497 1558.12854 1931.23865
2040.0 0.000490 1557.19080 1913.88599
2022.0 0.000495 1556.25842 1897.59656
1983.0 0.000504 1555.33203 1882.28162
2005.0 0.000499 1554.41162 1867.86169
1944.0 0.000514 1553.49609 1854.26270
1879.0 0.000532 1552.58691 1841.42737
1864.0 0.000536 1551.68298 1829.28882
1854.0 0.000539 1550.78418 1817.79736
1855.0 0.000539 1549.89087 1806.90503
1834.0 0.000545 1549.00269 1796.56848
1848.0 0.000541 1548.12024 1786.74927
1878.0 0.000532 1547.24231 1777.40845
1868.0 0.000535 1546.37000 1768.51465
1900.0 0.000526 1545.50256 1760.03760
1802.0 0.000555 1544.64001 1752.18066
1844.0 0.000542 1543.78284 1744.46118
1775.0 0.000563 1542.93042 1737.08044
1854.0 0.000539 1542.08252 1730.01770
1781.0 0.000561 1541.23950 1723.37073
1759.0 0.000569 1540.40137 1716.88965
1717.0 0.000582 1539.56799 1710.67346
1785.0 0.000560 1538.73877 1704.70386
1821.0 0.000549 1537.91431 1698.96826
1800.0 0.000556 1537.09460 1693.45337
1750.0 0.000571 1536.27893 1688.14490
1721.0 0.000581 1535.46777 1683.03467
1768.0 0.000566 1534.66077 1678.10876
1756.0 0.000569 1533.85828 1673.35815
1756.0 0.000569 1533.05969 1668.77332
1723.0 0.000580 1532.26550 1664.34607
1796.0 0.000557 1531.47522 1660.06787
1672.0 0.000598 1530.68909 1655.93164
1739.0 0.000575 1529.90686 1651.92932
1666.0 0.000600 1529.12866 1648.05469
1672.0 0.000598 1528.35425 1644.30127
1737.0 0.000576 1527.58350 1640.66321
1673.0 0.000598 1526.81677 1637.13635
1691.0 0.000591 1526.05347 1633.71313
1726.0 0.000579 1525.29370 1630.38989
1600.0 0.000625 1524.53760 1627.16223
1710.0 0.000585 1523.78528 1624.02539
1636.0 0.000611 1523.03601 1620.97571
1672.0 0.000598 1522.29065 1618.00916
1660.0 0.000602 1521.54834 1615.12158
1621.0 0.000617 1520.80945 1612.31030
1641.0 0.000609 1520.07349 1609.57117
1712.0 0.000584 1519.34106 1606.90283
1701.0 0.000588 1518.61169 1604.30042
1611.0 0.000621 1517.88525 1601.76221
1676.0 0.000597 1517.16199 1599.28528
1661.0 0.000602 1516.44177 1596.86755
1644.0 0.000608 1515.72437 1594.50659
1680.0 0.000595 1515.01001 1592.19971
1592.0 0.000628 1514.29822 1589.94519
1603.0 0.000624 1513.58948 1587.74072
1671.0 0.000598 1512.88330 1585.58472
1627.0 0.000615 1512.17969 1583.47522
1590.0 0.000629 1511.47913 1581.41101
1661.0 0.000602 1510.78064 1579.38953
1586.0 0.000631 1510.08496 1577.40979
1639.0 0.000610 1509.39148 1575.47009
1637.0 0.000611 1508.70068 1573.56921
1707.0 0.000586 1508.01208 1571.70569
1758.0 0.000569 1507.32593 1569.87842
1593.0 0.000628 1506.64209 1568.08582
1667.0 0.000600 1505.96021 1566.32666
1662.0 0.000602 1505.28076 1564.60034
1624.0 0.000616 1504.60352 1562.90576
1662.0 0.000602 1503.92810 1561.24146
1627.0 0.000615 1503.25476 1559.60681
1598.0 0.000626 1502.58350 1558.00061
1629.0 0.000614 1501.91406 1556.42200
1603.0 0.000624 1501.24670 1554.87073
1597.0 0.000626 1500.58069 1553.34485
1525.0 0.000656 1499.91699 1551.84509
1624.0 0.000616 1499.25464 1550.36914
1543.0 0.000648 1498.59424 1548.91760
1537.0 0.000651 1497.93555 1547.48938
1497.0 0.000668 1497.27832 1546.08374
1563.0 0.000640 1496.62268 1544.70007
1646.0 0.000608 1495.96875 1543.33813
1591.0 0.000629 1495.31604 1541.99707
1524.0 0.000656 1494.66479 1540.67615
1508.0 0.000663 1494.01538 1539.37598
1550.0 0.000645 1493.36682 1538.09497
1589.0 0.000629 1492.71948 1536.83289
1618.0 0.000618 1492.07361 1508.06116
1545.0 0.000647 1491.42883 1507.24963
1515.0 0.000660 1490.78552 1506.44727
1574.0 0.000635 1490.14331 1491.93201
1575.0 0.000635 1489.50183 1491.35327
1509.0 0.000663 1488.86194 1490.77917
1535.0 0.000651 1488.22241 1490.20923
1498.0 0.000668 1487.58447 1489.64478
1554.0 0.000644 1486.94690 1489.08484
1523.0 0.000657 1486.31055 1488.53052
1532.0 0.000653 1485.67505 1487.98181
1439.0 0.000695 1485.04016 1487.43909
1559.0 0.000641 1484.40637 1486.90283
1546.0 0.000647 1483.77319 1486.37341
1493.0 0.000670 1483.14075 1485.85132
1544.0 0.000648 1482.50891 1485.33704
1548.0 0.000646 1481.87744 1484.83093
1513.0 0.000661 1481.24670 1484.33398
1585.0 0.000631 1480.61682 1483.84717
1562.0 0.000640 1479.98694 1483.37073
1588.0 0.000630 1479.35803 1482.90625
1568.0 0.000638 1478.72937 1482.45422
1584.0 0.000631 1478.10107 1482.01624
1584.0 0.000631 1477.47314 1481.59326
1628.0 0.000614 1476.84570 1481.18750
1663.0 0.000601 1476.21826 1480.80005
1629.0 0.000614 1475.59119 1480.43335
1609.0 0.000622 1474.96423 1480.08948
1699.0 0.000589 1474.33801 1479.77161
1720.0 0.000581 1473.71155 1479.48218
1716.0 0.000583 1473.08533 1479.22534
1799.0 0.000556 1472.45935 1479.00500
1895.0 0.000528 1471.83301 1478.82581
1805.0 0.000554 1471.20715 1478.69385
1863.0 0.000537 1470.58105 1478.61572
1790.0 0.000559 1469.95496 1478.59961
1774.0 0.000564 1469.32874 1478.65479
1762.0 0.000568 1468.70264 1478.79333
1653.0 0.000605 1468.07654 1479.02856
1621.0 0.000617 1467.44995 1479.37720
1525.0 0.000656 1466.82349 1479.86047
1572.0 0.000636 1466.19653 1480.50403
1523.0 0.000657 1465.56958 1481.34045
1512.0 0.000661 1464.94226 1482.41284
1556.0 0.000643 1464.31494 1483.77759
1519.0 0.000658 1463.68713 1485.51709
1517.0 0.000659 1463.05872 1487.74939
1542.0 0.000649 1462.43018 1490.65417
1480.0 0.000676 1461.80127 1494.50293
1548.0 0.000646 1461.17188 1499.69836
1477.0 0.000677 1460.54211 1506.81848
1538.0 0.000650 1459.91187 1516.63904
1615.0 0.000619 1459.28125 1530.12952
1562.0 0.000640 1458.64990 1548.38904
1592.0 0.000628 1458.01819 1572.49121
1669.0 0.000599 1457.38586 1603.27979
1641.0 0.000609 1456.75293 1640.92065
1727.0 0.000579 1456.11951 1684.22217
1662.0 0.000602 1455.48535 1729.55139
1769.0 0.000565 1454.85071 1770.02380
1820.0 0.000549 1454.21521 1797.04846
1796.0 0.000557 1453.57910 1805.10510
1866.0 0.000536 1452.94238 1794.94507
1859.0 0.000538 1452.30469 1770.65955
1725.0 0.000580 1451.66650 1736.02625
1734.0 0.000577 1451.02747 1694.93152
1705.0 0.000587 1450.38733 1652.30603
1638.0 0.000611 1449.74695 1612.60742
1589.0 0.000629 1449.10522 1578.40625
1596.0 0.000627 1448.46301 1550.45715
1570.0 0.000637 1447.81982 1528.41260
1507.0 0.000664 1447.17578 1511.41650
1514.0 0.000661 1446.53064 1498.47546
1525.0 0.000656 1445.88477 1488.63940
1507.0 0.000664 1445.23792 1481.09424
1511.0 0.000662 1444.59045 1475.20007
1490.0 0.000671 1443.94165 1470.47522
1540.0 0.000649 1443.29187 1466.58337
1531.0 0.000653 1442.64124 1463.29285
1483.0 0.000674 1441.98950 1460.44763
1428.0 0.000700 1441.33679 1457.94312
1431.0 0.000699 1440.68298 1455.70544
1436.0 0.000696 1440.02832 1453.68359
1420.0 0.000704 1439.37219 1451.83789
1447.0 0.000691 1438.71533 1450.13928
1436.0 0.000696 1438.05750 1448.56409
1449.0 0.000690 1437.39832 1447.09302
1413.0 0.000708 1436.73804 1445.71082
1433.0 0.000698 1436.07690 1444.40491
1466.0 0.000682 1435.41418 1443.16418
1423.0 0.000703 1434.75061 1441.98035
1377.0 0.000726 1434.08594 1440.84595
1380.0 0.000725 1433.42004 1439.75415
1424.0 0.000702 1432.75281 1438.70020
1432.0 0.000698 1432.08447 1437.67920
1325.0 0.000755 1431.41479 1436.68713
1321.0 0.000757 1430.74438 1435.72156
1331.0 0.000751 1430.07251 1434.77856
1420.0 0.000704 1429.39941 1433.85583
1346.0 0.000743 1428.72510 1432.95105
1400.0 0.000714 1428.04944 1432.06226
1423.0 0.000703 1427.37280 1431.18835
1394.0 0.000717 1426.69470 1430.32715
1360.0 0.000735 1426.01538 1429.47742
1433.0 0.000698 1425.33472 1428.63818
1422.0 0.000703 1424.65271 1427.80835
1416.0 0.000706 1423.96997 1426.98706
1476.0 0.000678 1423.28552 1426.17346
1388.0 0.000720 1422.59998 1425.36670
1311.0 0.000763 1421.91296 1424.56592
1426.0 0.000701 1421.22473 1423.77075
1342.0 0.000745 1420.53540 1422.98071
1389.0 0.000720 1419.84460 1422.19519
1437.0 0.000696 1419.15247 1421.41370
1294.0 0.000773 1418.45898 1420.63599
1429.0 0.000700 1417.76428 1419.86169
1363.0 0.000734 1417.06836 1419.09033
1375.0 0.000727 1416.37122 1418.32166
1398.0 0.000715 1415.67261 1417.55542
1318.0 0.000759 1414.97253 1416.79102
1394.0 0.000717 1414.27124 1416.02893
1399.0 0.000715 1413.56885 1415.26855
1380.0 0.000725 1412.86511 1414.50964
1335.0 0.000749 1412.16003 1413.75195
1378.0 0.000726 1411.45337 1412.99548
1415.0 0.000707 1410.74585 1412.24011
1368.0 0.000731 1410.03650 1411.48535
1368.0 0.000731 1409.32629 1410.73169
1393.0 0.000718 1408.61475 1409.97864
1304.0 0.000767 1407.90186 1409.22583
1346.0 0.000743 1407.18738 1408.47351
1374.0 0.000728 1406.47180 1407.72144
1381.0 0.000724 1405.75488 1406.96973
1364.0 0.000733 1405.03674 1406.21802
1351.0 0.000740 1404.31726 1405.46667
1394.0 0.000717 1403.59656 1404.71521
1365.0 0.000733 1402.87451 1403.96350
1388.0 0.000720 1402.15137 1403.21191
1305.0 0.000766 1401.42676 1402.46021
1356.0 0.000737 1400.70105 1401.70813
1429.0 0.000700 1399.97375 1400.95569
1306.0 0.000766 1399.24548 1400.20300
1355.0 0.000738 1398.51587 1399.45007
1413.0 0.000708 1397.78516 1398.69678
1360.0 0.000735 1397.05298 1397.94287
1387.0 0.000721 1396.31982 1397.18860
1355.0 0.000738 1395.58521 1396.43372
1353.0 0.000739 1394.84924 1395.67822
1317.0 0.000759 1394.11255 1394.92261
1320.0 0.000758 1393.37427 1394.16614
1348.0 0.000742 1392.63477 1393.40894
1282.0 0.000780 1391.89441 1392.65161
1377.0 0.000726 1391.15247 1391.89319
1376.0 0.000727 1390.40967 1391.13452
1290.0 0.000775 1389.66553 1390.37476
1355.0 0.000738 1388.92041 1389.61487
1382.0 0.000724 1388.17407 1388.85413
1289.0 0.000776 1387.42639 1388.09241
1327.0 0.000754 1386.67798 1387.33020
1379.0 0.000725 1385.92810 1386.56726
1345.0 0.000743 1385.17725 1385.80359
1342.0 0.000745 1384.42529 1385.03918
1313.0 0.000762 1383.67224 1384.27417
1316.0 0.000760 1382.91809 1383.50830
1383.0 0.000723 1382.16309 1382.74207
1377.0 0.000726 1381.40662 1381.97461
1414.0 0.000707 1380.64929 1381.20642
1340.0 0.000746 1379.89087 1380.43762
1397.0 0.000716 1379.13171 1379.66846
1387.0 0.000721 1378.37134 1378.89819
1402.0 0.000713 1377.60999 1378.12732
1422.0 0.000703 1376.84778 1377.35571
1402.0 0.000713 1376.08447 1376.58337
1342.0 0.000745 1375.32031 1375.81042
1366.0 0.000732 1374.55505 1375.03662
1311.0 0.000763 1373.78918 1374.26233
1391.0 0.000719 1373.02209 1373.48718
1334.0 0.000750 1372.25403 1372.71118
1399.0 0.000715 1371.48511 1371.93457
1506.0 0.000664 1370.71558 1371.15747
1439.0 0.000695 1369.94495 1370.37952
1510.0 0.000662 1369.17371 1369.60107
1527.0 0.000655 1368.40149 1368.82190
1566.0 0.000639 1367.62866 1368.04224
1573.0 0.000636 1366.85486 1367.26184
1672.0 0.000598 1366.08020 1366.48071
1662.0 0.000602 1365.30469 1365.69885
1548.0 0.000646 1364.52856 1364.91650
1491.0 0.000671 1363.75171 1364.13367
1513.0 0.000661 1362.97412 1363.35022
1497.0 0.000668 1362.19604 1362.56628
1423.0 0.000703 1361.41687 1361.78149
1419.0 0.000705 1360.63745 1360.76379
1362.0 0.000734 1359.85706 1359.98157
1274.0 0.000785 1359.07605 1359.19873
1345.0 0.000743 1358.29468 1358.41541
1372.0 0.000729 1357.51257 1357.51636
1317.0 0.000759 1356.72974 1356.73364
1255.0 0.000797 1355.94653 1355.95044
1354.0 0.000739 1355.16248 1355.16626
1357.0 0.000737 1354.37830 1354.38220
1346.0 0.000743 1353.59338 1353.59729
1248.0 0.000801 1352.80798 1352.81189
1358.0 0.000736 1352.02209 1352.02600
1308.0 0.000765 1351.23572 1351.23962
1394.0 0.000717 1350.44910 1350.45300
1334.0 0.000750 1349.66187 1349.66577
1293.0 0.000773 1348.87427 1348.87817
1197.0 0.000835 1348.08630 1348.09009
1247.0 0.000802 1347.29773 1347.30164
1345.0 0.000743 1346.50916 1346.51294
1332.0 0.000751 1345.72021 1345.72400
1350.0 0.000741 1344.93079 1344.93457
1355.0 0.000738 1344.14111 1344.14502
1317.0 0.000759 1343.35120 1343.35510
1217.0 0.000822 1342.56116 1342.56494
1397.0 0.000716 1341.77075 1341.77466
1345.0 0.000743 1340.98010 1340.98401
1384.0 0.000723 1340.18945 1340.19336
1269.0 0.000788 1339.39856 1339.40234
1316.0 0.000760 1338.60730 1338.61108
1279.0 0.000782 1337.81628 1337.82007
1331.0 0.000751 1337.02490 1337.02881
1274.0 0.000785 1336.23364 1336.23743
1308.0 0.000765 1335.44189 1335.44580
1274.0 0.000785 1334.65051 1334.65430
1315.0 0.000760 1333.85889 1333.86279
1251.0 0.000799 1333.06726 1333.07104
1217.0 0.000822 1332.27588 1332.27966
1304.0 0.000767 1331.48425 1331.48816
1304.0 0.000767 1330.69287 1330.69666
1323.0 0.000756 1329.90161 1329.90540
1271.0 0.000787 1329.11035 1329.11414
1252.0 0.000799 1328.31909 1328.32288
1242.0 0.000805 1327.52808 1327.53186
1290.0 0.000775 1326.73730 1326.74109
1284.0 0.000779 1325.94666 1325.95044
1305.0 0.000766 1325.15613 1325.15991
1305.0 0.000766 1324.36584 1324.36963
1296.0 0.000772 1323.57617 1323.57996
1227.0 0.000815 1322.78638 1322.79016
1304.0 0.000767 1321.99683 1322.00061
1364.0 0.000733 1321.20776 1321.21155
1241.0 0.000806 1320.41907 1320.42285
1308.0 0.000765 1319.63062 1319.63440
1400.0 0.000714 1318.84265 1318.84644
1291.0 0.000775 1318.05505 1318.05884
1221.0 0.000819 1317.26794 1317.27173
1304.0 0.000767 1316.48132 1316.48499
1289.0 0.000776 1315.69495 1315.69873
1242.0 0.000805 1314.90918 1314.91296
1253.0 0.000798 1314.12390 1314.12769
1339.0 0.000747 1313.33936 1313.34314
1269.0 0.000788 1312.55518 1312.55896
1301.0 0.000769 1311.77161 1311.77527
1308.0 0.000765 1310.98877 1310.99243
1302.0 0.000768 1310.20630 1310.21008
1274.0 0.000785 1309.42468 1309.42834
1243.0 0.000805 1308.64368 1308.64734
1278.0 0.000782 1307.86353 1307.86731
1292.0 0.000774 1307.08374 1307.08740
1233.0 0.000811 1306.30493 1306.30859
1275.0 0.000784 1305.52673 1305.53052
1272.0 0.000786 1304.74963 1304.75342
1320.0 0.000758 1303.97314 1303.97693
1296.0 0.000772 1303.19751 1303.20117
1322.0 0.000756 1302.42261 1302.42627
1303.0 0.000767 1301.64868 1301.65247
1337.0 0.000748 1300.87561 1300.87939
1331.0 0.000751 1300.10352 1300.10718
1255.0 0.000797 1299.33240 1299.33606
1286.0 0.000778 1298.56213 1298.56580
1279.0 0.000782 1297.79272 1297.79639
1281.0 0.000781 1297.02466 1297.02832
1226.0 0.000816 1296.25745 1296.26111
1320.0 0.000758 1295.49133 1295.49500
1273.0 0.000786 1294.72632 1294.72998
1229.0 0.000814 1293.96240 1293.96606
1220.0 0.000820 1293.19971 1293.20337
1251.0 0.000799 1292.43787 1292.44153
1299.0 0.000770 1291.67725 1291.68091
1270.0 0.000787 1290.91809 1290.92175
1217.0 0.000822 1290.15979 1290.16345
1257.0 0.000796 1289.40295 1289.40662
1208.0 0.000828 1288.64734 1288.65100
1226.0 0.000816 1287.89294 1287.89648
1293.0 0.000773 1287.13977 1287.14343
1281.0 0.000781 1286.38806 1286.39172
1249.0 0.000801 1285.63745 1285.64111
1205.0 0.000830 1284.88855 1284.89221
1275.0 0.000784 1284.14087 1284.14453
1244.0 0.000804 1283.39465 1283.39832
1280.0 0.000781 1282.64966 1282.65332
1173.0 0.000853 1281.90625 1281.90979
1276.0 0.000784 1281.16467 1281.16821
1248.0 0.000801 1280.42407 1280.42773
1315.0 0.000760 1279.68518 1279.68884
1305.0 0.000766 1278.94775 1278.95129
1227.0 0.000815 1278.21204 1278.21558
1246.0 0.000803 1277.47766 1277.48132
1232.0 0.000812 1276.74524 1276.74890
1248.0 0.000801 1276.01416 1276.01770
1230.0 0.000813 1275.28467 1275.28833
1284.0 0.000779 1274.55701 1274.56067
1243.0 0.000805 1273.83093 1273.83459
1213.0 0.000824 1273.10681 1273.11035
1290.0 0.000775 1272.38416 1272.38782
1220.0 0.000820 1271.66333 1271.66687
1230.0 0.000813 1270.94421 1270.94775
1253.0 0.000798 1270.22693 1270.23047
1261.0 0.000793 1269.51135 1269.51501
1287.0 0.000777 1268.79797 1268.80151
1307.0 0.000765 1268.08594 1268.08948
1242.0 0.000805 1267.37610 1267.37964
1229.0 0.000814 1266.66797 1266.67151
1262.0 0.000792 1265.96204 1265.96558
1286.0 0.000778 1265.25757 1265.26111
1297.0 0.000771 1264.55554 1264.55908
1248.0 0.000801 1263.85510 1263.85864
1270.0 0.000787 1263.15674 1263.16028
1271.0 0.000787 1262.46057 1262.46411
1255.0 0.000797 1261.76636 1261.76990
1199.0 0.000834 1261.07422 1261.07764
1269.0 0.000788 1260.38391 1260.38745
1319.0 0.000758 1259.69580 1259.69922
1240.0 0.000806 1259.01013 1259.01355
1338.0 0.000747 1258.32617 1258.32971
1260.0 0.000794 1257.64441 1257.64795
1221.0 0.000819 1256.96484 1256.96838
1287.0 0.000777 1256.28760 1256.29114
1276.0 0.000784 1255.61243 1255.61597
1262.0 0.000792 1254.93958 1254.94312
1273.0 0.000786 1254.26868 1254.27209
1186.0 0.000843 1253.60022 1253.60364
1251.0 0.000799 1252.93396 1252.93750
1175.0 0.000851 1252.27026 1252.27380
1238.0 0.000808 1251.60864 1251.61218
1220.0 0.000820 1250.94934 1250.95288
1215.0 0.000823 1250.29260 1250.29602
1228.0 0.000814 1249.63794 1249.64136
1210.0 0.000826 1248.98572 1248.98926
1222.0 0.000818 1248.33594 1248.33948
1269.0 0.000788 1247.68860 1247.69202
1244.0 0.000804 1247.04346 1247.04688
1257.0 0.000796 1246.40088 1246.40442
1287.0 0.000777 1245.76074 1245.76416
1228.0 0.000814 1245.12341 1245.12683
1259.0 0.000794 1244.48840 1244.49182
1288.0 0.000776 1243.85571 1243.85913
1278.0 0.000782 1243.22559 1243.22900
1195.0 0.000837 1242.59814 1242.60156
1205.0 0.000830 1241.97327 1241.97668
1237.0 0.000808 1241.35095 1241.35437
1213.0 0.000824 1240.73108 1240.73450
1280.0 0.000781 1240.11377 1240.11719
1251.0 0.000799 1239.49927 1239.50269
1173.0 0.000853 1238.88721 1238.89063
1259.0 0.000794 1238.27795 1238.28137
1192.0 0.000839 1237.67139 1237.67480
1201.0 0.000833 1237.06738 1237.07080
1248.0 0.000801 1236.46606 1236.46936
1200.0 0.000833 1235.86743 1235.87085
1252.0 0.000799 1235.27161 1235.27502
1270.0 0.000787 1234.67871 1234.68201
1172.0 0.000853 1234.08826 1234.09155
1229.0 0.000814 1233.50049 1233.50391
1282.0 0.000780 1232.91577 1232.91919
1248.0 0.000801 1232.33386 1232.33728
1254.0 0.000797 1231.75464 1231.75793
1265.0 0.000791 1231.17810 1231.18152
1198.0 0.000835 1230.60437 1230.60779
1179.0 0.000848 1230.03381 1230.03711
1202.0 0.000832 1229.46582 1229.46912
1196.0 0.000836 1228.90076 1228.90405
1262.0 0.000792 1228.33850 1228.34192
1201.0 0.000833 1227.77942 1227.78271
1201.0 0.000833 1227.22290 1227.22620
1222.0 0.000818 1226.66968 1226.67297
1234.0 0.000810 1226.11902 1226.12231
1253.0 0.000798 1225.57129 1225.57458
1254.0 0.000797 1225.02661 1225.02991
1220.0 0.000820 1224.48499 1224.48828
1157.0 0.000864 1223.94641 1223.94971
1235.0 0.000810 1223.41040 1223.41370
1193.0 0.000838 1222.87769 1222.88098
1189.0 0.000841 1222.34790 1222.35120
1203.0 0.000831 1221.82117 1221.82446
1217.0 0.000822 1221.29724 1221.30054
1195.0 0.000837 1220.77686 1220.78015
1163.0 0.000860 1220.25903 1220.26233
1222.0 0.000818 1219.74438 1219.74768
1180.0 0.000847 1219.23279 1219.23608
1198.0 0.000835 1218.72424 1218.72754
1195.0 0.000837 1218.21887 1218.22217
1197.0 0.000835 1217.71667 1217.71997
1202.0 0.000832 1217.21716 1217.22046
1242.0 0.000805 1216.72107 1216.72437
1132.0 0.000883 1216.22815 1216.23132
1182.0 0.000846 1215.73816 1215.74146
1200.0 0.000833 1215.25146 1215.25476
1172.0 0.000853 1214.76770 1214.77100
1229.0 0.000814 1214.28723 1214.29041
1209.0 0.000827 1213.80981 1213.81311
1170.0 0.000855 1213.33557 1213.33887
1171.0 0.000854 1212.86450 1212.86780
1216.0 0.000822 1212.39673 1212.40002
1294.0 0.000773 1211.93188 1211.93518
1210.0 0.000826 1211.47046 1211.47363
1151.0 0.000869 1211.01208 1211.01538
1181.0 0.000847 1210.55701 1210.56018
1217.0 0.000822 1210.10498 1210.10828
1191.0 0.000840 1209.65625 1209.65955
1146.0 0.000873 1209.21057 1209.21387
1229.0 0.000814 1208.76831 1208.77148
1214.0 0.000824 1208.32935 1208.33252
1214.0 0.000824 1207.89343 1207.89661
1226.0 0.000816 1207.46082 1207.46399
1221.0 0.000819 1207.03125 1207.03455
1239.0 0.000807 1206.60510 1206.60828
1225.0 0.000816 1206.18237 1206.18555
1202.0 0.000832 1205.76270 1205.76587
1256.0 0.000796 1205.34619 1205.34937
1213.0 0.000824 1204.93311 1204.93628
1221.0 0.000819 1204.52307 1204.52625
1215.0 0.000823 1204.11658 1204.11975
1250.0 0.000800 1203.71301 1203.71619
1196.0 0.000836 1203.31299 1203.31616
1281.0 0.000781 1202.91614 1202.91931
1316.0 0.000760 1202.52258 1202.52576
1329.0 0.000752 1202.13232 1202.13550
1323.0 0.000756 1201.74536 1201.74854
1190.0 0.000840 1201.36157 1201.36475
1237.0 0.000808 1200.98108 1200.98425
1192.0 0.000839 1200.60388 1200.60706
1233.0 0.000811 1200.22998 1200.23315
1215.0 0.000823 1199.85938 1199.86255
1168.0 0.000856 1199.49219 1199.49536
1231.0 0.000812 1199.12805 1199.13123
1208.0 0.000828 1198.76733 1198.77039
1207.0 0.000829 1198.40979 1198.41296
1171.0 0.000854 1198.05579 1198.05884
1199.0 0.000834 1197.70496 1197.70801
1171.0 0.000854 1197.35718 1197.36035
1184.0 0.000845 1197.01294 1197.01599
1163.0 0.000860 1196.67200 1196.67517
1185.0 0.000844 1196.33423 1196.33728
1297.0 0.000771 1195.99976 1196.00293
1183.0 0.000845 1195.66858 1195.67175
1193.0 0.000838 1195.34070 1195.34387
1141.0 0.000876 1195.01611 1195.01929
1232.0 0.000812 1194.69482 1194.69788
1180.0 0.000847 1194.37671 1194.37988
1201.0 0.000833 1194.06201 1194.06506
1207.0 0.000829 1193.75049 1193.75366
1206.0 0.000829 1193.44238 1193.44543
1203.0 0.000831 1193.13745 1193.14050
1207.0 0.000829 1192.83557 1192.83862
1212.0 0.000825 1192.53723 1192.54041
1226.0 0.000816 1192.24207 1192.24512
1239.0 0.000807 1191.95020 1191.95325
1245.0 0.000803 1191.66162 1191.66467
1237.0 0.000808 1191.37610 1191.37927
1234.0 0.000810 1191.09399 1191.09705
1290.0 0.000775 1190.81506 1190.81812
1278.0 0.000782 1190.53931 1190.54236
1253.0 0.000798 1190.26697 1190.27002
1292.0 0.000774 1189.99780 1190.00085
1204.0 0.000831 1189.73169 1189.73474
1233.0 0.000811 1189.46887 1189.47205
1226.0 0.000816 1189.20935 1189.21240
1193.0 0.000838 1188.95288 1188.95593
1238.0 0.000808 1188.69983 1188.70288
1236.0 0.000809 1188.44983 1188.45288
1254.0 0.000797 1188.20300 1188.20605
1218.0 0.000821 1187.95947 1187.96252
1168.0 0.000856 1187.71912 1187.72217
1157.0 0.000864 1187.48181 1187.48486
1222.0 0.000818 1187.24780 1187.25085
1206.0 0.000829 1187.01672 1187.01978
1186.0 0.000843 1186.78906 1186.79211
1169.0 0.000855 1186.56433 1186.56738
1204.0 0.000831 1186.34302 1186.34607
1166.0 0.000858 1186.12463 1186.12769
1247.0 0.000802 1185.90942 1185.91248
1156.0 0.000865 1185.69727 1185.70032
1265.0 0.000791 1185.48828 1185.49133
1246.0 0.000803 1185.28235 1185.28540
1204.0 0.000831 1185.07947 1185.08252
1155.0 0.000866 1184.87988 1184.88293
1199.0 0.000834 1184.68298 1184.68604
1171.0 0.000854 1184.48938 1184.49243
1160.0 0.000862 1184.29895 1184.30200
1178.0 0.000849 1184.11145 1184.11450
1164.0 0.000859 1183.92688 1199.75171
1130.0 0.000885 1183.74548 1199.75659
1195.0 0.000837 1183.56702 1199.76770
1211.0 0.000826 1183.39160 1199.78528
1211.0 0.000826 1183.21924 1199.80945
1238.0 0.000808 1183.04968 1199.83984
1145.0 0.000873 1182.88330 1207.84143
1197.0 0.000835 1182.71973 1207.97949
1219.0 0.000820 1182.55933 1208.12610
1228.0 0.000814 1182.40161 1208.28113
1219.0 0.000820 1182.24695 1208.44507
1180.0 0.000847 1182.09521 1208.61780
1224.0 0.000817 1181.94629 1208.79932
1098.0 0.000911 1181.80042 1208.98999
1211.0 0.000826 1181.65735 1209.18994
1201.0 0.000833 1181.51721 1209.39954
1136.0 0.000880 1181.37988 1209.61841
1164.0 0.000859 1181.24536 1209.84717
1215.0 0.000823 1181.11377 1210.08569
1153.0 0.000867 1180.98486 1210.33435
1173.0 0.000853 1180.85901 1210.59326
1178.0 0.000849 1180.73584 1210.86255
1172.0 0.000853 1180.61536 1211.14246
1105.0 0.000905 1180.49768 1211.43311
1127.0 0.000887 1180.38293 1211.73499
1154.0 0.000867 1180.27087 1212.04785
1163.0 0.000860 1180.16138 1212.37219
1205.0 0.000830 1180.05481 1212.70825
1186.0 0.000843 1179.95068 1213.05615
1238.0 0.000808 1179.84961 1213.41650
1209.0 0.000827 1179.75098 1213.78882
1157.0 0.000864 1179.65503 1214.17395
1179.0 0.000848 1179.56177 1214.57190
1166.0 0.000858 1179.47119 1214.98315
1157.0 0.000864 1179.38318 1215.40796
1120.0 0.000893 1179.29773 1215.84631
1195.0 0.000837 1179.21509 1216.29907
1218.0 0.000821 1179.13477 1216.76599
1213.0 0.000824 1179.05713 1217.24792
1123.0 0.000890 1178.98206 1217.74475
1140.0 0.000877 1178.90942 1218.25720
1177.0 0.000850 1178.83936 1218.78516
1179.0 0.000848 1178.77185 1219.32996
1192.0 0.000839 1178.70667 1219.89099
1220.0 0.000820 1178.64404 1220.46924
1170.0 0.000855 1178.58398 1221.06494
1168.0 0.000856 1178.52625 1221.67871
1214.0 0.000824 1178.47083 1222.31067
1220.0 0.000820 1178.41809 1222.96191
1269.0 0.000788 1178.36755 1223.63245
1192.0 0.000839 1178.31934 1224.32324
1184.0 0.000845 1178.27356 1225.03418
1194.0 0.000838 1178.23022 1225.76660
1219.0 0.000820 1178.18896 1226.52075
1161.0 0.000861 1178.15015 1227.29736
1205.0 0.000830 1178.11353 1228.09705
1132.0 0.000883 1178.07935 1228.92029
1160.0 0.000862 1178.04724 1229.76819
1167.0 0.000857 1178.01746 1230.64148
1157.0 0.000864 1177.98999 1231.54077
1207.0 0.000829 1177.96460 1232.46692
1172.0 0.000853 1177.94128 1233.42065
1198.0 0.000835 1177.92029 1234.40320
1234.0 0.000810 1177.90137 1235.41541
1272.0 0.000786 1177.88452 1236.45813
1248.0 0.000801 1177.86987 1237.53259
1295.0 0.000772 1177.85730 1238.63977
1217.0 0.000822 1177.84680 1239.78052
1211.0 0.000826 1177.83826 1240.95667
1204.0 0.000831 1177.83179 1242.16895
1272.0 0.000786 1177.82739 1243.41882
1241.0 0.000806 1177.82495 1244.70813
1318.0 0.000759 1177.82446 1246.03735
1220.0 0.000820 1177.82581 1247.40869
1213.0 0.000824 1177.82922 1248.82373
1280.0 0.000781 1177.83459 1250.28406
1300.0 0.000769 1177.84180 1251.79150
1336.0 0.000749 1177.85083 1253.34753
1328.0 0.000753 1177.86194 1254.95496
1348.0 0.000742 1177.87463 1256.61475
1298.0 0.000770 1177.88928 1258.33008
1304.0 0.000767 1177.90564 1260.10315
1295.0 0.000772 1177.92383 1261.93530
1266.0 0.000790 1177.94373 1263.83032
1319.0 0.000758 1177.96545 1265.79065
1259.0 0.000794 1177.98877 1267.81873
1184.0 0.000845 1178.01379 1269.91797
1208.0 0.000828 1178.04065 1272.09119
1271.0 0.000787 1178.06909 1274.34253
1305.0 0.000766 1178.09900 1276.67493
1282.0 0.000780 1178.13062 1279.09265
1241.0 0.000806 1178.16382 1281.59937
1309.0 0.000764 1178.19861 1284.19995
1307.0 0.000765 1178.23499 1286.89771
1277.0 0.000783 1178.27283 1289.69897
1266.0 0.000790 1178.31226 1292.60852
1303.0 0.000767 1178.35303 1295.63147
1276.0 0.000784 1178.39539 1298.77417
1290.0 0.000775 1178.43933 1302.04236
1325.0 0.000755 1178.48438 1305.44324
1349.0 0.000741 1178.53101 1308.98413
1353.0 0.000739 1178.57910 1312.67236
1321.0 0.000757 1178.62842 1316.51660
1324.0 0.000755 1178.67883 1320.52356
1354.0 0.000739 1178.73083 1324.70569
1498.0 0.000668 1178.78418 1329.07190
1386.0 0.000722 1178.83875 1333.63293
1419.0 0.000705 1178.89453 1338.40051
1409.0 0.000710 1178.95142 1343.38660
1474.0 0.000678 1179.00977 1348.60645
1362.0 0.000734 1179.06909 1354.07361
1539.0 0.000650 1179.12952 1359.80420
1435.0 0.000697 1179.19128 1365.81616
1466.0 0.000682 1179.25415 1372.12524
1487.0 0.000672 1179.31812 1378.75500
1434.0 0.000697 1179.38293 1385.72583
1382.0 0.000724 1179.44885 1393.06189
1468.0 0.000681 1179.51587 1400.78918
1513.0 0.000661 1179.58398 1408.93591
1502.0 0.000666 1179.65295 1417.53149
1552.0 0.000644 1179.72290 1426.61218
1557.0 0.000642 1179.79395 1436.21411
1435.0 0.000697 1179.86572 1446.37769
1515.0 0.000660 1179.93848 1457.14905
1456.0 0.000687 1180.01196 1468.57190
1552.0 0.000644 1180.08643 1480.70740
1528.0 0.000654 1180.16162 1493.61292
1461.0 0.000684 1180.23767 1507.35486
1481.0 0.000675 1180.31445 1522.00671
1485.0 0.000673 1180.39209 1537.64929
1513.0 0.000661 1180.47046 1554.37732
1608.0 0.000622 1180.54932 1572.29126
1657.0 0.000603 1180.62903 1591.50598
1609.0 0.000622 1180.70935 1612.15222
1685.0 0.000593 1180.79041 1634.36462
1600.0 0.000625 1180.87195 1658.31946
1625.0 0.000615 1180.95422 1684.19690
1681.0 0.000595 1181.03699 1712.20691
1726.0 0.000579 1181.12024 1742.58899
1708.0 0.000585 1181.20410 1775.61694
1811.0 0.000552 1181.28857 1811.60022
1735.0 0.000576 1181.37329 1850.90881
1879.0 0.000532 1181.45850 1893.95630
1971.0 0.000507 1181.54419 1941.22888
1960.0 0.000510 1181.63037 1993.30029
1981.0 0.000505 1181.71692 2050.81152
2057.0 0.000486 1181.80371 2114.59131
2158.0 0.000463 1181.89087 2185.58423
2238.0 0.000447 1181.97852 2264.96729
2325.0 0.000430 1182.06628 2354.21729
2540.0 0.000394 1182.15417 2455.22534
2571.0 0.000389 1182.24268 2570.53906
2796.0 0.000358 1182.33118 2703.56567
3054.0 0.0003274 1182.41992 2859.01855
3291.0 0.0003039 1182.50891 3043.45313
3529.0 0.0002834 1182.59790 3265.77148
3810.0 0.0002625 1182.68713 3538.32007
4067.0 0.0002459 1182.77637 3877.20996
4457.0 0.0002244 1182.86572 4303.10352
5060.0 0.0001976 1182.95520 4841.33350
5628.0 0.0001777 1183.04468 5521.36035
6327.0 0.0001581 1183.13416 6375.81494
7313.0 0.0001367 1183.22375 7437.70264
8488.0 0.0001178 1183.31311 8737.26270
9877.0 0.0001012 1183.40259 10297.09473
11779.0 0.0000849 1183.49194 12125.65234
13795.0 0.0000725 1183.58118 14205.86914
16432.0 0.0000609 1183.67017 16483.97266
19149.0 0.0000522 1183.75916 18846.76953
21746.0 0.0000460 1183.84802 21109.61133
24263.0 0.0000412 1183.93665 23028.46289
25691.0 0.0000389 1184.02502 24362.63672
26708.0 0.0000374 1184.11316 24971.31250
26714.0 0.0000374 1184.20105 24865.93750
25380.0 0.0000394 1184.28870 24165.85547
24199.0 0.0000413 1184.37598 23001.92578
22460.0 0.0000445 1184.46277 21465.56836
20531.0 0.0000487 1184.54944 19628.22656
18343.0 0.0000545 1184.63574 17588.52539
16210.0 0.0000617 1184.72156 15477.78711
14016.0 0.0000713 1184.80701 13428.07422
12042.0 0.0000830 1184.89197 11539.16699
10461.0 0.0000956 1184.97644 9866.74707
9082.0 0.0001101 1185.06055 8430.54297
8011.0 0.0001248 1185.14404 7225.47510
7196.0 0.0001390 1185.22705 6232.22510
6357.0 0.0001573 1185.30945 5425.11230
5510.0 0.0001815 1185.39136 4775.24365
5005.0 0.0001998 1185.47253 4255.09424
4369.0 0.0002289 1185.55322 3839.29297
4152.0 0.0002408 1185.63318 3505.79224
3847.0 0.0002599 1185.71240 3236.23071
3382.0 0.0002957 1185.79114 3015.89307
3120.0 0.0003205 1185.86902 2833.25928
2890.0 0.0003460 1185.94617 2679.66260
2692.0 0.000371 1186.02271 2548.63208
2562.0 0.000390 1186.09839 2435.38940
2499.0 0.000400 1186.17322 2336.48169
2325.0 0.000430 1186.24719 2249.25122
2170.0 0.000461 1186.32043 2171.77148
2170.0 0.000461 1186.39282 2102.53906
2062.0 0.000485 1186.46423 2040.37036
2015.0 0.000496 1186.53479 1984.31824
2049.0 0.000488 1186.60437 1933.58398
1948.0 0.000513 1186.67297 1887.51917
1900.0 0.000526 1186.74072 1845.56458
1892.0 0.000529 1186.80737 1807.26587
1781.0 0.000561 1186.87305 1772.19238
1777.0 0.000563 1186.93787 1740.00232
1759.0 0.000569 1187.00134 1710.38989
1687.0 0.000593 1187.06396 1683.08948
1639.0 0.000610 1187.12537 1657.86780
1618.0 0.000618 1187.18567 1634.52051
1673.0 0.000598 1187.24475 1612.86768
1683.0 0.000594 1187.30286 1592.74500
1657.0 0.000603 1187.35962 1574.03076
1643.0 0.000609 1187.41528 1556.57568
1589.0 0.000629 1187.46973 1540.27844
1569.0 0.000637 1187.52283 1525.03845
1590.0 0.000629 1187.57471 1510.76733
1485.0 0.000673 1187.62537 1497.38464
1462.0 0.000684 1187.67468 1484.81873
1493.0 0.000670 1187.72266 1473.00427
1517.0 0.000659 1187.76929 1461.88293
1487.0 0.000672 1187.81458 1451.40161
1502.0 0.000666 1187.85852 1441.51233
1543.0 0.000648 1187.90100 1432.17334
1404.0 0.000712 1187.94202 1423.34082
1378.0 0.000726 1187.98169 1414.98047
1408.0 0.000710 1188.01990 1407.05945
1474.0 0.000678 1188.05652 1399.54749
1345.0 0.000743 1188.09167 1392.41650
1448.0 0.000691 1188.12537 1385.64185
1451.0 0.000689 1188.15759 1379.19958
1430.0 0.000699 1188.18811 1373.06824
1401.0 0.000714 1188.21716 1367.22705
1390.0 0.000719 1188.24451 1361.66260
1392.0 0.000718 1188.27026 1356.35181
1358.0 0.000736 1188.29443 1351.28137
1455.0 0.000687 1188.31702 1346.43713
1367.0 0.000732 1188.33789 1341.80579
1357.0 0.000737 1188.35681 1337.37463
1359.0 0.000736 1188.37439 1333.13232
1411.0 0.000709 1188.39014 1329.06824
1409.0 0.000710 1188.40393 1325.17212
1338.0 0.000747 1188.41614 1321.43481
1322.0 0.000756 1188.42664 1317.84851
1350.0 0.000741 1188.43518 1314.40344
1358.0 0.000736 1188.44202 1311.09265
1378.0 0.000726 1188.44702 1307.90930
1342.0 0.000745 1188.45020 1304.84680
1309.0 0.000764 1188.45154 1301.89868
1358.0 0.000736 1188.45081 1299.05920
1318.0 0.000759 1188.44836 1296.32324
1232.0 0.000812 1188.44385 1293.68494
1363.0 0.000734 1188.43750 1291.14014
1336.0 0.000749 1188.42920 1288.68347
1335.0 0.000749 1188.41870 1286.31287
1294.0 0.000773 1188.40649 1284.02136
1371.0 0.000729 1188.39221 1281.80688
1322.0 0.000756 1188.37598 1279.66504
1338.0 0.000747 1188.35754 1277.59277
1247.0 0.000802 1188.33716 1275.58716
1385.0 0.000722 1188.31470 1273.64502
1228.0 0.000814 1188.29016 1271.76318
1253.0 0.000798 1188.26355 1269.93933
1264.0 0.000791 1188.23486 1268.17078
1234.0 0.000810 1188.20398 1266.45532
1277.0 0.000783 1188.17090 1264.78992
1242.0 0.000805 1188.13562 1263.17297
1219.0 0.000820 1188.09827 1261.60229
1204.0 0.000831 1188.05872 1260.07593
1308.0 0.000765 1188.01697 1258.59216
1262.0 0.000792 1187.97290 1257.14868
1246.0 0.000803 1187.92664 1255.74438
1250.0 0.000800 1187.87817 1254.37732
1239.0 0.000807 1187.82751 1253.04614
1259.0 0.000794 1187.77454 1251.74902
1264.0 0.000791 1187.71924 1250.48572
1281.0 0.000781 1187.66150 1249.25317
1229.0 0.000814 1187.60156 1248.05127
1229.0 0.000814 1187.53931 1246.87830
1191.0 0.000840 1187.47461 1245.73340
1262.0 0.000792 1187.40771 1244.61523
1261.0 0.000793 1187.33838 1243.52307
1184.0 0.000845 1187.26660 1242.45557
1250.0 0.000800 1187.19250 1241.41187
1204.0 0.000831 1187.11584 1240.39111
1194.0 0.000838 1187.03687 1239.39258
1166.0 0.000858 1186.95544 1238.41504
1304.0 0.000767 1186.87158 1237.45764
1188.0 0.000842 1186.78528 1236.52014
1268.0 0.000789 1186.69641 1235.60132
1244.0 0.000804 1186.60510 1234.70056
1237.0 0.000808 1186.51123 1233.81726
1177.0 0.000850 1186.41492 1232.95068
1253.0 0.000798 1186.31604 1232.10010
1268.0 0.000789 1186.21460 1231.26501
1195.0 0.000837 1186.11072 1230.44531
1203.0 0.000831 1186.00427 1229.63989
1208.0 0.000828 1185.89514 1228.84802
1254.0 0.000797 1185.78345 1228.06958
1184.0 0.000845 1185.66919 1227.30383
1167.0 0.000857 1185.55237 1226.55054
1279.0 0.000782 1185.43274 1225.80908
1246.0 0.000803 1185.31067 1225.07898
1197.0 0.000835 1185.18591 1224.35986
1166.0 0.000858 1185.05859 1223.65149
1192.0 0.000839 1184.92859 1222.95300
1255.0 0.000797 1184.79590 1222.26477
1189.0 0.000841 1184.66040 1221.58557
1146.0 0.000873 1184.52246 1220.91553
1162.0 0.000861 1184.38159 1220.25415
1214.0 0.000824 1184.23816 1219.60132
1177.0 0.000850 1184.09192 1218.95630
1183.0 0.000845 1183.94299 1218.31921
1181.0 0.000847 1183.79150 1217.68958
1166.0 0.000858 1183.63696 1217.06702
1246.0 0.000803 1183.47974 1216.45117
1165.0 0.000858 1183.32007 1215.84253
1204.0 0.000831 1183.15723 1215.23962
1284.0 0.000779 1182.99182 1214.64307
1183.0 0.000845 1182.82361 1214.05237
1244.0 0.000804 1182.65271 1213.46716
1178.0 0.000849 1182.47876 1212.88733
1204.0 0.000831 1182.30212 1212.31262
1177.0 0.000850 1182.12280 1211.74316
1188.0 0.000842 1181.94055 1211.17822
1146.0 0.000873 1181.75537 1210.61780
1149.0 0.000870 1181.56750 1210.06165
1159.0 0.000863 1181.37671 1209.51001
1191.0 0.000840 1181.18311 1208.96216
1216.0 0.000822 1180.98669 1208.41797
1187.0 0.000842 1180.78735 1207.87756
1150.0 0.000870 1180.58508 1207.34033
1188.0 0.000842 1180.38000 1206.80664
1179.0 0.000848 1180.17200 1206.27600
1113.0 0.000898 1179.96118 1205.74829
1259.0 0.000794 1179.74744 1205.22351
1164.0 0.000859 1179.53076 1204.70142
1179.0 0.000848 1179.31140 1204.18213
1210.0 0.000826 1179.08887 1203.66492
1173.0 0.000853 1178.86340 1187.28064
1148.0 0.000871 1178.63513 1186.95178
1174.0 0.000852 1178.40393 1186.62195
1147.0 0.000872 1178.16980 1186.29089
1180.0 0.000847 1177.93274 1194.72961
1131.0 0.000884 1177.69275 1186.56006
1154.0 0.000867 1177.44971 1186.41052
1137.0 0.000880 1177.20386 1186.25977
1201.0 0.000833 1176.95496 1186.10742
1139.0 0.000878 1176.70325 1185.95361
1130.0 0.000885 1176.44849 1190.16223
1220.0 0.000820 1176.19080 1190.05164
1155.0 0.000866 1175.93005 1189.94031
1195.0 0.000837 1175.66650 1189.82849
1191.0 0.000840 1175.39978 1189.71619
1151.0 0.000869 1175.13025 1189.60327
1173.0 0.000853 1174.85754 1189.48999
1164.0 0.000859 1174.58203 1189.37659
1184.0 0.000845 1174.30347 1189.26270
1175.0 0.000851 1174.02209 1189.14893
1153.0 0.000867 1173.73755 1189.03479
1190.0 0.000840 1173.45007 1188.92041
1216.0 0.000822 1173.15955 1188.80615
1161.0 0.000861 1172.86609 1188.69189
1167.0 0.000857 1172.56958 1188.57776
1164.0 0.000859 1172.27026 1188.46399
1228.0 0.000814 1171.96777 1188.35010
1159.0 0.000863 1171.66223 1188.23669
1158.0 0.000864 1171.35376 1188.12378
1156.0 0.000865 1171.04248 1188.01135
1113.0 0.000898 1170.72803 1187.89929
1111.0 0.000900 1170.41052 1187.78809
1136.0 0.000880 1170.09021 1187.67761
1136.0 0.000880 1169.76672 1187.56775
1176.0 0.000850 1169.44031 1187.45898
1127.0 0.000887 1169.11072 1187.35120
1142.0 0.000876 1168.77844 1187.24451
1143.0 0.000875 1168.44299 1187.13904
1110.0 0.000901 1168.10449 1187.03479
1110.0 0.000901 1167.76306 1186.93213
1161.0 0.000861 1167.41882 1186.83118
1184.0 0.000845 1167.07129 1186.73157
1153.0 0.000867 1166.72095 1186.63391
1168.0 0.000856 1166.36743 1186.53796
1156.0 0.000865 1166.01123 1186.44446
1172.0 0.000853 1165.65173 1186.35266
1159.0 0.000863 1165.28943 1186.26343
1170.0 0.000855 1164.92395 1186.17651
1114.0 0.000898 1164.55579 1186.09241
1133.0 0.000883 1164.18445 1186.01099
1177.0 0.000850 1163.81018 1185.93225
1170.0 0.000855 1163.43298 1185.85693
1143.0 0.000875 1163.05273 1185.78467
1165.0 0.000858 1162.66943 1185.71570
1144.0 0.000874 1162.28320 1185.65051
1084.0 0.000923 1161.89417 1185.58911
1154.0 0.000867 1161.50208 1185.53174
1153.0 0.000867 1161.10693 1185.47827
1155.0 0.000866 1160.70886 1185.42932
1135.0 0.000881 1160.30798 1185.38513
1193.0 0.000838 1159.90393 1185.34583
1099.0 0.000910 1159.49719 1185.31104
1109.0 0.000902 1159.08752 1185.28223
1097.0 0.000912 1158.67480 1185.25854
1164.0 0.000859 1158.25916 1185.24084
1100.0 0.000909 1157.84058 1185.22913
1212.0 0.000825 1157.41907 1185.22375
1111.0 0.000900 1156.99463 1185.22498
1181.0 0.000847 1156.56726 1185.23328
1124.0 0.000890 1156.13708 1185.24866
1164.0 0.000859 1155.70398 1185.27173
1172.0 0.000853 1155.26794 1185.30273
1184.0 0.000845 1154.82910 1185.34192
1118.0 0.000894 1154.38721 1185.38977
1109.0 0.000902 1153.94263 1185.44653
1132.0 0.000883 1153.49512 1185.51270
1077.0 0.000929 1153.04456 1185.58875
1161.0 0.000861 1152.59131 1185.67480
1123.0 0.000890 1152.13525 1185.77197
1121.0 0.000892 1151.67627 1185.87988
1074.0 0.000931 1151.21448 1185.99939
1089.0 0.000918 1150.74976 1186.13123
1079.0 0.000927 1150.28247 1186.27551
1147.0 0.000872 1149.81226 1186.43298
1189.0 0.000841 1149.33911 1186.60437
1112.0 0.000899 1148.86328 1186.79004
1166.0 0.000858 1148.38452 1186.99048
1083.0 0.000923 1147.90283 1187.20667
1113.0 0.000898 1147.41870 1187.43921
1097.0 0.000912 1146.93176 1187.68872
1124.0 0.000890 1146.44189 1187.95593
1078.0 0.000928 1145.94934 1188.24158
1081.0 0.000925 1145.45410 1188.54663
1105.0 0.000905 1144.95605 1188.87195
1149.0 0.000870 1144.45520 1189.25537
1102.0 0.000907 1143.95166 1189.62390
1099.0 0.000910 1143.44556 1190.01575
1094.0 0.000914 1142.93665 1190.43140
1166.0 0.000858 1142.42505 1190.87219
1115.0 0.000897 1141.91064 1191.33899
1202.0 0.000832 1141.39380 1191.83350
1171.0 0.000854 1140.87378 1192.37512
1158.0 0.000864 1140.35181 1192.92786
1196.0 0.000836 1139.82690 1193.51270
1116.0 0.000896 1139.29932 1194.13000
1127.0 0.000887 1138.76892 1194.78162
1190.0 0.000840 1138.23621 1195.46936
1173.0 0.000853 1137.70068 1196.19495
1220.0 0.000820 1137.16260 1196.95959
1169.0 0.000855 1136.62195 1197.76599
1120.0 0.000893 1136.07874 1198.61536
1212.0 0.000825 1135.53284 1199.51062
1196.0 0.000836 1134.98462 1200.45386
1223.0 0.000818 1134.43372 1201.44629
1219.0 0.000820 1133.88025 1202.49219
1212.0 0.000825 1133.32434 1203.59326
1190.0 0.000840 1132.76599 1204.75281
1211.0 0.000826 1132.20483 1205.97290
1250.0 0.000800 1131.64148 1207.25781
1204.0 0.000831 1131.07556 1208.61047
1194.0 0.000838 1130.50708 1210.03430
1208.0 0.000828 1129.93628 1211.53333
1212.0 0.000825 1129.36267 1213.11206
1277.0 0.000783 1128.78735 1214.77356
1176.0 0.000850 1128.20923 1216.52368
1220.0 0.000820 1127.62854 1218.36743
1295.0 0.000772 1127.04565 1220.30981
1242.0 0.000805 1126.46033 1222.35620
1246.0 0.000803 1125.87256 1224.51343
1213.0 0.000824 1125.28259 1226.78723
1252.0 0.000799 1124.69019 1229.18506
1286.0 0.000778 1124.09546 1231.71448
1255.0 0.000797 1123.49841 1234.38330
1218.0 0.000821 1122.89893 1237.20044
1347.0 0.000742 1122.29749 1240.17456
1221.0 0.000819 1121.69348 1243.31702
1310.0 0.000763 1121.08728 1246.63794
1185.0 0.000844 1120.47888 1250.14990
1278.0 0.000782 1119.86816 1253.86487
1239.0 0.000807 1119.25525 1257.79700
1260.0 0.000794 1118.64014 1261.96130
1221.0 0.000819 1118.02283 1266.37427
1293.0 0.000773 1117.40344 1271.05359
1282.0 0.000780 1116.78162 1276.01978
1276.0 0.000784 1116.15796 1281.28918
1218.0 0.000821 1115.53223 1286.89124
1339.0 0.000747 1114.90393 1292.84827
1269.0 0.000788 1114.27380 1299.18860
1348.0 0.000742 1113.64148 1305.94250
1309.0 0.000764 1113.00720 1313.14368
1268.0 0.000789 1112.37073 1320.82837
1300.0 0.000769 1111.73230 1329.03833
1359.0 0.000736 1111.09167 1337.81824
1362.0 0.000734 1110.44910 1347.21814
1404.0 0.000712 1109.80469 1357.29382
1313.0 0.000762 1109.15820 1368.10425
1378.0 0.000726 1108.50977 1379.72363
1384.0 0.000723 1107.85925 1392.22693
1410.0 0.000709 1107.20679 1405.70056
1380.0 0.000725 1106.55249 1420.24158
1442.0 0.000693 1105.89624 1435.96008
1472.0 0.000679 1105.23804 1452.97949
1512.0 0.000661 1104.57788 1471.44055
1457.0 0.000686 1103.91614 1491.50391
1556.0 0.000643 1103.25220 1513.35864
1583.0 0.000632 1102.58691 1537.19348
1568.0 0.000638 1101.91956 1563.28308
1610.0 0.000621 1101.25049 1591.90625
1589.0 0.000629 1100.57935 1623.40881
1754.0 0.000570 1099.90649 1658.21167
1729.0 0.000578 1099.23206 1696.83508
1821.0 0.000549 1098.55591 1739.93738
1932.0 0.000518 1097.87793 1788.36609
1982.0 0.000505 1097.19824 1843.22913
2105.0 0.000475 1096.51672 1905.98987
2111.0 0.000474 1095.83398 1978.56604
2186.0 0.000457 1095.14929 2063.54614
2388.0 0.000419 1094.46289 2164.24585
2536.0 0.000394 1093.77502 2284.94141
2581.0 0.000387 1093.08557 2431.00146
2847.0 0.000351 1092.39441 2608.98950
3049.0 0.0003280 1091.70166 2826.68140
3352.0 0.0002983 1091.00745 3092.96143
3596.0 0.0002781 1090.31177 3417.56104
3904.0 0.0002561 1089.61450 3810.61011
4310.0 0.0002320 1088.91553 4282.12109
4960.0 0.0002016 1088.21558 4840.35498
5389.0 0.0001856 1087.51379 5492.54297
6129.0 0.0001632 1086.81067 6241.40234
7087.0 0.0001411 1086.10596 7084.37695
7831.0 0.0001277 1085.40015 8010.76807
8687.0 0.0001151 1084.69263 8998.25586
10012.0 0.0000999 1083.98389 10009.00098
10904.0 0.0000917 1083.27380 10987.14258
12181.0 0.0000821 1082.56250 11861.34863
12840.0 0.0000779 1081.84973 12556.33008
13275.0 0.0000753 1081.13562 13012.48535
13323.0 0.0000751 1080.42041 13204.75195
13384.0 0.0000747 1079.70374 13145.96484
12811.0 0.0000781 1078.98584 12873.31250
12237.0 0.0000817 1078.26672 12427.08984
11496.0 0.0000870 1077.54663 11837.66699
10921.0 0.0000916 1076.82495 11126.69531
10209.0 0.0000980 1076.10229 10317.00684
9410.0 0.0001063 1075.37842 9440.37109
8496.0 0.0001177 1074.65356 8536.56934
7534.0 0.0001327 1073.92725 7645.70898
6700.0 0.0001493 1073.20044 6801.89941
6084.0 0.0001644 1072.47229 6026.67578
5518.0 0.0001812 1071.74292 5332.62256
4842.0 0.0002065 1071.01257 4723.66064
4633.0 0.0002158 1070.28113 4198.00049
3867.0 0.0002586 1069.54871 3750.25952
3734.0 0.0002678 1068.81543 3373.01221
3300.0 0.0003030 1068.08118 3057.87524
2912.0 0.0003434 1067.34570 2796.25586
2826.0 0.000354 1066.60950 2579.86328
2638.0 0.000379 1065.87256 2401.08423
2419.0 0.000413 1065.13452 2253.02100
2232.0 0.000448 1064.39563 2129.84351
2237.0 0.000447 1063.65601 2026.62122
1984.0 0.000504 1062.91541 1939.31531
1902.0 0.000526 1062.17395 1864.69043
1884.0 0.000531 1061.43176 1800.19849
1774.0 0.000564 1060.68896 1743.86121
1760.0 0.000568 1059.94519 1694.15417
1649.0 0.000606 1059.20044 1649.89832
1647.0 0.000607 1058.45569 1610.23303
1565.0 0.000639 1057.70984 1574.41040
1540.0 0.000649 1056.96326 1541.90112
1445.0 0.000692 1056.21594 1512.26709
1437.0 0.000696 1055.46826 1485.15125
1437.0 0.000696 1054.71973 1460.25830
1501.0 0.000666 1053.97058 1437.33887
1409.0 0.000710 1053.22095 1416.18188
1388.0 0.000720 1052.47083 1396.60486
1388.0 0.000720 1051.72009 1378.44861
1335.0 0.000749 1050.96863 1361.57434
1341.0 0.000746 1050.21704 1345.86426
1243.0 0.000805 1049.46484 1331.20203
1269.0 0.000788 1048.71204 1317.49646
1265.0 0.000791 1047.95886 1304.66248
1236.0 0.000809 1047.20520 1292.62415
1295.0 0.000772 1046.45117 1281.31348
1225.0 0.000816 1045.69678 1270.67017
1199.0 0.000834 1044.94189 1260.63928
1210.0 0.000826 1044.18677 1251.17188
1169.0 0.000855 1043.43103 1242.22156
1179.0 0.000848 1042.67578 1233.75659
1231.0 0.000812 1041.91968 1225.73035
1182.0 0.000846 1041.16345 1218.11414
1222.0 0.000818 1040.40674 1210.87793
1201.0 0.000833 1039.64990 1203.99487
1171.0 0.000854 1038.89282 1197.44006
1087.0 0.000920 1038.13574 1191.19104
1150.0 0.000870 1037.37830 1185.22668
1156.0 0.000865 1036.62073 1179.52832
1171.0 0.000854 1035.86304 1174.07874
1093.0 0.000915 1035.10535 1168.86182
1111.0 0.000900 1034.34753 1163.86426
1123.0 0.000890 1033.58960 1159.06995
1119.0 0.000894 1032.83167 1154.46826
1165.0 0.000858 1032.07349 1150.04700
1082.0 0.000924 1031.31543 1145.79602
1081.0 0.000925 1030.55725 1141.70593
1123.0 0.000890 1029.79944 1137.76758
1095.0 0.000913 1029.04126 1133.97229
1077.0 0.000929 1028.28333 1130.31274
1043.0 0.000959 1027.52539 1126.78125
1112.0 0.000899 1026.76794 1123.37415
1115.0 0.000897 1026.01025 1120.08179
1156.0 0.000865 1025.25269 1116.89978
1047.0 0.000955 1024.49548 1113.82385
1110.0 0.000901 1023.73834 1110.84851
1076.0 0.000929 1022.98132 1107.96997
1118.0 0.000894 1022.22449 1105.18445
1043.0 0.000959 1021.46814 1102.48877
1116.0 0.000896 1020.71179 1099.87939
1090.0 0.000917 1019.95575 1097.35413
1116.0 0.000896 1019.20007 1094.91064
1104.0 0.000906 1018.44495 1092.54785
1049.0 0.000953 1017.68982 1090.26367
1112.0 0.000899 1016.93518 1088.05823
1028.0 0.000973 1016.18073 1085.93152
1103.0 0.000907 1015.42700 1083.88586
1047.0 0.000955 1014.67340 1081.92346
1128.0 0.000887 1013.92029 1080.04919
1156.0 0.000865 1013.16760 1078.26990
1109.0 0.000902 1012.41553 1076.59546
1125.0 0.000889 1011.66370 1075.03857
1020.0 0.000980 1010.91266 1073.61731
1048.0 0.000954 1010.16217 1072.35229
1146.0 0.000873 1009.41205 1071.27014
1117.0 0.000895 1008.66235 1070.40186
1121.0 0.000892 1007.91333 1069.78333
1027.0 0.000974 1007.16504 1069.45325
1048.0 0.000954 1006.41730 1069.45166
1057.0 0.000946 1005.67004 1069.81763
1084.0 0.000923 1004.92358 1070.58667
1088.0 0.000919 1004.17786 1071.78601
1064.0 0.000940 1003.43292 1073.42908
1058.0 0.000945 1002.68842 1075.51160
1089.0 0.000918 1001.94489 1078.00000
1103.0 0.000907 1001.20197 1080.82019
1091.0 0.000917 1000.45972 1083.84485
1069.0 0.000935 999.71832 1086.88025
1150.0 0.000870 998.97778 1089.66418
1089.0 0.000918 998.23798 1091.89050
1100.0 0.000909 997.49902 1093.26416
1105.0 0.000905 996.76099 1093.57983
1097.0 0.000912 996.02362 1092.77625
1081.0 0.000925 995.28772 1090.93445
1131.0 0.000884 994.55231 1088.21008
1122.0 0.000891 993.81793 1084.76514
1078.0 0.000928 993.08441 1080.71960
1121.0 0.000892 992.35187 1076.16223
1035.0 0.000966 991.62024 1071.18579
1043.0 0.000959 990.88959 1065.91663
1053.0 0.000950 990.16022 1060.51489
1064.0 0.000940 989.43170 1055.14709
1051.0 0.000951 988.70422 1049.95850
992.0 0.001008 987.97803 1045.05579
985.0 0.001015 987.25269 1040.50049
1042.0 0.000960 986.52850 1036.32239
1003.0 0.000997 985.80548 1032.52344
1075.0 0.000930 985.08356 1029.08801
987.0 0.001013 984.36279 1025.98975
986.0 0.001014 983.64319 1023.19586
1025.0 0.000976 982.92468 1020.67139
1036.0 0.000965 982.20764 1018.38123
1027.0 0.000974 981.49164 1016.29083
989.0 0.001011 980.77679 1014.36926
969.0 0.001032 980.06366 1012.59015
1028.0 0.000973 979.35144 1010.92712
984.0 0.001016 978.64050 1009.36060
990.0 0.001010 977.93091 1007.87366
1019.0 0.000981 977.22272 1006.45264
1023.0 0.000978 976.51581 1005.08624
980.0 0.001020 975.81018 1003.76569
938.0 0.001066 975.10602 1002.48431
1010.0 0.000990 974.40326 1001.23651
1057.0 0.000946 973.70184 1000.01819
936.0 0.001068 973.00201 998.82629
1001.0 0.000999 972.30365 997.65759
1005.0 0.000995 971.60645 996.51001
969.0 0.001032 970.91095 995.38196
948.0 0.001055 970.21680 994.27185
1012.0 0.000988 969.52429 993.17853
976.0 0.001025 968.83319 992.10077
971.0 0.001030 968.14362 991.03748
964.0 0.001037 967.45557 989.98804
928.0 0.001078 966.76917 988.95154
1021.0 0.000979 966.08411 987.92706
982.0 0.001018 965.40125 986.91522
1026.0 0.000975 964.71954 985.91388
954.0 0.001048 964.03967 984.92322
1012.0 0.000988 963.36127 983.94281
959.0 0.001043 962.68457 982.97205
960.0 0.001042 962.00946 982.01056
986.0 0.001014 961.33624 981.05841
983.0 0.001017 960.66461 980.11475
1004.0 0.000996 959.99457 979.17950
920.0 0.001087 959.32635 978.25244
969.0 0.001032 958.66016 977.33350
935.0 0.001070 957.99542 976.42188
1002.0 0.000998 957.33252 975.51764
948.0 0.001055 956.67145 974.62079
1069.0 0.000935 956.01215 973.73083
1080.0 0.000926 955.35455 972.84772
998.0 0.001002 954.69891 971.97137
1025.0 0.000976 954.04517 971.10150
1058.0 0.000945 953.39313 970.23798
1034.0 0.000967 952.74286 969.38043
1044.0 0.000958 952.09503 968.52972
1078.0 0.000928 951.44867 967.68439
1057.0 0.000946 950.80426 966.84497
1027.0 0.000974 950.16174 966.01135
1046.0 0.000956 949.52136 965.18353
983.0 0.001017 948.88275 964.36108
1016.0 0.000984 948.24609 963.54407
947.0 0.001056 947.61139 962.73242
983.0 0.001017 946.97882 961.92609
1021.0 0.000979 946.34814 961.12500
1003.0 0.000997 945.71954 960.32898
936.0 0.001068 945.09314 959.53827
992.0 0.001008 944.46857 958.75220
970.0 0.001031 943.84607 957.97119
956.0 0.001046 943.22559 957.19489
981.0 0.001019 942.60718 947.68921
934.0 0.001071 941.99097 947.01263
992.0 0.001008 941.37683 946.33923
960.0 0.001042 940.76471 945.66913
923.0 0.001083 940.15485 945.00232
930.0 0.001075 939.54694 944.33856
930.0 0.001075 938.94165 939.31244
855.0 0.001170 938.33813 938.70026
984.0 0.001016 937.73688 938.09070
941.0 0.001063 937.13776 937.48346
981.0 0.001019 936.54083 936.87866
882.0 0.001134 935.94611 936.27637
936.0 0.001068 935.35370 935.67670
973.0 0.001028 934.76337 935.07935
946.0 0.001057 934.17535 934.48444
907.0 0.001103 933.58954 933.89203
958.0 0.001044 933.00616 933.30219
951.0 0.001052 932.42499 932.71484
921.0 0.001086 931.84601 932.12982
919.0 0.001088 931.26947 931.54742
930.0 0.001075 930.69507 930.96741
972.0 0.001029 930.12299 930.38977
943.0 0.001060 929.55322 929.81476
902.0 0.001109 928.98590 929.24231
946.0 0.001057 928.42078 928.67212
929.0 0.001076 927.85809 928.10461
940.0 0.001064 927.29761 927.53937
943.0 0.001060 926.73993 926.97717
897.0 0.001115 926.18427 926.41699
885.0 0.001130 925.63104 925.85938
929.0 0.001076 925.08032 925.30444
906.0 0.001104 924.53186 924.75189
949.0 0.001054 923.98584 924.20184
978.0 0.001022 923.44238 923.65454
934.0 0.001071 922.90112 923.10950
978.0 0.001022 922.36255 922.56720
991.0 0.001009 921.82629 922.02734
957.0 0.001045 921.29242 921.49005
924.0 0.001082 920.76141 920.95563
923.0 0.001083 920.23248 920.42334
916.0 0.001092 919.70605 919.89374
1002.0 0.000998 919.18225 919.36676
990.0 0.001010 918.66089 918.84229
925.0 0.001081 918.14203 918.32043
925.0 0.001081 917.62567 917.80121
995.0 0.001005 917.11176 917.28442
888.0 0.001126 916.60059 916.77045
951.0 0.001052 916.09167 916.25879
911.0 0.001098 915.58569 915.75012
936.0 0.001068 915.08203 915.24390
930.0 0.001075 914.58093 914.74030
941.0 0.001063 914.08234 914.23920
918.0 0.001089 913.58636 913.74078
897.0 0.001115 913.09302 913.24506
909.0 0.001100 912.60217 912.75195
907.0 0.001103 912.11389 912.26135
907.0 0.001103 911.62823 911.77356
934.0 0.001071 911.14526 911.28839
960.0 0.001042 910.66492 910.80597
903.0 0.001107 910.18713 910.32605
927.0 0.001079 909.71198 909.84888
917.0 0.001091 909.23938 909.37439
975.0 0.001026 908.76941 908.90240
907.0 0.001103 908.30200 908.43311
945.0 0.001058 907.83746 907.96667
902.0 0.001109 907.37543 907.50287
909.0 0.001100 906.91595 907.04163
972.0 0.001029 906.45929 906.58319
926.0 0.001080 906.00507 906.12732
884.0 0.001131 905.55396 905.67444
933.0 0.001072 905.10522 905.22406
862.0 0.001160 904.65918 904.77643
868.0 0.001152 904.21588 904.33160
904.0 0.001106 903.77515 903.88928
859.0 0.001164 903.33710 903.44971
900.0 0.001111 902.90179 903.01294
922.0 0.001085 902.46924 902.57898
916.0 0.001092 902.03937 902.14758
908.0 0.001101 901.61212 901.71893
900.0 0.001111 901.18768 901.29315
895.0 0.001117 900.76593 900.87000
878.0 0.001139 900.34686 900.44971
869.0 0.001151 899.93048 900.03198
922.0 0.001085 899.51685 899.61713
873.0 0.001145 899.10596 899.20490
895.0 0.001117 898.69763 898.79535
902.0 0.001109 898.29218 898.38867
909.0 0.001100 897.88953 897.98486
894.0 0.001119 897.48944 897.58362
945.0 0.001058 897.09210 897.18518
895.0 0.001117 896.69775 896.78961
878.0 0.001139 896.30597 896.39679
856.0 0.001168 895.91687 896.00665
899.0 0.001112 895.53058 895.61920
906.0 0.001104 895.14703 895.23462
887.0 0.001127 894.76617 894.85272
860.0 0.001163 894.38806 894.47369
929.0 0.001076 894.01276 894.09729
865.0 0.001156 893.64026 893.72382
877.0 0.001140 893.27045 893.35303
937.0 0.001067 892.90344 892.98511
885.0 0.001130 892.53912 894.33539
899.0 0.001112 892.17755 893.98743
903.0 0.001107 891.81879 893.64227
920.0 0.001087 891.46277 893.30017
877.0 0.001140 891.10944 892.96094
911.0 0.001098 890.75891 892.62482
915.0 0.001093 890.41119 892.29169
944.0 0.001059 890.06616 891.96143
841.0 0.001189 889.72382 892.49115
872.0 0.001147 889.38452 892.17432
857.0 0.001167 889.04779 891.86035
852.0 0.001174 888.71381 891.54938
919.0 0.001088 888.38263 891.24164
886.0 0.001129 888.05414 890.93689
952.0 0.001050 887.72839 890.63525
862.0 0.001160 887.40546 890.33667
800.0 0.001250 887.08533 890.04126
872.0 0.001147 886.76794 889.74890
856.0 0.001168 886.45319 889.45966
865.0 0.001156 886.14130 889.17358
888.0 0.001126 885.83221 888.89069
873.0 0.001145 885.52582 888.61084
945.0 0.001058 885.22211 888.33405
885.0 0.001130 884.92120 888.06049
885.0 0.001130 884.62299 887.79010
889.0 0.001125 884.32758 887.52271
958.0 0.001044 884.03491 887.25854
896.0 0.001116 883.74493 886.99768
871.0 0.001148 883.45770 886.73981
878.0 0.001139 883.17310 886.48505
896.0 0.001116 882.89154 886.23376
907.0 0.001103 882.61249 885.98541
862.0 0.001160 882.33624 885.74030
885.0 0.001130 882.06262 885.49835
959.0 0.001043 881.79187 885.22241
886.0 0.001129 881.52374 884.98724
875.0 0.001143 881.25830 884.75525
884.0 0.001131 880.99567 884.52649
858.0 0.001166 880.73560 884.30096
916.0 0.001092 880.47839 884.07867
851.0 0.001175 880.22382 883.85950
869.0 0.001151 879.97198 883.62524
908.0 0.001101 879.72290 883.41284
881.0 0.001135 879.47632 883.20361
887.0 0.001127 879.23260 882.99774
923.0 0.001083 878.99152 882.79504
835.0 0.001198 878.75311 882.59576
839.0 0.001192 878.51727 882.39954
872.0 0.001147 878.28418 882.20679
858.0 0.001166 878.05389 882.01727
831.0 0.001203 877.82605 881.83105
939.0 0.001065 877.60107 881.64819
888.0 0.001126 877.37860 881.46863
847.0 0.001181 877.15887 881.29242
843.0 0.001186 876.94177 881.11951
904.0 0.001106 876.72729 880.95007
871.0 0.001148 876.51544 880.78394
880.0 0.001136 876.30627 880.62109
878.0 0.001139 876.09961 880.46167
907.0 0.001103 875.89563 880.30566
901.0 0.001110 875.69427 880.15308
930.0 0.001075 875.49561 880.00385
907.0 0.001103 875.29944 879.85822
886.0 0.001129 875.10590 879.71588
844.0 0.001185 874.91498 879.57709
853.0 0.001172 874.72662 879.44171
891.0 0.001122 874.54083 879.30988
869.0 0.001151 874.35754 879.18146
863.0 0.001159 874.17694 879.05670
854.0 0.001171 873.99884 878.93542
865.0 0.001156 873.82336 878.81763
921.0 0.001086 873.65027 878.70337
916.0 0.001092 873.47992 878.59283
904.0 0.001106 873.31201 878.48590
887.0 0.001127 873.14661 878.38257
844.0 0.001185 872.98376 878.28278
901.0 0.001110 872.82349 878.18677
874.0 0.001144 872.66565 878.09436
836.0 0.001196 872.51025 878.00562
898.0 0.001114 872.35742 877.92072
916.0 0.001092 872.20709 877.83954
851.0 0.001175 872.05920 877.76215
872.0 0.001147 871.91382 877.68854
867.0 0.001153 871.77094 877.61871
826.0 0.001211 871.63043 877.55273
931.0 0.001074 871.49237 877.49072
925.0 0.001081 871.35675 877.43256
855.0 0.001170 871.22363 877.37842
838.0 0.001193 871.09290 877.32825
863.0 0.001159 870.96454 877.28198
825.0 0.001212 870.83862 877.23975
864.0 0.001157 870.71515 877.20166
849.0 0.001178 870.59399 877.16766
895.0 0.001117 870.47528 877.13776
905.0 0.001105 870.35895 877.11218
875.0 0.001143 870.24493 877.09070
838.0 0.001193 870.13330 877.07361
861.0 0.001161 870.02405 877.06079
881.0 0.001135 869.91711 877.05237
893.0 0.001120 869.81244 877.04822
908.0 0.001101 869.71008 877.04858
954.0 0.001048 869.61011 877.05353
829.0 0.001206 869.51245 877.06299
855.0 0.001170 869.41711 877.07709
881.0 0.001135 869.32404 877.09583
908.0 0.001101 869.23315 877.11932
885.0 0.001130 869.14459 877.14771
925.0 0.001081 869.05835 877.18097
878.0 0.001139 868.97424 877.21899
875.0 0.001143 868.89246 877.26221
888.0 0.001126 868.81281 877.31042
871.0 0.001148 868.73553 877.36395
874.0 0.001144 868.66028 877.42255
820.0 0.001220 868.58734 877.48651
849.0 0.001178 868.51654 877.55591
864.0 0.001157 868.44794 877.63080
858.0 0.001166 868.38159 877.71136
900.0 0.001111 868.31726 877.79767
872.0 0.001147 868.25513 877.88971
897.0 0.001115 868.19513 877.98767
902.0 0.001109 868.13727 878.09167
876.0 0.001142 868.08154 878.20190
844.0 0.001185 868.02783 878.31836
851.0 0.001175 867.97632 878.44116
859.0 0.001164 867.92688 878.57062
890.0 0.001124 867.87946 878.70673
938.0 0.001066 867.83417 878.84973
874.0 0.001144 867.79095 878.99976
899.0 0.001112 867.74969 879.15692
831.0 0.001203 867.71045 879.32135
951.0 0.001052 867.67328 879.49335
878.0 0.001139 867.63812 879.67310
944.0 0.001059 867.60492 879.86066
925.0 0.001081 867.57373 880.05627
900.0 0.001111 867.54449 880.26031
929.0 0.001076 867.51721 880.47278
840.0 0.001190 867.49194 880.69415
941.0 0.001063 867.46857 880.92456
938.0 0.001066 867.44714 881.16425
896.0 0.001116 867.42755 881.41351
893.0 0.001120 867.40991 881.67261
915.0 0.001093 867.39429 881.94202
893.0 0.001120 867.38043 882.22180
879.0 0.001138 867.36841 882.51245
906.0 0.001104 867.35828 882.81421
897.0 0.001115 867.35004 883.12756
895.0 0.001117 867.34351 883.45288
890.0 0.001124 867.33899 883.79065
920.0 0.001087 867.33612 884.14124
870.0 0.001149 867.33514 884.50500
846.0 0.001182 867.33594 884.88263
928.0 0.001078 867.33844 885.27448
893.0 0.001120 867.34277 885.68121
884.0 0.001131 867.34882 886.10333
882.0 0.001134 867.35663 886.54163
909.0 0.001100 867.36615 886.99615
871.0 0.001148 867.37738 887.46838
900.0 0.001111 867.39026 887.95862
890.0 0.001124 867.40485 888.46765
908.0 0.001101 867.42120 888.99646
917.0 0.001091 867.43915 889.54578
933.0 0.001072 867.45874 890.11652
899.0 0.001112 867.47992 890.70972
876.0 0.001142 867.50281 891.32648
919.0 0.001088 867.52722 891.96771
864.0 0.001157 867.55341 892.63489
940.0 0.001064 867.58093 893.32880
893.0 0.001120 867.61023 894.05139
949.0 0.001054 867.64099 894.80371
903.0 0.001107 867.67328 895.58746
918.0 0.001089 867.70721 896.40430
928.0 0.001078 867.74255 897.25574
904.0 0.001106 867.77942 898.14404
913.0 0.001095 867.81781 899.07098
926.0 0.001080 867.85767 900.03876
940.0 0.001064 867.89905 901.05011
897.0 0.001115 867.94177 902.10638
910.0 0.001099 867.98602 903.21167
948.0 0.001055 868.03168 904.36823
967.0 0.001034 868.07874 905.57935
920.0 0.001087 868.12720 906.84845
933.0 0.001072 868.17700 908.17914
889.0 0.001125 868.22833 909.57544
883.0 0.001133 868.28088 911.04169
956.0 0.001046 868.33478 912.58252
929.0 0.001076 868.39008 914.20319
943.0 0.001060 868.44666 915.90894
957.0 0.001045 868.50458 917.70575
942.0 0.001062 868.56372 919.60089
922.0 0.001085 868.62421 921.60114
962.0 0.001040 868.68597 923.71454
933.0 0.001072 868.74902 925.94958
976.0 0.001025 868.81323 928.31586
977.0 0.001024 868.87872 930.82391
912.0 0.001096 868.94543 933.48511
1024.0 0.000977 869.01324 936.31232
1002.0 0.000998 869.08240 939.32037
959.0 0.001043 869.15253 942.52179
983.0 0.001017 869.22394 945.93805
994.0 0.001006 869.29651 949.58722
1043.0 0.000959 869.37018 953.49115
955.0 0.001047 869.44495 957.67493
1005.0 0.000995 869.52087 962.16705
1012.0 0.000988 869.59778 967.00067
1055.0 0.000948 869.67590 972.21423
989.0 0.001011 869.75500 977.85327
1058.0 0.000945 869.83521 983.97290
955.0 0.001047 869.91638 990.63989
1056.0 0.000947 869.99866 997.93469
1017.0 0.000983 870.08185 1005.96375
1040.0 0.000962 870.16608 1014.85455
1040.0 0.000962 870.25128 1024.77002
1087.0 0.000920 870.33746 1035.91602
1122.0 0.000891 870.42462 1048.55090
1116.0 0.000896 870.51270 1062.99780
1124.0 0.000890 870.60162 1079.65576
1187.0 0.000842 870.69159 1099.01245
1114.0 0.000898 870.78241 1121.65906
1240.0 0.000806 870.87402 1148.26135
1322.0 0.000756 870.96655 1179.64868
1286.0 0.000778 871.06000 1216.71069
1220.0 0.000820 871.15430 1260.44019
1354.0 0.000739 871.24933 1311.89758
1410.0 0.000709 871.34521 1372.17834
1492.0 0.000670 871.44189 1442.36743
1551.0 0.000645 871.53943 1523.48206
1609.0 0.000622 871.63763 1616.40527
1632.0 0.000613 871.73669 1721.80408
1742.0 0.000574 871.83643 1840.00488
1999.0 0.000500 871.93695 1970.99670
2007.0 0.000498 872.03809 2114.11450
2111.0 0.000474 872.14001 2267.97070
2360.0 0.000424 872.24261 2430.20654
2418.0 0.000414 872.34589 2597.24927
2637.0 0.000379 872.44989 2764.11255
2794.0 0.000358 872.55450 2924.36938
3004.0 0.0003329 872.65967 3070.47681
3163.0 0.0003162 872.76556 3194.60400
3122.0 0.0003203 872.87201 3289.92725
3133.0 0.0003192 872.97900 3351.87964
3135.0 0.0003190 873.08667 3379.23096
3214.0 0.0003111 873.19482 3373.66504
3110.0 0.0003215 873.30359 3338.89038
3042.0 0.0003287 873.41296 3279.17651
2957.0 0.0003382 873.52271 3198.25317
2922.0 0.0003422 873.63306 3098.93164
2807.0 0.000356 873.74396 2983.44116
2668.0 0.000375 873.85522 2854.11768
2587.0 0.000387 873.96698 2713.97803
2421.0 0.000413 874.07928 2566.88013
2348.0 0.000426 874.19196 2417.04565
2163.0 0.000462 874.30511 2268.72021
2057.0 0.000486 874.41864 2125.53882
1880.0 0.000532 874.53259 1990.28333
1810.0 0.000552 874.64697 1864.83167
1775.0 0.000563 874.76166 1750.25061
1552.0 0.000644 874.87677 1646.95422
1590.0 0.000629 874.99219 1554.86560
1479.0 0.000676 875.10797 1473.55981
1362.0 0.000734 875.22412 1402.36121
1414.0 0.000707 875.34045 1340.52527
1356.0 0.000737 875.45715 1287.08594
1328.0 0.000753 875.57422 1241.15918
1226.0 0.000816 875.69147 1201.83691
1184.0 0.000845 875.80902 1168.25049
1194.0 0.000838 875.92682 1141.84106
1174.0 0.000852 876.04486 1117.38367
1098.0 0.000911 876.16309 1096.45471
1139.0 0.000878 876.28143 1078.47815
1107.0 0.000903 876.40009 1062.95911
1092.0 0.000916 876.51892 1049.48145
1063.0 0.000941 876.63788 1037.68921
1077.0 0.000929 876.75708 1027.29773
1100.0 0.000909 876.87634 1018.07263
947.0 0.001056 876.99573 1010.94934
978.0 0.001022 877.11530 1003.53210
997.0 0.001003 877.23486 996.81531
1040.0 0.000962 877.35461 990.70013
1022.0 0.000978 877.47449 985.10699
963.0 0.001038 877.59430 979.97083
1031.0 0.000970 877.71429 975.23743
926.0 0.001080 877.83417 970.86682
947.0 0.001056 877.95422 966.81665
981.0 0.001019 878.07422 963.05713
916.0 0.001092 878.19421 959.56110
986.0 0.001014 878.31427 956.30505
961.0 0.001041 878.43427 953.26794
952.0 0.001050 878.55420 950.43127
952.0 0.001050 878.67413 947.77863
934.0 0.001071 878.79395 945.29535
931.0 0.001074 878.91382 942.96814
952.0 0.001050 879.03345 940.78546
990.0 0.001010 879.15308 938.73553
941.0 0.001063 879.27258 936.80884
934.0 0.001071 879.39197 934.99670
914.0 0.001094 879.51123 933.29077
897.0 0.001115 879.63037 931.68372
884.0 0.001131 879.74933 930.16888
936.0 0.001068 879.86810 928.73969
898.0 0.001114 879.98682 927.39069
837.0 0.001195 880.10522 926.11615
917.0 0.001091 880.22345 924.91266
921.0 0.001086 880.34149 923.77411
924.0 0.001082 880.45929 922.69708
919.0 0.001088 880.57690 921.67767
892.0 0.001121 880.69421 920.71259
895.0 0.001117 880.81122 919.79834
935.0 0.001070 880.92810 918.93219
912.0 0.001096 881.04456 918.11121
829.0 0.001206 881.16089 917.33295
895.0 0.001117 881.27686 916.59473
883.0 0.001133 881.39246 915.89459
860.0 0.001163 881.50769 915.23053
869.0 0.001151 881.62262 914.60028
925.0 0.001081 881.73730 914.00214
849.0 0.001178 881.85150 913.43451
915.0 0.001093 881.96539 912.89569
892.0 0.001121 882.07898 912.38446
928.0 0.001078 882.19208 911.89911
897.0 0.001115 882.30481 911.43854
917.0 0.001091 882.41711 911.00153
924.0 0.001082 882.52905 910.58679
838.0 0.001193 882.64050 910.19373
975.0 0.001026 882.75153 909.82074
877.0 0.001140 882.86212 909.46710
937.0 0.001067 882.97223 909.13196
906.0 0.001104 883.08191 908.81445
878.0 0.001139 883.19104 908.51373
879.0 0.001138 883.29968 908.22919
826.0 0.001211 883.40790 907.96008
871.0 0.001148 883.51556 907.70563
866.0 0.001155 883.62268 907.46533
872.0 0.001147 883.72925 907.23859
870.0 0.001149 883.83539 907.02484
850.0 0.001176 883.94080 906.82349
830.0 0.001205 884.04578 906.63409
864.0 0.001157 884.15015 906.45612
863.0 0.001159 884.25397 906.28918
906.0 0.001104 884.35718 906.13287
871.0 0.001148 884.45984 905.98682
851.0 0.001175 884.56189 905.85065
880.0 0.001136 884.66327 905.72375
916.0 0.001092 884.76404 905.60602
862.0 0.001160 884.86414 905.49725
898.0 0.001114 884.96362 905.39679
837.0 0.001195 885.06244 905.30457
836.0 0.001196 885.16071 905.22028
879.0 0.001138 885.25812 905.14362
911.0 0.001098 885.35498 905.07446
872.0 0.001147 885.45105 905.01239
886.0 0.001129 885.54657 904.95746
869.0 0.001151 885.64130 904.90906
914.0 0.001094 885.73535 904.86737
875.0 0.001143 885.82861 904.83197
922.0 0.001085 885.92120 904.80273
870.0 0.001149 886.01300 904.77954
893.0 0.001120 886.10413 904.76215
882.0 0.001134 886.19446 904.75049
931.0 0.001074 886.28400 904.74438
924.0 0.001082 886.37280 904.78662
902.0 0.001109 886.46088 904.79163
894.0 0.001119 886.54810 904.80170
903.0 0.001107 886.63458 904.81702
931.0 0.001074 886.72028 904.83722
903.0 0.001107 886.80505 904.86224
946.0 0.001057 886.88904 904.89203
957.0 0.001045 886.97223 904.92645
920.0 0.001087 887.05463 904.96564
992.0 0.001008 887.13617 905.03070
900.0 0.001111 887.21692 905.07898
921.0 0.001086 887.29669 905.13165
973.0 0.001028 887.37573 905.18872
918.0 0.001089 887.45386 905.25006
907.0 0.001103 887.53107 905.31555
915.0 0.001093 887.60736 905.38538
850.0 0.001176 887.68286 905.45935
914.0 0.001094 887.75745 905.53754
949.0 0.001054 887.83112 905.61981
924.0 0.001082 887.90393 905.70624
938.0 0.001066 887.97577 905.79669
902.0 0.001109 888.04669 905.89105
892.0 0.001121 888.11676 905.98969
865.0 0.001156 888.18585 906.09241
861.0 0.001161 888.25397 906.19916
912.0 0.001096 888.32117 906.31006
888.0 0.001126 888.38745 906.42499
815.0 0.001227 888.45276 906.54395
864.0 0.001157 888.51709 906.66705
904.0 0.001106 888.58051 906.79443
917.0 0.001091 888.64288 906.92603
898.0 0.001114 888.70435 907.06165
932.0 0.001073 888.76477 907.20172
842.0 0.001188 888.82422 907.34607
945.0 0.001058 888.88275 907.49481
893.0 0.001120 888.94019 907.64795
852.0 0.001174 888.99664 907.80554
899.0 0.001112 889.05206 907.96771
895.0 0.001117 889.10663 908.13464
891.0 0.001122 889.15997 908.30621
859.0 0.001164 889.21240 908.48254
884.0 0.001131 889.26379 908.66376
887.0 0.001127 889.31415 908.85016
900.0 0.001111 889.36346 909.04144
881.0 0.001135 889.41174 909.23804
922.0 0.001085 889.45898 909.43994
946.0 0.001057 889.50513 909.64734
893.0 0.001120 889.55029 909.86035
881.0 0.001135 889.59436 910.07886
821.0 0.001218 889.63733 910.30334
896.0 0.001116 889.67920 910.53400
928.0 0.001078 889.72009 910.77075
918.0 0.001089 889.75995 911.01398
912.0 0.001096 889.79865 911.26361
929.0 0.001076 889.83630 911.52008
932.0 0.001073 889.87286 911.78357
935.0 0.001070 889.90833 912.05414
966.0 0.001035 889.94269 912.33203
954.0 0.001048 889.97595 912.61761
895.0 0.001117 890.00824 912.91119
950.0 0.001053 890.03931 913.21277
891.0 0.001122 890.06921 913.52283
862.0 0.001160 890.09814 913.84155
912.0 0.001096 890.12592 914.16925
949.0 0.001054 890.15259 914.50641
924.0 0.001082 890.17816 914.85309
884.0 0.001131 890.20251 915.20996
863.0 0.001159 890.22583 915.57684
864.0 0.001157 890.24799 915.95477
922.0 0.001085 890.26910 916.34387
936.0 0.001068 890.28900 916.74463
889.0 0.001125 890.30780 917.15729
928.0 0.001078 890.32544 917.58258
925.0 0.001081 890.34204 918.02106
910.0 0.001099 890.35742 918.47290
920.0 0.001087 890.37170 918.93896
926.0 0.001080 890.38483 919.41968
892.0 0.001121 890.39679 919.91571
912.0 0.001096 890.40765 920.42767
879.0 0.001138 890.41736 920.95654
869.0 0.001151 890.42590 921.50262
946.0 0.001057 890.43335 922.06689
914.0 0.001094 890.43964 922.65027
889.0 0.001125 890.44470 923.25330
889.0 0.001125 890.44873 923.87701
918.0 0.001089 890.45154 924.52240
890.0 0.001124 890.45325 925.19067
929.0 0.001076 890.45367 925.88257
933.0 0.001072 890.45306 926.59894
993.0 0.001007 890.45129 927.34186
921.0 0.001086 890.44843 928.11206
897.0 0.001115 890.44427 928.91095
864.0 0.001157 890.43896 929.73975
955.0 0.001047 890.43256 930.60052
860.0 0.001163 890.42505 931.49438
921.0 0.001086 890.41626 932.42322
905.0 0.001105 890.40643 933.38898
889.0 0.001125 890.39545 934.39343
924.0 0.001082 890.38318 935.43860
977.0 0.001024 890.36981 936.52661
938.0 0.001066 890.35535 937.66040
949.0 0.001054 890.33972 938.84222
943.0 0.001060 890.32288 940.07452
926.0 0.001080 890.30493 941.36053
986.0 0.001014 890.28577 942.70313
888.0 0.001126 890.26550 944.10565
871.0 0.001148 890.24408 945.57184
953.0 0.001049 890.22150 947.10541
974.0 0.001027 890.19775 948.71094
936.0 0.001068 890.17291 950.39130
923.0 0.001083 890.14691 952.15308
935.0 0.001070 890.11975 954.00085
902.0 0.001109 890.09131 955.94012
999.0 0.001001 890.06189 957.97693
943.0 0.001060 890.03119 960.11786
955.0 0.001047 889.99951 962.36993
1000.0 0.001000 889.96661 964.74078
1071.0 0.000934 889.93256 967.23889
929.0 0.001076 889.89740 968.15857
984.0 0.001016 889.86102 970.95331
962.0 0.001040 889.82361 973.90405
997.0 0.001003 889.78503 977.02386
988.0 0.001012 889.74524 980.32532
994.0 0.001006 889.70441 983.82251
985.0 0.001015 889.66248 987.53113
1001.0 0.000999 889.61938 991.46851
990.0 0.001010 889.57513 994.79907
974.0 0.001027 889.52979 999.26099
967.0 0.001034 889.48334 1004.01678
1030.0 0.000971 889.43573 1009.09479
1019.0 0.000981 889.38708 1014.52148
999.0 0.001001 889.33728 1020.33978
991.0 0.001009 889.28638 1026.58936
987.0 0.001013 889.23431 1033.32080
1011.0 0.000989 889.18127 1040.59412
1097.0 0.000912 889.12701 1048.48169
1086.0 0.000921 889.07166 1057.07251
1100.0 0.000909 889.01532 1066.47510
1125.0 0.000889 888.95782 1076.82312
1043.0 0.000959 888.89917 1088.28174
1134.0 0.000882 888.83954 1101.05078
1177.0 0.000850 888.77881 1115.38562
1122.0 0.000891 888.71698 1131.58691
1207.0 0.000829 888.65411 1150.02197
1239.0 0.000807 888.59015 1171.12903
1271.0 0.000787 888.52509 1195.42651
1256.0 0.000796 888.45898 1223.51782
1285.0 0.000778 888.39185 1256.09412
1322.0 0.000756 888.32361 1293.93420
1384.0 0.000723 888.25433 1337.89758
1442.0 0.000693 888.18402 1388.92688
1538.0 0.000650 888.11267 1447.94653
1525.0 0.000656 888.04028 1516.03027
1599.0 0.000625 887.96686 1594.14734
1664.0 0.000601 887.89233 1683.24463
1680.0 0.000595 887.81683 1784.17273
1879.0 0.000532 887.74036 1897.62793
1954.0 0.000512 887.66284 2024.09204
2122.0 0.000471 887.58429 2163.75684
2290.0 0.000437 887.50470 2316.43872
2417.0 0.000414 887.42413 2481.47461
2635.0 0.000380 887.34259 2657.54956
2827.0 0.000354 887.26007 2842.72217
3003.0 0.0003330 887.17645 3033.99609
3340.0 0.0002994 887.09192 3227.34106
3617.0 0.0002765 887.00641 3417.56909
3781.0 0.0002645 886.91992 3598.42676
3982.0 0.0002511 886.83252 3762.94971
4171.0 0.0002398 886.74402 3904.14746
4306.0 0.0002322 886.65460 4015.93921
4249.0 0.0002353 886.56427 4094.10571
4334.0 0.0002307 886.47296 4136.92773
4311.0 0.0002320 886.38074 4145.18359
4201.0 0.0002380 886.28760 4121.62305
4163.0 0.0002402 886.19342 4069.92651
4002.0 0.0002499 886.09845 3993.80737
3768.0 0.0002654 886.00244 3896.40698
3842.0 0.0002603 885.90558 3780.18115
3667.0 0.0002727 885.80780 3647.19946
3396.0 0.0002945 885.70905 3499.63696
3314.0 0.0003017 885.60950 3340.17847
3123.0 0.0003202 885.50897 3172.15918
2918.0 0.0003427 885.40759 2999.43994
2709.0 0.000369 885.30530 2825.87549
2557.0 0.000391 885.20215 2655.17578
2306.0 0.000434 885.09808 2490.44458
2239.0 0.000447 884.99323 2334.07739
2118.0 0.000472 884.88751 2187.74780
1997.0 0.000501 884.78088 2052.47925
1909.0 0.000524 884.67346 1928.75476
1857.0 0.000539 884.56512 1816.63293
1670.0 0.000599 884.45605 1715.85303
1667.0 0.000600 884.34607 1625.90149
1568.0 0.000638 884.23535 1546.20581
1505.0 0.000664 884.12378 1475.90857
1501.0 0.000666 884.01129 1414.23535
1413.0 0.000708 883.89807 1360.34766
1380.0 0.000725 883.78412 1313.41223
1278.0 0.000782 883.66937 1272.62170
1280.0 0.000781 883.55383 1237.21252
1282.0 0.000780 883.43744 1206.47607
1308.0 0.000765 883.32037 1179.76599
1223.0 0.000818 883.20245 1156.50281
1122.0 0.000891 883.08386 1136.17896
1137.0 0.000880 882.96454 1118.33765
1115.0 0.000897 882.84442 1102.59998
1162.0 0.000861 882.72357 1088.63892
1013.0 0.000987 882.60199 1076.17883
1109.0 0.000902 882.47968 1064.98950
1071.0 0.000934 882.35669 1054.88062
1109.0 0.000902 882.23297 1045.69482
1027.0 0.000974 882.10858 1037.30273
1037.0 0.000964 881.98346 1029.59668
1057.0 0.000946 881.85773 1022.49658
990.0 0.001010 881.73126 1015.92188
942.0 0.001062 881.60419 1009.81653
952.0 0.001050 881.47638 1004.13104
991.0 0.001009 881.34790 998.82361
1031.0 0.000970 881.21881 993.85864
977.0 0.001024 881.08905 989.20599
1035.0 0.000966 880.95868 984.83893
964.0 0.001037 880.82770 980.73474
983.0 0.001017 880.69611 976.87317
990.0 0.001010 880.56384 973.23621
1011.0 0.000989 880.43121 969.80890
981.0 0.001019 880.29773 966.57532
1041.0 0.000961 880.16376 963.52386
1013.0 0.000987 880.02917 960.64343
952.0 0.001050 879.89404 957.92407
903.0 0.001107 879.75830 955.35742
956.0 0.001046 879.62201 952.93591
943.0 0.001060 879.48523 950.65363
962.0 0.001040 879.34796 948.50592
941.0 0.001063 879.21002 946.48840
985.0 0.001015 879.07166 944.60107
909.0 0.001100 878.93280 942.84076
970.0 0.001031 878.79333 941.20935
966.0 0.001035 878.65344 939.70935
932.0 0.001073 878.51300 938.34473
966.0 0.001035 878.37207 937.12146
938.0 0.001066 878.23077 936.04724
914.0 0.001094 878.08887 935.13086
895.0 0.001117 877.94659 934.38336
947.0 0.001056 877.80383 933.81659
988.0 0.001012 877.66064 933.44330
906.0 0.001104 877.51703 933.27673
954.0 0.001048 877.37299 933.33002
930.0 0.001075 877.22864 933.61591
907.0 0.001103 877.08368 934.14478
860.0 0.001163 876.93842 934.92560
946.0 0.001057 876.79272 935.96338
935.0 0.001070 876.64673 937.25897
940.0 0.001064 876.50018 938.80719
947.0 0.001056 876.35345 940.59558
961.0 0.001041 876.20630 942.60333
947.0 0.001056 876.05878 944.79504
923.0 0.001083 875.91089 947.12653
1029.0 0.000972 875.76276 949.53375
977.0 0.001024 875.61432 951.93604
1014.0 0.000986 875.46545 954.23535
1002.0 0.000998 875.31635 956.32172
986.0 0.001014 875.16693 958.08051
991.0 0.001009 875.01715 959.40649
967.0 0.001034 874.86713 960.21826
924.0 0.001082 874.71686 960.46960
1001.0 0.000999 874.56628 960.15485
905.0 0.001105 874.41553 959.30304
970.0 0.001031 874.26447 957.96606
933.0 0.001072 874.11310 956.20422
926.0 0.001080 873.96161 954.07306
935.0 0.001070 873.80981 951.61798
935.0 0.001070 873.65784 948.87512
953.0 0.001049 873.50568 945.87708
952.0 0.001050 873.35321 942.65997
970.0 0.001031 873.20068 939.26910
936.0 0.001068 873.04791 935.75836
947.0 0.001056 872.89508 932.19318
927.0 0.001079 872.74194 928.63147
936.0 0.001068 872.58862 925.13300
917.0 0.001091 872.43524 921.74658
950.0 0.001053 872.28168 918.50995
972.0 0.001029 872.12805 915.45013
911.0 0.001098 871.97424 912.58344
895.0 0.001117 871.82037 909.91827
896.0 0.001116 871.66632 907.45587
926.0 0.001080 871.51227 905.19275
906.0 0.001104 871.35803 903.12164
909.0 0.001100 871.20380 901.23151
913.0 0.001095 871.04944 899.51062
888.0 0.001126 870.89502 897.94586
878.0 0.001139 870.74054 896.52356
922.0 0.001085 870.58606 895.23022
900.0 0.001111 870.43146 894.05200
904.0 0.001106 870.27692 892.97614
875.0 0.001143 870.12238 891.99060
886.0 0.001129 869.96771 891.08429
884.0 0.001131 869.81305 890.24664
893.0 0.001120 869.65857 889.46960
869.0 0.001151 869.50397 888.74408
865.0 0.001156 869.34937 888.06323
932.0 0.001073 869.19482 887.42114
909.0 0.001100 869.04028 886.81274
905.0 0.001105 868.88580 886.23340
893.0 0.001120 868.73145 885.67963
885.0 0.001130 868.57721 885.14819
886.0 0.001129 868.42291 884.63635
857.0 0.001167 868.26868 884.14209
902.0 0.001109 868.11469 883.66376
928.0 0.001078 867.96063 885.42706
891.0 0.001122 867.80670 884.98987
843.0 0.001186 867.65289 884.56470
888.0 0.001126 867.49921 884.15063
917.0 0.001091 867.34570 883.74695
909.0 0.001100 867.19232 883.35284
908.0 0.001101 867.03906 882.96771
928.0 0.001078 866.88599 882.59137
879.0 0.001138 866.73303 882.22284
876.0 0.001142 866.58020 881.86188
912.0 0.001096 866.42767 882.61823
905.0 0.001105 866.27539 882.27856
899.0 0.001112 866.12317 881.94556
917.0 0.001091 865.97113 881.61865
866.0 0.001155 865.81934 881.29810
902.0 0.001109 865.66779 880.98334
894.0 0.001119 865.51642 880.67395
900.0 0.001111 865.36530 880.37006
909.0 0.001100 865.21442 880.07141
843.0 0.001186 865.06378 879.77771
884.0 0.001131 864.91339 879.48883
849.0 0.001178 864.76343 879.20459
860.0 0.001163 864.61359 878.92487
860.0 0.001163 864.46405 878.64935
850.0 0.001176 864.31476 878.37811
842.0 0.001188 864.16583 878.11096
860.0 0.001163 864.01715 877.84766
884.0 0.001131 863.86884 877.58838
877.0 0.001140 863.72076 877.33264
864.0 0.001157 863.57306 877.08063
891.0 0.001122 863.42572 876.83240
809.0 0.001236 863.27875 876.58728
850.0 0.001176 863.13214 876.34583
893.0 0.001120 862.98578 876.10742
835.0 0.001198 862.83984 875.87244
866.0 0.001155 862.69421 875.64044
834.0 0.001199 862.54901 875.41144
841.0 0.001189 862.40411 875.18567
886.0 0.001129 862.25983 874.96289
869.0 0.001151 862.11572 874.74280
932.0 0.001073 861.97211 874.52570
859.0 0.001164 861.82892 874.31146
812.0 0.001232 861.68616 874.09985
830.0 0.001205 861.54382 873.89099
856.0 0.001168 861.40192 873.68463
834.0 0.001199 861.26044 873.48114
879.0 0.001138 861.11945 873.28015
868.0 0.001152 860.97888 873.08173
843.0 0.001186 860.83868 872.88562
876.0 0.001142 860.69910 872.69220
875.0 0.001143 860.55994 872.50110
866.0 0.001155 860.42133 872.31256
859.0 0.001164 860.28308 872.12634
882.0 0.001134 860.14532 871.94232
852.0 0.001174 860.00818 871.76086
867.0 0.001153 859.87152 871.58160
861.0 0.001161 859.73541 871.40472
891.0 0.001122 859.59973 871.22992
877.0 0.001140 859.46460 871.05750
898.0 0.001114 859.33002 870.88727
880.0 0.001136 859.19598 870.71924
875.0 0.001143 859.06250 870.55334
904.0 0.001106 858.92963 870.38977
950.0 0.001053 858.79724 870.22827
925.0 0.001081 858.66541 870.06885
887.0 0.001127 858.53418 869.91162
908.0 0.001101 858.40356 869.75665
834.0 0.001199 858.27350 869.60364
850.0 0.001176 858.14404 869.45270
811.0 0.001233 858.01514 869.30396
859.0 0.001164 857.88684 869.15723
872.0 0.001147 857.75916 869.01251
886.0 0.001129 857.63208 868.87000
919.0 0.001088 857.50562 868.72955
850.0 0.001176 857.37982 868.59100
952.0 0.001050 857.25458 868.45459
830.0 0.001205 857.13007 868.32025
913.0 0.001095 857.00610 868.18793
782.0 0.001279 856.88287 868.05774
886.0 0.001129 856.76025 867.92944
836.0 0.001196 856.63824 867.80328
899.0 0.001112 856.51703 867.67926
837.0 0.001195 856.39636 867.55707
836.0 0.001196 856.27637 867.43695
880.0 0.001136 856.15710 867.31897
872.0 0.001147 856.03851 867.20294
858.0 0.001166 855.92059 867.08899
866.0 0.001155 855.80334 866.97705
812.0 0.001232 855.68677 866.86700
799.0 0.001252 855.57098 866.75916
828.0 0.001208 855.45587 866.65350
850.0 0.001176 855.34149 866.54974
788.0 0.001269 855.22772 866.44794
851.0 0.001175 855.11481 866.34845
842.0 0.001188 855.00256 866.25098
907.0 0.001103 854.89099 866.15546
794.0 0.001259 854.78015 866.06189
910.0 0.001099 854.67010 865.97070
888.0 0.001126 854.56079 865.88159
886.0 0.001129 854.45227 865.79443
871.0 0.001148 854.34442 865.70959
850.0 0.001176 854.23730 865.62671
866.0 0.001155 854.13104 865.54608
824.0 0.001214 854.02551 865.46741
831.0 0.001203 853.92065 865.39099
849.0 0.001178 853.81671 865.31683
856.0 0.001168 853.71344 865.24475
821.0 0.001218 853.61096 865.17493
848.0 0.001179 853.50928 865.10724
871.0 0.001148 853.40833 865.04175
884.0 0.001131 853.30823 864.97870
863.0 0.001159 853.20892 864.91779
842.0 0.001188 853.11041 864.85907
869.0 0.001151 853.01257 864.80261
883.0 0.001133 852.91571 864.74866
854.0 0.001171 852.81958 864.69690
928.0 0.001078 852.72424 864.64740
913.0 0.001095 852.62964 864.60034
857.0 0.001167 852.53601 864.55566
924.0 0.001082 852.44305 864.51337
822.0 0.001217 852.35095 864.47339
863.0 0.001159 852.25970 864.43604
857.0 0.001167 852.16925 864.40094
820.0 0.001220 852.07965 864.36841
924.0 0.001082 851.99091 864.33856
901.0 0.001110 851.90295 862.05371
848.0 0.001179 851.81580 862.04584
880.0 0.001136 851.72949 862.04016
889.0 0.001125 851.64404 862.03711
822.0 0.001217 851.55945 862.03632
859.0 0.001164 851.47565 862.03815
843.0 0.001186 851.39264 862.04230
836.0 0.001196 851.31061 862.04913
852.0 0.001174 851.22937 862.05841
853.0 0.001172 851.14899 860.94495
885.0 0.001130 851.06946 860.96808
824.0 0.001214 850.99078 860.99371
835.0 0.001198 850.91296 861.02203
920.0 0.001087 850.83594 861.05286
861.0 0.001161 850.75983 861.08661
819.0 0.001221 850.68451 861.12286
811.0 0.001233 850.61017 861.16193
839.0 0.001192 850.53662 861.20392
849.0 0.001178 850.46387 861.24860
901.0 0.001110 850.39209 861.29645
871.0 0.001148 850.32117 861.34717
890.0 0.001124 850.25110 861.40076
882.0 0.001134 850.18188 861.45752
899.0 0.001112 850.11346 861.51727
896.0 0.001116 850.04602 861.58032
868.0 0.001152 849.97943 861.64648
846.0 0.001182 849.91364 861.71588
922.0 0.001085 849.84875 861.78864
893.0 0.001120 849.78473 861.86475
845.0 0.001183 849.72162 861.94434
896.0 0.001116 849.65936 862.02753
821.0 0.001218 849.59796 862.11401
847.0 0.001181 849.53741 862.20428
805.0 0.001242 849.47778 862.29822
861.0 0.001161 849.41901 862.39594
919.0 0.001088 849.36108 862.49750
857.0 0.001167 849.30408 862.60303
824.0 0.001214 849.24792 862.71246
877.0 0.001140 849.19263 862.82593
869.0 0.001151 849.13818 862.94354
863.0 0.001159 849.08459 863.06543
885.0 0.001130 849.03192 863.19159
894.0 0.001119 848.98016 863.32220
851.0 0.001175 848.92920 863.45728
857.0 0.001167 848.87915 863.59692
869.0 0.001151 848.82983 863.74127
883.0 0.001133 848.78156 863.89038
812.0 0.001232 848.73407 864.04443
898.0 0.001114 848.68744 864.20331
914.0 0.001094 848.64172 864.36737
913.0 0.001095 848.59680 864.53680
907.0 0.001103 848.55280 864.71136
844.0 0.001185 848.50964 864.89160
858.0 0.001166 848.46735 865.07721
850.0 0.001176 848.42590 865.26868
862.0 0.001160 848.38538 865.46594
852.0 0.001174 848.34558 865.66919
868.0 0.001152 848.30670 865.87854
916.0 0.001092 848.26874 866.09430
893.0 0.001120 848.23151 866.31647
885.0 0.001130 848.19519 866.54517
870.0 0.001149 848.15973 866.78076
875.0 0.001143 848.12506 867.02319
886.0 0.001129 848.09131 867.27283
859.0 0.001164 848.05841 867.52979
932.0 0.001073 848.02625 867.79425
865.0 0.001156 847.99500 868.06635
914.0 0.001094 847.96454 868.34644
893.0 0.001120 847.93488 868.63477
933.0 0.001072 847.90613 868.93146
920.0 0.001087 847.87823 869.23682
880.0 0.001136 847.85107 869.55103
863.0 0.001159 847.82477 869.87415
904.0 0.001106 847.79926 870.20679
884.0 0.001131 847.77460 870.54907
871.0 0.001148 847.75079 870.90131
932.0 0.001073 847.72772 871.26385
851.0 0.001175 847.70551 871.63696
872.0 0.001147 847.68402 872.02087
908.0 0.001101 847.66339 872.41620
941.0 0.001063 847.64362 872.82294
876.0 0.001142 847.62451 873.24170
861.0 0.001161 847.60626 873.67279
901.0 0.001110 847.58887 874.11664
884.0 0.001131 847.57220 874.57373
907.0 0.001103 847.55627 875.04431
820.0 0.001220 847.54120 875.52911
849.0 0.001178 847.52679 876.02850
836.0 0.001196 847.51331 876.54291
879.0 0.001138 847.50049 877.07288
879.0 0.001138 847.48840 877.61908
888.0 0.001126 847.47717 878.18188
911.0 0.001098 847.46667 878.76233
888.0 0.001126 847.45691 879.31726
852.0 0.001174 847.44788 879.93445
871.0 0.001148 847.43958 880.57098
852.0 0.001174 847.43207 881.22760
834.0 0.001199 847.42529 881.90515
903.0 0.001107 847.41919 882.60425
971.0 0.001030 847.41382 883.32593
856.0 0.001168 847.40918 884.07098
874.0 0.001144 847.40533 884.84052
881.0 0.001135 847.40210 885.63531
885.0 0.001130 847.39966 886.43506
874.0 0.001144 847.39789 887.28400
923.0 0.001083 847.39679 888.16162
974.0 0.001027 847.39642 889.06921
922.0 0.001085 847.39673 890.00793
947.0 0.001056 847.39764 892.04651
908.0 0.001101 847.39935 893.05811
906.0 0.001104 847.40173 894.10529
913.0 0.001095 847.40472 895.18982
930.0 0.001075 847.40845 896.31323
930.0 0.001075 847.41278 897.47778
883.0 0.001133 847.41779 898.68408
903.0 0.001107 847.42340 899.93579
907.0 0.001103 847.42963 901.23438
902.0 0.001109 847.43658 902.58234
877.0 0.001140 847.44409 903.98187
917.0 0.001091 847.45233 905.96783
945.0 0.001058 847.46112 907.48187
931.0 0.001074 847.47052 909.05597
913.0 0.001095 847.48053 910.69336
928.0 0.001078 847.49121 912.39740
958.0 0.001044 847.50244 914.17114
942.0 0.001062 847.51428 916.01923
976.0 0.001025 847.52667 917.94568
895.0 0.001117 847.53967 919.95447
899.0 0.001112 847.55322 922.05066
948.0 0.001055 847.56732 924.23889
958.0 0.001044 847.58203 926.52515
896.0 0.001116 847.59723 928.91492
920.0 0.001087 847.61310 931.41449
945.0 0.001058 847.62946 934.03070
933.0 0.001072 847.64630 936.77148
975.0 0.001026 847.66370 939.64191
983.0 0.001017 847.68164 942.65405
930.0 0.001075 847.70013 945.81604
970.0 0.001031 847.71899 949.13751
947.0 0.001056 847.73859 952.62994
908.0 0.001101 847.75854 956.30524
910.0 0.001099 847.77893 960.17664
937.0 0.001067 847.79993 964.25909
991.0 0.001009 847.82135 968.56903
975.0 0.001026 847.84326 973.12488
1010.0 0.000990 847.86560 977.94623
999.0 0.001001 847.88843 983.05939
988.0 0.001012 847.91168 988.49036
1053.0 0.000950 847.93536 994.27118
984.0 0.001016 847.95953 1000.43860
1051.0 0.000951 847.98413 1007.03650
1002.0 0.000998 848.00909 1014.11633
1005.0 0.000995 848.03448 1021.73962
1111.0 0.000900 848.06036 1029.97998
1094.0 0.000914 848.08661 1038.92517
1026.0 0.000975 848.11322 1048.68262
1074.0 0.000931 848.14014 1059.36731
1120.0 0.000893 848.16754 1071.14185
1149.0 0.000870 848.19531 1084.17749
1121.0 0.000892 848.22345 1098.68396
1155.0 0.000866 848.25195 1114.90381
1159.0 0.000863 848.28076 1133.12146
1154.0 0.000867 848.30994 1153.66223
1277.0 0.000783 848.33942 1176.89685
1269.0 0.000788 848.36926 1203.24280
1269.0 0.000788 848.39948 1233.16406
1324.0 0.000755 848.42981 1267.16052
1395.0 0.000717 848.46063 1305.79968
1374.0 0.000728 848.49170 1349.65918
1426.0 0.000701 848.52307 1399.35120
1455.0 0.000687 848.55469 1455.50378
1521.0 0.000657 848.58661 1518.74463
1566.0 0.000639 848.61877 1589.68677
1672.0 0.000598 848.65118 1668.90637
1659.0 0.000603 848.68390 1756.92212
1813.0 0.000552 848.71680 1854.19348
1935.0 0.000517 848.74994 1960.94312
1961.0 0.000510 848.78326 2077.48047
2172.0 0.000460 848.81689 2203.76440
2246.0 0.000445 848.85071 2339.58716
2394.0 0.000418 848.88470 2484.48193
2605.0 0.000384 848.91895 2637.66821
2789.0 0.000359 848.95331 2797.99170
2892.0 0.0003458 848.98785 2963.85669
3179.0 0.0003146 849.02258 3133.15894
3304.0 0.0003027 849.05743 3303.23291
3532.0 0.0002831 849.09253 3470.83252
3810.0 0.0002625 849.12775 3632.13989
3836.0 0.0002607 849.16302 3783.06079
4151.0 0.0002409 849.19849 3919.24219
4226.0 0.0002366 849.23401 4036.59473
4433.0 0.0002256 849.26971 4131.66895
4271.0 0.0002341 849.30554 4202.03857
4405.0 0.0002270 849.34137 4246.54492
4323.0 0.0002313 849.37732 4265.32764
4331.0 0.0002309 849.41339 4259.61914
4049.0 0.0002470 849.44952 4231.37158
4014.0 0.0002491 849.48566 4182.88965
3912.0 0.0002556 849.52191 4116.32373
3832.0 0.0002610 849.55817 4033.61475
3862.0 0.0002589 849.59448 3936.35840
3731.0 0.0002680 849.63080 3825.92529
3633.0 0.0002753 849.66711 3703.65356
3334.0 0.0002999 849.70355 3571.04639
3227.0 0.0003099 849.73993 3429.90088
3038.0 0.0003292 849.77625 3282.33667
2835.0 0.000353 849.81262 3130.71436
2752.0 0.000363 849.84888 2977.48120
2541.0 0.000394 849.88519 2825.04272
2466.0 0.000406 849.92145 2675.46362
2349.0 0.000426 849.95764 2530.59766
2275.0 0.000440 849.99377 2391.89063
2135.0 0.000468 850.02979 2260.41895
2078.0 0.000481 850.06580 2136.91675
1933.0 0.000517 850.10168 2021.82336
1864.0 0.000536 850.13757 1915.32837
1709.0 0.000585 850.17328 1817.42090
1675.0 0.000597 850.20886 1727.91199
1587.0 0.000630 850.24432 1646.59338
1558.0 0.000642 850.27972 1572.98242
1536.0 0.000651 850.31494 1506.67590
1490.0 0.000671 850.35004 1447.18579
1467.0 0.000682 850.38495 1393.99915
1414.0 0.000707 850.41968 1346.59155
1324.0 0.000755 850.45435 1304.44116
1312.0 0.000762 850.48877 1267.03796
1233.0 0.000811 850.52301 1233.89136
1284.0 0.000779 850.55707 1204.53699
1221.0 0.000819 850.59088 1178.54089
1109.0 0.000902 850.62451 1155.50781
1214.0 0.000824 850.65796 1135.06152
1090.0 0.000917 850.69110 1116.87805
1175.0 0.000851 850.72400 1100.66260
1179.0 0.000848 850.75677 1086.15503
1090.0 0.000917 850.78918 1073.12610
1121.0 0.000892 850.82129 1061.37671
1049.0 0.000953 850.85321 1050.73474
1017.0 0.000983 850.88483 1041.05310
1047.0 0.000955 850.91620 1032.20300
1025.0 0.000976 850.94720 1024.08582
973.0 0.001028 850.97791 1016.60010
1037.0 0.000964 851.00830 1009.67340
1018.0 0.000982 851.03845 1003.24097
1005.0 0.000995 851.06818 997.24780
975.0 0.001026 851.09760 991.64752
948.0 0.001055 851.12671 986.40063
1024.0 0.000977 851.15533 981.47321
976.0 0.001025 851.18378 976.83667
946.0 0.001057 851.21173 972.46588
985.0 0.001015 851.23926 968.33966
945.0 0.001058 851.26648 964.43744
957.0 0.001045 851.29327 960.74298
977.0 0.001024 851.31970 957.24139
966.0 0.001035 851.34564 953.91901
936.0 0.001068 851.37122 950.76404
1023.0 0.000978 851.39636 947.76532
935.0 0.001070 851.42108 944.91260
887.0 0.001127 851.44531 942.19684
953.0 0.001049 851.46906 939.60968
956.0 0.001046 851.49243 937.14270
965.0 0.001036 851.51526 934.79102
946.0 0.001057 851.53760 932.54541
902.0 0.001109 851.55945 930.40063
893.0 0.001120 851.58081 928.35095
899.0 0.001112 851.60181 926.39117
979.0 0.001021 851.62213 924.51630
941.0 0.001063 851.64191 922.72174
852.0 0.001174 851.66125 921.00336
906.0 0.001104 851.68005 919.35706
899.0 0.001112 851.69836 917.77905
945.0 0.001058 851.71600 916.26624
879.0 0.001138 851.73315 914.81458
929.0 0.001076 851.74969 913.42133
957.0 0.001045 851.76569 912.08368
869.0 0.001151 851.78107 910.79883
939.0 0.001065 851.79590 909.56451
825.0 0.001212 851.81012 908.37805
847.0 0.001181 851.82373 907.23718
903.0 0.001107 851.83679 906.13995
827.0 0.001209 851.84912 905.08447
892.0 0.001121 851.86084 904.06842
903.0 0.001107 851.87195 903.09106
929.0 0.001076 851.88245 902.14954
875.0 0.001143 851.89233 901.24286
936.0 0.001068 851.90149 900.36926
915.0 0.001093 851.90997 899.52765
939.0 0.001065 851.91785 898.71661
879.0 0.001138 851.92499 897.93481
908.0 0.001101 851.93146 897.18097
900.0 0.001111 851.93726 896.45435
955.0 0.001047 851.94232 895.75342
884.0 0.001131 851.94672 895.07770
894.0 0.001119 851.95038 894.42572
870.0 0.001149 851.95325 893.79688
930.0 0.001075 851.95551 893.19006
897.0 0.001115 851.95697 892.60492
848.0 0.001179 851.95770 892.04016
884.0 0.001131 851.95770 891.49542
906.0 0.001104 851.95697 890.96997
928.0 0.001078 851.95544 890.46301
900.0 0.001111 851.95319 889.97394
854.0 0.001171 851.95007 889.50214
867.0 0.001153 851.94623 889.04749
921.0 0.001086 851.94159 888.60889
860.0 0.001163 851.93616 888.18597
926.0 0.001080 851.92993 887.77838
903.0 0.001107 851.92291 887.38568
964.0 0.001037 851.91510 887.00732
887.0 0.001127 851.90637 886.64288
936.0 0.001068 851.89691 886.29218
893.0 0.001120 851.88660 885.95459
841.0 0.001189 851.87549 885.63007
898.0 0.001114 851.86340 885.31805
902.0 0.001109 851.85059 885.01843
860.0 0.001163 851.83691 884.73065
816.0 0.001225 851.82233 884.45465
843.0 0.001186 851.80695 884.19006
908.0 0.001101 851.79065 883.93671
885.0 0.001130 851.77344 883.69440
902.0 0.001109 851.75537 883.46289
906.0 0.001104 851.73651 883.24182
925.0 0.001081 851.71667 883.03119
874.0 0.001144 851.69592 882.83105
925.0 0.001081 851.67426 882.64081
878.0 0.001139 851.65173 882.46051
848.0 0.001179 851.62830 882.29016
918.0 0.001089 851.60388 882.12946
917.0 0.001091 851.57861 881.97833
822.0 0.001217 851.55243 881.83673
837.0 0.001195 851.52521 881.70447
841.0 0.001189 851.49713 881.58173
933.0 0.001072 851.46808 881.46814
895.0 0.001117 851.43811 881.36395
946.0 0.001057 851.40710 881.26892
886.0 0.001129 851.37518 881.18317
873.0 0.001145 851.34241 881.10663
821.0 0.001218 851.30853 881.03918
893.0 0.001120 851.27374 880.98102
852.0 0.001174 851.23798 880.93213
894.0 0.001119 851.20123 880.89246
889.0 0.001125 851.16345 880.86206
915.0 0.001093 851.12476 880.84125
848.0 0.001179 851.08502 880.82965
885.0 0.001130 851.04431 880.82782
872.0 0.001147 851.00262 880.83545
881.0 0.001135 850.95990 880.85309
893.0 0.001120 850.91620 880.88049
859.0 0.001164 850.87146 880.91785
891.0 0.001122 850.82568 880.96545
818.0 0.001222 850.77893 881.02344
873.0 0.001145 850.73120 881.09204
823.0 0.001215 850.68237 881.17133
878.0 0.001139 850.63251 881.26154
877.0 0.001140 850.58167 881.36310
859.0 0.001164 850.52979 881.47589
889.0 0.001125 850.47681 881.60052
871.0 0.001148 850.42285 881.73730
888.0 0.001126 850.36786 881.88641
868.0 0.001152 850.31177 882.04816
930.0 0.001075 850.25464 882.22272
904.0 0.001106 850.19647 882.41101
984.0 0.001016 850.13727 882.61304
872.0 0.001147 850.07703 882.82947
924.0 0.001082 850.01569 883.06055
848.0 0.001179 849.95337 883.30652
871.0 0.001148 849.88983 883.56854
896.0 0.001116 849.82538 883.84680
859.0 0.001164 849.75977 884.14203
868.0 0.001152 849.69305 884.45453
897.0 0.001115 849.62537 884.78552
899.0 0.001112 849.55652 885.13513
906.0 0.001104 849.48669 885.50452
935.0 0.001070 849.41571 885.89435
845.0 0.001183 849.34375 886.30548
867.0 0.001153 849.27063 886.73865
895.0 0.001117 849.19647 887.19507
896.0 0.001116 849.12115 887.67566
889.0 0.001125 849.04480 888.18152
934.0 0.001071 848.96735 888.71387
879.0 0.001138 848.88879 889.27368
893.0 0.001120 848.80920 889.86249
880.0 0.001136 848.72852 890.48175
867.0 0.001153 848.64667 891.13263
915.0 0.001093 848.56378 891.81714
922.0 0.001085 848.47986 892.53680
873.0 0.001145 848.39478 893.29285
887.0 0.001127 848.30859 894.08807
873.0 0.001145 848.22137 894.92426
889.0 0.001125 848.13306 895.80365
878.0 0.001139 848.04358 896.72839
872.0 0.001147 847.95300 897.70123
897.0 0.001115 847.86139 898.72485
920.0 0.001087 847.76874 899.80225
911.0 0.001098 847.67487 900.93658
904.0 0.001106 847.57996 902.13116
884.0 0.001131 847.48395 903.38947
895.0 0.001117 847.38684 904.71613
927.0 0.001079 847.28870 906.11530
860.0 0.001163 847.18939 907.59180
916.0 0.001092 847.08905 909.15100
965.0 0.001036 846.98761 910.79871
972.0 0.001029 846.88507 912.54138
894.0 0.001119 846.78137 914.38629
934.0 0.001071 846.67664 916.34198
947.0 0.001056 846.57074 918.41748
909.0 0.001100 846.46387 920.62427
957.0 0.001045 846.35590 922.97241
976.0 0.001025 846.24683 925.47906
892.0 0.001121 846.13666 928.15961
991.0 0.001009 846.02533 931.03363
1014.0 0.000986 845.91309 934.12415
974.0 0.001027 845.79968 937.45782
960.0 0.001042 845.68524 941.06659
949.0 0.001054 845.56964 944.98804
1013.0 0.000987 845.45300 949.26581
1006.0 0.000994 845.33527 953.95172
969.0 0.001032 845.21655 959.10522
943.0 0.001060 845.09674 964.79895
1015.0 0.000985 844.97583 971.11298
991.0 0.001009 844.85382 978.14111
1048.0 0.000954 844.73077 985.99054
1029.0 0.000972 844.60669 994.78210
1042.0 0.000960 844.48157 1004.65247
1068.0 0.000936 844.35535 1015.75269
1019.0 0.000981 844.22815 1028.25000
1029.0 0.000972 844.09979 1042.32593
1030.0 0.000971 843.97046 1058.18030
1093.0 0.000915 843.84009 1076.00378
1122.0 0.000891 843.70868 1096.03528
1118.0 0.000894 843.57623 1118.49072
1141.0 0.000876 843.44269 1143.59753
1179.0 0.000848 843.30817 1171.58130
1199.0 0.000834 843.17267 1202.66040
1219.0 0.000820 843.03607 1237.04004
1266.0 0.000790 842.89844 1274.90576
1283.0 0.000779 842.75989 1316.41467
1353.0 0.000739 842.62024 1361.68884
1428.0 0.000700 842.47968 1410.79419
1481.0 0.000675 842.33795 1463.77734
1460.0 0.000685 842.19531 1520.58630
1514.0 0.000661 842.05170 1581.10120
1546.0 0.000647 841.90704 1645.11292
1591.0 0.000629 841.76147 1712.30408
1675.0 0.000597 841.61487 1782.23218
1794.0 0.000557 841.46735 1854.31091
1879.0 0.000532 841.31879 1927.78979
2031.0 0.000492 841.16919 2001.75842
2104.0 0.000475 841.01880 2075.03076
2096.0 0.000477 840.86731 2146.40601
2242.0 0.000446 840.71490 2214.41016
2295.0 0.000436 840.56158 2277.52148
2424.0 0.000413 840.40723 2334.21997
2346.0 0.000426 840.25201 2383.10718
2393.0 0.000418 840.09583 2423.02222
2439.0 0.000410 839.93866 2453.15161
2394.0 0.000418 839.78064 2473.09033
2420.0 0.000413 839.62170 2482.85181
2403.0 0.000416 839.46179 2482.80981
2450.0 0.000408 839.30109 2473.60327
2369.0 0.000422 839.13934 2456.00220
2365.0 0.000423 838.97675 2430.80688
2208.0 0.000453 838.81329 2398.75708
2211.0 0.000452 838.64893 2360.49463
2159.0 0.000463 838.48364 2316.56665
2088.0 0.000479 838.31750 2267.46753
2044.0 0.000489 838.15045 2213.69287
2018.0 0.000496 837.98267 2155.79736
1965.0 0.000509 837.81384 2094.41406
1824.0 0.000548 837.64435 2030.35608
1766.0 0.000566 837.47400 1964.38000
1691.0 0.000591 837.30273 1897.39221
1663.0 0.000601 837.13062 1830.26208
1616.0 0.000619 836.95770 1763.80493
1532.0 0.000653 836.78394 1698.74585
1527.0 0.000655 836.60938 1635.69885
1496.0 0.000668 836.43402 1575.15588
1403.0 0.000713 836.25787 1517.49170
1385.0 0.000722 836.08093 1462.97083
1265.0 0.000791 835.90326 1411.76111
1296.0 0.000772 835.72479 1363.95886
1259.0 0.000794 835.54547 1319.55774
1233.0 0.000811 835.36548 1278.53015
1197.0 0.000835 835.18463 1240.79297
1153.0 0.000867 835.00311 1206.22754
1154.0 0.000867 834.82086 1174.68921
1177.0 0.000850 834.63782 1146.01404
1139.0 0.000878 834.45404 1120.02502
1156.0 0.000865 834.26959 1096.53711
1047.0 0.000955 834.08441 1075.35657
1060.0 0.000943 833.89862 1056.31421
1048.0 0.000954 833.71198 1039.20044
1023.0 0.000978 833.52472 1023.84570
991.0 0.001009 833.33685 1010.07813
1011.0 0.000989 833.14825 997.73505
998.0 0.001002 832.95898 986.66443
1021.0 0.000979 832.76898 976.72559
938.0 0.001066 832.57843 967.78925
927.0 0.001079 832.38721 959.73779
964.0 0.001037 832.19537 952.46521
979.0 0.001021 832.00281 945.87671
971.0 0.001030 831.80988 939.88940
920.0 0.001087 831.61615 934.42590
938.0 0.001066 831.42181 929.42273
877.0 0.001140 831.22705 924.82269
872.0 0.001147 831.03156 920.57678
916.0 0.001092 830.83557 917.17487
918.0 0.001089 830.63898 913.51758
893.0 0.001120 830.44177 910.10333
950.0 0.001053 830.24408 906.90509
878.0 0.001139 830.04584 901.67908
932.0 0.001073 829.84717 898.86218
941.0 0.001063 829.64789 896.19977
883.0 0.001133 829.44812 893.67853
914.0 0.001094 829.24780 891.28583
886.0 0.001129 829.04706 889.01062
893.0 0.001120 828.84583 886.84338
835.0 0.001198 828.64410 884.77570
871.0 0.001148 828.44189 882.80017
928.0 0.001078 828.23932 881.17645
879.0 0.001138 828.03625 878.25476
911.0 0.001098 827.83276 876.52759
897.0 0.001115 827.62885 874.86963
836.0 0.001196 827.42450 873.27673
871.0 0.001148 827.21973 871.74512
849.0 0.001178 827.01447 870.27106
838.0 0.001193 826.80896 868.85132
841.0 0.001189 826.60315 867.48285
861.0 0.001161 826.39685 866.16254
870.0 0.001149 826.19019 864.88788
822.0 0.001217 825.98322 863.65637
859.0 0.001164 825.77576 862.46564
954.0 0.001048 825.56830 861.31433
862.0 0.001160 825.36023 860.19910
864.0 0.001157 825.15198 859.11884
838.0 0.001193 824.94342 858.07172
942.0 0.001062 824.73450 857.05585
864.0 0.001157 824.52533 856.07001
833.0 0.001200 824.31604 855.11285
846.0 0.001182 824.10638 854.18250
855.0 0.001170 823.89648 853.27808
826.0 0.001211 823.68634 852.39807
824.0 0.001214 823.47595 851.54187
858.0 0.001166 823.26532 850.70770
884.0 0.001131 823.05457 849.89496
862.0 0.001160 822.84357 849.10272
911.0 0.001098 822.63239 848.32990
895.0 0.001117 822.42102 847.57574
871.0 0.001148 822.20953 846.83954
826.0 0.001211 821.99786 846.12024
865.0 0.001156 821.78607 845.41754
834.0 0.001199 821.57410 844.73041
830.0 0.001205 821.36200 844.05817
878.0 0.001139 821.14996 843.40094
825.0 0.001212 820.93768 842.75708
794.0 0.001259 820.72528 842.12653
853.0 0.001172 820.51282 841.50891
828.0 0.001208 820.30029 840.90350
785.0 0.001274 820.08777 840.30988
794.0 0.001259 819.87512 839.72766
856.0 0.001168 819.66241 839.15625
909.0 0.001100 819.44977 838.59540
856.0 0.001168 819.23706 838.04474
887.0 0.001127 819.02435 837.50403
809.0 0.001236 818.81177 836.97272
778.0 0.001285 818.59906 836.45038
840.0 0.001190 818.38635 835.93677
882.0 0.001134 818.17371 835.43158
833.0 0.001200 817.96112 834.93463
852.0 0.001174 817.74860 834.44562
876.0 0.001142 817.53613 833.96429
803.0 0.001245 817.32373 833.49036
783.0 0.001277 817.11157 833.02356
770.0 0.001299 816.89929 832.56366
784.0 0.001276 816.68732 832.11066
814.0 0.001228 816.47546 831.66412
867.0 0.001153 816.26361 831.22375
871.0 0.001148 816.05194 830.78955
859.0 0.001164 815.84039 830.36115
824.0 0.001214 815.62909 829.93860
812.0 0.001232 815.41791 829.52167
798.0 0.001253 815.20691 829.11017
798.0 0.001253 814.99615 828.70392
809.0 0.001236 814.78564 828.30273
834.0 0.001199 814.57532 827.90662
824.0 0.001214 814.36517 827.51532
803.0 0.001245 814.15527 827.12885
880.0 0.001136 813.94574 826.74695
848.0 0.001179 813.73639 826.36938
806.0 0.001241 813.52734 825.99628
824.0 0.001214 813.31854 825.62756
812.0 0.001232 813.10999 825.26276
883.0 0.001133 812.90179 824.90216
862.0 0.001160 812.69391 824.54559
847.0 0.001181 812.48639 824.19299
835.0 0.001198 812.27917 823.84387
838.0 0.001193 812.07227 823.49866
784.0 0.001276 811.86578 823.15692
873.0 0.001145 811.65973 822.81885
879.0 0.001138 811.45392 822.48413
832.0 0.001202 811.24854 822.15277
810.0 0.001235 811.04358 821.82483
863.0 0.001159 810.83899 821.50018
836.0 0.001196 810.63483 821.17871
844.0 0.001185 810.43115 820.86035
825.0 0.001212 810.22791 820.54504
829.0 0.001206 810.02515 820.23273
829.0 0.001206 809.82281 819.92352
831.0 0.001203 809.62085 819.61700
841.0 0.001189 809.41956 819.31360
770.0 0.001299 809.21857 819.01288
790.0 0.001266 809.01819 818.71490
833.0 0.001200 808.81830 818.41968
844.0 0.001185 808.61890 818.12720
819.0 0.001221 808.41998 817.83716
801.0 0.001248 808.22186 817.55017
824.0 0.001214 808.02411 817.26550
811.0 0.001233 807.82697 816.98328
803.0 0.001245 807.63037 816.70374
791.0 0.001264 807.43433 816.42639
771.0 0.001297 807.23883 816.15149
827.0 0.001209 807.04413 815.87946
805.0 0.001242 806.84985 815.60931
855.0 0.001170 806.65631 815.34180
834.0 0.001199 806.46332 815.07648
858.0 0.001166 806.27100 814.81360
806.0 0.001241 806.07941 814.55286
877.0 0.001140 805.88837 814.29437
821.0 0.001218 805.69800 814.03802
815.0 0.001227 805.50836 813.78412
894.0 0.001119 805.31934 813.53223
837.0 0.001195 805.13104 813.28253
836.0 0.001196 804.94360 813.03516
847.0 0.001181 804.75665 812.78955
851.0 0.001175 804.57056 812.54645
842.0 0.001188 804.38525 812.30530
825.0 0.001212 804.20056 812.06628
814.0 0.001228 804.01666 811.82928
846.0 0.001182 803.83350 811.59424
830.0 0.001205 803.65112 811.36127
793.0 0.001261 803.46948 811.13037
847.0 0.001181 803.28870 810.90155
782.0 0.001279 803.10864 810.67468
875.0 0.001143 802.92950 810.44989
785.0 0.001274 802.75116 810.22711
841.0 0.001189 802.57349 810.00604
892.0 0.001121 802.39673 809.78723
812.0 0.001232 802.22076 809.57019
850.0 0.001176 802.04572 809.35510
780.0 0.001282 801.87146 809.14215
810.0 0.001235 801.69812 808.93103
830.0 0.001205 801.52582 808.72198
843.0 0.001186 801.35413 808.51477
841.0 0.001189 801.18335 808.30939
802.0 0.001247 801.01355 808.10596
824.0 0.001214 800.84460 807.90436
813.0 0.001230 800.67657 807.70465
797.0 0.001255 800.50940 807.50708
859.0 0.001164 800.34326 807.31140
786.0 0.001272 800.17804 807.11737
835.0 0.001198 800.01367 806.92542
818.0 0.001222 799.85034 806.73541
804.0 0.001244 799.68781 806.54700
787.0 0.001271 799.52637 806.36078
888.0 0.001126 799.36578 806.17627
823.0 0.001215 799.20630 805.99377
808.0 0.001238 799.04779 805.81305
789.0 0.001267 798.89020 805.63440
818.0 0.001222 798.73358 805.45746
815.0 0.001227 798.57806 805.28247
837.0 0.001195 798.42346 805.10938
827.0 0.001209 798.26978 804.93805
793.0 0.001261 798.11725 804.76874
783.0 0.001277 797.96582 804.60138
800.0 0.001250 797.81537 804.43597
785.0 0.001274 797.66589 804.27222
802.0 0.001247 797.51746 804.11041
818.0 0.001222 797.37006 803.95062
840.0 0.001190 797.22375 803.79266
846.0 0.001182 797.07843 803.63654
796.0 0.001256 796.93427 803.48260
850.0 0.001176 796.79114 803.33038
861.0 0.001161 796.64911 803.18005
838.0 0.001193 796.50812 803.03168
805.0 0.001242 796.36823 802.88519
767.0 0.001304 796.22943 802.74072
797.0 0.001255 796.09167 802.59814
892.0 0.001121 795.95502 802.45746
832.0 0.001202 795.81952 802.31891
850.0 0.001176 795.68512 802.18219
817.0 0.001224 795.55182 802.04749
818.0 0.001222 795.41968 801.91467
804.0 0.001244 795.28870 801.78394
802.0 0.001247 795.15875 801.65503
765.0 0.001307 795.02997 801.52826
847.0 0.001181 794.90228 801.40338
819.0 0.001221 794.77576 801.28058
797.0 0.001255 794.65039 801.15973
790.0 0.001266 794.52612 801.04102
814.0 0.001228 794.40302 800.92407
804.0 0.001244 794.28107 800.80945
872.0 0.001147 794.16028 800.69666
868.0 0.001152 794.04071 800.58612
800.0 0.001250 793.92224 800.47754
837.0 0.001195 793.80487 800.37115
818.0 0.001222 793.68878 800.26666
833.0 0.001200 793.57379 800.16437
791.0 0.001264 793.46002 800.06421
803.0 0.001245 793.34735 799.96613
841.0 0.001189 793.23590 799.87018
826.0 0.001211 793.12561 799.77643
816.0 0.001225 793.01660 799.68494
805.0 0.001242 792.90869 799.59546
827.0 0.001209 792.80200 799.50830
811.0 0.001233 792.69641 799.42316
851.0 0.001175 792.59210 799.34033
853.0 0.001172 792.48895 799.25977
832.0 0.001202 792.38702 799.18146
748.0 0.001337 792.28625 799.10535
787.0 0.001271 792.18665 799.03156
770.0 0.001299 792.08832 798.96008
734.0 0.001362 791.99103 798.89087
805.0 0.001242 791.89502 798.82397
803.0 0.001245 791.80023 798.75946
849.0 0.001178 791.70667 798.69733
802.0 0.001247 791.61426 798.63757
774.0 0.001292 791.52313 798.58038
771.0 0.001297 791.43311 798.52545
797.0 0.001255 791.34430 799.29034
793.0 0.001261 791.25671 799.24451
833.0 0.001200 791.17029 799.20099
779.0 0.001284 791.08502 799.16016
822.0 0.001217 791.00098 799.12195
807.0 0.001239 790.91821 799.08618
847.0 0.001181 790.83667 799.05334
813.0 0.001230 790.75629 799.02313
801.0 0.001248 790.67706 798.99536
805.0 0.001242 790.59900 798.97046
776.0 0.001289 790.52216 798.94836
759.0 0.001318 790.44647 798.92889
795.0 0.001258 790.37201 798.91229
743.0 0.001346 790.29871 798.89880
766.0 0.001305 790.22668 798.88788
801.0 0.001248 790.15576 799.29053
855.0 0.001170 790.08606 799.28760
791.0 0.001264 790.01752 799.28772
793.0 0.001261 789.95020 799.29095
785.0 0.001274 789.88397 799.29718
778.0 0.001285 789.81897 799.30676
791.0 0.001264 789.75513 799.31946
769.0 0.001300 789.69244 799.33545
781.0 0.001280 789.63098 799.35468
817.0 0.001224 789.57062 799.37726
811.0 0.001233 789.51147 799.40320
823.0 0.001215 789.45343 799.43274
837.0 0.001195 789.39661 799.46588
831.0 0.001203 789.34088 799.50214
771.0 0.001297 789.28625 799.54242
795.0 0.001258 789.23285 799.58636
814.0 0.001228 789.18054 799.63409
815.0 0.001227 789.12939 799.68561
853.0 0.001172 789.07935 799.74121
766.0 0.001305 789.03046 799.80060
808.0 0.001238 788.98273 799.86426
780.0 0.001282 788.93604 799.93195
780.0 0.001282 788.89044 800.00397
817.0 0.001224 788.84601 800.08026
804.0 0.001244 788.80273 800.16107
813.0 0.001230 788.76044 800.24628
792.0 0.001263 788.71936 800.33636
791.0 0.001264 788.67926 800.43103
843.0 0.001186 788.64032 800.53064
807.0 0.001239 788.60242 800.63519
859.0 0.001164 788.56555 800.74481
774.0 0.001292 788.52979 800.85968
795.0 0.001258 788.49506 800.97992
818.0 0.001222 788.46149 801.10559
774.0 0.001292 788.42889 801.23706
826.0 0.001211 788.39734 801.37427
817.0 0.001224 788.36682 801.51746
771.0 0.001297 788.33728 801.67657
774.0 0.001292 788.30878 801.83228
827.0 0.001209 788.28137 801.99432
776.0 0.001289 788.25488 802.16333
772.0 0.001295 788.22943 802.33887
796.0 0.001256 788.20502 802.52185
776.0 0.001289 788.18158 802.71204
826.0 0.001211 788.15906 802.90979
813.0 0.001230 788.13763 803.11536
850.0 0.001176 788.11700 803.32898
868.0 0.001152 788.09735 803.55090
772.0 0.001295 788.07874 803.78149
824.0 0.001214 788.06104 804.02106
762.0 0.001312 788.04431 804.26990
828.0 0.001208 788.02844 804.52826
808.0 0.001238 788.01355 804.80157
827.0 0.001209 787.99951 805.08020
793.0 0.001261 787.98645 805.36957
811.0 0.001233 787.97412 805.66992
809.0 0.001236 787.96283 805.98199
839.0 0.001192 787.95239 806.30621
795.0 0.001258 787.94281 805.57892
871.0 0.001148 787.93402 805.93457
836.0 0.001196 787.92615 806.30383
804.0 0.001244 787.91907 806.68707
762.0 0.001312 787.91290 807.08527
773.0 0.001294 787.90747 807.49878
778.0 0.001285 787.90289 807.92834
771.0 0.001297 787.89899 808.37463
830.0 0.001205 787.89600 808.83844
817.0 0.001224 787.89374 809.32086
792.0 0.001263 787.89227 809.82251
833.0 0.001200 787.89154 809.81116
796.0 0.001256 787.89160 810.35748
830.0 0.001205 787.89240 810.92633
800.0 0.001250 787.89392 811.51862
831.0 0.001203 787.89612 812.13574
870.0 0.001149 787.89905 812.77911
869.0 0.001151 787.90265 813.45032
826.0 0.001211 787.90698 814.15106
815.0 0.001227 787.91199 814.88324
834.0 0.001199 787.91766 815.64856
811.0 0.001233 787.92395 816.44965
761.0 0.001314 787.93085 817.28888
874.0 0.001144 787.93848 818.16882
828.0 0.001208 787.94666 819.09314
815.0 0.001227 787.95544 820.06506
887.0 0.001127 787.96484 821.08887
822.0 0.001217 787.97485 822.16956
895.0 0.001117 787.98541 823.31183
799.0 0.001252 787.99652 824.52258
826.0 0.001211 788.00818 825.80884
855.0 0.001170 788.02039 827.17877
914.0 0.001094 788.03308 828.64166
831.0 0.001203 788.04633 830.20898
802.0 0.001247 788.06006 831.89319
822.0 0.001217 788.07428 833.70856
849.0 0.001178 788.08899 835.67181
892.0 0.001121 788.10413 837.80194
861.0 0.001161 788.11975 840.11914
835.0 0.001198 788.13586 842.65015
879.0 0.001138 788.15222 845.42120
838.0 0.001193 788.16919 848.46271
865.0 0.001156 788.18640 851.80890
899.0 0.001112 788.20410 855.49756
847.0 0.001181 788.22217 859.56976
881.0 0.001135 788.24054 864.07062
843.0 0.001186 788.25934 869.04871
855.0 0.001170 788.27838 874.55621
919.0 0.001088 788.29785 880.64862
849.0 0.001178 788.31750 887.38391
796.0 0.001256 788.33752 894.82281
853.0 0.001172 788.35779 903.02765
937.0 0.001067 788.37836 912.06189
933.0 0.001072 788.39911 921.98865
902.0 0.001109 788.42023 932.87054
971.0 0.001030 788.44147 944.76776
983.0 0.001017 788.46295 957.73749
1019.0 0.000981 788.48468 971.83160
980.0 0.001020 788.50647 987.08820
980.0 0.001020 788.52850 1003.56018
986.0 0.001014 788.55072 1021.26855
1026.0 0.000975 788.57306 1040.22998
1042.0 0.000960 788.59558 1060.44763
1030.0 0.000971 788.61810 1081.90906
1049.0 0.000953 788.64081 1104.58350
1076.0 0.000929 788.66357 1128.41980
1159.0 0.000863 788.68640 1153.34216
1152.0 0.000868 788.70935 1179.24902
1194.0 0.000838 788.73224 1206.00732
1210.0 0.000826 788.75525 1233.45020
1201.0 0.000833 788.77826 1261.37244
1313.0 0.000762 788.80121 1289.52808
1385.0 0.000722 788.82422 1317.62891
1409.0 0.000710 788.84717 1345.34326
1477.0 0.000677 788.87012 1372.30225
1432.0 0.000698 788.89294 1398.10583
1476.0 0.000678 788.91571 1422.33630
1504.0 0.000665 788.93848 1444.57654
1488.0 0.000672 788.96106 1464.43213
1553.0 0.000644 788.98352 1481.55554
1553.0 0.000644 789.00592 1495.66248
1510.0 0.000662 789.02814 1506.57581
1511.0 0.000662 789.05017 1514.19373
1553.0 0.000644 789.07208 1518.51782
1495.0 0.000669 789.09381 1519.63525
1476.0 0.000678 789.11530 1517.69885
1510.0 0.000662 789.13660 1512.90442
1509.0 0.000663 789.15765 1505.46619
1484.0 0.000674 789.17853 1495.59802
1522.0 0.000657 789.19904 1483.49805
1498.0 0.000668 789.21936 1469.34290
1412.0 0.000708 789.23932 1453.29004
1261.0 0.000793 789.25903 1435.48303
1329.0 0.000752 789.27844 1416.06262
1336.0 0.000749 789.29742 1395.17896
1346.0 0.000743 789.31616 1372.99841
1388.0 0.000720 789.33453 1349.71143
1254.0 0.000797 789.35254 1325.53027
1229.0 0.000814 789.37012 1300.68652
1173.0 0.000853 789.38733 1275.42334
1168.0 0.000856 789.40405 1249.99597
1191.0 0.000840 789.42035 1224.61499
1107.0 0.000903 789.43622 1199.51184
1145.0 0.000873 789.45172 1174.88196
1094.0 0.000914 789.46667 1150.89465
1107.0 0.000903 789.48114 1127.69043
1031.0 0.000970 789.49512 1105.38196
1071.0 0.000934 789.50854 1084.05554
1014.0 0.000986 789.52148 1063.77319
1021.0 0.000979 789.53381 1044.57495
1015.0 0.000985 789.54565 1026.48242
955.0 0.001047 789.55688 1009.50092
921.0 0.001086 789.56757 993.62268
977.0 0.001024 789.57764 978.82843
970.0 0.001031 789.58710 965.08997
972.0 0.001029 789.59589 952.37146
967.0 0.001034 789.60406 940.63141
905.0 0.001105 789.61157 929.82397
931.0 0.001074 789.61841 919.89996
905.0 0.001105 789.62463 910.80859
890.0 0.001124 789.63007 902.49701
924.0 0.001082 789.63483 894.91266
901.0 0.001110 789.63885 888.00635
882.0 0.001134 789.64221 881.71985
856.0 0.001168 789.64478 876.00659
895.0 0.001117 789.64661 870.81818
876.0 0.001142 789.64758 866.10876
853.0 0.001172 789.64783 861.83447
888.0 0.001126 789.64722 857.95465
823.0 0.001215 789.64587 854.43042
802.0 0.001247 789.64368 851.22668
843.0 0.001186 789.64069 848.31079
829.0 0.001206 789.63678 845.65247
828.0 0.001208 789.63202 843.22467
831.0 0.001203 789.62640 841.00281
819.0 0.001221 789.61987 838.96448
825.0 0.001212 789.61243 837.08972
869.0 0.001151 789.60413 835.36127
832.0 0.001202 789.59485 833.76276
881.0 0.001135 789.58472 832.28058
828.0 0.001208 789.57355 830.90228
843.0 0.001186 789.56140 829.61725
830.0 0.001205 789.54840 828.41620
800.0 0.001250 789.53430 827.28986
781.0 0.001280 789.51929 826.23163
832.0 0.001202 789.50323 825.23474
812.0 0.001232 789.48621 824.29407
823.0 0.001215 789.46814 823.40460
810.0 0.001235 789.44897 822.56171
830.0 0.001205 789.42883 821.76215
818.0 0.001222 789.40765 821.00226
823.0 0.001215 789.38525 820.27924
849.0 0.001178 789.36188 819.59045
777.0 0.001287 789.33740 818.93353
799.0 0.001252 789.31183 818.30646
817.0 0.001224 789.28522 817.70734
837.0 0.001195 789.25739 817.13458
775.0 0.001290 789.22852 816.58643
792.0 0.001263 789.19849 816.06183
792.0 0.001263 789.16724 815.55896
794.0 0.001259 789.13483 815.07721
799.0 0.001252 789.10132 814.61523
817.0 0.001224 789.06665 814.17212
834.0 0.001199 789.03076 813.74695
787.0 0.001271 788.99371 813.33862
817.0 0.001224 788.95544 812.94659
799.0 0.001252 788.91595 812.56995
794.0 0.001259 788.87524 812.20795
789.0 0.001267 788.83325 811.86005
814.0 0.001228 788.79010 811.52582
789.0 0.001267 788.74573 811.20447
787.0 0.001271 788.70007 810.89539
858.0 0.001166 788.65320 810.59821
752.0 0.001330 788.60498 810.31226
814.0 0.001228 788.55560 810.03741
740.0 0.001351 788.50482 809.77295
789.0 0.001267 788.45288 809.51874
774.0 0.001292 788.39960 809.27399
776.0 0.001289 788.34497 809.03870
799.0 0.001252 788.28912 808.81250
829.0 0.001206 788.23193 808.59509
804.0 0.001244 788.17346 808.38611
784.0 0.001276 788.11365 808.18524
803.0 0.001245 788.05255 807.99231
779.0 0.001284 787.99005 807.80713
817.0 0.001224 787.92621 807.62903
824.0 0.001214 787.86108 807.45856
830.0 0.001205 787.79462 807.29504
817.0 0.001224 787.72675 807.13824
777.0 0.001287 787.65759 806.98816
818.0 0.001222 787.58710 806.84479
834.0 0.001199 787.51514 806.70758
825.0 0.001212 787.44189 806.57672
803.0 0.001245 787.36725 806.45203
801.0 0.001248 787.29126 806.33325
824.0 0.001214 787.21387 806.22040
818.0 0.001222 787.13513 806.11346
761.0 0.001314 787.05499 806.01233
810.0 0.001235 786.97351 805.91669
756.0 0.001323 786.89063 805.82678
794.0 0.001259 786.80634 805.74231
805.0 0.001242 786.72064 805.66345
775.0 0.001290 786.63361 805.58997
765.0 0.001307 786.54517 805.52209
771.0 0.001297 786.45532 805.45947
830.0 0.001205 786.36414 805.40247
835.0 0.001198 786.27155 805.35071
829.0 0.001206 786.17755 805.30438
785.0 0.001274 786.08215 805.26355
802.0 0.001247 785.98541 805.22815
784.0 0.001276 785.88715 805.19824
819.0 0.001221 785.78760 805.17389
836.0 0.001196 785.68665 805.15503
826.0 0.001211 785.58429 805.14191
829.0 0.001206 785.48053 805.13452
784.0 0.001276 785.37543 805.13293
826.0 0.001211 785.26886 805.13702
737.0 0.001357 785.16107 805.14728
819.0 0.001221 785.05176 805.16345
850.0 0.001176 784.94110 805.18579
834.0 0.001199 784.82904 805.21423
767.0 0.001304 784.71564 805.24933
792.0 0.001263 784.60083 805.29102
811.0 0.001233 784.48468 805.33923
781.0 0.001280 784.36719 805.39435
818.0 0.001222 784.24841 805.45654
813.0 0.001230 784.12817 805.52588
793.0 0.001261 784.00659 805.60278
770.0 0.001299 783.88361 805.68719
832.0 0.001202 783.75934 805.77924
820.0 0.001220 783.63373 805.87952
792.0 0.001263 783.50684 805.98834
824.0 0.001214 783.37854 806.10553
835.0 0.001198 783.24896 806.23151
771.0 0.001297 783.11804 806.36676
811.0 0.001233 782.98584 806.51135
813.0 0.001230 782.85236 806.66577
802.0 0.001247 782.71747 806.83014
793.0 0.001261 782.58136 807.00513
804.0 0.001244 782.44391 807.19098
789.0 0.001267 782.30536 807.38818
810.0 0.001235 782.16541 807.59711
784.0 0.001276 782.02423 807.81799
780.0 0.001282 781.88177 808.05170
710.0 0.001408 781.73810 808.29816
790.0 0.001266 781.59320 808.55853
756.0 0.001323 781.44702 808.83307
865.0 0.001156 781.29974 809.12225
796.0 0.001256 781.15118 809.42688
753.0 0.001328 781.00140 809.74762
833.0 0.001200 780.85046 810.08514
822.0 0.001217 780.69836 810.44012
794.0 0.001259 780.54504 810.81335
821.0 0.001218 780.39056 811.20557
772.0 0.001295 780.23499 811.61768
795.0 0.001258 780.07825 812.05084
820.0 0.001220 779.92035 812.50562
821.0 0.001218 779.76141 812.98340
775.0 0.001290 779.60138 813.48505
825.0 0.001212 779.44019 814.01178
792.0 0.001263 779.27795 814.56506
781.0 0.001280 779.11469 815.14606
826.0 0.001211 778.95038 815.75616
738.0 0.001355 778.78497 816.39709
803.0 0.001245 778.61853 817.07043
801.0 0.001248 778.45117 817.77814
827.0 0.001209 778.28271 818.52191
766.0 0.001305 778.11340 819.30383
827.0 0.001209 777.94312 820.12714
859.0 0.001164 777.77185 820.99365
841.0 0.001189 777.59955 821.90656
806.0 0.001241 777.42633 822.86926
801.0 0.001248 777.25220 823.88501
847.0 0.001181 777.07727 824.95825
833.0 0.001200 776.90143 826.09338
853.0 0.001172 776.72467 827.29565
870.0 0.001149 776.54712 828.57074
849.0 0.001178 776.36877 829.92566
806.0 0.001241 776.18958 831.36768
873.0 0.001145 776.00952 832.90552
833.0 0.001200 775.82874 834.54907
846.0 0.001182 775.64722 836.30933
834.0 0.001199 775.46490 838.19928
822.0 0.001217 775.28192 840.23340
860.0 0.001163 775.09821 842.42816
861.0 0.001161 774.91388 844.80206
926.0 0.001080 774.72876 847.89264
859.0 0.001164 774.54303 850.69287
877.0 0.001140 774.35663 853.74188
855.0 0.001170 774.16962 857.07251
847.0 0.001181 773.98206 860.71631
877.0 0.001140 773.79395 864.70984
968.0 0.001033 773.60522 869.09302
884.0 0.001131 773.41595 873.91016
896.0 0.001116 773.22614 879.20911
920.0 0.001087 773.03589 885.04181
965.0 0.001036 772.84509 891.46405
960.0 0.001042 772.65381 898.53497
970.0 0.001031 772.46216 906.31805
921.0 0.001086 772.27014 914.87970
911.0 0.001098 772.07764 924.28870
936.0 0.001068 771.88477 934.61646
970.0 0.001031 771.69159 945.93634
1046.0 0.000956 771.49805 958.58105
995.0 0.001005 771.30414 972.10706
1036.0 0.000965 771.11005 986.84515
977.0 0.001024 770.91559 1002.86578
1009.0 0.000991 770.72095 1020.23602
1033.0 0.000968 770.52625 1039.00867
1095.0 0.000913 770.33112 1059.25757
1171.0 0.000854 770.13593 1081.02258
1060.0 0.000943 769.94049 1104.34229
1166.0 0.000858 769.74493 1129.24414
1225.0 0.000816 769.54932 1155.74304
1189.0 0.000841 769.35364 1183.83887
1200.0 0.000833 769.15784 1213.51367
1216.0 0.000822 768.96198 1244.73132
1267.0 0.000789 768.76611 1277.43347
1340.0 0.000746 768.57031 1311.53674
1314.0 0.000761 768.37451 1346.93042
1444.0 0.000693 768.17877 1383.47253
1431.0 0.000699 767.98309 1420.98767
1536.0 0.000651 767.78754 1459.26147
1531.0 0.000653 767.59210 1498.03906
1580.0 0.000633 767.39685 1537.02197
1618.0 0.000618 767.20178 1575.86755
1690.0 0.000592 767.00684 1614.18896
1748.0 0.000572 766.81219 1651.55981
1783.0 0.000561 766.61780 1687.52136
1826.0 0.000548 766.42365 1721.59534
1905.0 0.000525 766.22992 1753.28442
1899.0 0.000527 766.03638 1782.15393
1879.0 0.000532 765.84326 1807.76111
1918.0 0.000521 765.65051 1829.74048
1857.0 0.000539 765.45813 1847.80896
1917.0 0.000522 765.26617 1861.77820
1921.0 0.000521 765.07483 1871.56201
1965.0 0.000509 764.88379 1877.17346
1877.0 0.000533 764.69330 1878.71277
1860.0 0.000538 764.50323 1876.35010
1908.0 0.000524 764.31384 1870.30237
1831.0 0.000546 764.12500 1860.81165
1878.0 0.000532 763.93677 1848.12402
1778.0 0.000562 763.74921 1832.47534
1756.0 0.000569 763.56226 1814.08215
1737.0 0.000576 763.37604 1793.14014
1697.0 0.000589 763.19049 1769.82629
1660.0 0.000602 763.00574 1744.30811
1659.0 0.000603 762.82166 1716.75391
1657.0 0.000603 762.63837 1687.34180
1559.0 0.000641 762.45599 1656.28479
1526.0 0.000655 762.27448 1623.77405
1551.0 0.000645 762.09369 1590.06848
1544.0 0.000648 761.91388 1555.43384
1478.0 0.000677 761.73492 1520.14832
1413.0 0.000708 761.55688 1484.49597
1423.0 0.000703 761.37982 1448.75549
1381.0 0.000724 761.20374 1413.19324
1327.0 0.000754 761.02869 1378.05444
1298.0 0.000770 760.85480 1343.55945
1289.0 0.000776 760.68182 1309.89978
1300.0 0.000769 760.51001 1277.23706
1165.0 0.000858 760.33929 1245.70361
1184.0 0.000845 760.16974 1215.40393
1187.0 0.000842 760.00128 1186.41626
1148.0 0.000871 759.83405 1158.79492
1105.0 0.000905 759.66803 1132.57471
1064.0 0.000940 759.50330 1107.77051
1025.0 0.000976 759.33978 1084.38330
1120.0 0.000893 759.17761 1062.39966
1075.0 0.000930 759.01666 1041.79504
1055.0 0.000948 758.85712 1022.53613
1057.0 0.000946 758.69897 1004.59003
1044.0 0.000958 758.54218 987.89172
1001.0 0.000999 758.38672 972.39819
1051.0 0.000951 758.23273 958.05365
976.0 0.001025 758.08020 944.79980
956.0 0.001046 757.92914 932.57709
959.0 0.001043 757.77954 921.32452
969.0 0.001032 757.63153 910.98193
949.0 0.001054 757.48511 901.48877
927.0 0.001079 757.34015 892.78674
924.0 0.001082 757.19678 884.81836
831.0 0.001203 757.05511 877.52869
951.0 0.001052 756.91498 870.86487
865.0 0.001156 756.77655 864.77649
843.0 0.001186 756.63977 859.21631
882.0 0.001134 756.50476 854.13953
887.0 0.001127 756.37140 849.50488
853.0 0.001172 756.23975 845.27332
868.0 0.001152 756.10999 841.40948
891.0 0.001122 755.98187 837.88025
850.0 0.001176 755.85559 834.65710
831.0 0.001203 755.73114 831.70978
819.0 0.001221 755.60852 829.01440
844.0 0.001185 755.48773 826.54901
850.0 0.001176 755.36890 824.29254
846.0 0.001182 755.25189 822.22681
867.0 0.001153 755.13678 820.33502
846.0 0.001182 755.02356 818.60217
823.0 0.001215 754.91235 817.01447
848.0 0.001179 754.80310 815.55957
777.0 0.001287 754.69580 814.22589
841.0 0.001189 754.59052 813.00299
783.0 0.001277 754.48724 811.88123
785.0 0.001274 754.38599 810.85083
825.0 0.001212 754.28674 809.90326
805.0 0.001242 754.18958 809.02979
761.0 0.001314 754.09442 808.22186
826.0 0.001211 754.00146 807.47113
814.0 0.001228 753.91052 806.76904
854.0 0.001171 753.82172 806.10706
799.0 0.001252 753.73505 805.47668
720.0 0.001389 753.65051 804.86926
732.0 0.001366 753.56812 804.27679
813.0 0.001230 753.48792 803.69049
830.0 0.001205 753.40979 803.10291
793.0 0.001261 753.33386 802.50769
835.0 0.001198 753.26019 801.89880
842.0 0.001188 753.18866 801.27148
828.0 0.001208 753.11938 800.62274
871.0 0.001148 753.05231 799.95032
800.0 0.001250 752.98743 799.25354
863.0 0.001159 752.92480 798.53253
785.0 0.001274 752.86444 797.78864
794.0 0.001259 752.80627 797.02307
830.0 0.001205 752.75037 796.23834
836.0 0.001196 752.69678 795.43634
774.0 0.001292 752.64539 794.61877
780.0 0.001282 752.59631 793.78772
799.0 0.001252 752.54950 792.94464
815.0 0.001227 752.50500 792.09088
800.0 0.001250 752.46277 791.22797
814.0 0.001228 752.42279 790.35767
743.0 0.001346 752.38513 789.48077
806.0 0.001241 752.34967 788.59912
802.0 0.001247 752.31659 787.71515
803.0 0.001245 752.28577 786.83130
774.0 0.001292 752.25726 785.95013
792.0 0.001263 752.23096 785.07446
778.0 0.001285 752.20703 784.20746
799.0 0.001252 752.18530 783.35181
756.0 0.001323 752.16595 782.51068
758.0 0.001319 752.14880 781.68665
760.0 0.001316 752.13397 780.88208
750.0 0.001333 752.12140 780.09906
752.0 0.001330 752.11108 779.33923
761.0 0.001314 752.10297 778.60413
766.0 0.001305 752.09723 777.89490
772.0 0.001295 752.09369 777.21228
773.0 0.001294 752.09229 776.55676
765.0 0.001307 752.09320 775.92877
834.0 0.001199 752.09631 775.32819
799.0 0.001252 752.10168 774.75500
811.0 0.001233 752.10919 774.20874
754.0 0.001326 752.11890 773.68921
758.0 0.001319 752.13086 773.19537
793.0 0.001261 752.14496 772.19653
728.0 0.001374 752.16107 771.75537
782.0 0.001279 752.17944 771.33807
731.0 0.001368 752.19989 770.94360
790.0 0.001266 752.22253 770.57117
704.0 0.001420 752.24719 770.21991
732.0 0.001366 752.27399 769.88873
769.0 0.001300 752.30280 769.57672
782.0 0.001279 752.33368 769.28320
787.0 0.001271 752.36652 769.00702
772.0 0.001295 752.40143 768.74738
765.0 0.001307 752.43823 768.50342
746.0 0.001340 752.47705 768.27435
770.0 0.001299 752.51788 767.79327
782.0 0.001279 752.56055 767.59290
711.0 0.001406 752.60510 767.40497
795.0 0.001258 752.65161 767.22900
795.0 0.001258 752.69989 767.06415
760.0 0.001316 752.75000 767.09430
806.0 0.001241 752.80188 766.95056
777.0 0.001287 752.85559 766.81628
740.0 0.001351 752.91101 766.69098
762.0 0.001312 752.96820 766.57397
785.0 0.001274 753.02704 766.46503
701.0 0.001427 753.08752 766.36365
816.0 0.001225 753.14966 766.26953
806.0 0.001241 753.21338 766.18219
747.0 0.001339 753.27869 766.10132
746.0 0.001340 753.34540 766.02679
742.0 0.001348 753.41376 765.95819
801.0 0.001248 753.48346 765.89532
782.0 0.001279 753.55475 765.83783
756.0 0.001323 753.62732 765.78558
808.0 0.001238 753.70129 765.73853
742.0 0.001348 753.77655 765.69623
724.0 0.001381 753.85315 765.65845
752.0 0.001330 753.93091 765.62531
769.0 0.001300 754.00989 765.68933
766.0 0.001305 754.09009 765.66486
792.0 0.001263 754.17139 765.64471
767.0 0.001304 754.25378 765.62842
760.0 0.001316 754.33722 765.61566
761.0 0.001314 754.42169 765.60681
757.0 0.001321 754.50708 765.60150
790.0 0.001266 754.59332 765.59943
741.0 0.001350 754.68048 765.60052
749.0 0.001335 754.76849 765.60498
745.0 0.001342 754.85730 765.61273
765.0 0.001307 754.94678 765.62317
692.0 0.001445 755.03705 765.63666
765.0 0.001307 755.12787 765.65277
788.0 0.001269 755.21936 765.67169
772.0 0.001295 755.31128 765.69299
799.0 0.001252 755.40369 765.71680
784.0 0.001276 755.49658 765.74304
791.0 0.001264 755.58990 765.77167
724.0 0.001381 755.68353 765.80249
792.0 0.001263 755.77747 765.83533
796.0 0.001256 755.87158 765.87042
775.0 0.001290 755.96594 765.90735
751.0 0.001332 756.06036 765.94604
764.0 0.001309 756.15485 765.98645
762.0 0.001312 756.24939 766.02863
748.0 0.001337 756.34387 766.07245
740.0 0.001351 756.43835 766.11761
752.0 0.001330 756.53259 766.16443
745.0 0.001342 756.62665 766.21246
739.0 0.001353 756.72046 766.26178
762.0 0.001312 756.81396 766.31226
736.0 0.001359 756.90704 766.36389
794.0 0.001259 756.99963 766.41650
726.0 0.001377 757.09180 766.47009
757.0 0.001321 757.18341 766.52454
776.0 0.001289 757.27448 766.57977
754.0 0.001326 757.36475 766.63568
742.0 0.001348 757.45428 766.69232
764.0 0.001309 757.54315 766.74939
728.0 0.001374 757.63104 766.80701
745.0 0.001342 757.71808 766.86499
761.0 0.001314 757.80414 766.92334
828.0 0.001208 757.88910 766.98187
753.0 0.001328 757.97302 767.04053
814.0 0.001228 758.05573 767.09930
750.0 0.001333 758.13721 767.15820
752.0 0.001330 758.21741 767.21692
825.0 0.001212 758.29633 767.27570
773.0 0.001294 758.37378 767.33429
786.0 0.001272 758.44971 767.39240
790.0 0.001266 758.52417 767.45026
765.0 0.001307 758.59698 767.50787
786.0 0.001272 758.66821 767.56482
773.0 0.001294 758.73767 767.62128
714.0 0.001401 758.80536 767.67712
778.0 0.001285 758.87122 767.73224
810.0 0.001235 758.93518 767.78680
718.0 0.001393 758.99713 767.84039
768.0 0.001302 759.05707 767.89319
743.0 0.001346 759.11487 767.94501
781.0 0.001280 759.17053 767.99579
813.0 0.001230 759.22406 768.04553
767.0 0.001304 759.27521 768.09412
755.0 0.001324 759.32410 768.14142
739.0 0.001353 759.37054 768.18781
778.0 0.001285 759.41455 768.23254
711.0 0.001406 759.45605 768.27606
793.0 0.001261 759.49500 768.31818
770.0 0.001299 759.53131 768.35883
756.0 0.001323 759.56494 768.40210
776.0 0.001289 759.59583 768.43958
741.0 0.001350 759.62396 768.47528
744.0 0.001344 759.64923 768.50958
747.0 0.001339 759.67163 768.54193
775.0 0.001290 759.69098 768.57251
725.0 0.001379 759.70740 768.60138
813.0 0.001230 759.72076 768.62830
748.0 0.001337 759.73102 768.65332
792.0 0.001263 759.73810 768.67633
760.0 0.001316 759.74200 768.69739
730.0 0.001370 759.74268 768.71631
755.0 0.001324 759.73999 768.73328
764.0 0.001309 759.73407 768.74799
757.0 0.001321 759.72473 768.76068
740.0 0.001351 759.71185 768.77118
816.0 0.001225 759.69568 768.77936
744.0 0.001344 759.67596 768.78546
749.0 0.001335 759.65271 768.78931
798.0 0.001253 759.62585 768.79285
746.0 0.001340 759.59540 768.79199
814.0 0.001228 759.56140 768.78882
774.0 0.001292 759.52362 768.78339
765.0 0.001307 759.48218 768.77570
775.0 0.001290 759.43701 768.76544
815.0 0.001227 759.38818 768.75275
766.0 0.001305 759.33551 768.73798
813.0 0.001230 759.27911 768.72064
784.0 0.001276 759.21887 768.70111
749.0 0.001335 759.15485 768.67920
730.0 0.001370 759.08698 768.65479
780.0 0.001282 759.01526 768.62811
786.0 0.001272 758.93964 768.59888
702.0 0.001424 758.86023 768.56781
771.0 0.001297 758.77698 768.53412
776.0 0.001289 758.68988 768.49829
756.0 0.001323 758.59900 768.46014
761.0 0.001314 758.50415 768.41992
767.0 0.001304 758.40546 768.37732
752.0 0.001330 758.30304 768.33276
759.0 0.001318 758.19666 768.28601
788.0 0.001269 758.08661 768.23737
760.0 0.001316 757.97278 768.18671
751.0 0.001332 757.85522 768.13422
736.0 0.001359 757.73389 768.07965
708.0 0.001412 757.60895 768.02356
722.0 0.001385 757.48029 767.96558
784.0 0.001276 757.34808 767.90607
750.0 0.001333 757.21222 767.84485
788.0 0.001269 757.07294 767.78241
806.0 0.001241 756.93018 767.71863
756.0 0.001323 756.78400 767.65338
778.0 0.001285 756.63446 767.58716
733.0 0.001364 756.48163 767.51984
821.0 0.001218 756.32568 767.45166
747.0 0.001339 756.16650 767.38263
780.0 0.001282 756.00433 767.31311
777.0 0.001287 755.83917 767.24292
792.0 0.001263 755.67120 767.17249
759.0 0.001318 755.50043 767.10181
781.0 0.001280 755.32690 767.03088
791.0 0.001264 755.15082 766.96045
754.0 0.001326 754.97229 766.89014
751.0 0.001332 754.79138 766.82019
773.0 0.001294 754.60828 766.75134
746.0 0.001340 754.42310 766.68280
762.0 0.001312 754.23590 766.61591
749.0 0.001335 754.04688 766.55017
784.0 0.001276 753.85620 766.48590
776.0 0.001289 753.66400 766.42358
784.0 0.001276 753.47046 766.36316
745.0 0.001342 753.27570 766.30505
758.0 0.001319 753.07990 766.24957
771.0 0.001297 752.88336 766.19702
772.0 0.001295 752.68610 766.14764
785.0 0.001274 752.48834 766.10162
793.0 0.001261 752.29034 766.05963
757.0 0.001321 752.09235 766.02142
766.0 0.001305 751.89453 765.98767
774.0 0.001292 751.69720 765.95905
742.0 0.001348 751.50043 765.93536
768.0 0.001302 751.30450 765.91736
757.0 0.001321 751.10968 765.90527
801.0 0.001248 750.91626 765.89941
734.0 0.001362 750.72455 765.90033
770.0 0.001299 750.53479 765.90875
816.0 0.001225 750.34723 765.92468
742.0 0.001348 750.16229 765.94891
802.0 0.001247 749.98010 765.98175
796.0 0.001256 749.80103 766.02368
802.0 0.001247 749.62549 766.07544
779.0 0.001284 749.45374 766.13727
767.0 0.001304 749.28607 766.20978
750.0 0.001333 749.12299 766.29401
770.0 0.001299 748.96478 766.39001
753.0 0.001328 748.81189 766.49896
772.0 0.001295 748.66461 766.62091
746.0 0.001340 748.52338 766.75690
783.0 0.001277 748.38861 766.90753
770.0 0.001299 748.26074 767.07343
789.0 0.001267 748.14020 767.25549
759.0 0.001318 748.02740 767.45441
797.0 0.001255 747.92291 767.67120
750.0 0.001333 747.82709 767.90656
726.0 0.001377 747.74042 768.16125
782.0 0.001279 747.66345 768.43622
712.0 0.001404 747.59674 768.73248
766.0 0.001305 747.54077 769.05103
768.0 0.001302 747.49603 769.39294
817.0 0.001224 747.46307 769.75909
769.0 0.001300 747.44263 770.15063
780.0 0.001282 747.43512 770.56866
762.0 0.001312 747.44116 771.01453
801.0 0.001248 747.46143 771.48938
728.0 0.001374 747.49652 771.99481
801.0 0.001248 747.54706 772.53168
814.0 0.001228 747.61377 773.10205
758.0 0.001319 747.69727 773.70697
794.0 0.001259 747.79810 774.34827
783.0 0.001277 747.91730 775.02777
798.0 0.001253 748.05536 775.74670
816.0 0.001225 748.21313 776.50818
746.0 0.001340 748.39130 777.31342
754.0 0.001326 748.59076 778.16516
747.0 0.001339 748.81213 779.06543
741.0 0.001350 749.05634 780.01697
804.0 0.001244 749.32428 781.02301
764.0 0.001309 749.61664 782.08618
775.0 0.001290 749.93445 783.21014
821.0 0.001218 750.27856 784.39844
837.0 0.001195 750.64978 785.65515
862.0 0.001160 751.04926 786.98474
785.0 0.001274 751.47766 788.39209
760.0 0.001316 751.93604 789.88239
773.0 0.001294 752.42548 791.46167
808.0 0.001238 752.94714 793.13678
850.0 0.001176 753.50183 794.91431
772.0 0.001295 754.09070 796.80231
807.0 0.001239 754.71472 798.80963
820.0 0.001220 755.37518 800.94580
816.0 0.001225 756.07312 803.22101
805.0 0.001242 756.80908 805.64532
827.0 0.001209 757.58533 808.23425
866.0 0.001155 758.40271 810.99988
858.0 0.001166 759.26227 813.95728
783.0 0.001277 760.16534 817.12201
869.0 0.001151 761.11310 820.51227
819.0 0.001221 762.10663 824.14569
861.0 0.001161 763.14789 828.04346
869.0 0.001151 764.23792 832.22662
856.0 0.001168 765.37811 836.71814
845.0 0.001183 766.56976 841.54193
865.0 0.001156 767.81445 846.72382
897.0 0.001115 769.11359 852.29034
826.0 0.001211 770.46869 858.26953
911.0 0.001098 771.88080 864.68982
843.0 0.001186 773.35242 871.58185
907.0 0.001103 774.88464 878.97583
875.0 0.001143 776.47906 886.90289
875.0 0.001143 778.13739 895.39417
877.0 0.001140 779.86133 904.48090
910.0 0.001099 781.65118 914.18884
943.0 0.001060 783.51129 924.55853
883.0 0.001133 785.44226 935.61438
952.0 0.001050 787.44580 947.38440
930.0 0.001075 789.52386 959.89465
994.0 0.001006 791.67816 973.16901
979.0 0.001021 793.91071 987.22876
1024.0 0.000977 796.22351 1002.09229
911.0 0.001098 798.61841 1017.77380
962.0 0.001040 801.09656 1034.28284
997.0 0.001003 803.66187 1051.62683
1061.0 0.000943 806.31555 1069.80518
1048.0 . . .
loop_
_refln_index_h
_refln_index_k
_refln_index_l
_pd_refln_wavelength_id
_refln_observed_status
_refln_F_squared_meas
_refln_F_squared_calc
_refln_phase_calc
_refln_d_spacing
_gsas_i100_meas
1 1 1 1 o 50912.47 52400.55 -49.74 3.66188 100.00
1 1 1 2 o 50715.52 52400.55 -49.74 3.66188 49.56
2 0 0 1 o 1494.532 633.431 180.00 3.17128 1.81
2 0 0 2 o 1281.479 633.431 180.00 3.17128 0.78
2 2 0 1 o 72257.77 69220.81 0.00 2.24244 80.43
2 2 0 2 o 73595.16 69220.81 0.00 2.24244 40.76
3 1 1 1 o 28316.090 28337.611 49.72 1.91236 46.37
3 1 1 2 o 28419.354 28337.611 49.72 1.91236 23.16
2 2 2 1 o 597.721 366.016 -180.00 1.83094 0.35
2 2 2 2 o 587.157 366.016 -180.00 1.83094 0.17
4 0 0 1 o 40170.05 41153.07 0.00 1.58564 11.55
4 0 0 2 o 39766.62 41153.07 0.00 1.58564 5.69
3 3 1 1 o 17655.715 17403.307 -50.06 1.45509 17.46
3 3 1 2 o 17482.270 17403.307 -50.06 1.45509 8.61
4 2 0 1 o 290.620 259.634 180.00 1.41824 0.35
4 2 0 2 o 290.084 259.634 180.00 1.41824 0.17
4 2 2 1 o 26278.953 26171.262 0.00 1.29467 21.38
4 2 2 2 o 25692.068 26171.262 0.00 1.29467 10.41
5 1 1 1 o 11037.422 11254.048 -50.28 1.22063 8.25
3 3 3 1 o 11037.417 11254.043 50.28 1.22063 2.75
5 1 1 2 o 10731.086 11254.048 -50.28 1.22063 4.00
3 3 3 2 o 10731.056 11254.043 50.28 1.22063 1.33
4 4 0 1 o 17348.473 17279.912 0.00 1.12122 5.80
4 4 0 2 o 16662.795 17279.912 0.00 1.12122 2.78
5 3 1 1 o 7712.831 7512.854 50.34 1.07209 9.90
5 3 1 2 o 7569.583 7512.854 50.34 1.07209 4.85
4 4 2 1 o 137.014 123.632 180.00 1.05709 0.11
6 0 0 1 o 136.981 123.632 180.00 1.05709 0.03
6 0 0 2 o 124.191 123.632 180.00 1.05709 0.01
4 4 2 2 o 124.208 123.632 180.00 1.05709 0.05
