#------------------------------------------------------------------------------
#$Date: 2021-04-09 12:11:50 +0300 (Fri, 09 Apr 2021) $
#$Revision: 264016 $
#$URL: file:///home/coder/svn-repositories/cod/cif/1/56/16/1561620.cif $
#------------------------------------------------------------------------------
#
# This file is available in the Crystallography Open Database (COD),
# http://www.crystallography.net/
#
# All data on this site have been placed in the public domain by the
# contributors.
#
data_1561620
loop_
_publ_author_name
'Prakash, Jai'
'Mesbah, Adel'
'Beard, Jessica C.'
'Malliakas, Christos D.'
'Ibers, James A.'
_publ_section_title
;
 Syntheses, crystal structures, and resistivities of the two new ternary
 uranium selenides, Er3USe8 and Yb3USe8
;
_journal_name_full               'Journal of Solid State Chemistry'
_journal_page_first              90
_journal_page_last               94
_journal_paper_doi               10.1016/j.jssc.2015.10.003
_journal_volume                  233
_journal_year                    2016
_chemical_formula_sum            'Se8 U Yb3'
_chemical_formula_weight         1388.83
_chemical_name_common            Yb3USe8
_space_group_crystal_system      orthorhombic
_space_group_IT_number           57
_space_group_name_Hall           '-P 2c 2b'
_space_group_name_H-M_alt        'P b c m'
_atom_sites_solution_hydrogens   .
_atom_sites_solution_primary     direct
_atom_sites_solution_secondary   difmap
_cell_angle_alpha                90
_cell_angle_beta                 90
_cell_angle_gamma                90
_cell_formula_units_Z            1
_cell_length_a                   6.9937(2)
_cell_length_b                   7.4807(2)
_cell_length_c                   5.4967(2)
_cell_measurement_reflns_used    4190
_cell_measurement_temperature    100(2)
_cell_measurement_theta_max      33.24
_cell_measurement_theta_min      3.99
_cell_volume                     287.575(15)
_computing_cell_refinement       'Bruker SAINT'
_computing_data_collection       'Bruker APEX2'
_computing_data_reduction        'Bruker SAINT'
_computing_molecular_graphics    'Bruker SHELXTL'
_computing_publication_material  'Bruker SHELXTL'
_computing_structure_refinement  'SHELXL-2014/6 (Sheldrick, 2014)'
_computing_structure_solution    'SHELXL-2012/1 (Sheldrick, 2012)'
_diffrn_ambient_temperature      100(2)
_diffrn_measured_fraction_theta_full 0.993
_diffrn_measured_fraction_theta_max 0.997
_diffrn_measurement_device_type  'Bruker APEX-II CCD'
_diffrn_measurement_method       '\f and \w scans'
_diffrn_radiation_type           MoK\a
_diffrn_radiation_wavelength     0.71073
_diffrn_reflns_av_R_equivalents  0.0253
_diffrn_reflns_av_unetI/netI     0.0141
_diffrn_reflns_Laue_measured_fraction_full 0.993
_diffrn_reflns_Laue_measured_fraction_max 0.997
_diffrn_reflns_limit_h_max       10
_diffrn_reflns_limit_h_min       -10
_diffrn_reflns_limit_k_max       11
_diffrn_reflns_limit_k_min       -11
_diffrn_reflns_limit_l_max       8
_diffrn_reflns_limit_l_min       -8
_diffrn_reflns_number            5704
_diffrn_reflns_point_group_measured_fraction_full 0.993
_diffrn_reflns_point_group_measured_fraction_max 0.997
_diffrn_reflns_theta_full        25.242
_diffrn_reflns_theta_max         33.115
_diffrn_reflns_theta_min         3.989
_diffrn_source                   'fine-focus sealed tube'
_exptl_absorpt_coefficient_mu    63.455
_exptl_absorpt_correction_T_max  0.12486
_exptl_absorpt_correction_T_min  0.06305
_exptl_absorpt_correction_type   numerical
_exptl_absorpt_process_details   'face indexed (SADABS; Sheldrick, 2012/1)'
_exptl_crystal_colour            black
_exptl_crystal_density_diffrn    8.019
_exptl_crystal_density_method    'not measured'
_exptl_crystal_description       plate
_exptl_crystal_F_000             574
_exptl_crystal_size_max          0.071
_exptl_crystal_size_mid          0.066
_exptl_crystal_size_min          0.059
_refine_diff_density_max         1.512
_refine_diff_density_min         -1.297
_refine_diff_density_rms         0.273
_refine_ls_extinction_coef       0.0092(4)
_refine_ls_extinction_expression Fc^*^=kFc[1+0.001xFc^2^\l^3^/sin(2\q)]^-1/4^
_refine_ls_extinction_method     SHELXL
_refine_ls_goodness_of_fit_ref   1.728
_refine_ls_hydrogen_treatment    undef
_refine_ls_matrix_type           full
_refine_ls_number_parameters     19
_refine_ls_number_reflns         600
_refine_ls_number_restraints     0
_refine_ls_restrained_S_all      1.728
_refine_ls_R_factor_all          0.0139
_refine_ls_R_factor_gt           0.0134
_refine_ls_shift/su_max          0.000
_refine_ls_shift/su_mean         0.000
_refine_ls_structure_factor_coef Fsqd
_refine_ls_weighting_details
'w=1/[\s^2^(Fo^2^)+(0.0094P)^2^] where P=(1.0000Fo^2^+0.0000Fc^2^)'
_refine_ls_weighting_scheme      calc
_refine_ls_wR_factor_gt          0.0315
_refine_ls_wR_factor_ref         0.0317
_reflns_Friedel_coverage         0.000
_reflns_Friedel_fraction_full    .
_reflns_Friedel_fraction_max     .
_reflns_number_gt                588
_reflns_number_total             600
_reflns_threshold_expression     'I > 2\s(I)'
_cod_data_source_file            JSSC-2016-233-90.cif
_cod_data_source_block           Yb3USe8
_cod_depositor_comments
;
The following automatic conversions were performed:

data item '_exptl_crystal_density_meas' value 'not measured' was
changed to '?' -- the value is perceived as not measured.

Automatic conversion script
Id: cif_fix_values 8369 2020-08-20 11:38:08Z andrius 
;
_cod_database_code               1561620
_shelx_space_group_comment
;
The symmetry employed for this shelxl refinement is uniquely defined
by the following loop, which should always be used as a source of
symmetry information in preference to the above space-group names.
They are only intended as comments.
;
_shelxl_version_number           2014/6
_shelx_res_file
;
TITL Yb3USe8 in Pbcm after absorption correction and structure tidy
CELL 0.71073 6.9937 7.4807 5.4967 90 90 90
ZERR 1 0.0002 0.0002 0.0002 0 0 0
LATT 1
SYMM -X,-Y,0.5+Z
SYMM +X,0.5-Y,-Z
SYMM -X,0.5+Y,0.5-Z
SFAC Se Yb U
UNIT 8 3 1
EADP U1 Yb1
EXYZ U1 Yb1

L.S. 4
PLAN  20
TEMP -173.09
ACTA
OMIT 1 0 0

WGHT    0.009400    0.000000    0.000000    0.000000    0.000000    1.000000
EXTI    0.009173
FVAR       0.33572
U1    3    0.249325    0.054846    0.250000    10.12500    0.00672    0.00825 =
         0.00709    0.00000    0.00000   -0.00017
YB1   2    0.249325    0.054846    0.250000    10.37500    0.00672    0.00825 =
         0.00709    0.00000    0.00000   -0.00017
SE1   1    0.118652    0.406769    0.250000    10.50000    0.00587    0.00877 =
         0.00636    0.00000    0.00000    0.00082
SE2   1    0.569124    0.250000    0.000000    10.50000    0.00572    0.00730 =
         0.01607   -0.00066    0.00000    0.00000
HKLF 4

REM  Yb3USe8 in Pbcm after absorption correction and structure tidy
REM R1 =  0.0134 for     588 Fo > 4sig(Fo)  and  0.0139 for all     600 data
REM     19 parameters refined using      0 restraints

END

WGHT      0.0094      0.8191

REM Highest difference peak  1.512,  deepest hole -1.297,  1-sigma level  0.273
Q1    1   0.1792  0.0006  0.2500  10.50000  0.05    1.51
Q2    1   0.3029 -0.0054  0.2500  10.50000  0.05    1.14
Q3    1   0.1856  0.1093  0.2500  10.50000  0.05    1.12
Q4    1   0.0300  0.4755  0.2500  10.50000  0.05    1.12
Q5    1   0.3992  0.0524  0.2500  10.50000  0.05    0.94
Q6    1   0.2474 -0.0229  0.1608  11.00000  0.05    0.93
Q7    1   0.0761  0.0353  0.2500  10.50000  0.05    0.90
Q8    1   0.2715  0.0967  0.2024  11.00000  0.05    0.87
Q9    1   0.4926  0.0914  0.2500  10.50000  0.05    0.71
Q10   1   0.2571  0.1499  0.1602  11.00000  0.05    0.68
Q11   1   0.4182  0.4732  0.2199  11.00000  0.05    0.66
Q12   1   0.7245  0.2500  0.0000  10.50000  0.05    0.65
Q13   1   0.0930  0.2857 -0.0044  11.00000  0.05    0.63
Q14   1   0.1793 -0.1074  0.2500  10.50000  0.05    0.62
Q15   1   0.4206  0.2500  0.0000  10.50000  0.05    0.60
Q16   1   0.4351 -0.0839  0.2500  10.50000  0.05    0.58
Q17   1   0.2707  0.1437  0.0265  11.00000  0.05    0.57
Q18   1   0.3050 -0.0707  0.0275  11.00000  0.05    0.57
Q19   1   0.1918  0.2443  0.1156  11.00000  0.05    0.56
Q20   1   0.3674  0.4727  0.2500  10.50000  0.05    0.55
;
_shelx_res_checksum              75518
_shelx_hkl_file
;
  -1   0   0 -4.7264 0.71492   5
   1   0   0 -3.9558 0.67461   5
   2   0   0 2983.08 82.8490   2
   2   0   0 2922.76 101.629   5
   3   0   0 936.798 26.9456   1
   3   0   0 952.050 28.3064   2
   3   0   0 948.787 34.5456   5
   4   0   0 1182.84 34.5869   1
  -4   0   0 1270.59 39.2971   3
  -4   0   0 1170.86 34.6668   1
   4   0   0 1254.96 36.2749   2
   4   0   0 1213.09 44.2527   5
   5   0   0 39.4278 4.51368   5
  -5   0   0 35.1688 3.96986   1
   5   0   0 41.4943 4.22390   1
  -5   0   0 37.9944 3.01565   3
   5   0   0 35.5085 3.73831   2
   6   0   0 6065.14 165.653   2
   6   0   0 5652.78 156.233   1
  -6   0   0 5857.67 156.448   1
   6   0   0 5832.99 202.872   5
   7   0   0 938.958 29.6308   2
   7   0   0 894.220 28.9477   1
  -7   0   0 900.691 28.8629   1
   8   0   0 1774.36 53.1634   1
  -8   0   0 1810.01 54.2875   8
  -8   0   0 1847.63 53.0711   1
  -9   0   0 694.132 24.8875   8
   9   0   0 674.122 24.3443   1
 -10   0   0 1055.61 35.6056   8
  10   0   0 1072.46 35.1926   1
   1  -1   0 854.949 28.2747   6
   1   1   0 830.580 28.7274   7
   2   1   0 2238.66 64.8180   2
   2  -1   0 2345.63 75.2675   6
  -2   1   0 2364.75 79.5074   5
   2   1   0 2180.77 76.6334   7
   2  -1   0 2336.52 64.8431   2
  -3   1   0 1730.13 62.9818   5
   3   1   0 1846.26 51.7266   2
   3   1   0 1832.17 48.8066   1
   3  -1   0 1836.51 51.6724   2
  -3   1   0 1851.38 56.9391   3
   3  -1   0 1797.94 49.1818   1
  -3  -1   0 1742.00 48.8123   1
  -3   1   0 1748.40 50.3461   8
  -4   1   0 955.408 29.2280   8
   4   1   0 957.433 35.8031   5
   4   1   0 989.953 29.3742   2
  -4   1   0 1005.65 31.6621   3
   4   1   0 987.438 27.9931   1
  -4   1   0 909.484 35.1140   5
  -4  -1   0 971.908 29.1329   2
  -4  -1   0 959.621 31.2742   3
  -4  -1   0 972.208 28.0408   1
  -4   1   0 931.868 28.2759   1
   4  -1   0 944.033 28.3627   1
   4  -1   0 973.111 29.2840   2
  -5  -1   0 89.5035 4.63343   3
  -5   1   0 103.357 6.10964   1
  -5  -1   0 93.1839 5.67352   1
   5  -1   0 90.9030 5.39899   2
   5   1   0 94.2167 6.61233   5
   5   1   0 88.8271 5.45446   1
   5  -1   0 92.8119 5.90352   1
  -5   1   0 85.4656 6.17151   8
   5   1   0 90.9590 5.53605   2
  -6  -1   0 2.67231 2.33749   1
   6  -1   0 8.13229 2.51953   2
   6   1   0 5.10095 2.36735   2
  -6   1   0 -1.4072 2.41393   1
   6  -1   0 3.32736 2.68003   1
   6   1   0 -0.1354 2.14777   1
  -6   1   0 -2.9721 2.20984   8
   6   1   0 2.75150 2.60233   5
   7   1   0 778.026 26.1460   1
   7   1   0 854.852 27.2101   2
  -7  -1   0 824.453 26.3864   1
   7  -1   0 793.659 26.8033   2
  -7   1   0 806.227 27.3640   8
  -7   1   0 862.681 26.9249   1
   7  -1   0 805.055 26.7137   1
   8  -1   0 92.3844 7.72829   1
  -8   1   0 97.7930 7.87240   8
   8   1   0 98.3701 7.54218   1
  -8   1   0 105.257 7.88659   1
  -8  -1   0 89.1115 7.41037   1
   9  -1   0 716.641 25.6141   1
  -9  -1   0 726.175 25.8584   8
   9   1   0 738.253 25.7252   1
  -9   1   0 717.495 26.2078   8
  10   1   0 25.1147 5.29314   1
  10  -1   0 29.2276 5.46242   1
 -10   1   0 31.4855 6.00360   8
 -10  -1   0 32.0159 5.84572   8
  -1  -2   0 1944.11 64.3059   7
   1  -2   0 1918.30 63.0351   6
   1   2   0 1903.94 64.2675   7
  -2  -2   0 5119.13 171.575   7
   2  -2   0 5198.30 136.911   1
   2  -2   0 5574.02 168.583   6
   2  -2   0 5497.85 145.164   2
  -2   2   0 5001.60 139.428   8
   2   2   0 4970.66 138.441   8
  -2  -2   0 5323.68 144.974   2
   2   2   0 5164.26 145.152   2
   2   2   0 4895.59 171.557   7
   3   2   0 1.84421 1.58819   1
   3  -2   0 1.38439 1.67278   6
   3   2   0 1.20789 1.52130   7
  -3  -2   0 -0.1930 1.28094   2
   3  -2   0 1.80134 1.56788   2
  -3  -2   0 1.78083 1.65804   1
  -3   2   0 0.26825 1.99745   8
   3   2   0 0.65833 1.62674   2
   3  -2   0 0.59929 1.74177   1
  -3   2   0 0.64016 1.88705   1
  -4   2   0 1939.55 54.9095   1
   4  -2   0 2047.58 66.6298   6
   4   2   0 1962.89 57.4790   2
   4   2   0 1954.86 54.2811   1
  -4   2   0 1893.49 69.7358   5
  -4  -2   0 1996.30 62.8257   3
  -4   2   0 1942.27 56.3970   8
   4   2   0 1973.39 67.8945   7
  -4  -2   0 2058.48 54.4300   1
   4  -2   0 1979.36 55.0203   1
   4  -2   0 1994.89 57.5179   2
  -4  -2   0 1996.23 57.1508   2
  -5  -2   0 467.999 16.8949   3
  -5  -2   0 466.120 15.9657   1
   5   2   0 492.890 20.3045   5
   5   2   0 498.942 16.7055   2
  -5   2   0 482.162 16.6705   1
   5  -2   0 486.127 16.5654   2
   5  -2   0 478.762 16.7336   1
   5   2   0 476.006 19.5185   7
   5  -2   0 467.229 18.9241   6
  -5   2   0 468.458 17.3578   8
  -5   2   0 465.262 19.2319   5
   5   2   0 489.501 15.9684   1
  -6   2   0 554.191 20.3498   8
   6  -2   0 545.629 19.3176   2
  -6  -2   0 548.635 18.8491   1
   6   2   0 599.796 19.7447   2
   6   2   0 565.643 23.0237   7
   6   2   0 531.937 18.7395   1
   6  -2   0 561.665 19.6114   1
  -6   2   0 575.334 19.6182   1
  -7  -2   0 314.259 13.1744   1
  -7   2   0 299.566 14.0560   8
   7   2   0 329.404 13.1560   2
  -7   2   0 307.770 13.4939   1
   7  -2   0 319.292 12.8820   2
   7   2   0 305.827 13.0042   1
   7  -2   0 302.495 13.6020   1
  -8   2   0 2998.17 83.7845   1
   8  -2   0 3015.83 84.0480   1
  -8   2   0 2926.84 85.4909   8
  -8  -2   0 2982.04 83.3507   1
   8   2   0 2926.99 83.2716   1
   9   2   0 23.6148 4.90107   1
   9  -2   0 22.0848 4.95320   1
  -9  -2   0 23.1791 5.33225   1
  -9   2   0 22.5089 5.22886   8
  10  -2   0 347.561 16.2098   1
 -10   2   0 345.835 16.4839   8
 -10  -2   0 343.226 15.8322   8
  10   2   0 348.738 16.2621   1
   0  -3   0 5.42624 1.74706   2
   0  -3   0 2.20459 2.00633   1
   1  -3   0 7654.48 209.064   2
   1   3   0 7308.23 196.440   1
  -1  -3   0 7225.94 196.605   1
   1  -3   0 7514.08 196.930   1
   1   3   0 7485.30 199.758   8
  -1  -3   0 7695.90 208.971   2
   1   3   0 7523.89 209.129   2
  -1  -3   0 7638.89 247.433   7
  -1   3   0 7890.27 200.346   8
   1   3   0 7017.70 248.372   7
   1  -3   0 7622.68 242.791   6
   2   3   0 62.9651 3.62021   1
   2   3   0 53.4167 4.04084   7
  -2   3   0 46.4112 3.84322   1
   2   3   0 57.5067 3.49350   8
  -2  -3   0 55.6256 3.57333   1
  -2  -3   0 59.5821 4.06730   7
  -2   3   0 67.6352 4.45308   8
   2  -3   0 60.5721 4.14314   6
   2   3   0 64.8213 3.80950   2
   2  -3   0 57.4856 4.27094   1
  -3   3   0 72.6319 4.91750   1
   3  -3   0 81.5448 5.06020   6
   3  -3   0 70.6614 4.70216   1
   3   3   0 70.5808 4.84359   7
  -3  -3   0 74.4564 4.11137   2
   3   3   0 63.6519 4.04289   8
  -3   3   0 79.8574 5.33090   8
   3   3   0 96.8169 4.62480   1
   3   3   0 74.9839 4.48081   2
   3  -3   0 65.0897 4.23596   2
   4   3   0 548.957 21.3695   7
  -4  -3   0 568.728 17.9480   2
  -4   3   0 576.906 22.1918   5
   4  -3   0 571.406 18.2325   2
  -4  -3   0 548.459 17.4668   1
   4  -3   0 561.482 18.2191   1
  -4   3   0 556.149 18.2395   1
   4   3   0 503.816 17.2461   1
   5   3   0 2876.18 79.5808   1
  -5  -3   0 2929.32 92.4562   3
  -5   3   0 2896.50 102.326   5
  -5  -3   0 2972.19 79.7207   1
   5  -3   0 2973.36 84.3506   2
  -5   3   0 2964.24 80.5694   1
   5  -3   0 2983.15 80.5025   1
  -5   3   0 2839.27 82.4106   8
   5   3   0 2900.63 84.2092   2
   5   3   0 2848.52 99.4753   7
   6   3   0 878.753 29.7790   2
  -6   3   0 959.695 29.7432   1
   6  -3   0 961.714 30.1710   2
   6  -3   0 939.397 29.8365   1
   6   3   0 955.734 28.9913   1
  -6   3   0 938.079 30.8538   8
  -6  -3   0 942.840 29.2732   1
  -7  -3   0 2909.92 79.1805   1
   7  -3   0 2714.05 79.2360   1
  -7   3   0 2863.20 79.2627   1
   7  -3   0 2778.89 82.5509   2
  -7   3   0 2767.43 81.2650   8
   7   3   0 2859.61 78.8222   1
   8   3   0 5.72794 3.49683   1
   8  -3   0 17.9967 4.77300   1
  -8  -3   0 2.02895 3.30574   1
  -8   3   0 1.07401 3.56412   8
   9   3   0 718.439 25.5803   1
   9  -3   0 714.140 25.8534   1
  -9   3   0 704.875 26.6822   8
  -9  -3   0 734.469 26.0014   1
 -10   3   0 589.025 23.7409   8
  10   3   0 594.928 23.0844   1
  10  -3   0 636.517 23.5823   1
   0   4   0 526.444 16.3907   1
   0  -4   0 544.282 20.0102   7
   0   4   0 551.776 16.6623   8
   0   4   0 514.025 16.9230   2
  -1   4   0 1831.96 47.8944   1
   1  -4   0 1701.52 49.9079   2
   1   4   0 1680.62 49.9777   2
  -1  -4   0 1754.27 47.5961   1
   1   4   0 1783.58 48.1133   8
   1  -4   0 1682.20 47.7896   1
  -1  -4   0 1711.51 49.8377   2
   1  -4   0 1675.17 57.7794   6
   1   4   0 1734.40 47.4141   1
   1   4   0 1700.52 57.6012   6
  -1   4   0 1734.52 48.5088   8
  -1  -4   0 1705.82 58.8963   7
  -2  -4   0 19.1101 2.55299   2
  -2  -4   0 13.7896 2.57771   7
   2  -4   0 14.3931 2.49312   6
  -2   4   0 22.4565 2.99641   1
   2   4   0 23.7907 2.79947   1
  -2   4   0 18.9864 3.12874   8
  -2  -4   0 17.7457 2.42860   2
  -2   4   0 21.1025 2.88801   6
   2   4   0 24.8243 3.24279   7
   2  -4   0 23.8282 3.17559   1
   2  -4   0 19.1187 2.57127   2
  -2  -4   0 20.9810 2.82063   1
  -3   4   0 28.0427 3.52030   1
  -3  -4   0 22.9907 2.84120   2
   3   4   0 18.2880 2.78996   7
  -3  -4   0 22.7893 3.17532   7
  -3   4   0 16.9774 3.18839   8
   3   4   0 22.9960 2.95510   1
  -3  -4   0 17.3530 2.68601   1
   3  -4   0 29.8581 3.62125   6
   3  -4   0 18.6368 3.04285   1
   3   4   0 15.3042 2.44670   8
   3  -4   0 20.5309 2.72136   2
   3   4   0 17.6144 2.70969   2
   4  -4   0 598.942 19.1238   2
  -4  -4   0 558.892 18.2789   1
   4   4   0 587.170 18.3502   1
  -4   4   0 561.921 19.7695   8
   4   4   0 588.894 19.2150   2
  -4   4   0 597.471 19.1369   1
   4  -4   0 580.570 22.1978   6
   4   4   0 544.728 22.0548   7
   4  -4   0 575.022 18.9831   1
  -4  -4   0 562.249 18.6763   2
  -5   4   0 691.310 22.5904   1
  -5  -4   0 696.841 21.8147   1
   5  -4   0 682.289 22.4444   1
   5  -4   0 662.677 22.4094   2
   5   4   0 676.451 26.3373   7
   5   4   0 697.739 22.6528   2
  -5   4   0 679.611 23.5102   8
   5   4   0 685.330 21.8295   1
  -6   4   0 579.089 20.2628   1
   6  -4   0 561.765 20.0534   1
   6  -4   0 579.866 19.8389   2
  -6   4   0 543.752 20.7691   8
  -6  -4   0 550.511 19.2376   1
   6   4   0 557.575 19.1505   1
  -7  -4   0 144.836 8.81606   1
   7  -4   0 164.732 8.87817   2
  -7   4   0 159.647 9.74474   1
   7   4   0 148.551 8.67034   1
  -7   4   0 162.929 10.2685   8
   7  -4   0 160.388 9.59197   1
  -8  -4   0 361.746 14.9510   1
   8  -4   0 317.059 14.8420   1
   8   4   0 325.427 14.4392   1
  -8   4   0 332.310 15.7560   8
   9  -4   0 5.04075 3.89043   1
   9   4   0 3.73234 3.62366   1
  -9   4   0 3.81164 4.13013   8
  -9  -4   0 -0.1542 3.88965   1
 -10   4   0 182.496 12.1049   8
  10  -4   0 185.164 11.6306   1
  10   4   0 183.288 11.4630   1
   0   5   0 1.34281 1.74657   2
   0  -5   0 3.83562 2.14014   7
   0   5   0 0.64415 1.74972   1
   0  -5   0 0.51608 1.98358   1
   0  -5   0 -0.9286 1.61880   2
   0   5   0 -0.5417 1.74476   8
  -1  -5   0 2810.95 94.7397   7
   1  -5   0 2730.33 76.5663   1
   1   5   0 2836.07 80.3702   2
   1   5   0 2888.13 77.1686   8
  -1  -5   0 2812.73 76.2456   1
  -1   5   0 2854.35 77.5340   8
   1   5   0 2700.86 75.8959   1
   1  -5   0 2781.85 80.2275   2
  -1   5   0 2875.95 76.2798   1
  -1   5   0 2764.60 80.2006   2
  -2   5   0 696.948 24.5031   6
   2   5   0 694.918 20.8151   8
   2  -5   0 683.847 24.7884   6
  -2  -5   0 686.722 25.1252   7
  -2  -5   0 671.309 21.2768   2
  -2   5   0 637.180 21.3403   8
  -2   5   0 639.080 21.0404   1
  -2  -5   0 670.373 20.8498   1
   2  -5   0 680.987 21.5187   1
   2   5   0 657.938 20.5926   1
   2  -5   0 656.286 21.4080   2
   2   5   0 664.961 21.5219   2
  -3   5   0 4983.31 138.180   8
  -3   5   0 5132.86 135.550   1
  -3  -5   0 5044.10 135.102   1
   3   5   0 4993.30 136.844   8
  -3  -5   0 5299.39 142.973   2
   3   5   0 4970.61 134.932   1
   3   5   0 5244.63 143.377   2
   3  -5   0 5171.51 135.997   1
   3   5   0 4616.78 168.751   7
   3  -5   0 5296.27 166.425   6
   3  -5   0 4970.67 143.125   2
   4  -5   0 474.349 17.1539   1
   4   5   0 498.376 17.3783   2
  -4   5   0 520.223 18.2110   8
   4  -5   0 495.092 17.1615   2
   4   5   0 478.479 19.7316   7
  -4  -5   0 478.197 16.7542   1
   4   5   0 485.339 16.6222   1
  -4   5   0 529.521 17.4944   1
   4   5   0 496.780 16.5758   8
  -5   5   0 807.796 25.8868   1
   5  -5   0 776.656 25.5459   1
  -5   5   0 830.007 26.9880   8
   5   5   0 791.972 25.0265   1
  -5  -5   0 781.403 25.1108   1
  -6   5   0 48.0134 6.49061   8
   6   5   0 47.7594 5.20015   1
   6  -5   0 51.9003 5.42050   2
   6  -5   0 62.9022 6.27205   1
  -6  -5   0 63.8312 5.99684   1
  -6   5   0 45.5475 5.75800   1
   7   5   0 1974.50 56.2176   1
  -7   5   0 1845.05 58.1521   8
   7  -5   0 1957.37 56.8484   1
  -7  -5   0 1951.06 56.4724   1
  -8  -5   0 61.0622 6.95764   1
   8   5   0 41.1081 5.83049   1
   8  -5   0 57.5337 6.70257   1
  -8   5   0 53.8416 7.50744   8
  -9   5   0 1738.38 55.4959   8
   9   5   0 1776.01 53.6241   1
   9  -5   0 1833.48 54.3162   1
   0   6   0 4824.27 133.413   8
   0  -6   0 5153.79 139.470   2
   0   6   0 4796.48 131.636   1
   1  -6   0 38.4262 4.50790   1
  -1  -6   0 31.4344 3.90896   1
   1   6   0 33.4128 3.86187   1
  -1  -6   0 37.3929 3.65479   2
  -1   6   0 34.9605 4.07299   8
   1  -6   0 37.6747 3.96648   2
   1   6   0 33.3511 3.80024   8
  -1   6   0 30.9638 3.99184   1
  -2  -6   0 85.5402 5.85218   1
   2   6   0 82.8473 5.54084   1
  -2   6   0 84.1964 5.81520   1
   2   6   0 87.7145 5.41688   8
  -2   6   0 82.2586 5.88710   8
  -2  -6   0 88.8371 5.34365   2
   2  -6   0 95.1316 5.44685   2
   2  -6   0 92.3801 6.25164   1
   3   6   0 370.450 13.3496   1
   3  -6   0 366.829 13.4688   2
   3  -6   0 361.048 14.3027   1
  -3   6   0 354.838 14.0778   8
  -3   6   0 356.282 13.7512   1
   3   6   0 354.384 12.9792   8
  -3  -6   0 351.567 13.4446   1
   4  -6   0 7.03748 2.76961   2
   4  -6   0 6.30034 2.91537   1
  -4   6   0 5.16860 2.79046   1
   4   6   0 4.67837 2.51547   1
  -4  -6   0 7.41452 2.75989   1
  -4   6   0 9.77925 3.25048   8
   4   6   0 3.47529 2.50631   8
   5  -6   0 12.3160 3.62103   1
  -5   6   0 9.32903 3.69371   1
  -5   6   0 11.1647 4.02590   8
  -5  -6   0 9.30005 3.22319   1
   5  -6   0 10.5355 3.16430   2
   5   6   0 11.6631 3.34390   1
  -6   6   0 1517.11 44.8270   1
  -6  -6   0 1458.87 43.7339   1
  -6   6   0 1453.24 45.6841   8
   6   6   0 1400.72 43.5118   1
   6  -6   0 1514.71 44.5107   1
   6  -6   0 1462.05 46.3680   2
  -7  -6   0 500.498 18.6939   1
  -7   6   0 460.092 19.5365   8
   7  -6   0 446.554 18.5488   1
   7   6   0 496.083 18.3463   1
  -8   6   0 222.079 12.9818   8
   8  -6   0 232.977 12.3932   1
  -8  -6   0 217.800 12.1697   1
   8   6   0 243.350 12.1167   1
  -9   6   0 379.097 18.1465   8
   9  -6   0 386.037 17.4846   1
   9   6   0 442.084 18.0040   1
   0   7   0 0.33711 2.19321   8
   0   7   0 2.24849 2.50305   1
   0  -7   0 3.36545 2.23915   2
   0  -7   0 0.17576 2.31693   1
   1   7   0 964.345 28.7537   1
  -1  -7   0 910.635 29.0322   1
   1  -7   0 925.833 29.4459   2
  -1   7   0 943.829 29.1247   8
  -1  -7   0 934.071 29.4577   2
  -1   7   0 933.570 28.6520   1
   1  -7   0 919.058 29.3133   1
   1   7   0 955.707 28.9417   8
   2  -7   0 1000.57 31.6486   2
   2  -7   0 1055.06 31.7214   1
   2   7   0 1019.36 30.6721   1
  -2   7   0 988.416 31.3430   8
  -2  -7   0 992.726 31.0267   1
  -2   7   0 989.199 30.8518   1
   2   7   0 1035.46 30.7920   8
   3  -7   0 599.041 20.8336   1
  -3  -7   0 580.178 20.0358   1
   3  -7   0 560.372 20.0710   2
  -3   7   0 589.291 20.6828   8
   3   7   0 579.736 19.8561   1
  -3   7   0 605.703 20.3358   1
   3   7   0 605.952 19.7146   8
  -4   7   0 437.853 17.4932   8
   4  -7   0 457.904 16.9054   2
  -4  -7   0 473.227 17.0038   1
   4   7   0 439.830 16.5516   1
   4  -7   0 472.382 17.6168   1
   4   7   0 464.100 16.4027   8
  -4   7   0 458.812 17.2813   1
   5   7   0 2259.31 64.0922   1
  -5  -7   0 2331.31 64.5060   1
   5  -7   0 2138.46 64.5254   1
  -5   7   0 2312.59 66.5099   8
  -6   7   0 14.0899 4.48353   8
   6   7   0 21.1673 4.31412   1
  -6  -7   0 23.8039 4.64480   1
   6  -7   0 23.3998 4.76330   1
   7   7   0 132.700 9.18953   1
  -7   7   0 186.983 11.1189   8
   7  -7   0 136.466 9.57029   1
  -7  -7   0 134.407 9.39084   1
  -8   7   0 53.5019 7.39667   8
   8  -7   0 49.8677 6.78977   1
   8   7   0 55.8916 6.87725   1
  -8  -7   0 56.9161 7.24896   1
   0   8   0 541.557 18.6510   8
   0   8   0 533.954 18.7074   1
   0  -8   0 513.606 19.1090   1
  -1   8   0 319.805 13.1157   1
  -1  -8   0 317.801 13.3484   1
   1  -8   0 308.160 13.6302   1
   1   8   0 326.820 13.1073   1
   1   8   0 343.725 13.1842   8
  -1   8   0 313.453 12.9789   8
   2  -8   0 2513.48 71.8292   1
  -2  -8   0 2521.80 71.2900   1
  -2   8   0 2567.80 72.3153   8
  -2   8   0 2589.56 71.1350   1
   2   8   0 2528.52 71.4647   8
   2   8   0 2504.16 70.9607   1
  -3   8   0 17.7616 4.18253   8
  -3   8   0 15.5900 3.91159   1
   3   8   0 19.0250 3.89611   1
   3  -8   0 23.0191 4.71632   1
  -3  -8   0 14.4728 3.72033   1
   3   8   0 15.2820 3.53919   8
  -4   8   0 1422.03 43.4609   1
   4   8   0 1464.34 43.0089   8
   4   8   0 1456.58 43.3178   1
   4  -8   0 1427.48 43.9509   1
  -4  -8   0 1478.18 43.4728   1
  -4   8   0 1444.36 44.4189   8
   5   8   0 71.8000 6.72057   1
   5  -8   0 60.4898 6.78568   1
  -5  -8   0 60.0202 6.55332   1
  -5   8   0 75.1525 7.19559   8
   6  -8   0 371.852 16.1305   1
  -6   8   0 393.528 16.8333   8
  -6  -8   0 375.733 15.8326   1
   6   8   0 339.766 15.1676   1
   7  -8   0 187.875 11.0905   1
  -7   8   0 163.282 11.1026   8
  -7  -8   0 181.118 11.1302   1
   0   9   0 7.22746 3.27816   1
   0   9   0 -1.9178 2.55205   8
   0  -9   0 -1.3717 2.80853   1
   1   9   0 208.804 10.5457   1
  -1   9   0 219.798 10.5786   1
   1  -9   0 204.131 11.0583   1
  -1  -9   0 209.727 10.7470   1
   1   9   0 223.980 10.4242   8
  -1   9   0 212.685 10.4695   8
   2   9   0 4.35480 3.11809   1
  -2   9   0 4.55609 3.06144   1
  -2   9   0 6.12010 3.38727   8
  -2  -9   0 1.79100 2.97483   1
   2   9   0 -0.3685 2.72715   8
  -3  -9   0 688.482 24.1179   1
   3   9   0 686.560 23.7557   1
   3  -9   0 696.602 24.7556   1
   3   9   0 724.043 23.4123   8
  -3   9   0 693.029 24.2823   8
  -4  -9   0 164.325 9.67178   1
   4   9   0 174.625 9.77699   1
   4  -9   0 158.436 10.0914   1
  -4   9   0 164.789 9.91773   8
  -5  -9   0 10.4426 3.79029   1
   5   9   0 12.3990 3.83545   1
  -5   9   0 16.9014 4.71391   8
   5  -9   0 19.2726 4.56466   1
  -6  -9   0 279.157 13.5971   1
   6  -9   0 268.694 13.5026   1
  -6   9   0 272.158 13.8669   8
   6   9   0 253.426 12.8339   1
   0  10   0 1205.41 37.2079   8
   0 -10   0 1153.30 37.6019   1
   0  10   0 1226.10 37.1077   1
   1  10   0 487.283 17.9612   8
   1  10   0 496.586 18.3146   1
   1 -10   0 455.725 18.6956   1
  -1  10   0 457.489 17.8973   1
  -1  10   0 481.676 18.1650   8
  -1 -10   0 484.265 18.8536   1
   2 -10   0 570.094 21.7986   1
  -2  10   0 597.632 21.1252   8
   2  10   0 588.815 20.9641   1
  -2 -10   0 548.628 21.0697   1
  -3 -10   0 12.0792 4.09628   1
   3  10   0 14.2560 4.06191   1
   3 -10   0 7.07942 3.88851   1
  -3  10   0 15.6157 4.27892   8
   4  10   0 1431.10 44.0397   1
  -4 -10   0 1455.64 44.2964   1
  -4  10   0 1415.08 44.4607   8
   4 -10   0 1440.32 44.6957   1
   5 -10   0 260.304 13.2464   1
  -5  10   0 252.065 13.0797   8
   5  10   0 248.235 12.7140   1
  -5 -10   0 263.458 13.1564   1
   0 -11   0 4.26167 3.35671   1
   1 -11   0 150.789 9.90346   1
  -1 -11   0 125.620 9.26073   1
  -1  11   0 144.296 8.95065   8
   2  11   0 69.1344 7.40785   1
   2 -11   0 65.8127 7.57897   1
  -2 -11   0 68.7920 7.43797   1
  -2  11   0 60.8550 6.86150   8
   3  11   0 923.476 29.7791   1
   3 -11   0 878.100 30.4292   1
  -3  11   0 908.931 29.7446   8
  -3 -11   0 821.398 29.5636   1
  -1   0   1 2.32391 2.18675   5
   1   0  -1 2.12494 2.10264   5
  -2   0   1 12.6962 2.66356   5
  -2   0   1 0.19960 1.37018   2
   2   0  -1 2.80073 1.61318   6
   2   0  -1 0.77917 1.94017   5
  -2   0  -1 4.21601 1.87568   3
   3   0   1 -0.2926 1.28685   2
   3   0  -1 1.18802 1.70010   1
  -3   0  -1 2.04492 1.97192   8
   3   0  -1 2.33740 1.92905   6
  -3   0  -1 0.10487 1.75869   3
  -3   0   1 1.09099 1.80683   1
   3   0  -1 1.94941 2.12353   5
   3   0   1 1.59794 1.50437   1
  -3   0   1 -0.2683 2.06816   5
  -3   0   1 8.15468 1.95314   2
   4   0  -1 -0.0656 2.11182   1
   4   0  -1 1.81510 2.46315   6
   4   0   1 -1.2255 1.80190   5
  -4   0  -1 -0.0895 2.01328   3
   4   0   1 -1.8078 1.85423   1
   4   0  -1 -0.6503 2.58369   5
  -4   0   1 1.16746 2.25695   1
   4   0  -1 -1.6461 1.85675   2
  -4   0   1 0.15027 2.49135   5
  -4   0  -1 2.19732 2.54212   8
   5   0  -1 -0.4954 2.03152   1
   5   0   1 2.24725 2.07799   1
  -5   0  -1 1.64589 2.17019   1
   5   0  -1 0.60211 2.35702   5
  -5   0  -1 0.48130 2.18167   8
   5   0  -1 -0.1068 2.17843   6
   5   0  -1 5.00690 2.25687   2
   5   0   1 3.61306 1.86642   2
  -5   0   1 -0.9904 1.84130   2
  -5   0  -1 3.33202 2.05606   3
  -5   0   1 3.20197 2.29855   1
   5   0   1 0.49537 1.79620   5
   6   0  -1 2.90464 2.61548   6
   6   0  -1 4.23488 2.33857   2
   6   0   1 14.4824 2.78350   2
   6   0  -1 -0.2184 2.40395   1
   6   0   1 1.18488 2.20078   1
  -6   0  -1 3.38668 2.48261   1
  -6   0  -1 2.83565 2.79134   8
  -6   0   1 1.98250 2.64888   1
  -7   0  -1 1.38340 3.02206   8
  -7   0   1 3.42109 2.85005   1
   7   0  -1 4.15140 2.99554   1
   7   0   1 -2.0117 2.43061   1
   7   0  -1 0.47855 2.53298   6
   7   0   1 -0.2690 2.15086   2
   8   0   1 0.31935 3.10389   1
   8   0   1 3.45253 2.60015   2
  -8   0   1 2.82831 3.29210   1
   8   0  -1 5.29553 3.34515   1
  -8   0  -1 -0.5683 3.23207   8
   9   0  -1 -3.1599 2.98381   1
   9   0   1 -2.9165 2.53318   2
   9   0   1 2.60186 3.29562   1
  -9   0   1 3.98855 3.55689   1
  -9   0  -1 -1.5298 3.55447   8
  -9   0   1 6.72373 3.97183   8
 -10   0   1 4.22159 4.18636   8
  10   0  -1 3.11055 3.65426   1
 -10   0  -1 4.75903 4.02705   8
 -10   0   1 -1.4221 3.35069   1
  10   0   1 2.18431 3.53941   1
   0   1   1 20.5840 1.86008   7
  -1  -1  -1 3238.05 98.1270   3
  -1   1   1 3033.67 87.7461   2
   1   1  -1 3298.38 108.310   5
  -1  -1   1 3021.13 103.363   7
   1   1   1 3063.19 87.2963   2
  -1  -1   1 3090.85 87.3271   2
  -1   1  -1 3206.71 98.2318   3
   2   1  -1 853.282 29.2058   7
  -2  -1  -1 833.323 28.1142   3
  -2   1   1 852.069 31.6742   5
   2   1  -1 847.012 31.3990   5
   2  -1   1 872.111 24.3975   2
   2   1  -1 866.104 28.8843   6
  -2   1   1 839.800 25.2851   2
  -2   1  -1 831.868 28.1871   3
  -2  -1   1 851.549 29.4271   7
   2   1   1 849.197 24.6746   2
  -2  -1   1 852.618 24.8918   2
   2  -1  -1 845.148 28.8621   6
   3   1  -1 7043.32 234.719   5
   3   1  -1 6637.29 179.134   1
   3  -1   1 6073.33 178.925   1
  -3   1   1 7157.05 234.820   5
   3   1  -1 6880.44 225.297   7
   3  -1   1 7648.86 190.186   2
  -3  -1  -1 6619.79 212.115   3
  -3   1   1 6844.28 190.821   2
  -3   1   1 6598.25 179.631   1
   3   1   1 7529.31 190.239   2
  -3   1  -1 6206.16 182.602   8
  -3  -1   1 6994.11 179.246   1
   3   1   1 7199.56 178.933   1
  -3  -1   1 6476.92 190.306   2
  -3   1  -1 6974.80 212.298   3
   3  -1  -1 6941.57 179.700   1
   3  -1  -1 6753.57 221.203   6
   3  -1  -1 6153.49 190.393   2
  -4   1   1 21.4636 3.69320   5
  -4   1   1 22.2749 3.24878   1
   4   1  -1 27.4391 3.55413   7
  -4  -1  -1 26.0354 3.00062   1
   4  -1   1 28.1949 2.89226   2
   4   1  -1 26.3717 2.99162   2
  -4  -1  -1 28.3600 3.28280   3
   4  -1   1 28.8556 3.36732   1
   4   1  -1 28.0785 4.18213   5
  -4   1   1 28.2694 3.16476   2
   4   1   1 29.1202 2.98757   1
   4  -1  -1 27.6746 3.04740   2
   4   1   1 29.0311 2.91445   2
  -4   1  -1 26.0868 3.35133   3
   4  -1  -1 26.3817 3.54943   6
  -4  -1   1 27.9689 3.18318   1
  -4   1  -1 23.0078 3.55150   8
   4  -1  -1 38.4176 3.76600   1
  -4  -1   1 20.0534 2.71271   2
  -5   1   1 4294.72 122.310   2
  -5   1   1 4457.63 116.105   1
   5  -1   1 4212.93 115.462   1
  -5   1   1 4079.64 149.787   5
  -5  -1  -1 4194.75 135.037   3
  -5  -1  -1 4301.69 115.157   1
   5   1  -1 4284.09 115.462   1
   5  -1   1 4383.11 121.732   2
   5   1  -1 4366.56 150.542   5
   5   1  -1 4463.96 144.741   7
   5   1  -1 4136.09 122.074   2
   5   1   1 4544.49 149.252   5
   5  -1  -1 4286.94 115.819   1
  -5   1  -1 4213.26 118.131   8
   5   1   1 4467.42 121.965   2
  -5   1  -1 4333.00 115.360   1
   5  -1  -1 4234.11 122.123   2
  -5  -1   1 4222.44 122.098   2
  -5  -1   1 4244.42 115.498   1
   5  -1  -1 4210.88 141.655   6
  -5   1  -1 4537.68 135.515   3
   5   1   1 4180.17 115.000   1
  -6   1   1 373.174 14.9955   1
   6  -1   1 392.882 14.3679   2
   6   1  -1 407.780 14.7818   1
   6   1  -1 387.645 17.5963   7
   6  -1   1 397.440 14.9390   1
  -6  -1  -1 403.620 14.4276   1
   6   1  -1 429.543 17.1761   6
   6  -1  -1 398.600 14.7802   2
   6   1   1 400.440 14.5493   2
  -6   1  -1 399.613 14.7301   1
   6  -1  -1 407.511 15.1597   1
  -6  -1   1 372.046 14.5810   1
   6  -1  -1 410.263 16.9216   6
  -6   1  -1 389.715 15.6219   8
  -6   1  -1 420.396 15.7415   3
   6   1   1 389.636 14.3965   1
   7  -1   1 937.827 29.9469   2
   7   1  -1 921.838 29.4917   1
   7   1  -1 977.641 35.1276   6
  -7   1   1 937.307 29.9267   1
   7  -1   1 910.674 29.5380   1
   7  -1  -1 906.094 29.7982   1
   7   1   1 903.029 29.1064   1
   7   1   1 930.787 30.1234   2
   7  -1  -1 937.507 34.5316   6
  -7  -1   1 920.185 29.4724   1
  -7   1  -1 965.929 30.8608   8
   8  -1   1 17.1589 4.19497   1
   8   1  -1 18.3601 4.49415   6
  -8   1   1 16.0071 4.25898   1
  -8  -1  -1 13.3341 4.30325   8
   8   1  -1 15.0405 4.22043   1
  -8   1   1 13.3750 4.24834   8
   8  -1   1 13.4922 3.31350   2
  -8   1  -1 10.9925 4.18912   8
  -8  -1   1 10.1855 3.84375   1
   8  -1  -1 13.0381 4.10841   1
   8   1   1 8.66230 3.56323   1
   8   1   1 17.1048 3.75470   2
  -9   1   1 881.373 29.8457   1
  -9   1   1 862.012 30.4103   8
  -9  -1  -1 899.640 29.9417   8
   9  -1   1 849.749 29.4755   2
   9  -1   1 873.886 29.6732   1
   9   1  -1 895.813 29.9232   1
  -9  -1   1 887.196 29.7169   1
   9  -1  -1 892.266 29.9764   1
  -9   1  -1 916.542 30.6334   8
   9   1   1 874.340 29.5322   1
 -10   1   1 89.3059 8.76083   1
  10   1  -1 95.9632 8.28933   1
 -10   1   1 72.8115 8.32955   8
  10  -1   1 89.2149 8.01817   1
 -10  -1  -1 98.9384 8.50050   8
 -10   1  -1 95.2063 8.68203   8
  10  -1  -1 94.6703 8.50983   1
  10   1   1 74.7547 8.09361   1
 -10  -1   1 96.9828 8.58489   1
   0  -2  -1 370.328 13.3170   7
   0  -2   1 372.640 11.1626   2
   0   2   1 366.037 11.7996   2
   0   2   1 371.379 13.5709   7
   1   2  -1 609.121 17.6672   8
  -1   2   1 594.488 18.4407   2
   1  -2   1 611.384 17.5111   2
   1   2  -1 590.355 20.0506   6
  -1  -2  -1 615.384 20.7884   7
  -1  -2   1 583.635 17.6898   2
   1   2   1 565.982 17.9777   2
  -1  -2   1 614.611 21.0294   7
  -1   2  -1 601.907 20.8134   3
   1   2   1 590.336 21.0425   7
  -1   2  -1 608.717 17.9826   8
   2   2  -1 2526.31 84.0697   7
   2  -2   1 2480.42 67.3187   1
   2  -2   1 2593.15 70.9715   2
  -2   2   1 2394.08 68.8495   8
   2   2  -1 2367.89 68.4168   8
  -2   2   1 2483.79 71.8898   2
  -2   2  -1 2616.74 80.2857   3
   2   2   1 2472.69 84.2172   7
  -2  -2   1 2605.26 71.2879   2
  -2  -2   1 2563.57 67.2261   1
   2   2   1 2535.51 71.2922   2
   2   2   1 2561.77 66.9892   1
  -2  -2   1 2465.63 84.3168   7
  -2   2  -1 2575.60 69.1673   8
  -2  -2   1 2575.45 71.2770   2
   2  -2  -1 2491.92 82.7555   6
   3  -2   1 301.546 10.3517   1
   3  -2   1 289.151 10.0944   2
  -3   2   1 299.306 10.7426   1
  -3   2   1 283.270 10.6890   2
   3   2  -1 281.016 11.6767   7
  -3  -2  -1 281.114 11.4437   3
  -3   2   1 273.241 10.7333   8
   3   2  -1 280.729 9.88270   1
   3   2  -1 296.328 13.4575   5
   3   2   1 297.118 9.78833   1
   3  -2  -1 292.458 11.8378   6
  -3  -2   1 290.955 9.96978   1
   3  -2  -1 308.470 10.7933   1
  -3   2  -1 296.401 11.0642   8
   3   2   1 296.287 10.2367   2
  -3   2  -1 320.409 12.2585   3
   3  -2  -1 286.766 10.3037   2
   3   2   1 300.478 12.0794   7
  -4   2   1 4429.61 143.982   5
  -4   2   1 3752.02 112.239   8
  -4   2   1 4163.06 116.786   2
   4  -2   1 4252.24 116.243   2
   4  -2   1 3955.28 110.011   1
   4   2  -1 4127.74 116.342   2
  -4  -2  -1 3999.48 129.241   3
  -4   2   1 4156.66 110.658   1
  -4  -2  -1 4142.10 109.435   1
   4   2  -1 4039.32 109.545   1
   4   2  -1 4212.16 143.689   5
   4   2  -1 4044.93 137.319   7
  -4   2  -1 4136.40 109.968   1
   4  -2  -1 3964.24 116.321   2
  -4   2  -1 4412.73 129.965   3
   4  -2  -1 4068.68 110.495   1
   4   2   1 4257.03 109.727   1
  -4  -2   1 4149.62 109.821   1
   4  -2  -1 4031.87 134.988   6
  -4   2  -1 3872.39 112.503   8
   4   2   1 4088.97 137.701   7
  -4  -2   1 4032.71 116.172   2
   4   2   1 4257.93 116.163   2
  -5   2   1 404.834 15.1993   1
  -5  -2  -1 406.432 14.1265   1
  -5   2   1 407.192 18.3554   5
   5   2  -1 435.558 14.7955   2
   5  -2   1 408.793 14.3458   2
  -5   2   1 402.120 15.4549   8
   5  -2   1 420.588 14.8193   1
  -5  -2  -1 406.833 15.7260   3
   5   2  -1 416.605 14.4425   1
   5   2  -1 413.673 17.0975   7
   5  -2  -1 390.983 16.6932   6
   5   2   1 402.907 14.4032   2
  -5   2  -1 417.663 15.7885   8
  -5  -2   1 397.206 14.4351   1
   5   2   1 419.264 17.4358   7
  -5  -2   1 428.501 14.6866   2
   5   2   1 415.644 14.2453   1
   5  -2  -1 394.717 14.4240   2
  -5   2  -1 421.372 14.6123   1
   5  -2  -1 402.578 14.9566   1
  -5   2  -1 439.736 16.3471   3
   6  -2   1 825.268 26.2379   1
  -6   2   1 825.516 27.1299   8
  -6   2   1 802.459 32.4210   5
  -6   2   1 818.361 26.6407   1
  -6  -2  -1 835.157 25.5081   1
   6  -2   1 815.060 26.2422   2
   6   2  -1 818.964 25.7453   1
   6   2   1 850.991 32.1384   5
   6   2   1 819.672 31.4915   7
   6  -2  -1 802.695 26.3265   1
   6  -2  -1 810.374 30.4143   6
  -6   2  -1 843.728 26.6787   1
  -6   2  -1 809.370 27.2601   8
   6   2   1 819.794 26.3267   2
   6   2   1 810.599 25.5186   1
   6  -2  -1 789.558 26.5067   2
  -6  -2   1 800.818 25.7842   1
   7   2  -1 93.6331 7.44230   6
  -7  -2  -1 101.152 7.46416   1
  -7   2   1 95.7604 7.76789   1
   7  -2   1 97.1482 6.30417   2
   7  -2   1 114.930 7.84021   1
   7   2  -1 98.6477 7.10333   1
  -7   2   1 87.7040 7.58774   8
   7   2   1 99.4792 6.48995   2
  -7   2  -1 95.9288 7.87098   8
  -7  -2   1 94.0970 7.15987   1
   7  -2  -1 97.3826 7.48237   1
   7   2   1 97.9259 6.85312   1
  -8   2   1 162.134 10.3108   8
   8   2  -1 130.072 8.72510   1
   8  -2   1 135.328 9.11869   1
   8   2  -1 142.213 9.53579   6
  -8   2   1 133.662 9.40813   1
   8  -2   1 136.452 8.02723   2
   8   2   1 128.014 7.97551   2
   8   2   1 139.004 8.79502   1
  -8   2  -1 127.105 9.53532   8
   8  -2  -1 144.006 9.34542   1
  -8  -2   1 125.466 8.67855   1
   9   2  -1 142.717 9.69938   1
   9  -2   1 142.801 8.69951   2
  -9   2   1 153.373 10.0113   1
   9  -2   1 132.475 9.62889   1
  -9   2   1 138.551 10.3157   8
  -9  -2  -1 154.815 9.79499   8
   9   2   1 137.676 9.43675   1
   9  -2  -1 139.286 9.67641   1
  -9   2  -1 157.430 10.4942   8
  -9  -2   1 157.563 10.2052   1
 -10  -2  -1 618.471 23.4457   8
 -10   2   1 633.300 24.5567   8
  10  -2   1 587.533 23.3938   1
  10   2  -1 682.036 24.4490   1
 -10  -2   1 646.642 24.3926   1
 -10   2  -1 644.660 24.3513   8
  10   2   1 644.987 24.0759   1
  10  -2  -1 621.790 23.8358   1
   0  -3  -1 1.34739 1.46706   7
   0  -3   1 1.02101 1.42024   1
   0   3  -1 1.77670 1.67687   8
   0   3   1 4.56901 1.79529   2
   0   3   1 1.81735 1.64275   1
   0  -3   1 1.45606 1.35016   6
  -1  -3  -1 1785.34 60.3579   7
   1  -3   1 1765.32 51.0230   2
   1  -3   1 1770.73 48.6981   1
   1   3  -1 1796.77 49.6721   8
  -1   3   1 1795.79 49.3067   8
  -1   3   1 1719.97 51.7570   2
  -1   3   1 1820.38 49.0836   1
   1   3   1 1706.40 51.4883   2
  -1  -3   1 1851.31 48.5456   1
  -1  -3   1 1775.47 60.5474   7
  -1  -3   1 1766.62 51.1160   2
   1   3   1 1816.08 60.7320   7
   1   3   1 1847.44 48.6604   1
  -1   3  -1 1848.16 50.0459   8
  -2  -3  -1 42.1030 3.07503   1
   2   3  -1 32.8684 3.01149   7
  -2   3   1 38.7627 3.72194   2
   2   3  -1 39.5709 3.25830   8
   2  -3   1 37.7037 2.83455   2
   2  -3   1 38.2318 3.37512   1
  -2   3   1 40.3266 3.68186   1
  -2   3   1 37.3653 3.62215   8
   2   3  -1 33.3271 2.89625   1
   2  -3  -1 46.1171 3.63699   6
   2  -3  -1 40.1517 3.03707   2
   2   3   1 35.9092 2.95944   1
   2   3   1 35.6642 3.11304   2
   2   3   1 35.5722 3.31264   7
  -2  -3   1 42.3815 3.41873   7
  -2  -3   1 33.1837 2.82675   2
  -2  -3   1 44.7985 3.21279   1
  -3   3   1 894.255 27.2066   1
   3  -3   1 912.018 27.6038   2
   3  -3   1 970.105 31.9139   6
   3   3  -1 901.256 26.9407   8
  -3   3   1 918.311 28.4117   2
   3  -3   1 881.102 26.6238   1
  -3  -3  -1 908.537 31.1301   4
  -3  -3  -1 865.971 26.1543   1
   3   3  -1 962.898 32.4917   7
   3   3  -1 932.166 26.3873   1
   3  -3  -1 941.319 32.3536   6
   3  -3  -1 908.423 27.7946   2
   3   3   1 913.374 32.7117   7
   3   3   1 913.581 27.8320   2
  -3  -3   1 857.031 26.2615   1
   3  -3  -1 949.599 27.3356   1
  -3  -3   1 904.479 27.6642   2
  -3   3  -1 939.566 28.0643   8
  -3  -3   1 924.076 32.6964   7
   3   3   1 902.377 26.2837   1
  -4   3   1 3.92173 2.69100   8
   4   3  -1 2.69289 1.98722   2
  -4   3   1 5.80565 2.66859   1
   4  -3   1 4.00594 2.40793   1
   4   3  -1 0.09562 1.86070   1
   4  -3   1 2.57691 1.92490   2
  -4  -3  -1 3.35360 1.83975   4
   4   3  -1 -0.0542 1.66575   7
  -4   3   1 2.34696 2.34391   2
  -4  -3  -1 0.58625 1.99358   3
  -4  -3  -1 -1.1868 1.67248   1
  -4  -3   1 0.40821 1.83705   2
   4  -3  -1 3.94401 2.10685   2
   4  -3  -1 2.62351 2.32580   6
   4  -3  -1 0.10688 2.01744   1
   4   3   1 3.25717 1.93134   2
  -4  -3   1 0.80277 1.89961   1
   4   3   1 -2.2342 1.57090   1
  -4   3  -1 -3.0090 2.40529   8
  -4   3  -1 1.56973 2.31666   1
   4   3   1 -3.1488 1.60691   7
  -5   3   1 686.506 23.0387   1
  -5  -3  -1 717.064 25.2089   3
   5   3  -1 713.626 22.2890   1
  -5   3   1 709.373 28.6035   5
  -5  -3  -1 704.781 22.0461   1
   5   3  -1 706.924 26.6578   7
  -5   3   1 683.117 23.5552   8
   5  -3   1 680.346 22.5192   1
   5  -3   1 718.919 22.8285   2
   5  -3  -1 677.459 26.2311   6
  -5   3  -1 705.995 22.5105   1
  -5  -3   1 675.066 22.1392   1
  -5   3  -1 713.503 23.8459   8
   5   3   1 731.424 27.1595   7
   5  -3  -1 686.815 22.8284   1
   5  -3  -1 701.271 22.8752   2
  -5  -3   1 721.124 22.7878   2
   5   3   1 690.438 21.9357   1
   5   3   1 717.512 22.9204   2
   6  -3   1 12.7273 3.58101   1
  -6  -3  -1 16.8199 3.51590   1
  -6   3   1 12.2639 4.02414   8
   6   3  -1 11.2574 3.20550   1
  -6   3   1 14.4627 3.98841   5
   6  -3   1 20.2645 3.37800   2
  -6   3   1 10.8068 3.68066   1
   6   3   1 8.74359 2.87329   1
   6  -3  -1 13.8810 3.73160   1
  -6   3  -1 13.2567 3.84836   8
   6   3   1 10.1381 3.05046   7
  -6  -3   1 8.61163 2.98843   1
   6  -3  -1 10.7104 3.39992   6
   6   3   1 11.6955 2.81348   2
   7  -3   1 740.124 24.2499   1
   7   3  -1 713.628 23.6315   1
  -7   3   1 719.813 25.1221   8
  -7  -3  -1 749.012 23.8740   1
   7  -3   1 679.736 23.4579   2
  -7   3   1 700.611 24.3924   1
  -7  -3   1 687.791 23.6392   1
   7   3   1 650.381 23.4134   2
  -7   3  -1 680.281 24.8119   8
   7  -3  -1 666.064 23.8081   1
   7   3   1 659.472 23.0436   1
  -8   3   1 3.37828 3.70942   8
   8  -3   1 6.96850 3.79873   1
  -8   3   1 3.65412 3.76702   1
   8   3  -1 10.8627 3.91491   6
   8   3  -1 6.28283 3.49142   1
   8  -3   1 4.26974 2.83164   2
   8   3   1 3.29282 2.83242   2
  -8   3  -1 1.77738 3.84636   8
   8   3   1 4.39676 3.15682   1
   8  -3  -1 4.72589 3.60668   1
  -8  -3   1 6.09326 3.50760   1
  -9   3   1 380.069 16.7292   1
   9  -3   1 374.479 16.4056   1
   9  -3   1 346.746 15.1433   2
  -9   3   1 361.434 17.0486   8
   9   3  -1 376.415 16.1763   1
  -9  -3   1 371.820 16.2808   1
   9   3   1 354.789 15.8802   1
  -9   3  -1 371.724 16.8407   8
   9  -3  -1 374.021 16.4181   1
 -10   3   1 7.10531 4.68417   8
  10  -3   1 9.48239 4.47920   1
  10   3  -1 4.38000 4.08270   1
  10  -3  -1 9.19865 4.14211   1
 -10   3  -1 9.16182 4.60652   8
 -10  -3   1 8.08437 4.51385   1
  10   3   1 6.32725 4.14070   1
   0   4  -1 2109.71 59.7924   8
   0  -4   1 2236.69 61.8676   2
   0  -4   1 2188.11 71.6384   6
   0  -4  -1 2260.49 61.7400   2
   0  -4  -1 2179.40 73.1864   7
   0   4   1 2237.11 59.0817   8
   0  -4   1 2134.56 58.7679   1
   0   4   1 2124.19 58.8229   1
   0   4   1 2075.70 62.2934   2
   0  -4  -1 2041.39 58.7798   1
   0   4  -1 2106.03 70.5981   6
  -1  -4  -1 231.802 8.67379   1
   1  -4   1 221.072 9.49110   6
  -1   4   1 246.113 8.75075   8
   1   4  -1 222.015 8.16958   1
  -1   4   1 232.540 9.22982   2
   1  -4   1 218.739 8.32526   2
   1   4  -1 218.642 9.00851   6
   1   4  -1 232.141 8.91526   8
  -1   4   1 229.654 8.93772   1
  -1  -4  -1 230.481 9.84216   7
   1  -4   1 226.213 8.80078   1
   1  -4  -1 234.052 10.0599   7
   1   4   1 227.252 10.0876   7
   1   4   1 237.611 7.97504   8
   1  -4  -1 227.187 8.44308   2
   1   4   1 224.099 8.85810   2
  -1  -4   1 229.864 10.0140   7
   1   4   1 230.800 8.60783   1
  -1  -4   1 225.608 8.44713   2
  -1   4  -1 231.123 9.19795   8
   1  -4  -1 229.539 8.93253   1
   2   4  -1 3761.56 106.744   8
  -2  -4  -1 4120.28 131.160   7
  -2   4   1 3948.29 105.627   1
   2   4  -1 4019.84 104.659   1
   2  -4   1 3830.84 111.024   2
   2  -4   1 3889.28 105.236   1
  -2  -4  -1 3985.93 104.934   1
   2   4  -1 3845.80 128.251   6
  -2   4   1 3844.49 111.629   2
   2  -4   1 4128.75 128.803   6
  -2   4   1 3946.73 106.965   8
   2  -4  -1 3887.87 111.112   2
  -2   4  -1 3986.52 105.033   1
  -2  -4   1 3987.13 104.916   1
   2  -4  -1 4075.00 129.022   6
   2   4   1 3919.07 111.457   2
  -2  -4   1 3811.72 111.012   2
   2  -4  -1 3989.69 105.678   1
   2   4   1 3961.36 104.907   1
   2   4   1 3997.19 105.717   8
   2   4   1 3774.54 131.555   7
  -2   4  -1 3928.79 107.472   8
  -2  -4   1 3839.12 131.512   7
   3  -4   1 124.304 6.60441   1
  -3   4   1 109.847 6.65184   1
  -3   4   1 140.373 7.12763   8
   3  -4   1 121.476 6.00366   2
   3   4  -1 147.562 6.73660   8
  -3  -4  -1 121.137 6.06607   1
   3   4  -1 132.375 6.16031   1
  -3   4   1 138.514 6.88273   2
   3   4  -1 131.450 6.81025   7
  -3  -4   1 122.464 6.15358   1
  -3  -4   1 123.300 6.03577   2
   3  -4  -1 145.074 6.46353   2
   3   4   1 121.063 7.00198   7
   3   4   1 120.725 6.36384   2
  -3   4  -1 122.845 7.23356   8
  -3   4  -1 122.333 6.46058   1
   3   4   1 133.148 5.68402   8
   3   4   1 118.552 6.15577   1
   3  -4  -1 123.467 7.18571   6
  -4  -4  -1 4867.65 127.740   1
  -4   4   1 5028.06 128.998   1
   4  -4   1 4856.66 135.619   2
   4   4  -1 4733.45 159.931   7
   4  -4   1 4623.33 128.207   1
  -4   4   1 4668.06 131.149   8
   4   4  -1 4699.23 130.079   8
  -4   4   1 4949.27 136.482   2
   4   4   1 4783.23 160.635   7
  -4   4  -1 4697.93 131.456   8
  -4  -4   1 4888.72 135.661   2
  -4   4  -1 4673.67 128.025   1
   4   4   1 4720.63 135.778   2
  -4  -4   1 4774.05 127.878   1
   4  -4  -1 4734.50 128.595   1
   4  -4  -1 4748.88 135.733   2
   4  -4  -1 5093.68 157.749   6
   4   4   1 4747.33 127.823   1
  -5  -4  -1 212.838 9.19361   1
   5  -4   1 213.508 9.66008   1
  -5  -4  -1 205.576 10.0555   3
  -5   4   1 213.387 10.5928   8
   5   4  -1 199.913 9.13125   1
   5  -4   1 218.886 9.30347   2
  -5   4   1 210.204 12.0113   5
  -5   4   1 207.345 10.3162   1
  -5  -4   1 216.029 9.27002   2
  -5  -4   1 199.068 9.23378   1
   5  -4  -1 196.387 9.69558   1
   5   4   1 214.514 9.55746   2
   5   4   1 203.679 9.12171   1
  -5   4  -1 186.974 10.2861   8
   5  -4  -1 211.132 9.38744   2
   5   4   1 220.521 11.0832   7
   5  -4  -1 208.226 10.6383   6
  -6  -4  -1 1861.87 52.2317   1
  -6   4   1 1791.11 54.5876   8
   6   4  -1 1808.60 52.1484   1
   6  -4   1 1811.87 52.7710   1
   6  -4   1 1816.18 54.5783   2
  -6   4   1 1864.00 53.5175   1
  -6  -4   1 1828.66 52.4423   1
   6   4   1 1822.41 52.1783   1
  -6   4  -1 1851.30 54.8034   8
   6   4   1 1842.88 54.8526   2
   6  -4  -1 1753.71 52.8381   1
  -7  -4  -1 71.7102 7.18802   1
   7   4  -1 66.0634 6.40739   1
   7  -4   1 65.2109 5.70084   2
   7  -4   1 69.8359 6.53088   1
  -7   4   1 65.0693 7.16991   1
  -7   4   1 47.2760 6.64025   8
   7   4   1 66.3427 6.18770   1
   7  -4  -1 61.1701 6.67683   1
   7   4   1 56.2017 5.65923   2
  -7  -4   1 68.0556 6.42924   1
  -7   4  -1 70.7560 7.47252   8
  -8   4   1 755.565 26.3871   1
  -8   4   1 722.693 26.8624   8
   8  -4   1 713.440 25.0938   2
   8  -4   1 696.612 25.3753   1
   8   4  -1 747.145 25.3079   1
   8   4   1 737.418 25.1525   1
  -8  -4   1 725.115 25.3553   1
  -8   4  -1 722.605 26.7059   8
   8  -4  -1 751.247 25.9748   1
   9   4  -1 71.7806 7.50981   1
  -9   4   1 71.8639 8.25794   1
   9  -4   1 54.0432 6.76180   1
   9   4  -1 60.5033 7.00195   6
  -9   4   1 60.0674 7.85387   8
  -9   4  -1 72.8129 8.44768   8
   9   4   1 63.4460 7.29946   1
   9  -4  -1 61.0705 7.34329   1
  -9  -4   1 71.9042 7.69603   1
  10  -4   1 1066.72 35.0182   1
 -10   4   1 1053.96 36.1595   8
  10   4  -1 1044.05 34.7908   1
 -10   4  -1 985.044 35.5140   8
  10  -4  -1 1026.58 34.9026   1
 -10  -4   1 1081.06 35.2155   1
  10   4   1 1032.82 34.6884   1
   0   5   1 0.98426 1.75466   1
   0   5  -1 3.91182 2.04445   8
   0  -5  -1 2.53075 1.65893   2
   0  -5  -1 1.17761 1.96272   1
   0   5   1 -1.1483 1.65402   2
   0   5  -1 3.99131 2.00495   1
   0  -5   1 0.62853 1.78771   1
   0   5   1 -1.3496 1.51033   8
   0  -5   1 12.3100 2.39284   2
   0  -5  -1 -1.6551 1.47927   7
   0   5  -1 7.87167 1.68526   6
   1   5  -1 63.2860 4.25131   6
  -1   5   1 76.5912 4.77045   8
  -1  -5  -1 71.2399 4.34082   2
   1   5  -1 63.9203 4.79761   8
  -1  -5  -1 75.5489 5.20347   7
   1  -5   1 72.8297 4.48259   2
  -1  -5  -1 62.9120 4.79415   1
   1  -5   1 55.9634 4.67465   1
  -1   5   1 63.5875 4.91693   1
   1   5  -1 76.2796 4.63516   1
  -1   5   1 69.3840 5.11247   2
  -1   5  -1 77.3552 4.77166   1
   1  -5  -1 72.2383 5.11388   7
   1  -5  -1 70.2356 4.30910   2
  -1   5  -1 63.5627 5.07985   8
   1  -5  -1 71.8424 5.26736   1
   1   5   1 74.7799 4.22889   8
  -1  -5   1 65.8312 4.34083   2
  -1   5  -1 76.4354 4.13434   6
  -1  -5   1 70.5438 4.71962   1
   1   5   1 71.7196 4.79747   1
   1   5   1 71.4283 4.83032   2
  -2   5   1 584.197 19.4030   8
  -2  -5  -1 595.958 19.0995   1
   2   5  -1 605.651 21.7344   6
  -2   5   1 556.470 19.3812   1
  -2  -5  -1 595.277 22.6526   7
   2  -5   1 584.039 19.4702   2
   2   5  -1 624.785 19.5730   8
   2  -5   1 607.450 19.6384   1
   2   5  -1 590.484 18.7647   1
  -2   5   1 616.270 20.2971   2
   2   5   1 618.248 23.1198   7
  -2   5  -1 588.678 19.9571   8
   2   5   1 606.066 19.1133   1
   2  -5  -1 620.498 19.5621   2
   2   5   1 606.756 18.3728   8
  -2   5  -1 622.247 19.0761   1
  -2  -5   1 592.406 19.0509   1
  -2  -5   1 613.820 19.5303   2
   2  -5  -1 622.192 19.9505   1
   2   5   1 598.976 19.9068   2
  -3   5   1 692.611 22.7743   1
   3   5  -1 723.666 22.6090   8
  -3  -5  -1 723.023 22.1628   1
   3  -5   1 681.115 22.4705   1
   3  -5   1 704.835 22.8172   2
  -3   5   1 722.506 23.6702   2
  -3   5   1 688.680 22.8334   8
   3  -5  -1 697.770 22.8159   1
  -3   5  -1 740.943 22.4537   1
   3   5   1 702.717 23.1314   2
   3   5   1 724.882 22.0313   1
   3  -5  -1 716.156 22.8782   2
  -3  -5   1 691.780 22.7311   2
  -3  -5   1 687.423 22.7062   2
   3   5   1 729.191 26.9265   7
  -3  -5   1 698.935 22.0696   1
  -3   5  -1 708.323 23.5033   8
   3   5   1 758.949 21.5919   8
   3  -5  -1 743.250 26.5547   6
   4  -5   1 18.4375 3.13939   2
  -4  -5  -1 23.0354 3.49309   1
   4   5  -1 14.6285 2.97944   1
   4  -5   1 19.6277 3.55977   1
   4   5  -1 16.3191 3.31165   8
  -4   5   1 20.2431 3.87688   1
  -4   5   1 20.2396 4.02954   8
   4   5   1 19.7459 3.40189   2
   4  -5  -1 14.2680 3.26378   1
  -4   5  -1 20.8585 3.56264   1
   4   5   1 13.5532 2.89297   1
  -4   5  -1 18.2266 3.99278   8
  -4  -5   1 15.5468 2.94578   1
   4  -5  -1 17.7639 3.30718   2
   4   5   1 16.5133 3.21535   7
   4  -5  -1 20.4531 3.63135   6
  -4  -5   1 18.7936 3.17857   2
   5  -5   1 337.636 13.1952   2
   5   5  -1 341.883 13.0349   1
  -5  -5  -1 331.669 12.9103   1
   5  -5   1 360.308 13.5847   1
  -5   5   1 333.446 14.2554   8
  -5   5   1 334.351 13.9805   1
  -5   5  -1 341.455 14.6125   8
   5   5   1 351.595 13.1404   1
  -5  -5   1 314.013 12.9491   1
   5   5   1 341.955 13.5467   2
   5  -5  -1 338.896 13.6610   1
  -6  -5  -1 336.009 13.1435   1
   6  -5   1 304.547 13.1700   1
  -6   5   1 318.649 13.9436   1
   6  -5   1 316.567 12.8496   2
  -6   5   1 326.804 14.4770   8
   6   5  -1 311.018 12.8527   1
  -6  -5   1 296.489 12.9055   1
  -6   5  -1 326.555 14.6820   8
   6  -5  -1 327.853 13.6100   1
   6   5   1 292.660 12.8353   1
   6   5   1 321.905 13.4177   2
  -7   5   1 62.8929 7.50658   8
   7   5  -1 74.9846 6.51783   1
  -7   5   1 74.4439 7.63860   1
   7  -5   1 78.3638 6.21597   2
   7  -5   1 76.6331 6.86782   1
   7   5   1 79.0301 6.70107   1
  -7   5  -1 88.1985 8.17097   8
   7  -5  -1 83.1350 7.38256   1
  -7  -5   1 70.1240 6.79689   1
   8  -5   1 25.1006 4.47425   2
   8   5  -1 20.9590 4.48734   1
  -8   5   1 16.8771 5.05358   8
  -8   5   1 22.7658 5.41779   1
   8  -5   1 18.0096 4.44063   1
  -8  -5   1 31.5909 5.51979   1
  -8   5  -1 18.3573 5.28373   8
   8   5   1 18.3021 4.20426   1
   8  -5  -1 24.5490 5.04890   1
   9  -5   1 1.92653 3.64693   1
   9   5  -1 10.6689 4.26472   1
  -9   5   1 2.28321 4.32979   8
   9  -5  -1 6.32393 4.18016   1
   9   5   1 -5.0296 3.00403   1
  -9  -5   1 4.00336 4.05442   1
  -9   5  -1 3.30514 4.29033   8
   0   6  -1 3200.67 84.5746   1
   0  -6   1 3078.61 85.0256   1
   0   6   1 3086.61 89.8931   2
   0   6  -1 3030.12 86.2735   8
   0   6  -1 3131.45 102.086   6
   0  -6  -1 3051.98 85.1730   1
   0  -6  -1 3113.93 105.355   7
   0  -6   1 3088.97 89.4652   2
   0   6   1 3175.70 84.8583   1
   0   6   1 3210.19 85.4662   8
  -1  -6  -1 46.1332 4.59831   7
   1  -6   1 41.5007 4.57310   1
  -1   6   1 47.3798 4.22634   8
   1   6  -1 46.3832 4.17377   1
  -1   6   1 47.1859 4.67196   2
  -1   6   1 41.3920 4.50215   1
   1   6  -1 42.7057 3.62499   6
   1  -6   1 39.6306 3.97522   2
   1   6  -1 40.9250 4.38068   8
  -1  -6  -1 38.6183 4.25260   1
   1   6   1 46.4274 4.52083   1
  -1  -6   1 49.5206 4.03399   2
   1  -6  -1 36.8790 4.37829   1
   1   6   1 47.2555 3.82949   8
  -1   6  -1 38.4329 4.64499   8
  -1  -6   1 43.2186 4.42379   1
   1  -6  -1 43.1188 4.32969   2
   1   6   1 43.3115 4.57141   2
  -1   6  -1 48.3338 3.57293   6
  -1   6  -1 47.8090 4.31351   1
   2   6  -1 2054.89 58.3779   8
  -2   6   1 2033.91 58.1171   8
  -2  -6  -1 2102.23 57.5844   1
   2  -6   1 1995.16 60.0237   2
   2   6  -1 2054.48 56.8603   1
   2  -6   1 2036.25 57.9347   1
  -2   6   1 1998.36 57.7634   1
   2   6   1 2043.21 57.3128   1
  -2   6  -1 2003.21 58.7379   8
   2   6   1 2113.04 57.1489   8
  -2  -6   1 2020.69 59.9665   2
   2   6   1 2068.40 60.4705   2
   2  -6  -1 2061.43 58.1276   1
  -2   6  -1 2080.86 57.2091   1
  -2  -6   1 2113.39 57.5196   1
   3  -6   1 27.0579 4.07903   1
  -3   6   1 29.9330 4.24411   1
   3   6  -1 30.8931 4.32227   8
  -3  -6  -1 31.8514 4.01835   1
   3  -6   1 33.5338 3.96035   2
  -3   6   1 24.3826 4.02491   8
   3   6  -1 26.8796 3.66468   1
  -3  -6   1 44.0958 4.02985   2
  -3  -6   1 40.5159 4.37310   1
   3   6   1 33.8736 3.63997   8
  -3   6  -1 29.7862 4.12902   1
  -3   6  -1 38.9197 4.91800   8
   3   6   1 32.2609 3.95145   1
   3   6   1 30.7394 3.98099   2
  -3  -6   1 32.7047 3.73647   2
   3   6   1 20.6003 3.82211   7
   3  -6  -1 26.2768 4.15624   1
   4  -6   1 1183.26 36.2591   1
   4  -6   1 1219.53 37.2045   2
  -4   6   1 1220.16 37.0441   8
   4   6  -1 1197.68 36.2013   8
   4   6  -1 1182.97 35.3861   1
  -4  -6  -1 1175.13 35.5969   1
  -4   6   1 1201.40 36.4056   1
  -4   6  -1 1162.61 37.3136   8
   4  -6  -1 1237.52 43.0111   6
   4  -6  -1 1204.89 36.4189   1
   4   6   1 1180.36 35.6997   1
   4   6   1 1168.86 37.2975   2
  -4  -6   1 1235.29 37.0422   2
  -4  -6   1 1210.57 35.9038   1
  -5  -6  -1 21.1073 3.86122   1
   5   6  -1 27.1500 4.01983   1
   5  -6   1 23.7277 4.12617   1
  -5   6   1 22.4268 4.58187   8
  -5   6   1 32.9158 5.11129   1
  -5  -6   1 26.6250 4.17381   1
   5   6   1 26.6308 4.28282   1
   5   6   1 33.9959 4.94910   2
   5  -6  -1 19.9789 4.23835   1
  -5   6  -1 30.8992 5.26323   8
   6  -6   1 1420.23 42.2701   1
  -6  -6  -1 1387.74 41.5556   1
   6  -6   1 1434.81 43.4569   2
   6   6  -1 1433.27 41.7752   1
  -6   6   1 1429.80 42.7070   1
  -6   6   1 1383.42 43.4305   8
  -6  -6   1 1368.59 41.8590   1
   6  -6  -1 1361.18 42.2994   1
   6   6   1 1331.57 41.5395   1
  -6   6  -1 1350.67 43.7828   8
   7   6  -1 2.14985 3.11666   1
  -7   6   1 4.87966 3.86648   8
   7  -6   1 3.62219 3.02020   2
  -7   6   1 5.27292 3.89785   1
   7  -6   1 4.80735 3.39128   1
   7  -6  -1 0.88385 3.17072   1
  -7  -6   1 1.32301 2.99373   1
   7   6   1 1.22535 3.10080   1
  -7   6  -1 0.01989 3.79370   8
  -8   6   1 1089.38 37.5282   8
   8  -6   1 1130.96 36.2416   1
   8   6  -1 1130.31 36.0412   1
  -8   6   1 1128.64 37.1918   1
  -8  -6   1 1158.66 36.6820   1
  -8   6  -1 1079.45 37.6186   8
   8  -6  -1 1156.40 36.7605   1
   8   6   1 1119.84 36.0757   1
  -9   6   1 18.2919 5.31461   8
   9  -6   1 17.8042 4.92680   1
   9   6  -1 20.8714 5.11847   1
  -9  -6   1 25.0554 5.63318   1
  -9   6  -1 15.1811 5.17734   8
   9  -6  -1 39.3153 6.31486   1
   9   6   1 22.8199 5.24534   1
   0  -7  -1 4.40075 2.72662   1
   0  -7   1 11.9252 2.96407   2
   0  -7   1 1.75687 2.37964   1
   0   7  -1 0.78150 2.19241   1
   0   7  -1 -1.2674 2.20444   8
   0   7   1 0.45396 2.22832   1
   0   7   1 4.53770 2.32579   8
   1   7  -1 802.823 25.0901   1
  -1   7   1 803.053 25.1855   8
  -1  -7  -1 793.381 25.5999   1
   1  -7   1 813.868 26.0993   2
   1   7  -1 789.650 25.8694   8
  -1   7   1 789.179 25.5991   1
   1   7   1 843.651 25.0049   8
  -1   7  -1 794.894 25.1374   1
   1  -7  -1 771.930 25.8605   1
  -1   7  -1 821.535 27.8935   6
  -1   7  -1 805.763 26.0706   8
  -1  -7   1 780.890 25.5024   1
  -1  -7   1 831.733 26.1726   2
   1   7   1 844.451 25.5846   1
  -2  -7  -1 122.932 7.35813   1
   2  -7   1 118.804 7.66321   1
   2  -7   1 122.872 6.89133   2
   2   7  -1 141.577 7.28391   1
  -2   7   1 130.471 7.71718   1
   2   7  -1 125.111 7.37669   8
  -2   7   1 125.925 7.23005   8
  -2   7  -1 122.447 7.67483   8
  -2  -7   1 120.309 6.84016   2
   2   7   1 121.795 7.33468   1
   2   7   1 128.679 6.50739   8
  -2   7  -1 128.393 7.39540   1
   2  -7  -1 129.094 7.96761   1
  -2  -7   1 114.841 7.22434   1
  -3   7   1 1761.82 50.8389   1
   3  -7   1 1690.55 52.3283   2
   3  -7   1 1710.91 50.7233   1
   3   7  -1 1787.31 51.0677   8
   3   7  -1 1740.58 49.9570   1
  -3  -7  -1 1783.99 50.2913   1
  -3   7   1 1740.18 51.0526   8
   3  -7  -1 1783.57 51.2247   1
  -3  -7   1 1775.09 52.2579   2
   3   7   1 1713.63 50.0834   1
  -3   7  -1 1708.72 51.6054   8
  -3  -7   1 1750.29 52.2536   2
  -3  -7   1 1761.40 50.3202   1
  -4   7   1 1.65737 3.04228   8
  -4  -7  -1 9.83300 3.25786   1
   4   7  -1 4.03972 2.70648   8
  -4   7   1 -0.5492 2.76235   1
   4   7  -1 5.61120 2.81414   1
   4  -7   1 7.17259 3.23038   1
   4  -7   1 4.97501 2.67737   2
  -4   7  -1 17.8125 4.23197   8
   4  -7  -1 7.54244 3.38501   1
  -4  -7   1 9.65320 3.19499   1
   4   7   1 3.89440 2.74111   1
   5   7  -1 1232.80 37.7266   1
  -5   7   1 1208.18 38.6217   1
  -5   7   1 1280.94 39.6625   8
  -5  -7  -1 1277.36 38.0629   1
   5   7  -1 1248.67 38.4496   8
   5  -7   1 1353.71 39.9856   2
   5  -7   1 1272.13 38.6219   1
  -5   7  -1 1226.77 39.8604   8
   5  -7  -1 1213.92 38.5221   1
   5   7   1 1220.39 38.1023   1
  -5  -7   1 1246.60 38.1770   1
   6  -7   1 93.7784 7.64302   1
  -6   7   1 92.9676 8.07004   1
  -6  -7  -1 101.255 7.59508   1
   6   7  -1 86.5806 7.00519   1
  -6   7   1 87.7693 8.05599   8
   6  -7   1 91.7218 7.09080   2
  -6   7  -1 83.7902 8.07555   8
   6   7   1 97.2885 7.59645   1
   6  -7  -1 95.3617 7.91524   1
  -6  -7   1 94.9945 7.68961   1
  -7   7   1 369.289 16.2758   1
   7  -7   1 352.199 15.1599   1
  -7   7   1 337.058 15.8414   8
   7   7  -1 332.892 14.8646   1
   7  -7  -1 345.139 15.4318   1
  -7  -7   1 355.387 15.3773   1
  -7   7  -1 299.158 15.6038   8
   8  -7   1 -0.8052 3.25595   1
   8   7  -1 2.95055 3.31509   1
  -8   7   1 5.37073 4.35869   8
   8  -7  -1 4.58909 3.83749   1
   8   7   1 7.83722 3.96496   1
  -8  -7   1 5.30649 4.02225   1
  -8   7  -1 3.62333 3.97351   8
   0   8  -1 1182.97 35.6630   1
   0  -8  -1 1174.14 36.5995   1
   0  -8   1 1210.18 36.6824   1
   0   8  -1 1149.66 36.5056   8
   0  -8   1 1230.30 37.6661   2
   0   8   1 1208.41 35.7817   8
   0   8   1 1212.10 36.2190   1
  -1   8   1 193.485 9.40866   1
  -1  -8  -1 186.044 9.46812   1
   1   8  -1 178.963 9.30347   8
   1   8  -1 171.657 8.85832   1
   1  -8   1 176.203 8.83121   2
   1  -8   1 176.613 9.75814   1
  -1   8   1 179.641 8.78677   8
  -1   8  -1 172.068 9.29876   8
   1   8   1 170.803 8.38365   8
  -1  -8   1 169.534 9.11657   1
   1  -8  -1 177.711 9.76318   1
   1   8   1 192.331 9.46457   1
  -1  -8   1 179.279 8.94437   2
   2   8  -1 215.568 10.3689   8
   2   8  -1 217.279 10.0917   1
  -2  -8  -1 230.525 10.7119   1
   2  -8   1 223.720 10.9674   1
  -2   8   1 222.150 10.6274   1
   2  -8   1 209.193 9.98119   2
  -2   8   1 230.600 10.5636   8
  -2  -8   1 231.751 10.2228   2
   2   8   1 223.289 10.4068   1
  -2   8  -1 216.676 10.7529   8
   2  -8  -1 216.867 11.0217   1
  -2  -8   1 204.811 10.4346   1
  -3   8   1 110.788 7.66474   1
   3   8  -1 110.982 7.41806   8
   3  -8   1 104.386 6.91255   2
   3  -8   1 100.793 7.66644   1
   3   8  -1 106.069 7.21345   1
  -3  -8  -1 110.661 7.44100   1
  -3   8   1 113.504 7.52400   8
   3   8   1 115.225 7.42985   1
  -3  -8   1 117.285 7.74704   1
  -3   8  -1 106.377 7.83441   8
   3  -8  -1 107.224 8.25957   1
  -4  -8  -1 4.24369 3.03711   1
  -4   8   1 -1.3962 2.91306   1
   4  -8   1 4.27390 2.84878   2
   4   8  -1 4.76469 3.12405   1
   4   8  -1 1.58832 2.76803   8
  -4   8   1 4.34972 3.29687   8
   4  -8   1 11.6989 3.81083   1
  -4  -8   1 18.0575 4.21834   1
   4  -8  -1 4.08061 3.22693   1
  -4   8  -1 3.76198 3.27563   8
   4   8   1 2.12149 2.65294   1
  -5   8   1 155.673 9.82866   1
   5   8  -1 134.603 8.70605   8
  -5   8   1 140.703 9.33041   8
  -5  -8  -1 147.814 8.92614   1
   5   8  -1 151.003 8.93489   1
   5  -8   1 146.539 9.38492   1
   5  -8   1 155.665 8.93919   2
  -5  -8   1 151.099 9.16983   1
  -5   8  -1 143.364 9.72018   8
   5  -8  -1 159.015 9.57664   1
   5   8   1 155.253 9.28647   1
   6   8  -1 249.251 12.2696   1
   6  -8   1 273.916 13.0615   1
  -6  -8  -1 264.997 13.2792   1
  -6   8   1 249.752 13.0526   8
  -6   8   1 253.096 12.9964   1
   6  -8  -1 240.329 12.7101   1
   6   8   1 235.992 12.2455   1
  -6   8  -1 257.586 13.3572   8
  -6  -8   1 283.792 13.1348   1
   7  -8   1 28.4937 5.43654   1
  -7   8   1 33.7385 6.04841   8
   7   8  -1 38.2731 5.78696   1
  -7   8  -1 28.8618 5.62498   8
  -7  -8   1 33.4669 5.72100   1
   7  -8  -1 35.7737 5.90751   1
   7   8   1 39.4813 5.78569   1
   0   9  -1 0.68890 2.76884   8
   0  -9  -1 0.32468 2.98544   1
   0   9   1 -0.5328 2.79153   1
   0  -9   1 -1.0710 2.84347   1
   1   9  -1 1897.53 55.1838   8
  -1   9   1 1927.13 54.7661   1
   1  -9   1 1866.01 55.1064   1
  -1   9   1 1974.85 54.6815   8
  -1  -9  -1 1807.33 54.6116   1
   1  -9   1 1843.40 56.7008   2
  -1   9  -1 1870.19 55.4770   8
   1   9   1 1888.14 54.4595   1
   1  -9  -1 1887.26 55.1879   1
  -1  -9   1 1810.44 54.8181   1
  -2  -9  -1 68.6310 6.56000   1
  -2   9   1 65.7432 6.59675   1
  -2   9   1 75.5391 6.56211   8
   2  -9   1 69.6982 5.83093   2
   2  -9   1 58.1569 6.50518   1
   2   9  -1 65.3115 6.20560   8
   2  -9  -1 78.7745 7.19390   1
  -2   9  -1 61.9798 6.59844   8
   2   9   1 63.3979 6.39142   1
  -2  -9   1 72.7775 6.63440   1
  -3   9   1 888.382 29.2545   1
   3  -9   1 882.581 29.6901   2
  -3  -9  -1 906.482 29.3540   1
   3   9  -1 896.027 29.2143   1
  -3   9   1 902.633 29.3222   8
   3   9  -1 917.735 29.4197   8
   3  -9   1 907.897 29.6383   1
  -3  -9   1 895.479 29.3110   1
   3  -9  -1 898.161 30.1819   1
  -3   9  -1 876.222 29.8178   8
   3   9   1 888.687 28.8885   1
   4   9  -1 1.13937 2.99664   1
   4   9  -1 0.22801 2.81461   8
  -4  -9  -1 2.51839 3.01817   1
  -4   9   1 1.57417 3.03946   8
  -4   9   1 2.08509 3.18315   1
   4  -9   1 1.48176 3.30386   1
  -4   9  -1 3.69527 3.56677   8
  -4  -9   1 10.4287 3.81759   1
   4  -9  -1 7.33515 3.83214   1
   4   9   1 3.37224 2.95660   1
   5  -9   1 880.360 29.0919   1
  -5  -9  -1 868.926 28.3237   1
  -5   9   1 851.415 28.5527   1
   5   9  -1 829.221 27.9946   1
   5   9  -1 854.821 28.1521   8
  -5   9   1 835.048 28.6903   8
  -5   9  -1 808.276 29.0411   8
  -5  -9   1 810.427 28.1676   1
   5   9   1 790.064 27.9221   1
   5  -9  -1 828.784 28.6437   1
  -6   9   1 28.5158 5.51958   8
   6  -9   1 29.3514 5.36236   1
   6   9   1 38.0879 5.69482   1
  -6   9  -1 30.0407 5.72267   8
   6  -9  -1 27.0027 5.02165   1
  -6  -9   1 31.7179 5.57680   1
   0 -10   1 23.2379 4.62396   1
   0  10  -1 25.2282 4.72293   8
   0 -10  -1 28.1786 5.21983   1
   0  10   1 27.6390 4.80597   1
   1  10  -1 16.6092 4.35462   8
   1 -10   1 13.3048 4.26049   1
  -1  10   1 22.4167 4.43669   1
  -1 -10  -1 39.6569 5.83357   1
  -1 -10   1 10.5604 3.83303   1
   1 -10  -1 18.4995 4.55969   1
   1  10   1 15.4281 3.97817   1
  -1  10  -1 21.6825 4.54236   8
   2  10  -1 112.219 7.92615   8
  -2 -10  -1 111.016 8.25288   1
   2 -10   1 115.131 8.66381   1
  -2  10   1 111.944 8.00715   1
   2 -10  -1 124.870 9.07010   1
   2  10   1 98.2156 7.79431   1
  -2 -10   1 116.898 8.38345   1
  -2  10  -1 107.399 8.15252   8
  -3  10   1 14.8172 4.25366   8
  -3 -10  -1 17.6573 4.28768   1
  -3  10   1 13.8752 3.98859   1
   3  10  -1 13.6902 3.95522   8
   3 -10   1 14.0488 4.51937   1
  -3  10  -1 14.8511 4.19707   8
   3 -10  -1 11.1742 4.32522   1
   3  10   1 10.3616 3.78160   1
  -3 -10   1 14.6687 4.26471   1
   4 -10   1 208.622 11.6730   1
  -4  10   1 220.473 11.5875   1
   4  10  -1 210.169 11.0295   8
  -4  10   1 200.267 11.0613   8
  -4 -10  -1 242.210 11.9048   1
   4  10   1 203.568 11.1585   1
  -4  10  -1 210.883 11.6825   8
   4 -10  -1 195.862 11.5861   1
  -4 -10   1 199.390 11.4113   1
  -5  10   1 23.8405 5.06295   8
   5  10  -1 22.2607 4.81876   8
   5 -10   1 12.2959 4.57221   1
  -5 -10   1 25.2857 5.05014   1
   5 -10  -1 15.3693 4.57826   1
  -5  10  -1 11.7612 4.63083   8
   5  10   1 24.8646 5.06516   1
   0 -11  -1 -0.6371 3.00710   1
   0  11  -1 1.28549 3.31654   8
   0  11   1 2.05875 3.13590   1
   0 -11   1 4.06316 3.42113   1
   1 -11   1 943.994 32.1084   1
  -1 -11  -1 985.954 32.3716   1
  -1  11   1 968.339 31.5643   1
   1  11  -1 972.949 31.7558   8
   1  11   1 1008.74 31.8745   1
  -1  11  -1 1015.93 32.3034   8
   1 -11  -1 934.998 32.1744   1
  -1 -11   1 943.860 32.0578   1
   2  11  -1 118.387 8.46569   8
   2 -11   1 116.737 9.03033   1
  -2 -11  -1 126.902 9.11117   1
  -2  11   1 115.227 8.57843   1
   2 -11  -1 124.325 9.49021   1
   2  11   1 120.924 8.66642   1
  -2 -11   1 123.399 8.78258   1
  -2  11  -1 123.169 8.90378   8
   0   0  -2 5589.30 168.195   4
   0   0  -2 4660.18 160.054   3
  -1   0  -2 2687.35 88.7912   3
  -1   0   2 2784.70 98.0059   5
   1   0  -2 2730.44 88.0414   3
   1   0  -2 3010.60 92.7746   4
  -2   0   2 7064.98 177.296   1
  -2   0   2 7109.98 232.823   5
  -2   0  -2 5891.52 210.389   3
  -2   0   2 6962.79 188.003   2
   3   0   2 134.852 5.02362   2
   3   0  -2 131.892 5.97863   6
  -3   0   2 141.413 8.62972   5
  -3   0  -2 137.791 7.43122   3
  -3   0  -2 137.087 6.27638   8
  -3   0   2 136.338 6.06109   2
   3   0  -2 153.181 6.57510   7
   3   0   2 139.224 5.54725   1
  -3   0   2 137.603 6.36788   1
   4   0   2 1662.69 45.6545   1
  -4   0   2 1646.93 60.9813   5
   4   0  -2 1649.78 56.8177   7
   4   0  -2 1655.29 55.6468   6
  -4   0   2 1636.30 48.7038   2
  -4   0  -2 1663.41 47.1343   8
   4   0  -2 1657.53 46.4826   1
  -4   0   2 1684.67 46.7198   1
  -4   0  -2 1614.00 54.4443   3
   4   0   2 1712.22 47.6915   2
  -5   0   2 1068.20 32.4100   2
   5   0   2 1031.19 30.5429   1
   5   0  -2 1033.25 37.4890   7
  -5   0  -2 1043.54 31.6552   8
  -5   0   2 1061.88 31.4683   1
   5   0  -2 1057.27 36.7335   6
   5   0   2 1055.22 31.4968   2
   5   0  -2 1079.41 31.4291   1
  -5   0   2 1017.82 40.4541   5
  -5   0  -2 1011.50 35.6828   3
   6   0   2 1419.05 42.7531   2
  -6   0  -2 1365.83 42.2323   8
  -6   0   2 1434.44 43.5641   2
  -6   0   2 1440.23 42.0829   1
   6   0   2 1400.80 41.0418   1
  -6   0  -2 1417.37 47.8714   3
   6   0  -2 1463.48 42.0033   1
   6   0  -2 1444.09 49.5002   6
   7   0   2 117.625 7.58841   1
   7   0  -2 132.022 8.03166   6
  -7   0   2 129.490 8.18146   1
   7   0  -2 117.264 7.96060   1
   7   0   2 120.465 7.04468   2
  -7   0  -2 129.414 8.11358   8
   8   0   2 4771.96 133.486   1
  -8   0   2 4915.91 134.121   1
   8   0   2 5083.58 140.833   2
   8   0  -2 4930.39 134.306   1
  -8   0  -2 5002.79 136.274   8
   8   0  -2 4819.23 162.633   6
   9   0  -2 17.1375 4.19627   6
   9   0   2 17.1618 4.23894   1
   9   0  -2 20.1062 4.79882   1
   9   0   2 21.3479 4.18268   2
  -9   0   2 22.8383 5.14966   1
  -9   0  -2 26.5448 5.33514   8
 -10   0  -2 503.354 20.1751   8
  10   0  -2 517.027 20.3326   1
 -10   0   2 512.679 20.2299   1
 -10   0   2 502.156 20.9678   8
  10   0   2 494.852 19.3832   2
  10   0   2 470.381 19.3989   1
   0  -1  -2 6.66177 2.14915   3
   0   1  -2 0.22208 1.87451   3
   0  -1  -2 1.40575 1.98942   4
   0  -1   2 5.90593 2.06927   5
   1   1  -2 2780.74 85.0270   3
   1   1  -2 2706.05 89.0081   4
  -1  -1  -2 2660.53 89.3987   4
  -1  -1  -2 2759.45 85.7875   3
   1   1  -2 2572.17 94.1241   5
   1   1  -2 2640.95 72.8459   8
   1  -1   2 2765.16 92.8059   5
  -1   1   2 2743.36 75.5411   2
   1  -1  -2 2716.46 85.0488   3
  -1   1  -2 2607.30 85.6421   3
  -1  -1   2 2678.51 94.1513   5
  -2   1   2 39.6051 3.49930   1
  -2  -1  -2 39.5785 4.18492   3
   2   1  -2 45.2463 3.34992   8
   2   1  -2 40.3190 4.53662   5
  -2   1   2 43.9900 5.08272   5
  -2   1   2 34.5192 2.95391   2
   2   1  -2 43.1368 3.01373   3
  -2  -1   2 42.1898 4.40042   5
  -2  -1   2 39.2110 3.01395   7
   2   1   2 39.7141 2.42211   1
  -2  -1   2 39.6680 2.98129   1
  -2   1  -2 39.9599 4.10148   3
   2  -1  -2 45.6019 3.31821   3
  -2  -1   2 44.3284 2.67777   2
  -2   1  -2 43.4210 3.34223   8
   3   1  -2 311.230 11.5767   6
   3  -1   2 319.977 10.5140   1
  -3   1   2 295.661 11.2426   2
   3   1  -2 362.238 12.2965   7
  -3   1   2 313.127 15.1396   5
   3  -1   2 323.526 10.0102   2
  -3  -1  -2 310.301 13.1722   3
   3   1  -2 323.215 14.8353   5
   3   1   2 310.187 10.3761   2
  -3   1  -2 318.743 13.1729   3
  -3   1  -2 340.399 11.6219   8
  -3  -1   2 310.346 14.7448   5
   3  -1  -2 318.475 12.0373   6
  -3  -1   2 328.888 11.0419   1
   3   1   2 334.906 10.3330   1
   3  -1  -2 346.200 11.5750   1
  -3  -1   2 337.281 11.1287   2
   4   1  -2 572.670 21.4682   7
  -4  -1  -2 561.486 18.2293   8
  -4   1   2 592.983 19.3590   2
   4  -1   2 587.306 17.9741   2
   4  -1   2 571.390 18.0587   1
  -4  -1  -2 585.618 21.5579   3
   4   1  -2 592.505 21.1826   6
  -4   1   2 584.091 24.7165   5
   4   1  -2 589.773 24.4193   5
   4   1  -2 586.456 18.3501   1
  -4   1   2 583.810 18.9874   1
   4  -1  -2 600.764 21.3716   6
  -4  -1   2 593.012 18.9786   2
  -4   1  -2 582.486 21.6293   3
   4   1   2 567.809 18.1183   2
   4  -1  -2 584.459 18.7724   1
  -4   1  -2 575.106 19.0675   8
   4   1   2 580.244 17.6918   1
  -4  -1   2 567.457 18.3928   1
  -5   1   2 951.471 29.8598   1
   5  -1   2 1024.34 29.3251   1
   5   1  -2 986.698 34.5772   6
  -5   1   2 969.527 38.6357   5
   5   1  -2 991.793 35.2713   7
  -5   1   2 1000.67 30.9917   2
  -5  -1  -2 926.453 33.7443   3
   5   1  -2 993.905 29.4621   1
   5  -1   2 962.348 29.5832   2
  -5  -1  -2 965.562 29.4974   8
   5  -1  -2 1005.59 34.7394   6
   5   1   2 972.716 29.7678   2
  -5   1  -2 997.190 30.4698   8
  -5  -1   2 1002.47 29.7200   1
  -5   1  -2 992.845 34.1511   3
  -5  -1   2 966.729 30.5276   2
   5  -1  -2 950.814 29.6389   1
   5   1   2 994.187 28.7268   1
   6   1  -2 489.174 19.3955   6
  -6  -1  -2 475.586 18.9416   3
  -6   1   2 483.084 17.7152   2
   6  -1   2 479.353 17.1422   1
   6   1  -2 493.031 17.3513   1
   6  -1   2 471.905 16.7481   2
  -6  -1  -2 510.688 17.4370   8
  -6   1   2 488.881 17.8523   1
  -6  -1   2 469.522 17.3183   1
  -6   1  -2 517.258 19.4812   3
   6  -1  -2 502.293 17.7109   1
   6   1   2 473.834 16.5421   1
   6  -1  -2 505.008 19.5967   6
  -6   1  -2 491.629 18.1167   8
   6   1   2 486.801 16.7917   2
  -6  -1   2 512.748 17.7432   2
   7  -1   2 497.879 18.1545   2
  -7   1   2 525.144 19.2994   1
   7  -1   2 519.935 18.6649   1
   7   1  -2 529.869 19.0073   1
  -7  -1  -2 556.657 19.1159   8
   7   1  -2 500.892 20.7655   6
   7  -1  -2 510.826 20.9192   6
   7   1   2 509.666 18.2416   1
   7   1   2 528.656 18.3767   2
  -7   1  -2 516.019 19.5317   8
  -7  -1   2 504.741 18.9374   1
   7  -1  -2 559.149 19.3671   1
   8  -1   2 7.89869 3.51478   1
   8  -1   2 4.72887 2.76465   2
  -8   1   2 7.13244 3.68444   1
  -8  -1  -2 7.66540 3.95088   8
   8   1  -2 2.18277 2.85549   6
   8   1  -2 6.46062 3.52999   1
   8  -1  -2 4.73161 3.67779   1
   8   1   2 5.92719 3.27245   1
   8   1   2 9.22838 3.10827   2
   8  -1  -2 5.75401 2.95794   6
  -8  -1   2 11.8603 3.94315   1
  -8   1  -2 10.0902 4.11490   8
   9   1  -2 31.6317 5.55673   1
   9   1  -2 28.9799 4.95569   6
  -9  -1  -2 44.0393 6.23288   8
   9  -1   2 35.8492 4.80218   2
  -9   1   2 20.3630 5.06025   8
  -9   1   2 26.6615 5.33444   1
   9  -1   2 26.3240 5.09406   1
  -9  -1   2 27.4569 5.28199   1
   9  -1  -2 45.3002 6.10779   1
   9   1   2 30.8844 4.67505   2
  -9   1  -2 35.8569 5.81861   8
   9  -1  -2 31.7231 4.96208   6
   9   1   2 34.1138 5.46879   1
  10  -1   2 380.191 15.4390   2
 -10   1   2 329.351 16.3712   8
  10   1  -2 357.366 16.3096   1
 -10   1   2 342.979 16.0480   1
  10  -1   2 336.723 15.5111   1
 -10  -1   2 352.373 16.3098   1
 -10   1  -2 363.868 16.3170   8
  10   1   2 341.639 15.6808   1
  10  -1  -2 361.689 16.2868   1
   0   2   2 8487.34 290.247   7
   0   2  -2 8883.45 235.026   8
   0   2   2 9219.95 230.878   1
   0   2  -2 9085.10 274.658   3
   0   2   2 8305.37 245.394   2
   0   2  -2 9037.49 301.963   5
  -1  -2  -2 367.779 14.4562   3
   1   2  -2 377.810 12.1734   8
   1   2  -2 371.959 15.7000   5
   1   2  -2 387.797 14.0856   3
  -1   2   2 344.459 12.1276   2
  -1  -2  -2 393.104 14.7046   4
  -1  -2   2 376.106 11.4360   2
  -1  -2   2 409.862 11.3022   1
  -1   2  -2 377.640 14.3903   5
   1   2   2 374.203 13.5789   7
  -1   2  -2 373.582 14.6179   3
   1   2   2 361.261 11.7482   2
   1   2   2 390.192 11.4896   1
  -1   2  -2 383.430 12.3278   8
  -2  -2  -2 1176.78 41.0371   4
  -2   2   2 1158.20 35.2591   2
   2   2  -2 1205.45 44.1697   5
   2  -2   2 1232.20 32.8130   1
   2   2  -2 1159.31 34.0091   8
  -2   2   2 1182.86 33.8628   1
  -2  -2  -2 1208.61 39.9924   3
  -2   2  -2 1188.85 34.2512   8
   2   2   2 1202.96 34.6227   2
  -2   2  -2 1155.68 40.0231   3
   2   2   2 1253.85 32.7805   1
  -2  -2   2 1221.93 32.9588   1
  -2  -2   2 1185.74 34.6135   2
  -2  -2   2 1191.45 40.9290   7
  -3   2   2 233.069 9.33161   1
   3   2  -2 224.190 8.66896   6
  -3  -2  -2 221.375 10.3250   3
   3   2  -2 244.003 9.17844   7
   3   2  -2 223.282 8.81469   8
  -3  -2  -2 242.942 10.2778   4
   3  -2   2 220.163 7.67283   2
   3  -2   2 240.024 8.50421   1
   3   2  -2 227.372 8.36946   1
  -3   2   2 214.709 9.00012   2
   3   2  -2 232.101 11.9569   5
   3  -2  -2 223.399 9.38921   6
  -3   2  -2 234.431 9.38976   8
  -3  -2   2 228.266 8.42767   1
   3   2   2 225.986 8.08913   1
   3  -2  -2 268.980 9.39054   1
  -3  -2   2 232.976 8.58211   2
  -3   2  -2 213.526 10.3457   3
   3   2   2 229.913 8.31988   2
  -4   2   2 1065.19 33.4980   2
   4  -2   2 1092.79 31.4419   1
   4   2  -2 1043.75 37.2667   6
   4  -2   2 1100.99 32.1967   2
  -4   2   2 1165.27 42.9340   5
  -4   2   2 1073.31 32.4802   1
  -4  -2  -2 1052.85 37.2305   3
   4   2  -2 1070.18 31.3333   1
   4   2  -2 1057.21 37.8232   7
   4  -2  -2 1116.15 32.3249   1
  -4   2  -2 1070.49 37.3166   3
  -4   2  -2 1091.54 32.9690   8
   4   2   2 1112.63 31.1510   1
   4  -2  -2 1063.52 37.6625   6
  -4  -2   2 1121.09 32.9545   2
   4   2   2 1084.99 32.4838   2
  -4  -2   2 1122.79 31.7400   1
  -5   2   2 47.6655 4.62737   2
   5  -2   2 49.9990 4.62023   1
  -5   2   2 36.4114 4.73950   1
  -5  -2  -2 46.7103 5.06426   3
   5   2  -2 63.1030 4.89605   6
   5  -2   2 42.1013 3.71912   2
  -5   2   2 55.2521 6.44029   5
   5   2  -2 43.7135 4.22655   7
   5   2  -2 44.0045 4.49002   1
   5   2   2 50.4642 4.26968   1
   5   2   2 41.0919 3.83710   2
  -5  -2   2 42.4261 4.45192   1
   5  -2  -2 53.6355 5.23655   1
  -5   2  -2 48.5932 5.43989   8
  -5   2  -2 48.7288 5.17913   3
   5  -2  -2 47.6065 4.59164   6
  -5  -2   2 42.1530 4.27328   2
   6   2  -2 3279.84 89.3679   1
   6  -2   2 3294.92 93.4846   2
  -6  -2  -2 3417.38 90.4430   8
   6  -2   2 3100.09 89.0812   1
  -6   2   2 3244.85 91.8827   8
  -6  -2  -2 3275.97 104.703   3
  -6   2   2 3303.86 94.7993   2
   6   2  -2 3199.61 108.439   6
  -6   2   2 3209.66 90.3121   1
  -6   2  -2 3419.37 105.033   3
  -6  -2   2 3274.84 89.5727   1
  -6   2  -2 3168.33 91.5372   8
   6  -2  -2 3253.94 108.616   6
  -6  -2   2 3185.65 94.1844   2
   6  -2  -2 3190.06 89.9100   1
   6   2   2 3258.38 88.8549   1
   6   2   2 3291.30 93.5867   2
  -7   2   2 500.404 18.2839   1
   7  -2   2 455.433 17.1954   1
  -7  -2  -2 466.644 16.9824   8
   7  -2   2 442.728 16.5328   2
  -7   2   2 470.312 18.3384   8
   7   2  -2 459.087 18.8536   6
   7   2  -2 446.356 16.9290   1
   7  -2  -2 455.612 18.9231   6
   7   2   2 449.097 16.6376   1
   7   2   2 435.545 16.4056   2
   7  -2  -2 449.441 17.4900   1
  -7   2  -2 420.972 17.6070   8
  -7  -2   2 442.565 17.1574   1
   8   2  -2 475.482 18.1338   1
  -8   2   2 453.040 18.8549   8
   8   2  -2 465.455 19.3689   6
  -8   2   2 452.398 18.5290   1
   8  -2   2 458.144 17.9333   1
   8  -2   2 455.643 17.2261   2
   8  -2  -2 444.957 18.1209   1
  -8   2  -2 489.435 18.8944   8
   8   2   2 428.411 17.0489   2
   8   2   2 467.070 17.7185   1
  -8  -2   2 456.800 18.0111   1
   8  -2  -2 457.733 19.4648   6
   9  -2   2 263.121 13.2512   1
  -9   2   2 278.642 14.3652   8
   9  -2   2 271.923 12.4250   2
   9   2  -2 273.423 13.5093   6
  -9   2   2 275.349 13.6960   1
   9   2  -2 293.553 14.0082   1
  -9   2  -2 267.661 13.7528   8
   9   2   2 284.078 13.3616   1
   9  -2  -2 273.195 13.6087   1
  -9  -2   2 265.785 13.5980   1
   9  -2  -2 280.149 13.7531   6
   9   2   2 277.241 12.7403   2
 -10   2   2 708.912 27.0663   8
  10  -2   2 694.600 25.5841   1
  10  -2   2 696.907 25.2790   2
 -10   2   2 688.855 25.9475   1
  10   2  -2 781.255 26.6883   1
  10   2   2 698.166 25.7176   1
  10  -2  -2 689.640 25.7505   1
 -10  -2   2 736.098 26.2352   1
 -10   2  -2 705.028 26.0596   8
   0   3   2 2.63170 1.78823   7
   0   3   2 -2.2278 1.61920   2
   0   3  -2 -1.9552 1.74294   8
   0   3   2 0.58921 1.83482   1
   0  -3   2 0.46593 1.50541   1
   0  -3   2 -0.1684 1.27383   2
   1   3  -2 4246.24 114.575   8
  -1   3   2 4135.01 119.643   2
   1  -3   2 4235.64 111.939   1
  -1   3   2 4153.72 112.682   1
   1  -3   2 4255.09 118.224   2
  -1  -3   2 4177.01 118.644   2
  -1   3  -2 4222.55 134.078   3
   1  -3  -2 4401.59 140.182   7
   1   3   2 4338.49 112.213   1
  -1  -3   2 4435.56 111.935   1
  -1   3  -2 4299.98 114.781   8
  -1  -3   2 4208.88 140.468   7
   1   3   2 4217.77 140.662   7
   1   3   2 4013.43 119.145   2
   2  -3   2 2378.16 66.4659   2
  -2  -3  -2 2384.11 78.5899   4
  -2   3   2 2281.97 67.8544   2
   2   3  -2 2394.66 83.7879   5
  -2   3   2 2361.93 64.8862   8
   2   3  -2 2317.10 65.1043   8
  -2   3   2 2248.44 64.2096   1
   2  -3   2 2302.59 63.3120   1
  -2  -3   2 2284.63 79.1702   7
  -2  -3   2 2346.59 67.0048   2
   2   3   2 2344.03 79.2015   7
  -2  -3   2 2460.79 63.4508   1
   2   3   2 2295.01 67.3053   2
   2  -3  -2 2376.54 64.0391   1
  -2   3  -2 2412.05 76.5702   3
  -2   3  -2 2412.42 65.4711   8
   2  -3  -2 2354.44 79.0130   7
   2   3   2 2422.22 63.4310   1
  -3   3   2 3198.10 88.7895   8
  -3   3   2 3086.59 92.4124   2
  -3  -3  -2 3226.44 103.227   3
  -3   3   2 3108.86 87.4297   1
  -3  -3  -2 3311.40 106.893   4
   3   3  -2 3191.68 104.620   6
   3   3  -2 2925.73 88.1044   8
   3   3  -2 3350.36 114.156   5
   3  -3   2 3299.78 86.5648   1
   3   3  -2 3378.45 86.5290   1
   3  -3   2 3279.57 91.0195   2
   3  -3  -2 3198.67 105.854   6
  -3   3  -2 3173.20 103.389   3
   3  -3  -2 3210.69 87.0183   1
   3   3   2 3292.29 91.7246   2
  -3  -3   2 3162.19 91.5698   2
   3   3   2 3316.67 86.3564   1
   3   3   2 3266.70 108.339   7
  -3   3  -2 3227.25 89.1711   8
  -3  -3   2 3274.55 86.4761   1
   4   3  -2 735.853 22.4625   1
  -4   3   2 732.156 24.2831   2
   4   3  -2 741.941 26.2905   6
  -4   3   2 788.349 31.0881   5
  -4  -3  -2 701.519 26.5772   3
  -4   3   2 702.655 23.6493   1
  -4   3   2 729.998 23.7884   8
   4  -3   2 717.054 22.4094   1
   4  -3   2 691.003 22.6858   2
  -4  -3  -2 758.605 26.8155   4
   4   3  -2 706.626 26.4409   7
  -4  -3  -2 759.311 22.1264   1
  -4   3  -2 757.374 24.1833   8
   4  -3  -2 764.289 26.7944   6
   4   3   2 733.914 23.2553   2
  -4   3  -2 752.474 27.1823   3
  -4  -3   2 719.330 23.3069   2
   4   3   2 716.127 22.1207   1
  -4  -3   2 717.135 22.5195   1
   4   3   2 782.308 27.7369   7
   4  -3  -2 783.229 23.5145   1
  -5   3   2 240.764 10.6580   2
   5   3  -2 238.284 10.8845   6
  -5   3   2 224.691 10.8006   8
   5   3  -2 227.176 9.87880   1
   5  -3   2 215.774 9.20652   2
  -5   3   2 234.070 10.9416   1
   5   3  -2 234.326 10.6204   7
  -5  -3  -2 253.377 11.5786   3
   5  -3   2 218.216 9.75674   1
  -5  -3  -2 259.995 11.7090   4
  -5   3  -2 219.825 11.4630   3
   5   3   2 231.319 11.6028   7
  -5   3  -2 215.069 10.7268   8
  -5  -3   2 230.979 10.0821   1
  -5  -3   2 232.495 9.85874   2
   5  -3  -2 228.130 10.3436   1
   5   3   2 224.974 9.49895   2
   5  -3  -2 231.902 10.8956   6
   5   3   2 229.336 9.43364   1
   6  -3   2 69.7080 5.14199   2
   6   3  -2 69.4544 5.86533   6
  -6   3   2 73.6809 7.26517   1
  -6  -3  -2 74.7958 6.65122   3
   6  -3   2 65.6902 6.01570   1
  -6   3   2 75.3332 7.02847   8
   6   3  -2 76.2981 6.00320   1
  -6  -3   2 73.5549 5.81602   2
   6  -3  -2 66.3428 5.81412   6
  -6   3  -2 75.4477 6.70605   3
  -6  -3   2 64.7105 6.02139   1
  -6   3  -2 65.3344 6.80318   8
   6   3   2 61.8974 5.16974   2
   6  -3  -2 74.0254 6.38296   1
   6   3   2 68.1246 5.54919   1
   7   3  -2 2712.42 94.3618   6
   7  -3   2 2832.89 78.5882   1
   7  -3   2 2728.74 81.7025   2
  -7   3   2 2895.88 79.8461   1
   7   3  -2 2879.43 78.7532   1
  -7   3   2 2878.04 81.2244   8
  -7  -3   2 2838.05 78.8366   1
   7  -3  -2 2736.12 78.7451   1
   7   3   2 2722.01 81.8059   2
  -7   3  -2 2764.34 80.8537   8
   7   3   2 2743.50 77.8775   1
   7  -3  -2 2918.99 94.9295   6
   8  -3   2 125.698 8.85668   1
   8  -3   2 130.868 8.02858   2
  -8   3   2 108.925 9.38873   8
  -8   3   2 110.058 9.23738   1
   8   3  -2 132.796 8.47081   6
   8   3  -2 136.051 8.94076   1
   8   3   2 136.539 8.49116   1
   8  -3  -2 130.760 8.71097   6
  -8   3  -2 120.134 9.44049   8
  -8  -3   2 134.962 9.18841   1
   8  -3  -2 125.293 8.86234   1
   8   3   2 126.203 7.97031   2
   9  -3   2 1984.55 57.6763   1
   9  -3   2 1967.79 59.3481   2
   9   3  -2 2042.34 58.4050   1
  -9   3   2 1871.32 59.4686   8
  -9   3   2 2002.14 58.6478   1
   9   3   2 1909.97 57.3729   1
  -9  -3   2 1921.09 57.9332   1
  -9   3  -2 1867.86 58.9659   8
   9  -3  -2 1950.08 57.8962   1
   9  -3  -2 1954.07 67.7529   6
   9   3   2 1947.33 59.5692   2
 -10   3   2 15.4038 5.27536   8
  10  -3   2 6.91718 3.51087   2
 -10   3   2 13.9257 5.09570   1
  10  -3   2 -2.2607 3.67579   1
  10   3  -2 -2.2170 3.89664   1
 -10   3  -2 1.00413 3.63430   8
  10  -3  -2 5.03567 4.08747   1
 -10  -3   2 4.64728 4.27610   1
  10   3   2 7.05010 3.85431   1
   0  -4  -2 1156.38 33.1066   1
   0   4  -2 1141.26 34.0950   8
   0  -4   2 1188.03 32.8722   1
   0  -4  -2 1203.21 40.1159   7
   0  -4   2 1171.89 34.2626   2
   0   4   2 1166.39 35.2417   2
   0   4   2 1133.32 33.2595   1
  -1   4   2 116.797 5.43880   8
   1  -4   2 111.449 5.07588   2
  -1   4   2 108.667 5.93436   1
   1  -4   2 118.137 5.68717   1
  -1  -4  -2 109.755 5.40835   1
  -1   4   2 111.102 6.09040   2
  -1  -4   2 119.031 5.52658   1
  -1   4  -2 119.307 6.35026   8
   1   4   2 116.665 5.75497   1
   1   4   2 120.751 6.53616   7
   1   4   2 114.963 5.87742   2
  -1  -4   2 110.922 5.24809   2
   1  -4  -2 118.836 6.01550   7
   1  -4  -2 113.410 5.98088   1
  -2   4   2 902.733 27.2603   1
  -2   4   2 870.676 26.6749   8
   2   4  -2 910.877 25.9223   1
   2  -4   2 901.095 27.0255   2
  -2  -4  -2 947.823 26.2210   1
   2   4  -2 896.444 27.3343   8
   2  -4   2 887.372 26.4248   1
  -2   4   2 885.647 28.3817   2
  -2   4  -2 924.324 27.7361   8
   2  -4  -2 894.495 31.9743   7
  -2  -4   2 910.099 26.2647   1
  -2  -4   2 872.693 27.3195   2
   2   4   2 886.799 27.8030   2
   2   4   2 867.265 32.1964   7
   2  -4  -2 939.496 27.0812   1
   2   4   2 915.434 26.4258   1
  -3  -4  -2 283.823 10.3114   1
   3  -4   2 288.670 10.8490   1
  -3   4   2 283.045 11.5127   1
   3  -4   2 300.675 10.6387   2
   3   4  -2 302.228 11.5186   8
  -3   4   2 298.126 11.5106   8
   3   4  -2 300.531 10.5946   1
  -3   4   2 286.136 11.9223   2
   3   4   2 295.261 11.2808   2
  -3  -4   2 299.352 10.7563   1
  -3  -4   2 304.953 10.9297   2
   3  -4  -2 294.283 11.3393   1
   3   4   2 302.314 12.8605   7
  -3  -4   2 297.628 10.8925   2
   3   4   2 281.844 10.5709   1
  -3   4  -2 294.593 12.0024   8
   4   4  -2 867.813 27.9488   8
  -4   4   2 904.935 29.3926   2
   4  -4   2 884.197 27.9582   2
   4  -4   2 936.471 27.4344   1
   4   4  -2 915.533 31.9391   6
  -4  -4  -2 897.019 32.8878   4
  -4   4   2 905.113 28.7805   8
  -4  -4  -2 872.635 32.3774   3
  -4   4   2 849.669 28.1516   1
  -4  -4  -2 892.141 26.7353   1
   4   4  -2 889.108 31.1136   6
   4   4  -2 944.790 27.3642   1
   4  -4  -2 922.886 32.5441   6
   4   4   2 929.226 33.5807   7
   4  -4  -2 904.123 27.8884   1
  -4  -4   2 894.467 27.2018   1
  -4   4  -2 948.895 29.3501   8
   4   4   2 948.310 28.6773   2
   4   4   2 933.153 27.2247   1
  -4  -4   2 909.656 28.4434   2
  -5   4   2 4.27206 2.86974   2
  -5   4   2 1.82300 2.89310   1
   5   4  -2 0.44356 2.27506   6
   5   4  -2 3.30191 2.38007   1
  -5   4   2 3.04947 3.13618   8
   5  -4   2 3.20895 2.52290   1
  -5  -4  -2 9.31830 3.19831   3
   5  -4   2 4.69159 2.31784   2
   5   4   2 4.41293 2.65141   7
   5  -4  -2 4.22322 2.81915   1
   5  -4  -2 2.91862 2.43919   6
   5   4   2 5.27269 2.34692   2
  -5  -4   2 6.26708 2.58301   1
  -5   4  -2 1.58559 2.92525   8
   5   4   2 5.43178 2.50426   1
  -5  -4   2 2.67425 2.21030   2
  -6  -4  -2 116.103 8.25121   3
  -6   4   2 128.241 8.86401   8
   6   4  -2 135.877 7.98629   1
   6  -4   2 133.556 7.79065   1
   6   4  -2 124.735 8.04108   6
   6  -4   2 123.271 7.09905   2
  -6   4   2 120.253 8.70985   1
  -6   4  -2 123.936 8.94757   8
   6  -4  -2 133.410 8.19898   6
   6   4   2 132.091 7.48806   1
  -6  -4   2 127.846 7.52988   2
  -6  -4   2 120.350 7.74727   1
   6   4   2 111.384 7.18551   2
   6  -4  -2 123.466 8.03301   1
   7   4  -2 533.611 19.0328   1
  -7   4   2 516.690 20.3377   8
   7   4  -2 482.701 20.3986   6
   7  -4   2 520.646 18.8167   1
   7  -4   2 526.869 18.6926   2
  -7   4   2 511.809 20.0613   1
   7   4   2 498.726 18.7362   2
  -7   4  -2 500.727 20.1299   8
   7   4   2 491.996 18.2973   1
  -7  -4   2 508.456 19.1177   1
   7  -4  -2 501.124 19.0517   1
   7  -4  -2 511.790 21.0466   6
   8  -4   2 137.841 8.30091   2
   8   4  -2 142.135 9.28137   1
   8  -4   2 126.569 8.71195   1
  -8   4   2 144.994 10.4094   8
   8   4  -2 127.889 8.50192   6
  -8   4   2 139.879 10.1209   1
  -8  -4   2 118.120 8.85250   1
   8  -4  -2 134.896 9.18129   1
   8   4   2 142.726 8.91508   1
   8   4   2 128.550 8.36723   2
   8  -4  -2 128.498 8.81561   6
  -8   4  -2 132.479 9.94992   8
   9  -4   2 309.917 13.9673   2
   9  -4   2 304.976 14.5016   1
  -9   4   2 310.049 16.1239   8
  -9   4   2 326.725 15.9108   1
   9   4  -2 333.506 14.9989   1
  -9   4  -2 304.913 15.3801   8
   9   4   2 313.309 14.3441   1
  -9  -4   2 329.867 15.2538   1
   9  -4  -2 327.305 14.9822   1
   0   5  -2 1.44837 2.13041   8
   0   5   2 1.90619 1.67858   8
   0  -5  -2 3.51376 2.10329   1
   0  -5   2 -0.8887 1.78607   1
   0  -5   2 -0.4049 1.61568   2
   0   5   2 0.78420 2.13022   2
   0   5   2 1.96435 2.08067   1
   0  -5  -2 0.16670 1.58939   7
   1  -5   2 4667.43 133.296   2
  -1   5   2 4902.55 127.523   8
  -1   5   2 4700.78 134.569   2
   1  -5   2 4795.99 126.178   1
  -1   5   2 4703.69 126.739   1
   1   5  -2 4449.75 128.643   8
  -1  -5  -2 4619.65 125.945   1
   1   5  -2 4884.05 125.555   1
   1  -5  -2 4747.42 126.619   1
   1   5   2 4578.91 134.161   2
   1  -5  -2 4853.46 157.493   7
  -1  -5   2 4868.38 126.117   1
   1   5   2 4796.55 126.451   1
   1   5   2 4765.25 158.334   7
  -1  -5   2 4736.68 133.590   2
  -1   5  -2 4636.26 128.963   8
   2  -5   2 163.480 7.03182   2
  -2  -5  -2 165.308 7.30776   1
  -2   5   2 150.864 7.87163   2
  -2   5   2 157.548 8.10999   1
   2  -5   2 157.698 7.56144   1
   2   5  -2 157.542 6.93278   1
  -2   5   2 166.111 7.52599   8
   2   5  -2 163.719 7.93892   8
  -2  -5   2 156.945 7.20789   2
   2   5   2 161.087 7.50261   1
   2   5   2 170.069 8.58682   7
  -2   5  -2 164.273 8.23473   8
  -2  -5   2 155.951 7.16174   1
   2  -5  -2 162.206 8.00977   1
   2   5   2 155.980 7.57868   2
   3   5  -2 758.239 24.2713   8
  -3   5   2 778.233 25.2482   2
   3   5  -2 763.913 22.9773   1
   3  -5   2 753.428 23.9187   2
  -3   5   2 760.345 24.0655   8
   3  -5   2 732.530 23.4109   1
  -3  -5  -2 752.309 22.9950   1
  -3   5   2 749.990 24.2038   1
  -3   5  -2 743.519 24.8090   8
   3  -5  -2 735.767 23.8777   1
   3   5   2 749.589 24.6085   2
  -3  -5   2 763.905 23.3665   1
   3   5   2 760.547 28.4723   7
   3   5   2 780.550 23.4474   1
  -3  -5   2 763.866 24.2348   2
   4  -5   2 450.116 15.8829   1
   4   5  -2 442.444 16.3048   8
   4   5  -2 448.672 15.4167   1
   4   5  -2 411.176 16.8979   6
   4   5  -2 437.946 16.3916   6
  -4   5   2 417.920 16.3200   1
  -4   5   2 434.022 16.3776   8
   4  -5   2 437.001 15.5669   2
  -4   5   2 462.091 17.0981   2
  -4  -5  -2 464.561 15.3245   1
  -4  -5  -2 451.268 18.7766   3
  -4  -5   2 454.030 15.9450   2
  -4  -5   2 451.353 15.6141   1
   4   5   2 449.884 15.5888   1
   4  -5  -2 449.330 16.2386   1
   4   5   2 456.515 18.7182   7
  -4   5  -2 458.550 17.3098   8
   4   5   2 451.411 16.3637   2
   5  -5   2 3326.23 96.1178   2
  -5   5   2 3327.54 93.9774   8
  -5   5   2 3289.62 92.5648   1
  -5  -5  -2 3318.32 108.011   3
   5   5  -2 3236.89 110.540   6
   5  -5   2 3300.59 91.5069   1
   5   5  -2 3427.91 91.2222   1
   5   5   2 3366.07 96.7466   2
  -5   5  -2 3282.23 94.5619   8
  -5  -5   2 3366.47 91.4543   1
   5  -5  -2 3374.06 111.409   6
   5   5   2 3323.91 91.2817   1
  -5  -5   2 3383.96 96.4539   2
   5  -5  -2 3418.35 92.2573   1
   6  -5   2 139.579 8.24095   1
   6   5  -2 141.125 8.15816   1
   6   5  -2 137.717 8.33344   6
  -6   5   2 164.560 9.82880   1
  -6   5   2 138.321 9.39587   8
  -6  -5  -2 152.565 9.42052   3
   6  -5   2 132.669 7.67303   2
  -6  -5   2 131.073 8.28834   1
  -6   5  -2 139.904 9.51027   8
   6   5   2 144.360 8.06500   1
   6   5   2 150.968 8.38585   2
   6  -5  -2 137.961 8.77450   6
   6  -5  -2 141.359 8.65431   1
   7  -5   2 1529.12 44.8311   1
  -7   5   2 1547.74 47.2280   8
   7   5  -2 1443.88 52.3404   6
   7  -5   2 1511.86 46.3153   2
   7   5  -2 1478.89 44.9478   1
  -7   5   2 1501.26 46.1821   1
   7  -5  -2 1498.47 45.2445   1
   7   5   2 1526.91 46.9051   2
  -7  -5   2 1519.01 45.3638   1
   7  -5  -2 1505.92 53.0868   6
   7   5   2 1446.61 44.5824   1
  -7   5  -2 1501.63 47.2655   8
  -8   5   2 20.2184 5.10665   1
   8   5  -2 10.8325 4.18985   1
  -8   5   2 10.8492 5.00425   8
   8  -5   2 20.7661 4.07475   2
   8  -5   2 10.1464 3.82952   1
   8  -5  -2 10.0824 3.79912   6
   8  -5  -2 11.2415 4.09635   1
  -8   5  -2 8.32575 4.38873   8
   8   5   2 4.46430 3.28829   1
  -8  -5   2 8.19067 4.06769   1
  -9   5   2 582.091 22.4344   1
   9  -5   2 537.585 20.8560   1
   9  -5   2 572.375 21.0206   2
  -9   5   2 556.463 22.6865   8
   9   5   2 531.716 21.0420   1
  -9   5  -2 524.638 22.1319   8
   9  -5  -2 545.969 21.2321   1
  -9  -5   2 558.452 21.9316   1
   0  -6   2 596.023 19.5011   2
   0   6   2 585.447 20.2217   2
   0   6   2 579.906 19.1872   1
   0   6  -2 555.984 19.6432   8
   0  -6  -2 581.674 19.2547   1
   0  -6   2 600.236 19.2083   1
  -1   6   2 1221.94 38.0116   2
  -1   6   2 1257.07 35.4751   8
  -1   6   2 1192.60 36.0586   1
   1   6  -2 1188.56 36.7244   8
  -1  -6  -2 1230.11 35.6974   1
   1  -6   2 1259.58 37.1863   2
   1   6   2 1228.74 35.8535   1
   1  -6  -2 1217.83 36.2037   1
  -1  -6   2 1214.02 37.2013   2
  -1  -6   2 1230.98 35.7389   1
  -1   6  -2 1238.84 37.0944   8
   1   6   2 1187.67 37.7942   2
  -2   6   2 1315.78 40.7563   2
  -2   6   2 1322.81 38.4295   8
  -2   6   2 1275.98 38.9581   1
  -2  -6  -2 1309.47 37.9527   1
   2  -6   2 1357.05 38.5566   1
   2  -6   2 1255.10 39.4905   2
   2   6  -2 1331.67 39.2510   8
  -2  -6   2 1289.60 37.9361   1
  -2  -6   2 1266.45 39.6298   2
   2   6   2 1297.09 40.2995   2
   2   6   2 1312.87 38.2221   1
   2  -6  -2 1367.23 39.1880   1
   2   6   2 1376.19 47.3126   7
  -2   6  -2 1270.09 39.4291   8
   3  -6   2 57.9082 5.23997   1
   3   6  -2 49.1946 5.19332   8
   3  -6   2 50.4808 4.48918   2
  -3   6   2 53.6384 5.10876   8
  -3   6   2 44.7331 5.25504   1
  -3   6   2 52.9616 5.73228   2
   3   6  -2 49.1342 4.49749   1
  -3  -6  -2 51.8080 4.80512   1
   3  -6  -2 50.6450 5.31193   1
  -3  -6   2 50.8180 4.80817   1
   3   6   2 51.0229 5.08734   1
  -3   6  -2 48.6298 5.70400   8
  -3  -6   2 49.3986 4.58490   2
   3   6   2 47.1379 4.98441   7
   3   6   2 47.8326 4.90796   2
   4  -6   2 59.8700 5.69958   1
   4  -6   2 58.6801 5.04533   2
   4   6  -2 71.2155 5.99120   8
  -4   6   2 71.6461 6.29026   8
  -4   6   2 54.6421 6.23047   1
   4   6  -2 68.9680 5.40362   1
  -4  -6   2 59.3715 5.12797   2
  -4  -6   2 80.2354 5.81195   1
   4   6   2 60.9950 5.54989   1
   4  -6  -2 69.1724 6.06009   1
  -4   6  -2 60.0999 6.58186   8
   4   6   2 69.5529 5.88598   2
  -5  -6  -2 519.724 21.8566   3
  -5   6   2 555.298 20.0162   8
  -5   6   2 518.278 19.7363   1
   5  -6   2 549.586 19.0523   2
   5  -6   2 559.187 19.3525   1
   5   6  -2 547.894 18.7064   1
   5   6  -2 520.333 20.3122   6
   5   6   2 534.431 18.9434   1
   5  -6  -2 527.552 19.3401   1
  -5   6  -2 529.960 20.5107   8
  -5  -6   2 549.712 18.9982   1
  -5  -6   2 516.883 19.0501   2
   5   6   2 522.945 19.5491   2
  -6  -6  -2 74.6140 7.22893   3
  -6   6   2 88.5243 7.97442   1
   6  -6   2 67.2402 6.68039   1
  -6   6   2 87.7040 7.90909   8
   6   6  -2 72.9499 5.90842   6
   6  -6   2 65.1742 5.86836   2
   6   6  -2 74.4356 6.43055   1
  -6   6  -2 71.5290 7.83129   8
   6   6   2 90.3833 6.98419   1
   6   6   2 70.5416 6.49528   2
   6  -6  -2 70.5976 6.98031   1
  -6  -6   2 81.2171 6.91015   1
   6  -6  -2 73.6507 6.70998   6
   7   6  -2 69.9801 5.96088   6
  -7   6   2 66.3961 7.77749   1
  -7   6   2 69.7153 7.91030   8
   7  -6   2 68.2361 7.04075   1
   7  -6   2 76.5816 6.34104   2
  -7  -6   2 77.9389 7.24629   1
   7   6   2 70.5048 6.78299   1
  -7   6  -2 58.6288 7.39829   8
   7  -6  -2 70.8671 6.64324   6
   7  -6  -2 69.1959 7.29275   1
   8  -6   2 1601.97 48.4743   2
  -8   6   2 1574.73 48.4674   1
   8  -6   2 1500.38 46.6122   1
  -8   6   2 1616.46 49.4215   8
  -8  -6   2 1535.82 47.6940   1
   8  -6  -2 1587.61 47.6555   1
   8   6   2 1508.70 47.0287   1
  -8   6  -2 1439.17 48.7093   8
   0   7  -2 0.64114 2.51762   8
   0   7   2 0.07518 2.60134   2
   0  -7  -2 -1.0732 2.36685   1
   0   7   2 3.04779 2.54727   1
   0  -7   2 -0.9609 2.34250   1
   0  -7   2 -0.3462 2.00963   2
  -1  -7  -2 160.313 8.36637   1
   1   7  -2 174.467 8.91848   8
   1  -7   2 156.033 8.11779   2
  -1   7   2 170.029 8.97825   2
  -1   7   2 164.264 8.65957   1
   1  -7   2 161.120 8.69785   1
  -1  -7   2 154.108 8.26229   1
   1   7   2 164.657 8.50424   1
   1   7   2 159.807 8.65798   2
  -1  -7   2 159.997 8.11043   2
  -1   7  -2 165.567 9.05502   8
   1  -7  -2 177.021 8.98157   1
   2  -7   2 1.35856 2.59110   1
   2   7  -2 5.96176 2.93333   8
  -2   7   2 -2.2429 2.47531   1
  -2   7   2 3.52916 2.63432   8
   2  -7   2 5.14784 2.45138   2
  -2  -7  -2 0.58099 2.28614   1
  -2   7  -2 -0.2071 2.72742   8
  -2  -7   2 3.28539 2.47485   2
  -2  -7   2 3.28967 2.49958   1
   2  -7  -2 3.00335 2.93720   1
   2   7   2 1.81136 2.46067   1
   2   7   2 1.45674 2.46879   2
  -3   7   2 3159.99 88.9893   1
   3   7  -2 3190.92 90.0927   8
   3  -7   2 3051.85 88.4033   1
  -3  -7  -2 3123.67 87.8239   1
   3  -7   2 3275.71 92.9036   2
  -3   7   2 3373.81 89.5799   8
   3   7   2 3256.24 93.4481   2
   3   7   2 3260.98 88.2973   1
  -3   7  -2 3196.41 90.6169   8
  -3  -7   2 3134.71 87.8661   1
  -3  -7   2 3298.09 93.0411   2
   3  -7  -2 3140.57 88.7645   1
  -4   7   2 180.166 10.2169   1
   4  -7   2 209.297 9.91645   2
   4   7  -2 197.410 10.2450   8
  -4   7   2 213.055 10.4063   8
   4  -7   2 189.301 10.1439   1
   4   7   2 200.343 10.0519   1
  -4  -7   2 215.151 10.1944   1
   4  -7  -2 199.467 10.4761   1
   4   7   2 210.653 10.4755   2
  -4  -7   2 208.039 9.84604   2
  -4   7  -2 210.582 11.1220   8
  -5   7   2 392.784 16.5018   1
  -5  -7  -2 423.771 18.8812   3
   5   7  -2 370.159 15.5495   6
   5   7  -2 398.306 16.2940   8
  -5   7   2 401.294 16.5512   8
   5  -7   2 407.057 15.7570   2
   5  -7   2 433.420 16.5561   1
   5   7   2 420.731 16.0634   1
   5   7   2 395.897 16.2391   2
   5  -7  -2 415.263 16.5354   1
  -5   7  -2 398.646 17.2121   8
  -5  -7   2 389.715 15.6705   1
   6   7  -2 339.924 15.1209   6
   6  -7   2 407.899 16.0487   1
  -6   7   2 373.479 16.6008   1
  -6   7   2 381.934 16.5433   8
   6  -7   2 383.983 15.3344   2
  -6  -7  -2 402.648 18.0906   3
   6   7   2 377.694 15.5549   1
  -6   7  -2 370.708 16.7442   8
  -6  -7   2 358.824 15.5105   1
   6  -7  -2 391.626 16.1250   1
   7  -7   2 202.962 10.5037   2
   7  -7   2 195.799 10.8764   1
  -7   7   2 191.256 11.9355   1
  -7   7   2 216.025 12.2727   8
  -7  -7   2 194.421 11.1303   1
   7   7   2 189.279 10.8357   1
  -7   7  -2 185.140 11.8815   8
   7  -7  -2 188.043 11.1068   1
   8  -7   2 0.91864 3.26764   1
  -8   7   2 3.19732 4.38554   8
  -8   7   2 3.56678 4.06262   1
   8  -7   2 -1.4191 2.87804   2
  -8   7  -2 2.14604 3.90463   8
   8  -7  -2 2.52374 3.48777   1
   8   7   2 -1.6559 3.39390   1
  -8  -7   2 -0.0527 3.58581   1
   0  -8  -2 3147.83 86.2404   1
   0  -8   2 3109.45 85.9754   1
   0   8  -2 3106.13 87.6825   8
   0   8   2 3056.64 85.9651   1
   0  -8   2 3095.72 90.4598   2
   1   8  -2 233.650 11.2038   8
  -1  -8  -2 241.893 11.0325   1
  -1   8   2 227.046 10.8942   1
   1  -8   2 249.073 11.3874   1
   1  -8   2 226.635 10.6898   2
  -1  -8   2 232.495 10.8656   1
   1  -8  -2 239.768 11.3663   1
  -1  -8   2 222.457 10.5342   2
   1   8   2 234.909 10.8413   1
  -1   8  -2 230.429 11.5118   8
  -2   8   2 740.342 24.9089   1
   2  -8   2 721.328 24.8357   2
   2   8  -2 727.841 25.0180   8
  -2  -8  -2 751.907 24.4216   1
   2   8   2 737.612 24.5109   1
  -2  -8   2 759.726 25.1622   2
  -2  -8   2 712.766 24.2839   1
   2  -8  -2 795.979 25.4605   1
  -2   8  -2 736.457 25.3640   8
   3  -8   2 31.8683 4.36458   2
  -3   8   2 24.8997 4.37993   8
  -3  -8  -2 28.6564 4.49279   1
  -3   8   2 32.1892 5.07011   1
   3   8  -2 35.4319 5.26196   8
   3  -8   2 25.7365 4.69522   1
  -3  -8   2 28.6383 4.26410   2
   3   8   2 37.2758 4.75507   1
  -3   8  -2 30.4413 5.32184   8
   3  -8  -2 27.5963 4.89506   1
  -3  -8   2 32.9659 4.75152   2
  -3  -8   2 32.5810 4.60586   1
  -4   8   2 1003.27 32.3995   1
   4  -8   2 1013.66 32.6609   2
   4  -8   2 991.480 32.1984   1
  -4   8   2 1018.84 32.0358   8
   4   8  -2 980.123 32.4885   8
   4   8   2 990.411 31.8519   1
  -4   8  -2 1003.05 33.2767   8
  -4  -8   2 1000.35 31.7706   1
   4  -8  -2 996.049 32.3452   1
   5  -8   2 82.3693 7.28467   1
   5   8  -2 77.1019 7.30494   8
  -5   8   2 72.6752 7.12687   8
   5  -8   2 76.1283 6.58206   2
  -5   8   2 71.2230 7.34607   1
   5   8   2 64.0433 6.73278   1
  -5  -8   2 85.8044 7.09969   1
   5  -8  -2 84.2785 7.53002   1
  -5   8  -2 68.3420 7.74609   8
   6  -8   2 1775.15 53.6413   2
  -6  -8  -2 1715.03 60.5833   3
   6  -8   2 1745.29 52.0775   1
  -6   8   2 1749.73 53.0008   8
  -6   8  -2 1664.61 53.4283   8
  -6  -8   2 1722.58 51.7204   1
   6  -8  -2 1747.15 52.3015   1
   6   8   2 1724.35 51.6026   1
   7  -8   2 151.982 9.28522   2
  -7   8   2 154.860 10.6789   1
   7  -8   2 143.588 9.62642   1
  -7   8   2 136.722 10.1450   8
   7  -8  -2 136.934 9.58394   1
   7   8   2 137.014 9.59063   1
  -7  -8   2 130.119 9.58302   1
  -7   8  -2 134.649 10.3137   8
   0   9   2 4.22600 3.01508   1
   0  -9   2 0.14789 2.59337   2
   0   9  -2 -0.9396 2.93473   8
   0  -9  -2 3.81413 3.27575   1
   0  -9   2 2.71866 2.96694   1
   1  -9   2 0.23973 3.03479   1
   1   9  -2 1.09491 3.09503   8
   1  -9   2 11.6488 3.45685   2
  -1  -9  -2 10.3978 3.61064   1
  -1   9   2 5.27913 3.01338   1
  -1   9  -2 2.17858 3.17476   8
  -1  -9   2 -0.9956 2.61198   1
   1   9   2 3.55010 3.00590   1
   1  -9  -2 4.41203 3.35665   1
  -1  -9   2 13.1908 3.53284   2
  -2  -9  -2 548.257 20.0475   1
   2  -9   2 553.973 20.1996   2
   2   9  -2 567.875 20.5802   8
   2  -9   2 537.261 20.2791   1
  -2   9   2 584.058 20.4934   1
   2   9   2 550.407 19.9339   1
  -2  -9   2 544.734 19.8804   1
   2  -9  -2 565.710 20.9813   1
  -2   9  -2 541.808 20.6366   8
  -2  -9   2 558.089 20.3379   2
   3   9  -2 16.4574 4.19164   8
  -3   9   2 19.2746 4.41363   1
   3  -9   2 22.0442 4.55588   1
   3  -9   2 12.8241 3.59820   2
   3   9   2 11.6533 3.75657   1
   3  -9  -2 29.6313 5.14837   1
  -3   9  -2 15.3984 4.30025   8
  -3  -9   2 13.1863 3.68623   1
  -4   9   2 219.153 11.6332   1
   4  -9   2 234.868 11.3242   2
   4   9  -2 236.410 11.8095   8
   4  -9   2 211.938 11.7147   1
  -4   9  -2 236.807 12.4751   8
   4  -9  -2 216.490 11.7072   1
   4   9   2 219.630 11.4435   1
  -4  -9   2 224.376 11.4960   1
   5  -9   2 331.859 15.0868   1
   5   9  -2 334.890 15.0579   8
  -5   9   2 320.085 14.9649   1
  -5   9   2 329.990 14.6644   8
   5  -9   2 329.309 14.4825   2
  -5   9  -2 330.447 15.6154   8
  -5  -9   2 322.798 14.5868   1
   5   9   2 343.593 14.8572   1
   5  -9  -2 324.028 15.0905   1
  -6   9   2 9.35160 4.30770   8
  -6  -9  -2 12.9828 5.11388   3
   6  -9   2 14.7541 4.51084   1
   6  -9   2 13.0876 4.03477   2
  -6   9   2 13.2535 4.44448   1
  -6   9  -2 18.2573 5.09957   8
  -6  -9   2 15.0859 4.57092   1
   6   9   2 14.9555 4.45239   1
   6  -9  -2 15.1983 4.71228   1
   0 -10   2 49.8527 5.90860   2
   0  10   2 46.5195 5.73407   1
   0 -10  -2 48.0061 6.16908   1
   0  10  -2 56.9096 6.51281   8
   0 -10   2 44.5334 5.77100   1
  -1  10   2 16.5535 4.22783   1
   1 -10   2 17.8806 3.87362   2
   1 -10   2 13.5566 4.07873   1
  -1 -10  -2 10.8780 4.04001   1
   1  10  -2 14.1599 4.23362   8
  -1  10  -2 11.2598 3.99153   8
   1 -10  -2 18.6344 4.59300   1
  -1 -10   2 16.7859 4.36121   1
   1  10   2 14.7553 4.05283   1
   2 -10   2 1487.52 48.0270   2
   2 -10   2 1507.93 46.7365   1
  -2  10   2 1542.65 46.5425   1
   2  10  -2 1550.26 47.1910   8
  -2 -10   2 1524.93 46.4588   1
  -2  10  -2 1509.30 47.5287   8
   2  10   2 1588.20 46.4479   1
   2 -10  -2 1656.00 47.6114   1
  -3  10   2 109.134 8.25095   1
   3 -10   2 99.1728 7.51138   2
   3  10  -2 90.5690 7.68918   8
   3 -10   2 95.1211 8.11313   1
  -3 -10   2 99.5217 7.80266   1
  -3  10  -2 100.906 8.26073   8
   3  10   2 99.8623 7.57045   1
  -4  10   2 1621.92 48.5343   1
   4  10  -2 1512.88 48.6750   8
   4 -10   2 1638.53 51.5295   2
   4 -10   2 1583.22 48.5681   1
  -4 -10   2 1569.45 48.4016   1
   4  10   2 1591.71 48.1459   1
  -4  10  -2 1644.56 49.8437   8
   4 -10  -2 1618.03 48.7314   1
   0  11   2 1.64064 3.03304   1
   0 -11  -2 5.33155 3.58804   1
   0  11  -2 -1.4392 3.31987   8
   0 -11   2 -2.4287 3.02297   1
   1  11  -2 424.223 17.6460   8
   1 -11   2 418.038 17.7192   1
  -1  11   2 465.486 17.9936   1
  -1 -11   2 443.015 18.1217   1
  -1  11  -2 456.265 18.4421   8
   1  11   2 440.504 17.6242   1
   1 -11  -2 478.797 18.6508   1
   0   0   3 2.41682 2.43726   5
   0   0  -3 2.46149 2.41614   3
   0   0  -3 1.89103 2.27281   4
   1   0  -3 -2.3887 1.94680   4
  -1   0  -3 0.22228 2.25021   3
   1   0  -3 2.20444 2.24260   3
  -1   0   3 -3.7222 2.18530   5
  -1   0   3 -0.5000 1.46647   1
   2   0  -3 3.48673 1.89952   3
  -2   0   3 8.38725 3.06631   5
  -2   0   3 2.36697 1.72601   1
   2   0   3 4.26562 1.05399   1
  -2   0  -3 -2.5920 2.10372   3
  -3   0   3 -0.0109 1.84237   1
  -3   0  -3 0.29812 1.59802   8
  -3   0   3 5.20133 1.68700   2
   3   0  -3 0.49593 1.55526   3
   3   0   3 0.73990 1.31817   1
  -3   0   3 4.65206 2.94577   5
  -3   0  -3 0.69144 2.42741   3
   4   0   3 -0.0975 1.53477   1
  -4   0   3 5.50609 2.44105   1
   4   0  -3 10.9591 2.68632   1
   4   0   3 3.06823 1.30177   2
  -4   0   3 18.6881 4.41843   5
  -4   0  -3 3.33333 2.15585   8
  -4   0  -3 4.61454 2.76567   3
  -4   0   3 2.10068 1.72579   2
   5   0   3 2.30558 2.02357   1
  -5   0   3 0.16373 2.09836   2
  -5   0  -3 3.30485 2.59656   3
  -5   0  -3 0.68713 2.51687   8
   5   0  -3 0.34637 2.46259   1
   5   0   3 1.18780 1.53784   2
  -5   0   3 0.80400 2.35546   1
   5   0  -3 3.67860 1.61688   7
  -6   0  -3 8.20011 3.55777   3
   6   0  -3 1.90204 2.90784   1
  -6   0   3 3.32183 2.45876   2
  -6   0  -3 0.74808 2.97790   8
  -6   0   3 -0.4273 2.64926   1
   6   0   3 -0.5162 1.85080   2
   6   0  -3 2.01633 1.71527   6
   6   0   3 4.47562 2.55518   1
  -7   0   3 -0.1666 2.80715   2
   7   0   3 -0.8609 2.67233   1
   7   0  -3 3.31595 3.13589   1
   7   0  -3 3.67338 2.23640   6
  -7   0   3 1.57991 3.10886   1
  -7   0  -3 4.28475 3.46797   8
   7   0   3 -0.5810 2.06635   2
   8   0   3 6.85208 2.95250   2
   8   0   3 4.47692 3.28544   1
  -8   0   3 1.76295 3.43668   1
   8   0  -3 5.25323 2.47188   6
  -9   0   3 8.51117 4.26607   1
   9   0   3 4.87899 3.04176   2
   9   0   3 2.20738 3.23971   1
  10   0   3 4.25382 3.74378   1
 -10   0   3 6.94547 4.23422   1
  10   0   3 0.66532 2.92813   2
   0  -1   3 4.49054 2.55406   5
   0   1  -3 -0.8147 1.44596   8
   0   1  -3 14.4595 3.27355   3
   0  -1  -3 3.64930 2.56068   4
   0  -1  -3 -2.4729 2.16301   3
   1   1  -3 2289.12 76.6145   4
  -1   1   3 2249.60 61.1898   1
  -1  -1  -3 2235.46 73.9197   3
   1   1  -3 2298.72 73.2295   3
   1   1  -3 2327.58 62.3439   8
   1  -1   3 2329.03 79.8253   5
  -1  -1  -3 2237.45 76.9512   4
   1  -1  -3 2240.70 73.2596   3
   1  -1  -3 2301.06 77.1381   4
  -1  -1   3 2321.46 60.5559   1
  -1   1  -3 2385.35 62.1047   8
  -1  -1   3 2209.60 81.0251   5
   1   1   3 2337.55 60.2091   1
  -1   1  -3 2150.32 73.8089   3
  -2   1   3 577.549 17.0025   1
   2   1  -3 533.721 20.3695   4
   2   1  -3 548.741 19.2238   3
   2   1  -3 562.489 17.0631   8
   2   1  -3 512.374 22.3806   5
  -2   1   3 527.084 23.2329   5
  -2  -1  -3 520.967 20.6969   3
  -2  -1  -3 545.628 21.0021   4
  -2   1   3 542.818 16.7733   2
  -2  -1   3 512.541 22.4367   5
   2   1   3 545.385 15.2757   1
  -2  -1   3 527.183 16.2971   2
  -2   1  -3 578.416 16.7495   8
  -2  -1   3 543.698 16.2690   1
  -2  -1   3 539.864 19.2778   7
  -2  -1   3 532.889 16.2927   2
   2  -1  -3 541.214 19.3702   3
   3  -1   3 4806.92 136.002   1
   3   1  -3 5328.06 161.453   3
  -3  -1  -3 5003.28 163.808   3
  -3   1   3 5170.82 137.873   1
  -3   1   3 5114.83 145.793   2
  -3   1   3 5204.64 181.452   5
   3   1  -3 5253.95 181.014   5
   3   1   3 5402.30 136.239   1
   3  -1  -3 4968.98 161.622   3
  -3   1  -3 5476.16 139.651   8
  -3  -1   3 5085.29 180.583   5
  -3  -1   3 5404.93 137.487   1
  -3  -1   3 5287.89 145.437   2
  -3   1  -3 5039.10 163.849   3
  -4  -1  -3 38.4334 4.83163   3
  -4  -1  -3 20.4295 3.39083   8
  -4   1   3 28.7336 3.52242   2
  -4   1   3 20.4514 3.42598   1
   4  -1   3 22.1350 2.81733   1
   4   1  -3 39.9631 4.19034   1
   4  -1   3 22.3952 2.18488   2
   4   1   3 22.8601 2.73192   1
  -4  -1   3 22.2450 3.01868   2
  -4   1  -3 20.4670 3.42121   8
   4   1   3 19.3360 2.28106   2
  -4  -1   3 23.8986 3.45519   1
  -4   1  -3 20.0296 3.88252   3
  -5   1   3 3346.37 97.5113   2
  -5  -1  -3 3312.82 108.827   3
  -5   1   3 3382.69 92.6848   1
   5  -1   3 3203.89 91.0445   1
   5  -1   3 3496.47 95.8087   2
   5   1  -3 3496.86 92.2142   1
  -5  -1   3 3499.17 92.4342   1
  -5   1  -3 3393.94 93.7124   8
  -5  -1   3 3405.17 97.2979   2
   5  -1  -3 3255.88 112.968   7
  -5   1  -3 3323.76 108.987   3
   5   1   3 3342.93 90.8164   1
   5  -1  -3 3591.29 92.7230   1
   5   1   3 3316.93 95.8598   2
   6  -1   3 331.256 12.3295   1
   6   1  -3 326.692 13.0756   1
  -6   1   3 293.010 13.0990   1
  -6   1   3 326.764 13.2432   2
  -6  -1  -3 281.144 14.1188   3
   6  -1   3 320.164 11.6902   2
   6  -1  -3 312.277 13.0177   1
   6  -1  -3 297.960 12.5386   6
  -6  -1   3 317.402 13.1747   1
  -6  -1   3 333.333 13.0901   2
   6   1   3 308.472 11.7588   2
  -6   1  -3 310.728 14.5161   3
  -6   1  -3 321.847 13.2953   8
   6   1   3 295.641 11.7432   1
  -7   1   3 754.237 25.0271   1
   7   1  -3 682.176 25.8997   6
  -7   1   3 726.545 25.1943   2
  -7  -1  -3 723.687 27.5401   3
   7  -1   3 710.998 23.8727   2
   7  -1   3 752.938 23.9280   1
  -7   1  -3 736.386 27.6715   3
   7   1   3 684.510 23.6625   2
   7  -1  -3 700.816 24.4883   1
  -7   1  -3 749.048 25.1242   8
  -7  -1   3 751.097 24.9333   1
   7  -1  -3 710.379 26.4445   6
  -7  -1   3 746.204 25.2379   2
   7   1   3 723.555 23.5140   1
   8  -1   3 7.32865 3.03926   2
   8  -1   3 10.2855 3.69050   1
  -8   1   3 10.2825 4.03338   1
   8   1  -3 7.21710 2.79312   6
   8   1   3 12.5854 3.21499   2
   8  -1  -3 10.4258 3.14081   6
   8  -1  -3 14.8601 4.26108   1
  -8  -1   3 12.1347 4.14518   1
  -8   1  -3 17.8651 4.61913   8
   8   1   3 12.7091 3.67092   1
   9  -1   3 715.483 24.8455   1
   9  -1   3 712.565 24.9396   2
  -9   1   3 693.372 25.6324   1
  -9   1   3 722.642 26.6224   8
  -9  -1   3 724.410 25.6799   1
   9   1   3 734.492 24.9613   1
   9   1   3 713.955 25.0838   2
  10  -1   3 69.4479 7.38346   1
 -10   1   3 74.2440 8.27427   1
 -10   1   3 71.2865 8.56879   8
  10  -1   3 77.7154 6.93997   2
  10   1   3 78.4024 7.43978   1
  10   1   3 71.2140 6.72329   2
 -10  -1   3 75.8822 8.01750   1
   0   2  -3 266.462 12.3548   5
   0  -2   3 298.757 8.36092   1
   0  -2  -3 268.542 12.4372   4
   0   2   3 283.593 9.32685   1
   0   2   3 249.342 9.00260   2
   0   2  -3 283.068 9.88430   8
   0   2  -3 314.114 12.3538   3
   0  -2  -3 276.678 12.1958   3
   1   2  -3 380.860 14.7866   3
   1   2  -3 382.756 12.4063   8
   1   2  -3 342.577 15.9283   5
  -1   2   3 376.735 12.1746   1
  -1  -2  -3 356.461 15.2217   4
   1  -2   3 386.765 10.6810   1
   1   2  -3 402.898 15.0609   4
  -1   2   3 357.597 12.0827   2
  -1  -2  -3 345.739 15.0852   3
   1   2   3 371.425 11.4071   1
  -1  -2   3 373.387 11.1222   1
   1  -2  -3 357.241 14.7340   3
  -1   2  -3 344.372 15.0704   3
  -1   2  -3 386.949 12.3363   8
   2  -2   3 1810.97 47.9528   1
  -2   2   3 1799.67 52.1434   2
   2   2  -3 1816.34 50.4022   8
  -2  -2  -3 1797.37 61.5084   4
   2   2  -3 1755.63 58.0472   3
   2   2  -3 1859.35 60.8058   4
   2   2  -3 1702.73 65.0082   5
  -2   2   3 1835.10 49.8141   1
  -2  -2  -3 1777.45 59.5603   3
   2   2   3 1640.43 50.8211   2
  -2   2  -3 1747.44 59.5091   3
   2   2   3 1796.34 48.3212   1
  -2  -2   3 1800.84 51.2071   2
  -2  -2   3 1837.17 48.6883   1
  -2  -2   3 1871.72 60.6177   7
  -2   2  -3 1849.45 50.3934   8
   2  -2  -3 1804.65 58.4305   3
  -3  -2  -3 204.912 10.6552   3
  -3   2   3 215.059 9.11667   1
  -3   2   3 215.271 12.7047   5
   3  -2   3 214.477 7.59969   1
   3   2  -3 215.253 8.73890   8
  -3   2   3 209.879 8.80637   2
  -3  -2  -3 216.167 10.3132   4
   3   2   3 199.675 7.62901   2
   3  -2  -3 205.166 8.35114   1
  -3  -2   3 192.160 8.06494   1
  -3   2  -3 209.271 8.72664   8
  -3   2  -3 202.311 10.5888   3
  -3  -2   3 207.963 7.95862   2
   3   2   3 203.011 7.43314   1
   3  -2  -3 213.088 9.20476   3
   4  -2   3 3113.97 84.8385   1
  -4   2   3 3119.68 86.5858   1
  -4   2   3 3134.36 91.1199   2
  -4  -2  -3 3131.76 102.198   3
   4  -2   3 3262.88 88.9663   2
   4   2   3 3113.23 89.6440   2
  -4  -2   3 3240.47 90.4574   2
  -4   2  -3 3131.91 102.181   3
   4  -2  -3 3036.06 105.251   7
   4  -2  -3 3253.76 86.0606   1
  -4  -2   3 3182.81 85.7299   1
  -4   2  -3 3195.81 87.6635   8
   4   2   3 3163.07 84.7191   1
   5  -2   3 306.320 10.9675   2
   5  -2   3 303.381 11.4533   1
  -5   2   3 294.020 12.8182   1
  -5   2   3 309.950 12.6986   2
  -5  -2  -3 313.633 14.3782   3
   5  -2  -3 281.517 12.6697   7
   5  -2  -3 323.136 12.6133   1
  -5   2  -3 324.944 13.0173   8
   5   2   3 328.489 11.5552   1
  -5  -2   3 304.362 12.1134   2
   5   2   3 299.072 11.2199   2
  -5   2  -3 307.394 14.1924   3
  -5  -2   3 321.736 12.2690   1
  -6   2   3 667.728 22.8540   2
  -6  -2  -3 665.021 25.2137   3
  -6   2   3 651.677 22.5825   1
   6  -2   3 645.695 21.0469   1
   6  -2   3 615.441 20.9546   2
   6   2   3 616.182 21.1482   2
   6  -2  -3 655.254 22.0615   1
  -6   2  -3 639.945 25.1448   3
  -6  -2   3 637.812 21.8082   1
  -6   2  -3 668.101 22.6145   8
   6  -2  -3 641.522 23.6139   6
  -6  -2   3 631.325 22.2433   2
   6   2   3 655.017 20.8710   1
  -7   2   3 78.4867 7.43735   8
  -7   2   3 72.6436 7.28618   1
   7  -2   3 83.2691 6.58045   1
   7  -2   3 79.4041 5.74648   2
  -7  -2  -3 80.6607 7.26463   3
  -7   2  -3 81.2030 7.33567   8
  -7  -2   3 87.6212 6.90322   2
  -7  -2   3 83.3747 6.89791   1
  -7   2  -3 81.2128 7.41023   3
   7   2   3 79.1367 5.92586   2
   7  -2  -3 70.8899 5.68792   6
   7   2   3 85.0493 6.32226   1
   7  -2  -3 80.5481 6.99000   1
  -8   2   3 108.760 9.03150   8
  -8   2   3 119.148 8.94633   1
   8  -2   3 111.552 7.35362   2
   8  -2   3 115.260 8.05782   1
   8  -2  -3 115.933 8.50093   1
  -8   2  -3 100.963 8.34747   8
   8   2   3 106.880 7.36668   2
   8   2   3 120.238 8.03125   1
   8  -2  -3 124.922 7.51626   6
  -8  -2   3 116.030 8.52399   1
   9  -2   3 114.433 8.48801   1
   9  -2   3 118.842 7.80839   2
  -9   2   3 117.035 9.33225   1
  -9   2   3 105.537 9.19400   8
  -9   2  -3 110.671 8.79179   8
   9   2   3 114.079 8.37341   1
   9   2   3 114.369 7.87076   2
  -9  -2   3 110.912 9.03033   1
   0   3  -3 6.19002 2.42495   5
   0  -3   3 7.55283 1.53922   1
   0   3   3 1.77703 1.52328   7
   0   3   3 -0.1568 1.62739   1
   0   3  -3 1.14314 2.46556   3
   0   3   3 6.23522 1.97413   2
   0   3  -3 -0.9943 1.65681   8
   0  -3  -3 0.61898 2.23043   3
   1  -3   3 1314.59 34.4919   1
  -1  -3  -3 1305.06 43.4558   3
  -1  -3  -3 1239.43 44.2327   4
  -1   3   3 1195.84 37.4239   2
   1   3  -3 1273.31 36.4483   8
   1   3  -3 1222.53 46.7006   5
  -1   3   3 1278.09 35.8142   1
  -1   3  -3 1205.07 43.0239   3
  -1  -3   3 1308.70 34.6117   1
   1   3   3 1188.22 36.8456   2
   1   3   3 1255.45 35.0396   1
  -1   3  -3 1261.69 36.4442   8
   1   3   3 1313.55 43.3016   7
  -1  -3   3 1268.85 36.2749   2
  -1   3  -3 1231.41 45.1953   5
  -2  -3  -3 31.9701 4.14858   4
  -2   3   3 21.5153 3.11208   2
  -2  -3  -3 39.1176 4.94999   3
   2  -3   3 30.1594 2.81572   1
   2   3  -3 33.4548 3.57097   4
   2   3  -3 34.9097 5.27956   5
  -2   3   3 21.5713 3.35158   1
   2   3  -3 30.1849 3.53721   8
  -2   3   3 23.6387 3.14265   8
   2   3   3 27.2533 2.91278   1
   2   3   3 31.6411 3.20372   7
   2  -3  -3 38.1634 3.44848   1
  -2  -3   3 27.7081 2.71760   2
  -2   3  -3 30.5478 3.71658   8
  -2  -3   3 30.1009 2.92119   1
   2   3   3 33.0188 3.10629   2
  -2   3  -3 50.1786 5.12500   3
   3  -3   3 669.481 19.8466   1
   3   3  -3 653.127 21.2297   8
  -3  -3  -3 680.910 25.3718   4
  -3   3   3 689.215 21.3724   8
  -3   3   3 701.331 21.6882   1
  -3  -3  -3 677.168 25.3835   3
  -3   3   3 655.779 22.0532   2
  -3  -3   3 676.360 20.3984   1
   3   3   3 650.848 19.9652   1
   3   3   3 663.998 20.9874   2
  -3  -3   3 659.739 21.0838   2
   3  -3  -3 679.556 20.7716   1
  -3   3  -3 620.992 25.1458   3
  -3   3  -3 664.750 21.5907   8
  -3  -3   3 670.530 21.1381   2
  -4  -3  -3 2.57921 2.57794   4
  -4   3   3 3.64412 2.54361   2
   4  -3   3 2.30445 1.61562   2
  -4  -3  -3 4.36628 2.94014   3
   4  -3   3 -0.0618 1.89513   1
  -4   3   3 7.36314 2.98763   1
  -4   3   3 2.89341 2.77910   8
  -4   3  -3 3.53699 2.75128   8
   4   3   3 1.58845 1.83000   2
  -4   3  -3 1.69111 2.74022   3
   4   3   3 2.73581 1.85281   1
  -4  -3   3 5.18182 2.27529   1
  -4  -3   3 5.11414 2.07620   2
   4  -3  -3 0.93357 2.21096   1
   5  -3   3 536.638 17.7626   1
  -5   3   3 559.850 19.7269   1
  -5   3   3 546.081 19.6420   8
  -5   3   3 540.498 19.6615   2
   5  -3   3 529.874 17.7890   2
  -5  -3  -3 560.537 22.1352   3
  -5  -3  -3 581.662 22.0217   4
  -5   3  -3 533.750 22.1077   3
  -5  -3   3 528.264 18.7163   2
  -5   3  -3 555.211 19.7027   8
   5   3   3 524.345 18.3395   2
   5  -3  -3 529.948 18.7747   1
  -5  -3   3 561.100 18.5939   1
   5   3   3 531.992 17.6075   1
   6  -3   3 11.3021 2.84714   2
  -6   3   3 6.70182 3.79252   8
  -6   3   3 26.1768 4.82375   2
   6  -3   3 11.8599 3.25238   1
  -6  -3  -3 8.47700 3.87234   3
  -6   3   3 6.87840 3.51131   1
  -6  -3   3 6.69577 3.11398   1
  -6   3  -3 10.7918 3.86968   3
   6  -3  -3 13.7504 2.87998   6
  -6  -3   3 14.7915 3.40602   2
   6  -3  -3 8.02241 3.38923   1
  -6   3  -3 13.6132 4.06906   8
   6   3   3 4.90983 2.65390   1
   6   3   3 11.3490 2.83611   2
  -7   3   3 538.450 20.8471   1
   7  -3   3 534.392 19.1644   1
   7  -3   3 549.399 19.4141   2
  -7  -3  -3 562.668 22.8481   3
  -7   3   3 559.850 21.3730   8
   7  -3  -3 534.958 21.2007   6
   7   3   3 572.114 19.4343   1
  -7   3  -3 533.289 20.7714   8
   7   3   3 556.214 19.7289   2
  -7  -3   3 564.850 20.4952   2
   7  -3  -3 540.947 20.1429   1
  -7  -3   3 549.146 20.3207   1
  -7   3  -3 576.917 23.0988   3
  -8   3   3 -0.2178 3.72028   8
   8  -3   3 0.62802 2.53260   2
   8  -3   3 -0.3491 3.17490   1
  -8   3   3 1.05457 3.45576   1
   8  -3  -3 -1.4405 2.84205   1
  -8  -3   3 5.51041 3.71970   1
   8   3   3 0.16741 2.94214   1
   8   3   3 0.06169 2.64468   2
  -8   3  -3 0.33016 3.64938   8
   8  -3  -3 4.92762 2.93445   6
  -9   3   3 313.463 15.3184   1
   9  -3   3 291.163 13.4375   2
  -9   3   3 345.835 16.1560   8
   9  -3   3 302.764 13.7783   1
  -9  -3   3 285.100 14.4816   1
   9   3   3 315.002 13.8045   2
   9   3   3 292.982 13.8433   1
  -9   3  -3 290.409 14.5295   8
   0   4   3 1594.06 44.1330   1
   0   4  -3 1597.75 57.4334   5
   0  -4   3 1668.99 43.3386   1
   0   4   3 1466.60 46.4127   2
   0  -4   3 1577.55 45.3310   2
   0   4  -3 1531.80 45.2726   8
   1   4  -3 192.701 10.5061   5
  -1   4   3 168.892 8.05031   2
   1   4  -3 167.467 8.03619   8
   1  -4   3 175.294 6.55634   2
   1  -4   3 177.125 7.13692   1
  -1   4   3 187.245 7.97389   1
  -1   4  -3 177.723 9.19067   5
  -1   4  -3 179.606 8.19285   8
   1   4   3 174.886 7.75392   2
  -1  -4   3 175.522 6.90690   1
   1   4   3 175.766 8.70469   7
  -1  -4   3 175.143 7.03351   2
   1   4   3 169.225 7.35375   1
   1  -4  -3 179.301 7.59610   1
   2  -4   3 3113.01 86.7650   2
   2  -4   3 3113.98 82.5765   1
  -2   4   3 3104.21 84.0145   1
  -2   4   3 3073.44 88.8604   2
  -2  -4  -3 3093.34 99.9096   3
   2   4  -3 3078.47 85.2023   8
  -2   4   3 3060.57 83.9866   8
  -2  -4   3 3038.05 87.5354   2
   2   4   3 3179.49 82.9898   1
  -2   4  -3 3078.17 85.2928   8
   2   4   3 3069.06 88.1071   2
  -2  -4   3 3142.96 82.6226   1
   2   4   3 2978.16 103.394   7
  -2   4  -3 2983.91 99.7560   3
   2  -4  -3 3015.38 83.3079   1
   3  -4   3 106.899 5.55559   1
   3  -4   3 94.6949 4.86315   2
  -3   4   3 96.8083 6.59783   2
  -3   4   3 97.9435 6.50069   1
  -3   4   3 109.202 6.39517   8
  -3  -4  -3 94.5847 6.67114   4
  -3  -4  -3 99.5644 7.54879   3
   3   4  -3 94.7562 6.17235   8
  -3  -4   3 90.4724 5.39016   2
  -3  -4   3 90.9100 5.33324   1
   3  -4  -3 91.8496 5.82907   1
  -3   4  -3 92.3594 7.44123   3
   3   4   3 88.0464 5.62051   2
  -3   4  -3 94.2112 6.38802   8
   3   4   3 119.935 5.84631   1
   4   4  -3 3719.01 106.946   8
   4  -4   3 3916.50 104.289   1
  -4  -4  -3 3899.32 125.094   3
   4  -4   3 3901.66 109.957   2
  -4   4   3 3781.20 111.829   2
  -4   4   3 3999.53 105.990   1
  -4  -4  -3 3922.52 129.245   4
  -4   4   3 3878.10 107.282   8
  -4   4  -3 3925.33 107.722   8
  -4  -4   3 3870.97 110.795   2
   4  -4  -3 3667.13 104.886   1
   4   4   3 3977.59 110.824   2
  -4  -4   3 3953.47 104.672   1
  -4   4  -3 3828.52 125.103   3
   4   4   3 3953.89 104.372   1
  -5   4   3 164.504 9.45884   8
  -5   4   3 152.131 9.46952   1
   5  -4   3 162.280 7.65711   2
  -5  -4  -3 160.915 10.1434   3
   5  -4   3 167.026 8.19633   1
  -5   4   3 177.608 9.51171   2
  -5   4  -3 164.475 10.3573   3
  -5  -4   3 161.659 8.41336   2
  -5  -4   3 172.057 8.51005   1
   5   4   3 166.376 8.26246   2
   5   4   3 158.668 7.95214   1
  -5   4  -3 170.310 9.62776   8
   5  -4  -3 152.964 8.49235   1
   6  -4   3 1476.44 43.8812   1
  -6   4   3 1550.18 46.7446   8
   6  -4   3 1489.24 45.8418   2
  -6   4   3 1559.85 46.2595   1
  -6  -4  -3 1529.04 52.7245   3
  -6  -4   3 1531.32 44.8362   1
   6  -4  -3 1553.45 45.1867   1
   6   4   3 1486.38 46.2406   2
  -6  -4   3 1510.39 46.5933   2
  -6   4  -3 1519.34 46.6827   8
   6   4   3 1465.62 43.8702   1
  -7  -4  -3 54.2191 6.82545   3
   7  -4   3 52.3356 5.32871   2
  -7   4   3 44.0327 6.43696   8
  -7   4   3 44.7072 6.48731   1
   7  -4   3 39.9753 5.08847   1
   7  -4  -3 49.9100 5.99368   1
   7   4   3 45.1545 5.34829   1
   7   4   3 52.9546 5.54629   2
  -7   4  -3 36.8094 6.04284   8
  -7  -4   3 55.5431 6.22321   1
  -8   4   3 614.919 23.5971   8
   8  -4   3 607.397 21.5152   2
  -8   4   3 613.671 23.2252   1
   8  -4   3 596.575 21.0324   1
   8   4   3 575.785 21.0704   1
   8  -4  -3 578.343 21.7510   1
   8   4   3 578.678 21.6434   2
  -8   4  -3 589.589 22.8895   8
  -8  -4   3 601.445 22.3258   1
  -9   4   3 56.3094 7.73369   8
   9  -4   3 48.3627 5.94031   1
  -9   4   3 55.9364 7.61295   1
   9  -4   3 44.0887 5.56538   2
  -9   4  -3 53.7395 7.03082   8
   9   4   3 54.2648 6.27240   2
   9   4   3 45.4553 6.02643   1
  -9  -4   3 45.1407 6.58241   1
   0   5   3 -1.7254 1.95870   2
   0  -5   3 13.4717 2.45283   2
   0   5  -3 -1.3304 1.99757   8
   0   5   3 0.96353 2.07535   1
   0  -5   3 1.98574 1.86696   1
   0   5  -3 2.80792 2.64532   5
  -1   5   3 49.4042 4.96087   1
   1  -5   3 53.9562 3.84964   2
  -1   5   3 61.3128 5.12450   2
   1   5  -3 60.8195 5.19456   8
   1  -5   3 64.7990 4.58024   1
   1   5   3 50.5139 4.62706   2
   1  -5  -3 66.6605 4.92710   1
  -1  -5   3 58.1116 4.17472   2
  -1   5  -3 47.9996 5.00802   8
   1   5   3 52.2005 4.48172   1
   1   5   3 60.8451 5.26082   7
  -1   5  -3 56.3686 6.12377   5
  -1  -5   3 52.7641 4.17582   1
  -2   5   3 460.665 16.4265   1
   2  -5   3 459.263 15.1952   2
  -2   5   3 441.676 16.6868   2
   2  -5   3 462.982 15.2261   1
   2   5  -3 437.450 16.1214   8
  -2   5  -3 443.105 16.4523   8
  -2  -5   3 456.305 15.6420   2
   2   5   3 460.572 16.2508   2
  -2  -5   3 439.780 14.9668   1
   2   5   3 455.052 15.4428   1
   2  -5  -3 458.531 15.8385   1
  -3   5   3 551.379 19.4074   1
  -3   5   3 567.153 18.8152   8
   3   5  -3 563.874 19.5372   8
  -3   5   3 577.198 20.2187   2
   3  -5   3 548.070 18.2608   2
  -3  -5  -3 550.213 22.8973   3
   3  -5   3 575.852 18.3623   1
   3   5   3 565.422 18.4638   1
  -3  -5   3 556.333 18.1656   1
  -3   5  -3 531.957 19.6587   8
  -3  -5   3 578.390 19.1038   2
   3   5   3 590.170 19.5313   2
   3  -5  -3 540.637 18.7822   1
   4  -5   3 11.7615 2.50733   2
  -4   5   3 12.7129 3.57570   8
  -4   5   3 15.1207 3.77007   1
   4  -5   3 9.69193 2.90819   1
  -4   5   3 9.68362 3.45150   2
   4   5  -3 6.83100 3.06561   8
  -4  -5  -3 8.94320 3.75137   3
  -4   5  -3 12.9374 3.86294   8
   4  -5  -3 16.4350 3.63312   1
   4   5   3 11.8809 2.92152   1
  -4  -5   3 8.45858 2.71093   2
  -4  -5   3 16.8899 3.26439   1
   4   5   3 11.4594 3.09829   2
   5  -5   3 269.514 11.4338   1
  -5   5   3 252.585 12.4384   1
  -5   5   3 285.693 12.6549   8
  -5   5   3 280.165 12.8209   2
  -5  -5  -3 248.383 13.5675   3
   5  -5   3 266.456 10.9940   2
   5   5   3 264.516 11.2531   1
  -5  -5   3 263.438 11.5133   2
   5  -5  -3 270.157 11.9633   1
   5   5   3 271.014 11.6639   2
  -5   5  -3 252.294 12.5668   8
  -5  -5   3 249.510 11.2212   1
  -6   5   3 255.913 13.0481   1
  -6  -5  -3 269.899 14.1047   3
  -6   5   3 272.454 13.3928   8
   6  -5   3 265.837 11.5035   2
   6  -5   3 266.756 11.7315   1
   6  -5  -3 271.282 12.5132   1
  -6  -5   3 246.704 11.9865   1
   6   5   3 264.679 11.9312   2
  -6  -5   3 273.388 12.2165   2
  -6   5  -3 255.670 13.1544   8
   6   5   3 280.094 11.6837   1
   7  -5   3 61.1014 6.17551   1
  -7   5   3 57.0428 7.30961   1
  -7   5   3 57.3660 7.30482   8
  -7  -5  -3 66.6285 7.78832   3
   7  -5   3 70.2191 6.08520   2
   7  -5  -3 53.6856 6.49433   1
   7   5   3 65.8878 6.30579   1
  -7   5  -3 53.8130 7.05164   8
  -7  -5   3 48.3004 6.06793   1
   7   5   3 61.1620 6.16704   2
   8  -5   3 20.6209 4.32941   1
   8  -5   3 17.2223 3.98857   2
  -8   5   3 13.7845 4.84640   1
  -8   5   3 14.7653 5.25048   8
   8   5   3 11.7513 3.90525   1
   8   5   3 17.1847 3.99591   2
  -8  -5   3 12.4780 4.21277   1
   8  -5  -3 10.9429 4.05144   1
  -8   5  -3 10.7789 4.48685   8
   0  -6   3 2483.62 66.8598   1
   0  -6   3 2474.52 70.4965   2
   0   6  -3 2328.12 68.8921   8
   0   6   3 2451.42 71.4989   2
   0   6   3 2395.86 67.3210   1
   1  -6   3 40.1406 4.45049   1
   1   6  -3 39.5702 5.01808   8
   1  -6   3 41.7231 4.04501   2
  -1   6   3 37.2321 4.76844   2
  -1   6   3 45.4423 4.82680   1
   1   6   3 28.8421 4.08115   2
  -1   6  -3 42.3227 5.12313   8
  -1  -6   3 41.5379 4.26069   1
  -1  -6   3 32.0804 3.85278   2
   1   6   3 38.8150 4.35929   1
   1  -6  -3 35.9889 4.45829   1
   2  -6   3 1642.18 48.8880   2
  -2   6   3 1645.56 50.3067   2
   2  -6   3 1643.66 46.8246   1
   2   6  -3 1626.96 48.5665   8
  -2   6   3 1644.65 48.1881   1
  -2   6  -3 1635.73 48.8355   8
  -2  -6   3 1597.02 46.6340   1
   2   6   3 1678.39 50.0018   2
  -2  -6   3 1684.72 49.3854   2
   2  -6  -3 1691.83 47.7143   1
   2   6   3 1646.91 47.1332   1
  -3   6   3 24.3530 4.25751   1
  -3  -6  -3 22.1666 4.86689   3
  -3   6   3 25.9806 4.55633   2
   3  -6   3 25.5164 3.49441   2
   3   6  -3 25.1988 4.28206   8
   3  -6   3 22.5382 3.83570   1
  -3  -6   3 24.6798 3.69901   2
  -3  -6   3 23.3948 3.64460   1
   3   6   3 19.7547 3.52616   1
   3  -6  -3 27.9086 4.17339   1
  -3   6  -3 33.5007 4.94839   8
   3   6   3 22.0903 3.86227   2
  -4   6   3 1002.98 33.0242   2
   4  -6   3 978.927 31.1579   2
   4   6  -3 981.421 31.8452   8
  -4   6   3 974.449 31.6784   1
  -4   6   3 1015.23 31.3173   8
   4  -6   3 973.871 30.4942   1
  -4  -6  -3 1048.93 37.5880   3
   4   6   3 1028.57 32.2119   2
  -4  -6   3 983.573 31.7416   2
   4  -6  -3 935.810 30.8190   1
   4   6   3 997.678 30.6972   1
  -4  -6   3 955.618 30.2381   1
  -4   6  -3 1028.14 32.6828   8
   5  -6   3 26.2300 3.94597   2
  -5  -6  -3 19.7838 4.93601   3
  -5   6   3 31.5824 5.29170   8
  -5   6   3 24.5888 5.02978   1
   5   6  -3 38.2139 5.58065   8
   5  -6   3 21.7365 4.31328   1
   5  -6  -3 23.4772 4.49095   1
  -5   6  -3 24.1271 4.95647   8
   5   6   3 23.9085 4.28235   2
  -5  -6   3 23.0614 4.13922   1
  -5  -6   3 22.3167 3.88164   2
   5   6   3 28.2830 4.43164   1
   6  -6   3 1158.55 36.6511   2
   6  -6   3 1155.81 35.7104   1
  -6  -6  -3 1145.53 42.4471   3
  -6   6   3 1204.15 37.6764   8
  -6   6   3 1199.00 37.3663   1
   6   6   3 1169.33 35.7458   1
  -6   6  -3 1118.34 37.6953   8
  -6  -6   3 1125.55 35.9118   1
   6  -6  -3 1146.37 36.2965   1
   6   6   3 1160.16 37.4655   2
  -6  -6   3 1168.49 37.4474   2
  -7   6   3 18.7823 5.20175   1
  -7   6   3 2.15383 4.11473   8
   7  -6   3 6.10139 3.38779   1
   7  -6   3 4.11880 3.10850   2
  -7  -6   3 -0.3440 2.93037   1
   7   6   3 -0.9017 2.74058   1
   7  -6  -3 4.30496 3.47773   1
  -7   6  -3 5.83201 4.01933   8
   7   6   3 -0.1406 2.99114   2
   8  -6   3 1022.61 32.7583   2
   8  -6   3 965.322 31.5325   1
  -8   6   3 1026.00 34.2534   8
  -8   6   3 974.707 33.5406   1
  -8  -6   3 991.129 32.9390   1
  -8   6  -3 877.836 33.1966   8
   0  -7   3 -0.1200 2.18360   1
   0   7   3 -1.6702 2.40778   2
   0   7  -3 2.98379 2.80756   8
   0  -7   3 -0.5280 1.98682   2
   0   7   3 0.98967 2.22755   1
   1  -7   3 655.348 22.2006   2
  -1   7   3 672.009 23.1567   2
   1   7  -3 652.595 22.7117   8
  -1   7   3 624.184 21.9585   1
   1  -7   3 675.492 21.8003   1
   1   7   3 686.205 23.0700   2
  -1  -7   3 644.278 21.4352   1
  -1   7  -3 650.263 22.8694   8
  -1  -7   3 672.318 22.3063   2
   1   7   3 637.192 21.7485   1
  -2   7   3 104.469 7.47464   1
   2   7  -3 111.069 7.63102   8
   2  -7   3 99.7271 6.99717   1
   2  -7   3 111.054 6.60689   2
  -2   7   3 117.242 7.75101   2
   2   7   3 92.0462 6.68515   1
  -2  -7   3 105.298 6.69105   2
   2  -7  -3 102.084 7.34936   1
  -2   7  -3 105.008 7.59966   8
  -2  -7   3 108.033 6.75505   1
   2   7   3 107.076 7.17114   2
   3  -7   3 1396.00 43.4070   2
  -3   7   3 1469.18 46.2188   2
   3  -7   3 1426.73 42.0774   1
   3   7  -3 1450.33 43.5802   8
  -3   7   3 1413.72 43.1721   1
  -3   7  -3 1423.01 43.8750   8
  -3  -7   3 1390.15 43.8970   2
   3   7   3 1506.40 44.6902   2
  -3  -7   3 1375.00 41.6846   1
   3  -7  -3 1401.34 42.5227   1
   3   7   3 1418.46 42.0851   1
  -4   7   3 2.95622 3.11705   1
   4   7  -3 2.77679 2.93604   8
  -4  -7  -3 5.73775 3.80731   3
   4  -7   3 6.07900 3.17659   1
   4  -7   3 6.40010 2.81997   2
   4   7   3 6.72918 3.33007   2
  -4   7  -3 7.26573 3.76430   8
  -4  -7   3 8.58671 3.05370   2
  -4  -7   3 7.46391 3.09334   1
   4  -7  -3 3.33870 3.00384   1
   4   7   3 1.75249 2.74249   1
   5   7  -3 1073.01 34.7292   8
  -5  -7  -3 1041.61 39.8503   3
   5  -7   3 1082.67 34.1540   2
  -5   7   3 1019.27 34.2669   1
   5  -7   3 1052.99 33.3301   1
  -5   7   3 1085.11 34.2820   8
  -5  -7   3 1056.33 34.7480   2
  -5   7  -3 1075.31 35.4509   8
   5  -7  -3 1018.90 33.6413   1
  -5  -7   3 1034.62 33.1783   1
   5   7   3 1060.33 33.3853   1
   5   7   3 1161.30 35.2630   2
   6  -7   3 65.9947 6.86300   1
   6  -7   3 78.4114 6.51974   2
  -6  -7  -3 78.6017 8.32289   3
  -6   7   3 79.1658 8.12308   1
  -6   7   3 83.8830 8.09896   8
  -6  -7   3 81.1226 7.11846   1
   6   7   3 68.7313 6.84536   1
  -6   7  -3 65.1394 7.61509   8
   6   7   3 74.8840 6.92100   2
   6  -7  -3 84.5728 7.66009   1
  -7   7   3 297.013 15.4078   1
  -7   7   3 301.664 15.2661   8
   7  -7   3 340.013 14.4952   1
   7  -7   3 309.691 13.9945   2
  -7  -7   3 330.618 15.0680   1
   7   7   3 319.716 14.4036   1
  -7   7  -3 321.801 15.7822   8
   0   8  -3 963.115 32.1352   8
   0  -8   3 992.869 30.8970   1
   0  -8   3 990.961 32.0882   2
   0   8   3 992.649 31.1690   1
   0   8   3 1014.36 32.8617   2
   1  -8   3 120.836 7.60157   2
  -1   8   3 121.998 8.16341   1
   1   8  -3 138.858 8.73855   8
   1  -8   3 144.962 8.43718   1
   1   8   3 165.701 8.92873   2
  -1  -8   3 136.752 7.91521   2
  -1  -8   3 139.531 8.14421   1
   1   8   3 124.267 8.07156   1
  -1   8  -3 130.689 8.66214   8
   2  -8   3 166.935 9.20385   1
   2  -8   3 178.041 9.08237   2
  -2   8   3 173.296 9.73523   1
   2   8  -3 177.924 9.90210   8
   2   8   3 173.056 9.49444   2
  -2  -8   3 174.571 9.18073   1
  -2   8  -3 160.890 9.83093   8
  -2  -8   3 174.201 9.19447   2
   2   8   3 174.137 9.27539   1
   3  -8   3 83.7533 6.88169   1
  -3   8   3 83.6029 7.36945   1
   3   8  -3 81.5592 7.18630   8
   3  -8   3 92.8575 6.54985   2
  -3   8  -3 104.697 7.99530   8
   3   8   3 93.7161 7.18950   2
  -3  -8   3 97.1566 6.96946   2
  -3  -8   3 87.3409 6.88296   1
   3   8   3 76.3528 6.71831   1
  -4  -8  -3 -3.4314 3.22849   3
   4  -8   3 9.68850 3.19518   2
   4  -8   3 9.42021 3.68094   1
  -4   8   3 6.11128 3.54831   1
   4   8  -3 2.06231 3.08177   8
  -4   8  -3 7.64263 4.13455   8
  -4  -8   3 6.06467 3.28031   1
   4   8   3 4.05181 3.06240   1
   4   8   3 11.4111 3.82582   2
  -4  -8   3 3.55996 3.06182   2
   5  -8   3 120.352 8.53930   1
   5  -8   3 133.722 8.13514   2
   5   8  -3 126.248 9.13237   8
  -5   8   3 114.827 8.81921   1
  -5  -8  -3 128.126 10.3542   3
   5   8   3 122.873 8.55380   1
  -5   8  -3 99.6141 8.94818   8
  -5  -8   3 117.183 8.31846   1
  -6  -8  -3 233.324 14.0211   3
   6  -8   3 235.075 11.5052   2
  -6   8   3 202.841 12.1331   1
   6  -8   3 242.460 11.9034   1
  -6  -8   3 220.519 11.8477   1
   6   8   3 224.700 11.6931   1
  -6   8  -3 212.542 12.6673   8
   0   9   3 2.24814 2.99535   1
   0  -9   3 -0.2385 2.61552   2
   0  -9   3 3.33296 3.02813   1
   0   9  -3 1.04292 3.29711   8
   1  -9   3 1517.70 45.2305   1
   1  -9   3 1542.57 47.2553   2
   1   9  -3 1484.32 46.4749   8
  -1   9   3 1486.61 45.3424   1
   1   9   3 1513.46 45.3258   1
  -1  -9   3 1500.64 47.2805   2
  -1   9  -3 1548.18 47.0148   8
  -1  -9   3 1563.58 45.4002   1
   2  -9   3 64.1480 6.56368   1
   2   9  -3 60.9854 6.57219   8
   2  -9   3 56.1655 5.81521   2
  -2   9   3 46.7414 6.06864   1
  -2  -9   3 65.8463 6.15965   2
  -2  -9   3 59.5457 6.16350   1
  -2   9  -3 47.8753 6.23027   8
   2   9   3 59.4787 6.25543   1
   3  -9   3 740.613 26.0256   2
  -3   9   3 740.101 25.9889   1
   3  -9   3 770.477 25.7553   1
   3   9  -3 763.666 26.4771   8
  -3  -9   3 757.473 26.4276   2
  -3   9  -3 729.202 26.6301   8
  -3  -9   3 770.277 26.4457   2
   3   9   3 778.240 25.6004   1
  -3  -9   3 747.600 25.4701   1
   4   9  -3 -0.2241 3.19935   8
   4  -9   3 1.23301 3.14161   1
  -4   9   3 7.60138 3.75395   1
  -4  -9  -3 1.08840 3.97618   3
   4  -9   3 3.71517 2.82445   2
  -4  -9   3 1.90223 3.16820   1
   4   9   3 1.74932 3.04591   1
  -4   9  -3 3.54853 3.79976   8
   5  -9   3 732.460 25.2469   1
   5  -9   3 720.675 25.3018   2
  -5  -9  -3 724.396 30.1460   3
   5   9  -3 705.763 25.8946   8
  -5   9   3 700.364 25.6207   1
  -5   9  -3 698.855 26.4093   8
   5   9   3 705.340 25.0019   1
  -5  -9   3 700.876 24.8938   1
   0 -10   3 21.1035 4.44179   1
   0 -10   3 21.2638 4.20370   2
   0  10   3 28.0854 4.97678   1
   0  10  -3 25.5394 5.00281   8
   1  10  -3 13.3706 4.19794   8
  -1  10   3 14.3528 4.12392   1
   1 -10   3 9.07795 3.61762   1
   1 -10   3 13.9999 3.78506   2
  -1 -10   3 16.0935 4.27429   1
   1  10   3 19.1218 4.14454   1
  -1  10  -3 14.5337 4.26676   8
  -1 -10   3 16.9084 4.20696   2
   2 -10   3 86.0999 7.53387   1
   2 -10   3 80.9637 6.89211   2
   2  10  -3 87.6570 7.70064   8
  -2  10   3 95.0182 7.71509   1
  -2 -10   3 84.9902 7.42931   1
  -2  10  -3 86.9568 7.81316   8
  -2 -10   3 89.3255 7.32286   2
   2  10   3 75.1730 6.98902   1
   3 -10   3 13.2991 3.81556   2
   3  10  -3 3.70681 3.32306   8
  -3  10   3 10.8115 4.02029   1
   3 -10   3 3.74254 3.46521   1
  -3  10  -3 6.62173 4.13179   8
  -3 -10   3 4.01343 3.44984   1
   3  10   3 11.8011 3.89547   1
   0   0  -4 8753.32 294.527   3
   0   0   4 9090.78 324.489   5
   0   0  -4 9999.99 250.768   8
   0   0  -4 9908.40 309.209   4
   1   0  -4 4.17775 2.57784   3
   1   0   4 4.85408 2.67780   5
  -1   0  -4 3.80324 2.87719   3
  -1   0   4 5.20869 2.98896   5
  -1   0   4 7.77848 1.87467   1
   1   0  -4 11.4541 3.26169   4
  -1   0  -4 8.02138 1.60553   8
   2   0   4 1569.89 58.9015   5
  -2   0   4 1674.37 47.1268   2
  -2   0   4 1790.93 45.6877   1
  -2   0   4 1634.24 61.4049   5
   2   0  -4 1647.43 54.0846   3
  -2   0  -4 1572.76 55.4819   3
  -3   0   4 435.534 14.8622   1
  -3   0   4 453.448 14.7140   2
  -3   0  -4 440.472 18.7387   3
   3   0   4 446.409 13.0223   1
  -4   0   4 697.987 22.2700   1
  -4   0  -4 684.591 26.8046   3
  -4   0   4 689.076 22.4949   2
   4   0   4 718.399 20.4272   1
  -5   0   4 29.7971 3.94430   2
   5   0   4 32.2172 3.56328   1
  -5   0   4 34.3298 4.63758   1
   5   0   4 32.3279 3.07769   2
  -5   0  -4 28.7125 5.02650   3
  -6   0   4 3507.57 105.395   2
  -6   0  -4 3639.84 118.472   3
   6   0   4 3546.95 98.3719   1
  -6   0   4 3765.86 100.496   1
   6   0   4 3776.23 103.800   2
   7   0   4 504.662 17.1361   1
  -7   0  -4 466.133 20.6695   3
   7   0   4 466.806 16.8015   2
  -7   0   4 477.141 18.5413   1
  -7   0   4 475.364 18.5780   2
  -8   0   4 1279.54 40.6833   1
   8   0   4 1302.67 40.4505   2
   8   0   4 1311.91 39.0794   1
  -9   0   4 425.448 18.2607   1
   9   0   4 452.267 17.3260   1
   9   0   4 445.921 17.3031   2
   0   1   4 2.42428 1.43453   1
   0  -1  -4 3.84136 2.64240   4
   0  -1   4 1.43424 2.30688   5
   0  -1  -4 0.25849 2.58332   3
   0   1  -4 2.36276 1.60373   8
   0   1  -4 1.90412 2.39892   4
  -1  -1  -4 414.040 17.7009   3
   1   1  -4 405.703 17.4280   4
   1  -1   4 418.413 17.6399   5
   1   1  -4 404.647 16.8838   3
  -1  -1  -4 421.890 17.8272   4
   1   1  -4 439.189 13.8247   8
  -1   1   4 428.089 13.2848   1
  -1   1   4 419.645 19.7427   5
  -1   1  -4 452.854 13.3875   8
  -1   1  -4 396.380 17.4653   3
   1  -1  -4 412.915 17.1072   3
  -1  -1   4 439.734 12.7995   1
   1   1   4 431.841 12.1800   1
  -1  -1   4 420.112 18.9201   5
   1  -1  -4 417.391 18.0013   4
   2   1  -4 961.716 33.3822   3
  -2   1   4 967.238 28.7892   2
  -2   1   4 968.567 38.9300   5
  -2  -1  -4 977.259 35.8237   4
   2  -1   4 968.481 35.4433   5
  -2  -1  -4 970.050 35.1391   3
   2   1  -4 977.998 35.3589   4
  -2   1   4 963.752 28.2324   1
  -2  -1   4 947.989 38.0738   5
  -2  -1   4 975.014 28.2734   2
   2   1   4 964.109 26.3580   1
   2  -1  -4 970.171 33.7430   3
  -2  -1   4 972.030 28.2592   2
  -2  -1   4 971.029 27.7047   1
  -2   1  -4 950.214 34.9507   3
  -2   1  -4 1017.40 28.0367   8
  -3   1   4 809.602 25.8200   2
  -3  -1  -4 845.311 31.7912   4
  -3  -1  -4 826.410 31.1427   3
  -3   1   4 831.754 25.5332   1
   3  -1  -4 853.551 29.0706   3
  -3   1  -4 823.394 31.1411   3
  -3  -1   4 822.474 24.9275   1
  -3  -1   4 833.936 25.3990   2
   3   1   4 860.646 23.4087   1
  -3   1  -4 851.002 24.9005   8
   4  -1   4 451.743 14.1745   1
  -4  -1  -4 464.381 19.6761   3
  -4   1   4 429.769 15.9955   2
  -4   1   4 462.317 16.3150   1
   4   1   4 449.744 14.1815   1
  -4  -1   4 490.763 16.1445   2
  -4   1  -4 447.944 19.5397   3
   4   1   4 462.160 14.4654   2
  -4  -1   4 468.625 15.9809   1
  -4   1  -4 468.183 15.5710   8
   5  -1   4 35.7533 3.14367   2
  -5   1   4 26.2810 4.40169   1
  -5  -1  -4 40.5023 5.90035   3
   5  -1   4 32.7869 3.61428   1
  -5   1   4 36.6464 4.47517   2
  -5  -1   4 34.8870 4.53494   1
   5   1   4 31.8659 3.53081   1
   5   1   4 32.8149 3.35939   2
  -5   1  -4 31.5739 5.41986   3
  -5  -1   4 31.6811 4.16960   2
  -6  -1  -4 0.19302 3.05677   3
   6  -1   4 5.54783 2.64694   1
   6  -1   4 1.36462 1.96398   2
  -6   1   4 -0.4733 2.80529   1
  -6   1   4 4.68451 2.85612   2
  -6   1  -4 4.17261 3.29662   3
   6   1   4 -0.0182 1.97226   2
  -6  -1   4 3.08796 3.11087   1
   6   1   4 3.50525 2.49453   1
  -6  -1   4 3.10450 2.84495   2
  -7  -1  -4 512.404 22.0853   3
   7  -1   4 518.206 18.0132   2
   7  -1   4 527.154 18.0410   1
  -7   1   4 509.503 19.5651   1
  -7   1   4 514.865 19.6908   2
  -7  -1   4 509.688 19.3830   1
  -7  -1   4 544.412 19.9260   2
  -7   1  -4 513.759 22.0487   3
   7   1   4 517.572 17.8231   1
   7   1   4 497.790 18.0820   2
  -8   1   4 55.2096 6.89273   1
   8  -1   4 44.0415 5.02275   2
   8  -1   4 58.2025 6.02782   1
   8   1   4 59.6116 5.55522   2
   8   1   4 57.9437 5.95462   1
  -8  -1   4 47.7595 6.18785   1
  -9   1   4 493.953 19.4908   1
   9  -1   4 469.181 17.7725   1
   9  -1   4 447.831 17.6692   2
  -9  -1   4 439.394 18.6864   1
   9   1   4 457.028 17.8682   2
   9   1   4 468.230 17.8039   1
   0  -2  -4 1102.41 37.8556   3
   0  -2  -4 1071.53 38.9373   4
   0   2  -4 1003.63 37.0581   3
   0   2   4 1050.92 29.6371   1
   0   2  -4 1062.19 30.7311   8
  -1   2   4 797.790 23.1296   1
  -1   2   4 768.484 23.7556   2
  -1  -2  -4 762.412 29.7035   4
   1   2  -4 807.511 23.8124   8
   1   2  -4 830.401 29.4250   4
  -1  -2  -4 793.749 29.3965   3
   1   2  -4 773.022 28.2664   3
  -1   2  -4 775.249 23.4584   8
  -1   2  -4 731.840 28.8978   3
   1   2   4 779.714 22.1578   1
  -1  -2   4 789.739 22.0920   1
   1  -2  -4 805.325 29.0483   3
   2   2  -4 3148.79 103.574   4
   2   2  -4 3064.56 84.7590   8
   2   2  -4 3121.22 98.8090   3
  -2   2   4 2841.92 83.1295   1
  -2  -2  -4 3070.95 104.159   4
  -2   2   4 3110.59 88.0236   2
  -2  -2  -4 3097.95 100.507   3
  -2  -2   4 3187.11 82.5214   1
   2  -2  -4 3188.41 99.5078   3
  -2   2  -4 2951.70 100.253   3
  -2   2  -4 3211.78 84.6208   8
  -2  -2   4 3076.80 86.9339   2
   2   2   4 3035.51 81.7340   1
  -3  -2  -4 20.7228 4.17140   4
  -3   2   4 0.06752 2.24620   1
  -3   2   4 3.26778 2.22139   2
  -3  -2  -4 3.01042 3.06962   3
   3  -2   4 -0.1789 1.45755   1
  -3  -2   4 4.83545 2.26240   1
   3   2   4 0.33401 1.42494   1
  -3   2  -4 1.30789 2.18793   8
   3  -2  -4 3.11303 2.59577   3
   3   2   4 5.57990 1.68607   2
  -3  -2   4 3.42037 1.71254   2
  -3   2  -4 5.83598 3.48049   3
   4  -2   4 1139.34 31.8145   1
  -4  -2  -4 1111.77 40.6779   3
  -4  -2  -4 1147.22 41.6074   4
  -4   2   4 1158.54 34.3082   1
  -4   2   4 1116.33 35.3495   2
  -4  -2   4 1119.74 34.5025   2
  -4   2  -4 1171.47 34.0668   8
   4   2   4 1160.72 32.0694   1
  -4   2  -4 1111.22 40.7527   3
   4   2   4 1103.83 33.5649   2
  -4  -2   4 1110.53 33.2946   1
   5  -2   4 241.542 9.00283   2
  -5   2   4 237.003 11.2545   1
  -5   2   4 247.688 11.1912   2
  -5  -2  -4 250.353 13.1970   3
  -5  -2  -4 256.118 13.0184   4
   5  -2   4 241.837 9.50641   1
  -5  -2   4 245.348 10.4890   2
   5   2   4 245.557 9.58318   1
   5   2   4 237.638 9.63435   2
  -5   2  -4 245.958 10.9653   8
  -5   2  -4 246.332 13.1710   3
  -5  -2   4 238.281 10.7368   1
  -6  -2  -4 426.190 18.8955   3
  -6   2   4 425.130 16.6118   1
   6  -2   4 410.437 14.5383   2
  -6   2   4 436.005 16.6927   2
   6  -2   4 405.006 14.5522   1
  -6  -2  -4 431.956 19.0173   4
  -6   2  -4 408.844 16.2833   8
  -6  -2   4 398.726 15.9303   2
  -6   2  -4 395.704 18.5855   3
   6   2   4 415.403 14.9436   2
  -6  -2   4 406.320 15.8213   1
   6   2   4 427.468 14.7782   1
  -7   2   4 154.953 9.41495   2
  -7   2   4 153.145 9.76956   1
   7  -2   4 143.626 7.66116   2
  -7  -2  -4 166.589 10.9551   3
   7  -2   4 158.619 8.33942   1
   7   2   4 150.734 8.18221   2
  -7  -2   4 158.875 9.28244   2
  -7   2  -4 150.696 10.5061   3
  -7  -2   4 152.268 9.28520   1
   7   2   4 160.754 8.46727   1
   8  -2   4 1891.59 56.7937   2
  -8   2   4 1832.13 56.2511   1
  -8   2   4 1889.48 57.6062   8
   8  -2   4 1915.10 54.3842   1
   8   2   4 1886.28 57.0869   2
  -8  -2   4 1889.73 55.9640   1
   8   2   4 1917.16 54.6299   1
  -9   2   4 13.0490 5.05864   8
   9  -2   4 6.34968 3.19927   2
  -9   2   4 8.28881 4.37878   1
   9  -2   4 12.3460 3.87849   1
   9   2   4 9.38270 3.51333   2
   9   2   4 10.4373 3.93688   1
  -9  -2   4 8.22164 4.20123   1
   0   3  -4 0.81208 2.37264   5
   0   3   4 4.97090 1.99714   2
   0   3  -4 2.71353 2.63098   3
   0   3   4 2.28437 1.88350   1
   0  -3  -4 0.29334 2.73356   3
  -1  -3  -4 5084.66 155.477   3
  -1  -3  -4 4789.74 161.505   4
   1  -3   4 5256.32 127.354   1
  -1   3   4 4753.39 129.174   1
   1   3  -4 4855.34 169.708   5
  -1   3   4 4637.33 136.988   2
   1   3  -4 4873.76 131.658   8
   1   3  -4 4730.79 154.027   3
   1   3  -4 4984.41 160.817   4
   1   3   4 4658.57 128.255   1
  -1   3  -4 4830.03 154.981   3
   1   3   4 4585.52 136.303   2
  -1  -3   4 5127.44 127.978   1
   1  -3  -4 4757.16 154.302   3
  -1   3  -4 4924.55 131.676   8
  -2  -3  -4 44.9019 5.23205   4
   2  -3   4 53.1893 3.20069   1
  -2   3   4 50.1740 4.71921   1
  -2   3   4 56.3259 4.61581   2
   2   3  -4 62.3077 5.23233   4
   2   3  -4 52.6392 4.56819   8
  -2  -3  -4 51.7672 6.46776   3
  -2  -3   4 50.5524 3.82969   1
  -2   3  -4 47.5879 4.48963   8
   2  -3  -4 62.2088 5.78310   3
  -2   3  -4 49.8486 6.15110   3
  -2  -3   4 54.5972 3.59067   2
   2   3   4 42.8917 3.56751   1
   2   3   4 47.2302 3.64120   2
  -3  -3  -4 83.1616 6.72859   4
  -3   3   4 86.9826 5.80845   8
   3  -3   4 68.4379 4.08618   1
   3   3  -4 69.7184 5.47243   8
  -3   3   4 84.0867 5.79143   2
  -3  -3  -4 75.2350 7.29368   3
  -3   3   4 74.5334 5.97825   1
  -3  -3   4 74.3975 4.90952   1
  -3   3  -4 72.3170 7.11443   3
  -3   3  -4 74.7862 5.72361   8
   3   3   4 72.9195 4.44826   1
  -3  -3   4 66.2247 4.51995   2
   3   3   4 78.3168 4.72068   2
  -3  -3   4 72.1455 4.64358   2
   3  -3  -4 75.9507 6.30911   3
   4  -3   4 267.698 9.58971   1
   4  -3   4 258.100 9.02621   2
  -4  -3  -4 260.920 13.7088   3
  -4   3   4 263.180 11.7290   1
  -4   3   4 258.920 11.5420   8
  -4   3   4 275.728 11.7089   2
  -4  -3  -4 282.129 13.3853   4
   4   3   4 255.372 9.72740   1
  -4  -3   4 264.276 10.5578   2
   4   3   4 245.104 10.0014   2
  -4   3  -4 250.790 11.1736   8
  -4  -3   4 272.483 10.7257   1
  -4   3  -4 255.860 13.7855   3
  -5   3   4 1747.58 54.1520   2
  -5   3   4 1788.79 51.9855   1
   5  -3   4 1742.56 51.4272   2
  -5  -3  -4 1735.97 60.9736   3
  -5  -3  -4 1805.65 62.5930   4
  -5   3   4 1861.34 52.8117   8
   5  -3   4 1782.64 49.3839   1
  -5   3  -4 1783.83 61.1272   3
   5   3   4 1744.14 49.6406   1
  -5  -3   4 1747.90 52.9385   2
   5   3   4 1722.28 52.3114   2
  -5  -3   4 1781.59 50.7780   1
  -5   3  -4 1783.63 52.1511   8
   6  -3   4 541.314 18.5467   2
  -6   3   4 588.347 21.1778   8
  -6  -3  -4 564.272 23.5372   3
  -6   3   4 559.928 20.8799   1
   6  -3   4 556.487 18.3876   1
  -6   3   4 571.020 20.9471   2
  -6  -3  -4 547.095 24.0838   4
  -6  -3   4 541.032 19.8913   2
  -6   3  -4 534.745 23.2467   3
  -6   3  -4 581.422 20.7251   8
   6   3   4 535.850 19.1275   2
   6   3   4 542.325 18.4993   1
  -6  -3   4 527.366 19.6131   1
   7  -3   4 1835.32 55.9053   2
   7  -3   4 1855.77 53.2032   1
  -7   3   4 1945.42 56.9474   8
  -7   3   4 1760.09 55.6282   1
  -7  -3  -4 1920.02 64.7698   3
  -7   3  -4 1855.52 56.0504   8
  -7   3  -4 1861.38 64.5255   3
  -7  -3   4 1863.76 55.0016   1
   7   3   4 1887.14 56.5592   2
   7   3   4 1916.99 53.7563   1
  -7  -3   4 1915.74 57.5436   2
   8  -3   4 1.79637 2.72368   2
   8  -3   4 3.86890 3.01809   1
  -8   3   4 13.3100 4.83302   1
  -8   3   4 8.73465 4.76847   8
  -8  -3   4 -1.9395 2.98858   1
   8   3   4 14.2494 3.92897   1
   8   3   4 7.93614 3.30457   2
   9  -3   4 590.038 20.5684   2
  -9   3   4 528.925 21.7033   1
  -9   3   4 567.155 22.8522   8
   9  -3   4 536.102 19.7214   1
  -9  -3   4 498.332 21.0891   1
   9   3   4 559.554 21.0183   2
   9   3   4 564.869 20.5064   1
   0   4   4 204.670 9.24419   2
   0   4   4 211.206 8.95307   1
   0  -4   4 230.297 8.05887   1
   0  -4   4 231.519 7.96041   2
   0  -4  -4 215.366 11.7709   3
   0   4  -4 235.037 9.81123   8
   0   4  -4 242.998 12.2146   5
   1   4  -4 857.914 26.9151   8
  -1   4   4 857.966 27.6741   2
   1  -4   4 921.440 24.8328   1
  -1  -4  -4 831.148 32.2091   3
  -1   4   4 870.426 26.3327   1
   1   4   4 824.265 26.9485   2
  -1  -4   4 897.035 26.2623   2
   1  -4  -4 841.223 31.8878   3
  -1   4  -4 910.281 27.3435   8
  -1  -4   4 891.362 25.0448   1
   1   4   4 851.245 25.5770   1
  -1   4  -4 845.617 32.3619   3
  -2   4   4 5.93812 2.65680   2
   2   4  -4 8.98885 2.88659   8
  -2  -4  -4 11.1837 3.93189   3
   2  -4   4 20.2545 2.60965   1
  -2   4   4 16.3820 3.46708   1
  -2  -4   4 6.83710 2.08888   2
  -2   4  -4 5.34269 3.34717   3
   2   4   4 14.1802 2.60178   1
   2   4   4 10.8472 2.55513   2
   2  -4  -4 12.0672 3.74078   3
  -2  -4   4 7.19987 2.06506   1
  -3  -4  -4 14.7033 4.29097   3
  -3   4   4 16.3169 3.46709   2
  -3   4   4 15.6317 3.55726   1
   3  -4   4 20.2157 2.77339   1
   3   4  -4 13.9607 3.10368   8
  -3  -4  -4 20.5907 4.41891   4
  -3   4  -4 17.9174 3.72869   8
   3   4   4 22.0649 3.05427   1
  -3  -4   4 14.7628 2.80336   2
   3  -4  -4 15.6805 3.76318   3
  -3  -4   4 14.5697 2.94935   1
   3   4   4 17.2496 3.09296   2
  -3   4  -4 17.9738 4.45267   3
  -4   4   4 391.619 14.8170   8
  -4   4   4 353.688 14.7952   2
  -4   4   4 368.291 14.6573   1
   4  -4   4 355.512 12.5600   1
  -4  -4  -4 355.812 17.2839   3
   4   4  -4 350.365 14.3291   8
   4  -4   4 353.312 12.4932   2
  -4  -4  -4 374.896 16.6681   4
  -4  -4   4 361.761 13.5249   1
  -4   4  -4 343.238 14.4054   8
  -4  -4   4 358.094 13.6527   2
  -4   4  -4 377.719 17.4438   3
   4   4   4 361.194 13.5938   2
   4   4   4 372.731 12.9664   1
   5  -4   4 376.942 13.7661   2
  -5  -4  -4 396.194 18.4125   3
  -5   4   4 385.478 15.9162   8
  -5   4   4 386.248 15.9291   1
   5  -4   4 394.195 13.8229   1
  -5  -4  -4 418.186 17.9573   4
  -5   4   4 404.664 16.1663   2
  -5   4  -4 366.158 15.5940   8
   5   4   4 385.900 14.5770   2
  -5  -4   4 381.339 14.9702   2
  -5   4  -4 369.228 18.1404   3
  -5  -4   4 373.549 14.6876   1
   5   4   4 390.908 13.9739   1
  -6  -4  -4 319.991 16.2646   3
  -6   4   4 303.868 14.4097   1
  -6   4   4 340.493 14.8799   8
  -6   4   4 320.663 14.4334   2
   6  -4   4 318.253 12.3919   2
   6  -4   4 318.632 12.2658   1
  -6   4  -4 319.025 14.3295   8
  -6  -4   4 304.385 13.4181   1
   6   4   4 296.779 12.3114   1
  -6   4  -4 313.929 16.0085   3
   6   4   4 291.734 12.7511   2
  -6  -4   4 292.016 13.0981   2
  -7  -4  -4 78.7113 8.10812   3
   7  -4   4 68.3182 5.85381   2
  -7   4   4 62.5762 7.48112   1
  -7   4   4 76.2869 8.09532   8
   7  -4   4 72.5995 6.06607   1
  -7   4  -4 64.1767 7.33458   8
  -7  -4   4 63.5136 6.78722   1
   7   4   4 70.9679 6.25361   2
  -7  -4   4 68.4495 6.74518   2
   7   4   4 71.6666 6.30275   1
  -8   4   4 193.291 11.8816   1
   8  -4   4 174.085 9.43985   1
   8  -4   4 186.653 9.87506   2
  -8   4   4 201.506 12.0588   8
   8   4   4 194.596 10.3666   2
  -8   4  -4 192.306 11.4495   8
   8   4   4 189.808 10.2533   1
  -8  -4   4 170.613 10.8570   1
   0   5  -4 9.99111 3.13232   8
   0  -5   4 -0.0231 1.68569   2
   0   5   4 -0.4114 2.05339   1
   0  -5   4 0.77661 1.85065   1
   0  -5  -4 6.24986 3.61140   3
   0   5   4 2.10684 2.18672   2
   1  -5   4 1891.82 49.3565   1
  -1  -5  -4 1674.44 60.9350   3
   1   5  -4 1744.63 51.6754   8
  -1   5   4 1812.50 53.6543   2
  -1   5   4 1783.98 50.7492   1
   1  -5   4 1765.90 51.6498   2
   1   5   4 1757.16 53.0828   2
  -1  -5   4 1773.51 49.1406   1
  -1   5  -4 1794.32 52.1011   8
  -1  -5   4 1839.58 52.2801   2
   1   5   4 1788.06 50.1072   1
   1  -5  -4 1758.28 60.8959   3
  -2   5   4 348.351 14.0875   2
  -2   5   4 358.479 13.6598   1
   2  -5   4 351.989 12.0304   1
  -2  -5  -4 340.296 16.5569   3
   2   5  -4 346.618 13.7549   8
   2  -5   4 338.622 11.8225   2
   2   5   4 349.066 13.3933   2
  -2   5  -4 324.404 13.6477   8
  -2  -5   4 337.809 12.1130   1
   2   5   4 338.168 12.5118   1
  -2  -5   4 345.561 12.7027   2
   2  -5  -4 340.992 16.1706   3
  -3   5   4 3197.12 94.9013   2
  -3  -5  -4 3439.07 107.340   3
   3  -5   4 3290.39 92.2863   2
   3  -5   4 3209.19 87.3877   1
   3   5  -4 3226.31 90.9831   8
  -3   5   4 3200.69 89.6681   1
   3   5   4 3224.86 87.9580   1
   3  -5  -4 3244.55 105.675   3
   3   5   4 3223.34 93.6975   2
  -3  -5   4 3153.90 93.2553   2
  -3  -5   4 3311.37 88.0139   1
  -3   5  -4 3197.25 90.9604   8
  -4  -5  -4 252.823 14.1094   3
   4   5  -4 251.118 11.7143   8
   4  -5   4 262.023 10.1862   2
  -4   5   4 260.314 12.3905   2
   4  -5   4 245.237 10.1672   1
  -4   5   4 250.479 11.8308   1
  -4  -5   4 243.637 10.8421   2
   4   5   4 258.520 10.4706   1
   4   5   4 254.300 10.9337   2
  -4  -5   4 253.964 10.7531   1
  -4   5  -4 244.879 11.9899   8
  -5   5   4 668.797 23.4719   2
  -5   5   4 625.095 22.3124   1
  -5  -5  -4 608.156 25.8389   3
   5  -5   4 608.941 20.7436   2
   5  -5   4 603.737 20.1361   1
  -5  -5   4 622.793 21.7222   2
  -5   5  -4 617.428 22.5558   8
  -5  -5   4 599.127 20.9791   1
   5   5   4 592.582 21.4448   2
   5   5   4 616.701 20.4749   1
  -6   5   4 21.1984 4.90440   1
   6  -5   4 35.7584 4.55235   1
  -6   5   4 33.0117 5.93819   8
   6  -5   4 27.5855 4.18294   2
  -6  -5  -4 27.4107 5.81979   3
   6   5   4 26.4433 4.33859   2
   6   5   4 26.1114 4.14712   1
  -6  -5   4 29.3044 4.68932   2
  -6   5  -4 24.0209 5.17496   8
  -6  -5   4 29.2245 4.81438   1
   7  -5   4 1416.41 40.9686   1
  -7  -5  -4 1411.25 49.9086   3
  -7   5   4 1484.58 44.6536   8
   7  -5   4 1361.23 42.8141   2
  -7   5   4 1301.75 42.8235   1
  -7  -5   4 1317.07 41.9410   1
   7   5   4 1375.54 43.4909   2
  -7   5  -4 1364.39 43.6428   8
  -7  -5   4 1377.75 44.0912   2
   7   5   4 1313.20 40.9164   1
   8  -5   4 29.8341 4.80689   1
   8  -5   4 27.6212 4.78147   2
  -8   5   4 38.5814 6.91809   8
  -8   5   4 28.1048 5.64646   1
  -8  -5   4 30.5281 5.52720   1
   8   5   4 30.9151 4.96890   2
   8   5   4 25.3509 4.71402   1
  -8   5  -4 32.4033 5.99855   8
   0  -6   4 3150.26 79.9499   1
   0  -6   4 2957.29 84.4594   2
   0   6   4 2913.81 80.5830   1
   0   6  -4 2821.43 82.6573   8
   0   6   4 2824.94 85.5656   2
   1  -6   4 5.75107 2.52761   1
   1  -6   4 9.58252 2.63608   2
   1   6  -4 7.28672 3.17388   8
  -1  -6  -4 11.8128 4.30651   3
  -1   6   4 10.9326 3.23047   1
  -1   6   4 10.5465 3.17311   2
   1   6   4 7.37777 2.81543   1
  -1  -6   4 12.6433 2.85558   1
  -1  -6   4 11.6791 2.80097   2
  -1   6  -4 4.29505 3.09520   8
   1   6   4 7.39126 2.94110   2
   2   6  -4 80.5989 6.55843   8
   2  -6   4 70.3971 5.32683   1
  -2  -6  -4 74.0239 7.64071   3
  -2   6   4 77.1419 6.57820   1
  -2   6   4 76.5223 6.60563   2
   2  -6   4 75.5253 5.07746   2
  -2   6  -4 65.2063 6.20154   8
   2   6   4 73.1889 5.68029   1
  -2  -6   4 80.5092 5.56699   1
   2   6   4 80.8747 6.15592   2
  -3   6   4 214.782 11.0603   2
  -3  -6  -4 214.080 12.8710   3
   3   6  -4 220.155 10.8704   8
  -3   6   4 206.261 10.5921   1
   3  -6   4 215.514 9.13520   2
   3  -6   4 211.678 9.22766   1
  -3   6  -4 205.219 10.7313   8
   3   6   4 212.614 9.68635   1
  -3  -6   4 195.959 9.34406   1
   3   6   4 220.984 10.2298   2
  -3  -6   4 216.151 9.88220   2
  -4  -6  -4 14.5401 4.75866   3
  -4   6   4 6.12795 3.55587   2
   4  -6   4 10.0322 2.79278   2
   4  -6   4 5.88205 2.94752   1
   4   6  -4 6.49741 3.38421   8
  -4   6   4 2.00312 3.22950   1
  -4   6  -4 11.7366 4.23482   8
  -4  -6   4 14.7798 3.46607   1
   4   6   4 5.77322 2.96151   2
  -4  -6   4 10.1769 3.16862   2
   4   6   4 9.37405 3.16536   1
  -5  -6  -4 11.0944 4.65743   3
   5  -6   4 13.3876 3.20727   2
   5  -6   4 11.4765 3.36643   1
  -5   6   4 10.0765 4.01711   1
  -5   6  -4 7.47461 4.20913   8
  -5  -6   4 11.5579 3.36337   2
  -5  -6   4 7.43977 3.27204   1
   5   6   4 16.5214 3.73616   1
   5   6   4 16.7855 3.89036   2
   6  -6   4 931.127 29.9586   2
   6  -6   4 935.366 28.9502   1
  -6  -6  -4 886.522 35.5989   3
  -6   6   4 901.641 30.8689   1
   6   6   4 919.711 30.6987   2
  -6   6  -4 888.909 31.2131   8
  -6  -6   4 894.879 29.7242   1
  -6  -6   4 920.488 30.9351   2
   6   6   4 921.081 29.1686   1
   7  -6   4 289.682 12.8391   2
   7  -6   4 299.037 12.7125   1
  -7  -6  -4 295.361 16.1656   3
  -7   6   4 291.093 14.5028   1
  -7   6  -4 300.693 14.5741   8
   7   6   4 279.074 13.3032   2
  -7  -6   4 268.822 13.4515   1
   7   6   4 255.716 12.5879   1
   0  -7   4 2.60357 2.35168   2
   0   7  -4 5.99053 3.28033   8
   0  -7   4 5.21456 2.71419   1
   0   7   4 10.0391 3.10161   1
   0   7   4 2.67863 2.93367   2
   1  -7   4 582.409 19.0683   1
  -1   7   4 556.719 20.0347   1
  -1  -7  -4 568.400 25.1183   3
  -1   7   4 586.134 21.1770   2
   1   7  -4 562.334 20.8122   8
   1  -7   4 570.446 19.9327   2
  -1  -7   4 590.036 19.4078   1
  -1   7  -4 556.271 20.9926   8
  -1  -7   4 592.518 20.2061   2
   1   7   4 599.828 21.1266   2
   1   7   4 594.492 19.9578   1
  -2   7   4 631.467 21.9513   2
  -2   7   4 557.062 20.4831   1
   2   7  -4 561.043 20.9339   8
   2  -7   4 585.117 20.0651   2
  -2  -7  -4 584.343 24.9336   3
   2  -7   4 558.490 19.1543   1
   2   7   4 589.003 21.0420   2
  -2   7  -4 579.059 21.2915   8
   2   7   4 579.325 19.7714   1
  -2  -7   4 586.414 20.3618   2
  -2  -7   4 552.077 19.2655   1
  -3   7   4 452.110 17.7957   1
   3  -7   4 441.794 16.2990   2
  -3   7   4 462.810 18.2842   2
   3   7  -4 453.833 17.8460   8
  -3  -7  -4 431.423 20.7599   3
  -3  -7   4 467.273 17.2628   2
   3   7   4 467.934 17.7470   2
   3   7   4 449.873 16.5643   1
  -3   7  -4 448.534 18.0068   8
  -3  -7   4 452.465 16.4307   1
   4  -7   4 249.850 10.8766   2
   4  -7   4 227.531 10.8523   1
  -4  -7  -4 251.845 14.6604   3
  -4   7   4 246.102 12.2571   1
   4   7  -4 256.044 12.4302   8
   4   7   4 260.932 11.9911   2
   4   7   4 232.479 11.1557   1
  -4   7  -4 270.114 13.1497   8
  -4  -7   4 248.073 11.5306   2
  -4  -7   4 246.091 11.2706   1
   5  -7   4 1521.05 44.5764   1
   5   7  -4 1516.60 47.0124   8
  -5  -7  -4 1553.43 54.9673   3
   5  -7   4 1486.74 46.4049   2
  -5   7   4 1518.42 46.3893   1
  -5  -7   4 1477.18 44.8683   1
   5   7   4 1484.16 44.7359   1
   5   7   4 1527.41 47.3520   2
  -5  -7   4 1498.14 47.3837   2
  -5   7  -4 1503.49 47.3591   8
  -6   7   4 16.1318 4.54198   1
   6  -7   4 19.7299 3.98379   2
  -6  -7  -4 22.7399 5.77641   3
   6  -7   4 22.8953 4.34067   1
   6   7   4 15.6164 4.17525   2
   6   7   4 19.6873 4.37239   1
  -6  -7   4 20.8955 4.57796   2
  -6   7  -4 13.1409 4.73576   8
  -6  -7   4 22.0794 4.48925   1
   0  -8   4 425.347 16.2829   2
   0   8  -4 419.370 17.1805   8
   0   8   4 410.539 16.1975   1
   0  -8   4 396.527 15.3719   1
   0   8   4 464.020 17.5218   2
   1   8  -4 171.224 9.82790   8
  -1   8   4 171.671 9.41943   1
   1  -8   4 158.617 8.43498   1
  -1   8   4 174.022 9.99255   2
   1  -8   4 167.434 8.78765   2
  -1  -8   4 160.621 8.76679   1
   1   8   4 171.790 9.77493   2
  -1  -8   4 166.221 8.90755   2
  -1   8  -4 163.764 9.89056   8
   1   8   4 163.227 8.97583   1
   2  -8   4 1628.79 48.2931   1
  -2  -8  -4 1631.94 59.7185   3
  -2   8   4 1771.46 52.7606   2
   2   8  -4 1636.36 50.6758   8
  -2   8   4 1667.32 49.7571   1
   2  -8   4 1708.98 51.2242   2
  -2  -8   4 1711.40 48.6924   1
  -2  -8   4 1656.10 51.3623   2
   2   8   4 1731.01 52.0343   2
   2   8   4 1650.97 48.8051   1
  -2   8  -4 1645.05 50.9789   8
   3   8  -4 6.03823 3.55847   8
   3  -8   4 9.16872 3.05566   2
   3  -8   4 6.48578 3.11993   1
  -3   8   4 6.40693 3.84389   1
  -3  -8  -4 8.76424 4.56658   3
  -3  -8   4 11.4919 3.62300   2
   3   8   4 5.66011 3.07886   1
   3   8   4 12.2167 3.66392   2
  -3  -8   4 2.96954 2.98314   1
  -3   8  -4 3.61475 3.69572   8
   4  -8   4 978.257 31.2960   1
   4   8  -4 1031.04 33.6816   8
   4  -8   4 993.860 32.5395   2
  -4  -8  -4 979.558 38.8979   3
  -4   8   4 1019.47 33.2519   1
  -4  -8   4 955.183 31.6176   1
   4   8   4 1064.23 33.9160   2
  -4  -8   4 1016.19 33.3355   2
  -4   8  -4 1017.80 34.0112   8
   4   8   4 1004.27 31.8953   1
   5  -8   4 39.5187 5.43043   1
   5   8  -4 42.5605 6.17455   8
   5  -8   4 37.9427 5.08761   2
  -5   8   4 35.6705 5.70752   1
  -5  -8  -4 40.2709 6.98598   3
  -5  -8   4 31.3477 5.12852   1
  -5   8  -4 30.7580 5.92015   8
  -5  -8   4 27.6366 4.90976   2
   5   8   4 42.8672 5.65162   1
   5   8   4 35.5523 5.37162   2
   0  -9   4 0.93147 2.73858   2
   0   9   4 2.17073 2.82129   1
   0  -9   4 1.73989 2.75290   1
   0   9  -4 0.03504 3.19911   8
  -1   9   4 113.135 8.05640   1
   1  -9   4 139.687 8.14227   2
   1   9  -4 119.713 8.66213   8
   1  -9   4 118.947 7.72744   1
   1   9   4 110.967 8.04663   1
  -1  -9   4 131.871 8.07738   1
  -1   9  -4 114.454 8.90091   8
  -1  -9   4 130.932 8.25191   2
  -2  -9  -4 4.72973 4.48254   3
  -2   9   4 7.47010 3.57824   1
   2  -9   4 3.41640 2.97170   1
   2   9  -4 4.54686 3.57975   8
   2  -9   4 2.71554 2.91715   2
  -2   9  -4 5.55708 3.88117   8
  -2  -9   4 4.18244 3.00571   2
  -2  -9   4 5.84164 3.33405   1
   2   9   4 -1.4709 2.60169   1
   3  -9   4 421.695 15.9566   1
   3   9  -4 393.465 17.1068   8
  -3   9   4 419.478 17.1143   1
   3  -9   4 401.718 16.1570   2
  -3  -9   4 408.110 16.6071   2
  -3  -9   4 397.290 16.5813   2
  -3  -9   4 378.214 15.8559   1
  -3   9  -4 436.601 18.0206   8
   3   9   4 379.207 15.7628   1
  -4  -9  -4 91.2433 9.60425   3
   4  -9   4 84.2568 7.20133   1
  -4   9   4 93.5972 8.13050   1
   4  -9   4 89.6787 7.01713   2
   4   9  -4 88.4590 8.07736   8
  -4  -9   4 97.0840 7.58325   1
  -4   9  -4 91.1548 8.42690   8
  -4  -9   4 85.0843 7.34928   2
   4   9   4 94.8576 7.56659   1
   0  10   4 760.948 25.8101   1
   0 -10   4 746.053 26.4185   2
   0 -10   4 754.113 25.2598   1
   0  10  -4 771.721 27.1477   8
   1  10  -4 272.501 13.6965   8
   1 -10   4 256.232 12.1450   1
   1 -10   4 281.781 12.9569   2
  -1  10   4 292.660 13.2346   1
  -1  10  -4 273.075 13.7032   8
   1  10   4 271.616 12.7451   1
  -1 -10   4 302.318 13.2184   2
  -1 -10   4 271.133 12.4481   1
   0   0  -5 0.72226 2.78619   3
   0   0  -5 8.05311 3.56724   4
   0   0   5 5.13068 2.98440   5
  -1   0  -5 1.96691 3.19648   3
   1   0   5 3.07899 2.80123   5
  -1   0   5 4.05263 1.66325   1
   1   0  -5 2.77312 2.92517   4
   1   0  -5 4.50835 3.12561   3
  -1   0  -5 5.62094 3.45214   4
   2   0  -5 0.00962 2.72420   3
  -2   0   5 3.04418 2.08320   1
  -2   0   5 5.58603 1.66782   2
  -2   0  -5 0.91834 2.64092   4
  -2   0  -5 3.50537 3.21105   3
  -3   0   5 0.56940 1.74367   2
  -3   0   5 0.90148 2.23433   1
  -3   0  -5 4.19631 3.53765   3
  -3   0  -5 3.41810 3.34966   4
  -4   0   5 9.14412 3.09203   1
  -4   0  -5 3.03207 3.53765   3
  -4   0   5 0.38104 2.02977   2
  -5   0  -5 4.41205 3.80909   3
  -5   0   5 1.46577 2.83844   1
   5   0   5 0.66586 1.60694   2
  -5   0   5 -0.6891 2.34736   2
   6   0   5 2.62162 2.01209   2
  -6   0   5 -0.3484 3.10074   1
  -6   0   5 0.01263 2.61847   2
  -6   0  -5 19.5829 5.27413   3
  -7   0   5 -1.8087 3.01402   1
   7   0   5 -0.9709 2.54442   1
  -7   0   5 -2.0407 2.93797   2
  -7   0  -5 18.0354 4.86971   3
   7   0   5 3.56239 2.41732   2
   8   0   5 9.37910 3.00770   2
   8   0   5 0.75381 2.97406   1
  -8   0  -5 14.0654 5.04024   3
  -8   0   5 2.84343 3.63187   1
   0   1  -5 2.81659 3.23051   3
   0  -1  -5 0.58180 2.99525   3
   0   1   5 1.07273 1.34088   1
   0  -1   5 2.60529 2.90486   5
   0   1  -5 4.09234 1.92161   8
   0   1  -5 4.43041 3.07395   4
   0  -1  -5 2.16655 2.78416   4
  -1  -1  -5 1271.80 47.3482   4
   1   1  -5 1312.52 47.1425   4
   1   1  -5 1297.53 45.2453   3
  -1  -1  -5 1339.88 46.2772   3
  -1   1   5 1336.44 36.1800   1
   1   1  -5 1359.17 37.4452   8
   1  -1  -5 1324.93 45.5622   3
  -1   1  -5 1249.97 45.8332   3
   1  -1  -5 1307.80 47.5969   4
  -1  -1   5 1305.61 35.6357   1
   1   1   5 1253.86 49.2183   5
  -1   1  -5 1261.32 47.2041   4
  -2   1   5 323.182 11.2244   1
  -2  -1  -5 296.306 14.9266   4
   2   1  -5 303.338 13.8909   3
  -2  -1  -5 319.292 15.5634   3
  -2   1   5 305.717 10.8376   2
   2   1  -5 311.950 14.9045   4
  -2  -1   5 296.888 10.7997   1
   2  -1  -5 316.281 14.4096   3
  -2   1  -5 317.291 15.4850   3
  -2  -1   5 313.025 10.2511   2
  -3  -1  -5 3311.69 106.497   3
  -3   1   5 3221.14 92.5406   2
  -3   1   5 3299.86 88.0149   1
  -3  -1  -5 3150.60 110.207   4
  -3  -1   5 3322.95 87.7933   1
  -3   1  -5 3155.22 106.321   3
  -3  -1   5 3210.51 92.1154   2
  -4  -1  -5 11.7506 4.15793   4
  -4  -1  -5 19.7946 4.85788   3
  -4   1   5 9.20582 2.73537   2
  -4   1   5 14.6440 3.63773   1
  -4  -1   5 8.76873 3.13047   1
  -4  -1   5 9.33794 2.62549   2
  -4   1  -5 10.0537 4.27397   3
  -5  -1  -5 2181.18 74.7345   3
  -5   1   5 2086.87 65.2929   2
  -5   1   5 2245.75 62.7676   1
  -5  -1  -5 2170.71 77.4816   4
   5   1   5 2221.01 60.3115   1
  -5  -1   5 2296.73 62.5137   1
   5   1   5 2220.87 63.3067   2
  -5  -1   5 2251.59 65.2791   2
  -5   1  -5 2131.11 74.6380   3
  -6  -1  -5 198.426 12.1636   3
  -6   1   5 200.570 10.3247   2
   6  -1   5 198.414 8.27511   2
  -6   1   5 187.065 10.4547   1
  -6   1  -5 183.546 12.0902   3
  -6  -1   5 197.467 10.1950   2
   6   1   5 204.795 8.66535   1
  -6  -1   5 194.994 10.3490   1
   6   1   5 194.275 8.49458   2
  -7   1   5 530.148 20.1869   2
  -7   1   5 523.052 20.0222   1
  -7  -1  -5 512.334 22.9144   3
   7  -1   5 513.747 17.9068   2
   7   1   5 522.386 17.7539   1
  -7  -1   5 527.309 19.9695   2
  -7   1  -5 529.824 23.0850   3
   7   1   5 496.892 17.9831   2
  -7  -1   5 484.545 19.2199   1
   8  -1   5 13.4935 3.39839   2
  -8  -1  -5 6.05187 4.41807   3
  -8   1   5 10.4475 4.31800   1
   8   1   5 4.96478 2.87055   2
   8   1   5 6.86984 3.37394   1
  -8  -1   5 4.73756 3.91533   2
  -8  -1   5 11.1260 4.30427   1
  -8   1  -5 8.86308 4.55241   3
   0  -2  -5 162.029 10.3770   4
   0   2  -5 170.383 7.33321   8
   0   2  -5 152.511 9.54328   4
   0   2   5 153.854 6.43855   1
   0   2  -5 168.522 10.3227   3
   0  -2  -5 164.243 10.6397   3
   1   2  -5 218.691 9.00050   8
  -1  -2  -5 233.063 12.8216   3
   1   2  -5 231.202 11.7444   4
  -1  -2  -5 215.684 11.9085   4
  -1   2   5 232.920 8.67777   1
   1   2  -5 214.100 11.4747   3
  -1   2   5 224.871 8.58671   2
   1   2   5 216.306 7.58152   1
  -1  -2   5 215.839 7.83442   1
  -1   2  -5 202.320 8.61467   8
   1  -2  -5 227.146 12.3261   3
  -1   2  -5 202.566 12.0980   3
   2   2  -5 1071.03 38.9533   4
   2   2  -5 1067.81 31.6127   8
  -2  -2  -5 1094.62 39.3263   3
  -2   2   5 1027.17 30.8020   1
   2   2  -5 1031.26 37.1115   3
  -2   2   5 1064.38 32.2523   2
  -2  -2  -5 1028.49 39.5100   4
   2   2   5 1013.54 28.9989   1
  -2  -2   5 1032.07 30.9952   2
  -2   2  -5 1066.92 39.0040   3
  -2  -2   5 1097.24 30.3217   1
  -2   2  -5 1025.51 30.9055   8
   2  -2  -5 1094.98 38.0171   3
  -3  -2  -5 127.433 9.65492   3
  -3   2   5 123.491 6.92945   2
  -3   2   5 110.057 6.90278   1
  -3  -2  -5 114.082 8.64089   4
   3   2   5 127.151 5.26525   1
  -3  -2   5 120.172 5.93130   2
  -3  -2   5 119.829 6.61013   1
  -3   2  -5 133.666 9.94644   3
  -4  -2  -5 1970.78 67.4710   3
  -4  -2  -5 1979.42 69.5957   4
  -4   2   5 1978.03 56.2998   1
  -4   2   5 1942.23 58.7816   2
   4   2   5 1977.63 53.5860   1
  -4  -2   5 1892.58 57.5922   2
  -4  -2   5 1976.83 55.3527   1
  -4   2  -5 1946.43 67.6262   3
   4   2   5 2020.09 56.7501   2
  -5   2   5 206.053 10.4383   1
  -5  -2  -5 179.777 11.9199   3
  -5   2   5 227.830 10.5445   2
  -5  -2  -5 184.780 11.7262   4
   5   2   5 200.133 8.11427   1
  -5   2  -5 188.829 12.2663   3
   5   2   5 190.012 8.36093   2
  -5  -2   5 194.695 9.23052   2
  -5  -2   5 183.069 9.52507   1
   6  -2   5 410.296 14.5159   2
  -6  -2  -5 421.805 19.9144   4
  -6  -2  -5 420.352 19.7460   3
  -6   2   5 440.093 17.3032   2
  -6   2   5 413.022 17.0176   1
  -6  -2   5 418.660 16.5393   2
   6   2   5 440.477 14.8563   1
   6   2   5 435.120 15.4681   2
  -6  -2   5 443.320 16.6956   1
  -6   2  -5 423.692 19.9467   3
  -7  -2  -5 60.2921 7.82831   3
   7  -2   5 51.7021 4.70961   2
  -7   2   5 57.8896 6.34784   2
  -7   2   5 44.2782 6.15117   1
  -7  -2  -5 52.5436 7.26379   4
   7   2   5 39.2095 4.68886   2
  -7  -2   5 53.3144 5.97813   2
  -7  -2   5 49.2973 6.23647   1
  -7   2  -5 46.4220 7.07941   3
   7   2   5 57.5592 5.43203   1
  -8   2   5 78.5185 8.39350   8
  -8  -2  -5 79.1683 8.93809   3
   8  -2   5 77.1481 6.03292   2
  -8   2   5 64.0571 7.48000   1
  -8   2  -5 63.6341 7.98929   3
   8   2   5 84.3351 6.60484   2
  -8  -2   5 91.9606 7.70960   2
  -8  -2   5 91.5404 8.03069   1
   8   2   5 80.7203 6.71212   1
   0   3  -5 1.13415 2.02428   8
   0  -3  -5 -1.9330 2.94131   3
   0   3   5 0.83203 1.88527   1
   0   3  -5 2.68791 3.15406   3
   0   3  -5 3.22902 3.00901   4
   0   3   5 2.35802 2.20738   2
   1   3  -5 707.412 28.0408   3
  -1  -3  -5 757.743 29.4725   3
   1   3  -5 750.459 28.6597   4
   1   3  -5 742.027 23.2979   8
  -1   3   5 720.572 23.5707   2
  -1  -3  -5 746.649 29.5120   4
  -1   3   5 749.270 22.5581   1
   1  -3  -5 747.655 28.8262   3
   1   3   5 730.984 21.6946   1
  -1  -3   5 760.649 21.4153   1
  -1   3  -5 732.860 23.1174   8
  -1   3  -5 727.665 28.9887   3
   1   3   5 708.218 22.9075   2
  -2  -3  -5 12.0543 4.56370   3
  -2   3   5 12.6206 3.01887   1
  -2   3   5 15.9034 3.22258   2
   2   3  -5 16.0250 4.11286   4
   2   3  -5 20.1513 3.37942   8
   2   3  -5 17.7333 4.20709   3
  -2  -3  -5 15.7670 4.35360   4
   2   3   5 16.9743 2.62121   2
  -2   3  -5 14.9887 3.24286   8
  -2  -3   5 15.3630 2.66524   1
  -2  -3   5 15.4885 2.40566   2
  -2   3  -5 17.4429 4.62944   3
   2   3   5 16.5836 2.45810   1
   2  -3  -5 23.5576 4.84936   3
  -3   3   5 422.011 15.6482   2
  -3  -3  -5 387.310 19.0854   3
   3   3  -5 421.953 15.2836   8
  -3  -3  -5 403.632 18.6596   4
  -3   3   5 428.792 15.1195   1
  -3  -3   5 415.087 14.1685   2
   3   3   5 400.044 13.8949   2
   3   3   5 414.820 13.1304   1
  -3   3  -5 388.487 14.7029   8
  -3   3  -5 408.327 19.2085   3
  -3  -3   5 379.548 13.9604   1
  -4  -3  -5 2.43106 3.58552   4
  -4   3   5 6.90420 3.32842   2
  -4   3   5 0.84235 2.92283   1
  -4  -3  -5 1.82183 3.72547   3
  -4  -3   5 2.56937 2.68574   1
  -4  -3   5 2.40080 2.11307   2
  -4   3  -5 1.97659 3.65716   3
  -4   3  -5 4.78864 2.89795   8
   4   3   5 -1.1419 1.89299   1
   4   3   5 11.5556 2.72220   2
  -5   3   5 383.535 15.5728   2
  -5   3   5 380.050 15.4114   1
   5  -3   5 370.765 12.5838   2
  -5  -3  -5 367.937 17.6741   4
  -5  -3  -5 356.893 17.9972   3
   5   3   5 377.781 13.7573   2
   5   3   5 369.239 13.0095   1
  -5   3  -5 346.941 18.0194   3
  -5  -3   5 361.292 14.3935   1
  -5  -3   5 341.713 14.0542   2
  -6   3   5 5.22861 3.53787   1
  -6   3   5 14.7130 4.40884   2
  -6  -3  -5 10.3635 4.60485   3
   6  -3   5 9.98400 2.67108   2
  -6  -3  -5 7.51036 4.04225   4
   6   3   5 8.01458 2.88543   1
   6   3   5 8.43423 2.91325   2
  -6  -3   5 8.13504 3.42710   1
  -6   3  -5 4.09205 4.08817   3
  -6  -3   5 7.07130 3.23600   2
  -7   3   5 343.832 16.1379   1
  -7   3   5 408.054 17.1423   8
  -7   3   5 408.684 17.0682   2
  -7  -3  -5 396.792 19.0885   3
   7  -3   5 378.756 14.4707   2
  -7  -3   5 378.076 15.9251   1
   7   3   5 376.679 15.1519   2
  -7  -3   5 373.231 15.9522   2
  -7   3  -5 369.504 18.8623   3
   7   3   5 396.724 14.7215   1
  -8  -3  -5 2.44701 4.22239   3
   8  -3   5 4.67662 2.74042   2
  -8   3   5 2.86882 4.46551   8
  -8   3   5 1.48229 3.69912   1
   8   3   5 1.36997 3.08454   2
  -8   3  -5 2.85522 4.21362   3
   8   3   5 3.47351 3.17866   1
  -8  -3   5 -2.0532 3.26711   1
   0  -4   5 988.380 26.8463   1
   0  -4  -5 933.336 35.7385   3
   0   4   5 973.033 28.1444   1
   0   4  -5 930.619 35.4414   3
   0   4   5 912.070 29.7232   2
   0   4  -5 945.492 29.3558   8
  -1   4   5 101.221 6.58153   2
  -1   4   5 112.443 6.49141   1
   1   4  -5 94.8455 6.42198   8
   1   4  -5 99.1954 7.54155   4
  -1  -4  -5 94.5153 8.62412   3
  -1  -4   5 90.2291 5.08853   1
   1   4   5 94.6424 5.52612   1
  -1  -4   5 104.796 5.04103   2
  -1   4  -5 99.1406 8.65571   3
   1  -4  -5 97.5072 8.40077   3
   1   4   5 103.167 6.09168   2
  -1   4  -5 104.984 6.69626   8
  -2   4   5 1938.81 54.9088   1
  -2   4   5 1925.77 58.0569   2
   2   4  -5 1935.30 56.1003   8
  -2  -4  -5 1980.21 67.3757   3
   2   4   5 1965.18 53.4017   1
   2   4   5 1905.96 56.9945   2
  -2   4  -5 1893.75 66.8274   3
  -2   4  -5 1930.22 55.9114   8
   2  -4  -5 1959.82 66.1000   3
  -2  -4   5 1921.51 56.3578   2
  -2  -4   5 1998.35 53.5033   1
   3   4  -5 60.5496 5.85353   8
  -3  -4  -5 55.9452 7.34997   3
  -3   4   5 60.1880 5.81016   1
  -3   4   5 60.3879 5.99771   2
  -3  -4  -5 68.1078 7.21672   4
   3   4   5 51.9777 4.71676   2
  -3   4  -5 58.8458 7.78911   3
  -3  -4   5 65.8453 4.77587   2
   3   4   5 56.7275 4.58029   1
  -3   4  -5 63.8686 5.70618   8
  -3  -4   5 69.5720 4.91114   2
  -3  -4   5 58.6991 5.05457   1
   4  -4   5 2664.61 75.6115   2
  -4  -4  -5 2730.75 92.0406   4
  -4  -4  -5 2736.06 89.7361   3
  -4   4   5 2678.20 79.1683   2
  -4   4   5 2715.89 74.6607   1
  -4   4  -5 2594.75 75.2098   8
  -4   4  -5 2515.02 89.0552   3
   4   4   5 2597.09 76.8778   2
  -4  -4   5 2683.95 73.4920   1
   4   4   5 2678.56 72.3142   1
  -4  -4   5 2564.69 77.1358   2
  -5  -4  -5 108.750 9.72846   3
  -5   4   5 101.315 8.04987   1
   5  -4   5 109.087 5.99589   2
  -5  -4  -5 97.2330 8.56309   4
  -5   4   5 112.393 8.27433   2
  -5   4  -5 110.381 7.99287   8
   5   4   5 96.0787 6.56287   2
  -5  -4   5 102.016 6.90553   2
  -5  -4   5 106.557 7.31714   1
   5   4   5 102.720 6.23556   1
  -5   4  -5 100.341 9.31842   3
  -6  -4  -5 1063.90 39.7455   3
  -6   4   5 1064.82 35.0115   2
   6  -4   5 1051.19 32.1907   2
  -6   4   5 1015.86 33.2028   1
  -6  -4   5 1011.39 32.6179   1
  -6   4  -5 970.683 39.1005   3
   6   4   5 1027.97 33.0623   2
   6   4   5 989.063 30.9496   1
  -6  -4   5 1042.45 33.6747   2
  -7  -4  -5 36.7951 6.57203   3
   7  -4   5 38.4031 4.60050   2
  -7   4   5 30.5565 5.58084   1
   7   4   5 34.3777 4.69098   1
   7   4   5 33.6275 4.76220   2
  -7   4  -5 28.8281 6.35200   3
  -7  -4   5 39.7533 5.76137   1
  -7  -4   5 35.9204 5.41264   2
   0  -5   5 0.80587 1.83804   1
   0   5   5 4.02940 2.48304   1
   0   5  -5 6.98813 3.10214   8
   0  -5   5 5.71929 2.15706   2
   0  -5  -5 4.10972 4.00215   3
   0   5   5 9.68090 3.04687   2
  -1  -5  -5 28.5739 5.95738   3
  -1   5   5 33.2361 4.27417   1
   1  -5   5 32.6203 3.20583   2
   1   5  -5 22.8586 4.09544   8
  -1   5   5 31.3871 4.40941   2
  -1  -5   5 39.9980 3.77490   1
   1   5   5 31.0459 3.72709   1
   1   5   5 31.2183 4.16448   2
  -1   5  -5 52.4852 5.69417   8
  -1  -5   5 34.0789 3.69674   2
   1  -5  -5 30.3981 5.76817   3
   2   5  -5 276.294 12.1404   8
  -2   5   5 296.473 12.8599   2
  -2  -5  -5 270.654 15.2293   3
  -2   5   5 292.668 12.0699   1
   2   5   5 266.913 11.5077   2
  -2   5  -5 292.010 12.5131   8
  -2  -5   5 285.771 10.8198   1
   2  -5  -5 267.719 14.5389   3
   2   5   5 274.703 10.7918   1
  -2  -5   5 294.486 11.1477   2
  -3   5   5 344.418 14.9163   2
   3  -5   5 343.275 12.0508   2
   3   5  -5 342.572 14.2672   8
  -3   5   5 350.914 14.2062   1
  -3  -5  -5 355.734 18.0060   3
   3   5   5 346.406 12.5877   1
  -3   5  -5 338.991 14.2628   8
  -3  -5   5 348.233 12.8813   1
   3   5   5 341.721 13.5373   2
  -3  -5   5 336.591 13.1619   2
  -4   5   5 14.3208 4.19988   1
   4  -5   5 7.17900 2.44482   2
   4   5  -5 12.8096 3.77769   8
  -4  -5  -5 10.6176 4.98757   3
  -4   5   5 8.50760 3.74832   2
  -4   5  -5 20.7869 4.34508   8
  -4  -5   5 10.0315 3.07644   2
  -4  -5   5 13.2630 3.51700   1
   4   5   5 9.61871 2.92144   1
   4   5   5 8.32647 3.09339   2
  -5   5   5 197.687 10.8818   1
  -5   5   5 204.305 11.4736   2
   5  -5   5 193.371 8.86826   2
  -5  -5  -5 185.868 12.8757   3
   5   5   5 192.094 9.12763   1
  -5  -5   5 197.777 9.76449   2
  -5  -5   5 168.366 9.64251   1
   5   5   5 183.781 9.49185   2
  -5   5  -5 185.778 10.7057   8
   6  -5   5 172.286 8.82623   2
  -6   5   5 163.477 10.3949   1
  -6  -5  -5 161.919 12.1501   3
  -6   5   5 177.666 11.2083   2
   6   5   5 166.279 9.38736   2
   6   5   5 186.276 9.14077   1
  -6   5  -5 170.910 10.6702   8
  -6  -5   5 169.144 9.87609   1
  -6  -5   5 185.230 9.91203   2
  -7   5   5 24.0709 5.38111   1
   7  -5   5 39.1133 4.96362   2
  -7  -5  -5 46.6270 7.27625   3
  -7  -5   5 39.2391 5.84380   2
   7   5   5 38.4994 5.02162   1
  -7  -5   5 31.1415 5.38078   1
   7   5   5 40.1320 5.22400   2
   0   6  -5 1650.48 48.8616   8
   0  -6   5 1638.46 45.3233   1
   0   6   5 1611.00 49.8754   2
   0  -6   5 1672.46 48.4188   2
   0  -6  -5 1575.35 57.5583   3
   0   6   5 1603.52 46.5934   1
  -1  -6  -5 19.4849 5.43531   3
   1  -6   5 23.6239 3.04730   1
  -1   6   5 15.9844 3.75772   2
   1  -6   5 38.7439 3.88211   2
   1   6  -5 20.8600 4.22779   8
  -1   6   5 21.6493 4.03303   1
  -1  -6   5 21.5603 3.42644   1
  -1  -6   5 20.2569 3.35926   2
  -1   6  -5 23.5018 4.66357   8
   1   6   5 20.8938 3.59195   1
   1  -6  -5 24.9370 5.59155   3
   1   6   5 14.2852 3.55719   2
   2  -6   5 1014.84 32.7053   2
  -2  -6  -5 1091.72 41.1717   3
   2   6  -5 1078.22 34.1862   8
   2  -6   5 1047.91 31.4123   1
  -2   6   5 1055.03 33.4012   1
  -2   6   5 1113.15 35.3953   2
  -2  -6   5 1105.50 31.9381   1
  -2   6  -5 1066.31 34.3393   8
   2   6   5 1107.95 32.2252   1
  -2  -6   5 1077.28 33.6494   2
   2   6   5 1094.08 34.5382   2
   2  -6  -5 1086.90 40.5241   3
   3   6  -5 12.6817 3.64842   8
  -3   6   5 21.4053 4.53900   2
  -3   6   5 7.29248 3.38461   1
   3  -6   5 15.1858 2.91880   2
  -3  -6  -5 20.9624 5.42732   3
   3   6   5 25.2609 3.89488   1
   3   6   5 17.6974 3.69390   2
  -3  -6   5 14.5657 3.38838   1
  -3  -6   5 10.0989 3.04873   2
  -3   6  -5 14.7397 4.29501   8
  -4   6   5 696.060 23.9402   1
   4  -6   5 665.185 22.1506   2
  -4  -6  -5 662.558 28.8767   3
  -4   6   5 706.387 25.2911   2
   4   6  -5 684.281 24.0854   8
  -4  -6   5 657.721 22.3227   1
  -4   6  -5 655.561 23.9254   8
   4   6   5 676.555 22.0408   1
  -4  -6   5 668.053 23.3299   2
   4   6   5 688.241 23.4524   2
  -5   6   5 11.1193 4.28941   1
   5  -6   5 14.7308 3.21408   2
  -5   6   5 16.1488 4.84503   2
  -5  -6  -5 13.6212 5.35327   3
  -5  -6   5 11.6364 3.72229   1
  -5  -6   5 15.2980 3.72523   2
  -5   6  -5 14.3773 4.55267   8
   5   6   5 9.71898 3.36531   2
   5   6   5 13.8446 3.48863   1
   6  -6   5 849.295 27.7763   2
  -6   6   5 823.660 29.0112   1
  -6  -6  -5 848.433 34.4368   3
   6   6   5 850.516 26.9999   1
  -6  -6   5 852.707 29.0424   2
   6   6   5 818.422 28.5622   2
  -6   6  -5 848.718 29.5102   8
  -6  -6   5 822.377 28.0668   1
   0  -7   5 3.57332 2.41299   1
   0  -7  -5 3.31507 4.26051   3
   0   7   5 2.27487 2.89061   2
   0   7  -5 4.76977 3.51797   8
   0   7   5 -1.2463 2.38572   1
   0  -7   5 0.30397 2.32778   2
  -1  -7  -5 457.523 21.5808   3
   1  -7   5 447.313 16.1747   2
   1   7  -5 439.071 17.4443   8
  -1   7   5 450.262 16.6956   1
  -1   7   5 439.065 17.6423   2
   1  -7   5 428.736 14.9115   1
   1  -7  -5 435.012 21.2280   3
   1   7   5 417.655 15.8851   1
  -1  -7   5 438.069 15.3396   1
   1   7   5 455.236 17.4268   2
  -1   7  -5 440.782 17.5410   8
  -1  -7   5 434.006 16.1945   2
  -2  -7  -5 56.2441 8.12800   3
  -2   7   5 61.0052 6.34624   1
   2  -7   5 60.5195 5.13056   2
  -2   7   5 71.4978 6.95824   2
   2  -7   5 56.6439 4.77590   1
   2   7  -5 48.6883 6.04478   8
  -2  -7   5 55.0074 5.36090   2
  -2  -7   5 60.5624 5.39213   1
   2   7   5 54.2032 5.38040   1
  -2   7  -5 54.4712 6.48095   8
   2   7   5 64.3559 6.08029   2
   2  -7  -5 60.5488 8.41549   3
  -3   7   5 1022.68 33.4955   2
   3  -7   5 968.715 30.9305   2
   3   7  -5 949.872 32.3370   8
   3  -7   5 977.254 29.3254   1
  -3   7   5 986.313 31.9522   1
  -3  -7  -5 976.756 38.5474   3
  -3   7  -5 1001.39 32.6883   8
   3   7   5 964.888 30.1691   1
  -3  -7   5 1012.56 30.4450   1
  -3  -7   5 969.683 31.9247   2
   3   7   5 970.914 32.2791   2
  -4   7   5 -0.7033 3.34266   2
   4  -7   5 0.71540 2.46659   2
  -4   7   5 5.90627 3.53297   1
   4   7  -5 -0.4971 3.27778   8
  -4  -7  -5 0.91782 4.00326   3
  -4  -7   5 -0.1009 2.71206   2
  -4   7  -5 2.13879 3.29671   8
  -4  -7   5 1.80683 2.87685   1
   4   7   5 0.87512 2.55781   1
   4   7   5 2.78351 3.02258   2
  -5  -7  -5 748.659 31.2762   3
   5  -7   5 719.511 24.4703   2
  -5  -7   5 716.178 24.6587   1
  -5   7  -5 717.404 26.2380   8
   5   7   5 724.462 25.5925   2
   5   7   5 715.257 24.0834   1
   0   8   5 654.023 23.0926   2
   0  -8  -5 619.352 27.8784   3
   0   8  -5 612.586 22.9314   8
   0  -8   5 609.056 20.2533   1
   0   8   5 617.315 21.4463   1
   0  -8   5 623.386 21.9194   2
   1  -8   5 84.6735 5.99839   1
   1   8  -5 107.222 8.13757   8
  -1   8   5 103.915 7.81782   2
   1  -8   5 85.0414 6.62740   2
  -1   8   5 97.0703 7.27952   1
  -1  -8  -5 96.6820 9.90653   3
  -1   8  -5 104.174 8.21469   8
   1   8   5 86.7090 7.33181   2
  -1  -8   5 94.6170 6.89694   2
  -1  -8   5 90.6813 6.49713   1
   1   8   5 96.7083 7.07272   1
   1  -8  -5 99.8585 10.0966   3
  -2   8   5 143.384 9.03532   1
   2  -8   5 125.955 7.78346   2
   2   8  -5 128.315 8.97554   8
   2  -8   5 124.382 7.06160   1
  -2  -8  -5 142.053 11.4333   3
  -2   8   5 138.281 9.41322   2
  -2   8  -5 124.028 9.10001   8
  -2  -8   5 147.285 8.40309   2
  -2  -8   5 119.123 7.61064   1
   2  -8  -5 143.112 11.5227   3
   2   8   5 147.773 8.85496   2
   2   8   5 125.138 7.92707   1
   3   8  -5 52.8109 6.50855   8
   3  -8   5 58.0333 5.28657   1
  -3   8   5 63.0005 6.77664   1
  -3  -8  -5 71.4767 9.07162   3
   3  -8   5 55.9101 5.59869   2
  -3   8  -5 52.4766 6.83351   8
   3   8   5 43.6483 5.31358   1
  -3  -8   5 63.0007 6.07991   2
  -3  -8   5 58.2361 5.92189   1
  -3  -8   5 53.3969 5.92636   2
   3   8   5 65.9365 6.36326   2
   4  -8   5 5.40856 2.98551   2
  -4  -8  -5 3.74482 4.57261   3
  -4   8   5 0.86383 3.47826   1
   4   8  -5 -1.6553 3.30677   8
   4  -8   5 -0.0787 2.70447   1
   4   8   5 -2.2908 2.77397   2
  -4  -8   5 4.30242 3.15736   2
  -4   8  -5 0.98310 3.70658   8
  -4  -8   5 1.99258 3.19932   1
   4   8   5 -0.9173 2.69219   1
   0   9  -5 1.71188 3.05228   8
   0  -9  -5 -3.7450 3.86927   3
   0  -9   5 2.56999 2.69234   1
   0  -9   5 2.48293 3.05309   2
   0   9   5 0.94898 2.93904   1
   0   9   5 0.73673 3.09293   2
  -1   9   5 1098.34 34.6671   1
   1  -9   5 1031.94 32.8240   1
  -1  -9  -5 1157.61 43.7626   3
   1  -9   5 1061.17 35.5106   2
   1   9  -5 1114.51 36.2162   8
  -1   9  -5 1078.57 36.1055   8
  -1  -9   5 1047.17 33.2095   1
   1   9   5 1142.73 36.6743   2
   1   9   5 1114.18 34.2376   1
  -1  -9   5 1087.30 35.6970   2
   1  -9  -5 1171.97 43.9602   3
  -2   9   5 36.3925 5.41643   1
  -2  -9  -5 33.2132 7.03018   3
   2   9  -5 32.4371 5.38484   8
   2  -9   5 38.1270 5.04821   2
   2  -9   5 36.0582 4.50838   1
  -2  -9   5 40.6793 5.29458   2
   2   9   5 31.8590 4.83647   1
   2   9   5 39.0601 5.66462   2
  -2  -9   5 36.0540 4.74380   1
  -2   9  -5 29.6381 5.76201   8
   2  -9  -5 44.5572 8.06076   3
   0   0  -6 2286.56 77.2724   3
   0   0  -6 2291.98 80.2133   4
  -1   0  -6 777.053 30.9054   3
   1   0  -6 819.149 30.7273   3
  -1   0  -6 768.249 31.3594   4
   1   0  -6 770.031 31.3335   4
  -2   0   6 2511.14 71.8271   2
  -2   0  -6 2514.82 85.0002   3
  -2   0  -6 2463.80 87.7634   4
  -2   0   6 2439.47 68.2275   1
   2   0  -6 2682.32 83.8866   3
  -3   0  -6 62.1318 8.35693   3
  -3   0   6 63.1228 4.71930   2
  -3   0   6 50.7620 4.91883   1
  -3   0  -6 64.0288 7.24456   4
  -4   0  -6 666.066 27.7297   3
  -4   0   6 649.056 21.3413   1
  -4   0  -6 602.979 27.1618   4
  -4   0   6 656.979 21.7661   2
  -5   0   6 350.440 14.4165   1
  -5   0  -6 389.083 18.9495   3
  -5   0   6 348.776 14.3955   2
  -5   0  -6 342.536 18.2827   4
  -6   0   6 748.799 25.7464   1
  -6   0  -6 731.368 31.8399   4
  -6   0   6 792.155 26.4792   2
   6   0   6 737.941 23.6676   2
  -6   0  -6 781.854 31.5602   3
   7   0   6 23.6724 3.41857   2
  -7   0  -6 30.2725 6.11461   3
  -7   0   6 27.9554 5.08066   2
  -7   0   6 23.1147 4.99349   1
  -7   0  -6 17.3945 5.60616   4
   0  -1  -6 3.50286 3.59548   4
   0  -1  -6 3.90852 3.79416   3
   0   1  -6 -0.6840 3.04145   4
   0   1  -6 2.10973 3.53551   3
   1   1  -6 796.008 31.6678   4
  -1  -1  -6 823.987 31.7519   3
  -1  -1  -6 780.326 31.9731   4
   1   1  -6 786.901 30.6161   3
  -1   1  -6 795.044 31.9887   4
   1  -1  -6 835.780 31.4135   3
  -1   1  -6 784.017 31.5528   3
  -2  -1  -6 0.53015 3.21471   4
   2   1  -6 11.2073 4.40407   3
  -2   1   6 7.93188 2.77822   1
   2   1  -6 -0.1295 3.24194   4
  -2   1   6 4.01308 2.15050   2
  -2  -1  -6 -2.4695 3.32712   3
  -2   1  -6 -1.3865 3.35104   3
   2  -1  -6 4.02734 3.70387   3
  -2   1  -6 -0.7987 3.03860   4
  -3  -1  -6 53.7256 7.56172   3
  -3   1   6 53.4578 4.93747   1
  -3  -1  -6 42.2479 6.50215   4
  -3   1   6 49.5853 4.70326   2
  -3  -1   6 48.3042 4.56878   1
  -3   1  -6 57.8311 7.66426   4
  -3   1  -6 44.8811 7.22279   3
  -3  -1   6 44.6703 4.02699   2
  -4  -1  -6 134.489 10.6825   3
  -4  -1  -6 150.616 10.4949   4
  -4   1   6 132.403 7.59776   2
  -4   1   6 125.823 7.60839   1
  -4   1  -6 138.638 10.6476   3
  -4  -1   6 137.104 7.71142   1
  -4  -1   6 130.053 7.22602   2
  -5  -1  -6 317.448 16.8527   3
  -5  -1  -6 319.290 16.8583   4
  -5   1   6 329.914 13.6349   1
  -5   1   6 324.134 13.6399   2
  -5  -1   6 302.197 13.1064   1
  -5  -1   6 316.133 13.1137   2
  -5   1  -6 323.496 17.1239   3
   5   1   6 322.720 11.4739   2
  -6   1   6 169.087 10.0306   1
   6  -1   6 164.333 7.42818   2
  -6  -1  -6 182.039 12.5964   3
  -6   1   6 158.611 9.65625   2
  -6  -1  -6 152.004 11.6013   4
  -6  -1   6 179.645 9.67996   2
   6   1   6 175.232 7.86118   2
  -6  -1   6 173.325 9.82968   1
  -6   1  -6 171.954 12.5019   3
  -7   1   6 256.444 12.6903   2
  -7  -1  -6 256.682 15.0390   4
  -7  -1  -6 255.259 14.9930   3
  -7   1   6 235.336 12.4996   1
   7  -1   6 257.757 10.6138   2
  -7  -1   6 266.502 12.6234   2
  -7  -1   6 234.140 12.0194   1
   7   1   6 236.044 10.5323   2
  -7   1  -6 230.165 14.5811   3
   0   2  -6 2957.44 98.5498   3
   0  -2  -6 2967.94 102.930   4
   0   2  -6 2914.87 102.180   4
   0  -2  -6 3090.65 99.4782   3
  -1  -2  -6 59.9015 7.32490   4
   1   2  -6 63.9385 7.31412   3
  -1   2   6 58.9991 4.36787   1
  -1   2   6 58.1413 4.56514   2
   1   2  -6 65.5254 7.00794   4
  -1  -2  -6 70.2716 8.23670   3
  -1   2  -6 60.7905 7.41310   4
   1  -2  -6 71.0570 8.17019   3
  -1   2  -6 63.9466 7.85740   3
  -2   2   6 545.792 18.4056   2
  -2  -2  -6 518.466 23.3892   4
   2   2  -6 556.575 23.4002   4
  -2  -2  -6 527.552 23.8928   3
  -2   2   6 543.988 17.5107   1
  -2   2  -6 527.133 23.8235   4
  -2  -2   6 556.294 17.0904   2
   2  -2  -6 532.324 22.7008   3
  -2   2  -6 520.760 23.6273   3
  -3   2   6 75.1952 5.88445   2
  -3   2   6 66.3028 5.79676   1
  -3  -2  -6 75.5190 8.77483   3
  -3  -2  -6 77.2016 7.86391   4
  -3  -2   6 65.0508 5.38434   1
  -3  -2   6 75.1964 4.76068   2
  -3   2  -6 62.5211 8.46221   3
  -4  -2  -6 466.002 21.6780   3
  -4   2   6 474.455 17.5067   2
  -4   2   6 462.801 16.8313   1
  -4  -2  -6 459.988 21.3024   4
  -4  -2   6 446.132 16.2036   2
   4   2   6 472.080 15.4010   2
  -4  -2   6 443.906 16.2389   1
  -4   2  -6 448.533 21.7269   3
  -5   2   6 5.28384 3.34328   1
  -5  -2  -6 8.31430 4.22541   4
  -5   2   6 5.81660 3.31565   2
  -5  -2  -6 6.81751 4.44517   3
  -5   2  -6 10.4408 4.83007   3
   5   2   6 9.58749 2.64650   2
  -5  -2   6 8.10013 3.51776   1
  -5  -2   6 7.64178 3.13764   2
   6  -2   6 1219.42 37.7558   2
  -6  -2  -6 1214.54 48.1355   4
  -6   2   6 1332.06 41.3697   2
  -6   2   6 1307.40 39.6656   1
  -6  -2  -6 1262.16 47.0773   3
   6   2   6 1268.95 38.8072   2
  -6  -2   6 1286.81 40.5035   2
  -6   2  -6 1308.51 47.7095   3
  -6  -2   6 1271.13 38.9194   1
  -7  -2  -6 134.429 10.6853   4
  -7  -2  -6 134.919 11.0700   3
  -7   2   6 141.298 9.41037   2
  -7   2   6 122.393 9.38134   1
   7  -2   6 137.902 7.15332   2
  -7   2  -6 127.320 11.0621   3
  -7  -2   6 129.009 8.82554   2
   7   2   6 135.890 7.70814   2
  -7  -2   6 140.978 9.30172   1
   0   3  -6 6.39511 3.96285   3
   0   3  -6 2.05953 2.45962   8
   0  -3  -6 4.39817 4.04336   3
   0   3   6 2.82363 2.30463   2
   0   3   6 -0.5536 1.89696   1
   0   3  -6 -0.7821 3.02852   4
  -1   3   6 1739.97 47.6798   1
  -1   3   6 1686.66 50.7612   2
   1   3  -6 1680.66 58.9369   3
  -1  -3  -6 1748.67 60.5253   3
   1   3  -6 1755.94 60.9836   4
   1   3  -6 1691.26 49.1734   8
  -1   3  -6 1652.68 61.2523   4
   1  -3  -6 1703.55 59.6507   3
  -1   3  -6 1679.18 59.8783   3
   1   3   6 1680.46 50.0127   2
  -2  -3  -6 747.914 30.8550   4
  -2   3   6 775.264 23.6715   1
   2   3  -6 755.552 24.3006   8
   2   3  -6 789.593 30.1762   4
  -2   3   6 718.791 24.8378   2
  -2  -3  -6 780.770 31.4865   3
   2  -3  -6 756.147 29.9298   3
  -2   3  -6 733.491 30.6951   3
  -2  -3   6 757.468 23.3044   2
   2   3   6 724.642 23.5333   2
  -3  -3  -6 1125.18 42.5802   4
  -3   3   6 1097.79 35.3657   2
  -3  -3  -6 1136.78 42.6016   3
  -3   3   6 1129.06 33.4491   1
   3   3   6 1085.23 33.3981   2
  -3   3  -6 1110.23 42.3028   3
  -3  -3   6 1098.13 32.4503   1
  -3  -3   6 1095.44 33.7397   2
  -4   3   6 196.589 10.3831   2
  -4   3   6 206.907 10.0131   1
  -4  -3  -6 210.335 13.4472   3
  -4  -3  -6 196.811 12.5179   4
  -4   3  -6 200.952 13.4706   3
   4   3   6 183.387 8.49946   2
  -4  -3   6 195.202 9.08758   2
  -4  -3   6 203.809 9.49542   1
  -5   3   6 167.904 9.62877   1
  -5  -3  -6 153.154 12.0018   3
  -5  -3  -6 167.031 11.7107   4
  -5   3   6 176.952 10.1572   2
  -5  -3   6 179.780 9.46335   1
  -5   3  -6 182.574 12.7651   3
   5   3   6 165.118 8.25244   2
  -5  -3   6 178.099 8.98334   2
  -6   3   6 50.0938 6.16861   1
  -6  -3  -6 48.0900 7.30495   4
   6  -3   6 38.0069 3.90003   2
  -6   3   6 44.0812 6.11647   2
  -6  -3  -6 42.3639 7.34365   3
  -6   3  -6 43.0460 7.18227   3
  -6  -3   6 39.5116 5.07912   2
  -6  -3   6 40.5415 5.65542   1
   6   3   6 36.9378 4.64515   2
  -7  -3  -6 1354.16 50.3644   3
  -7   3   6 1318.67 42.5850   1
   7  -3   6 1379.95 41.7034   2
  -7   3   6 1479.21 45.2285   2
  -7  -3   6 1398.57 43.8985   2
  -7   3  -6 1334.87 50.6077   3
   7   3   6 1355.38 42.5069   2
  -7  -3   6 1311.93 41.8206   1
   0  -4  -6 313.824 16.2722   3
   0   4   6 279.141 10.6591   1
   0   4  -6 288.301 12.0160   8
   0   4   6 289.937 11.9023   2
   0   4  -6 281.925 14.8331   4
   0   4  -6 283.883 15.5302   3
   1   4  -6 19.3191 3.64559   8
  -1  -4  -6 12.4749 4.99481   3
   1   4  -6 20.3014 4.90882   4
  -1   4   6 14.9878 3.28792   1
  -1   4   6 14.9346 3.62004   2
  -1   4  -6 20.6837 3.74055   8
  -1   4  -6 14.6813 4.99239   3
   1   4   6 21.6228 3.10958   1
   1   4   6 14.0710 3.20163   2
   1  -4  -6 15.7133 5.14628   3
  -2   4   6 286.317 12.5170   2
  -2   4   6 299.832 11.8177   1
  -2  -4  -6 284.192 16.3864   3
   2   4  -6 298.379 12.2524   8
   2   4   6 286.238 10.2977   1
   2  -4  -6 282.726 15.4822   3
  -2   4  -6 275.291 16.0193   3
  -2   4  -6 266.272 12.4572   8
  -2  -4   6 287.558 10.7237   2
   2   4   6 284.569 11.4012   2
  -3  -4  -6 86.4795 9.69022   3
  -3  -4  -6 96.9906 8.88033   4
   3   4  -6 96.3950 7.16628   8
  -3   4   6 109.660 7.41576   1
  -3   4   6 108.439 7.70255   2
  -3  -4   6 86.9860 6.16578   1
   3   4   6 93.3756 6.13005   2
  -3   4  -6 103.696 10.1054   3
   3   4   6 102.322 5.58166   1
  -3  -4   6 101.078 5.94825   2
  -4   4   6 339.907 14.3893   1
  -4  -4  -6 393.621 18.6837   4
  -4  -4  -6 356.988 18.8549   3
  -4   4   6 363.532 15.6425   2
   4   4   6 349.312 13.6496   2
  -4  -4   6 350.301 13.8220   1
  -4  -4   6 336.731 13.6763   2
  -4   4  -6 362.879 19.0076   3
   5  -4   6 5.40215 2.41993   2
  -5  -4  -6 1.98718 4.24461   4
  -5   4   6 2.04911 3.31361   1
  -5  -4  -6 2.70328 4.49669   3
  -5   4   6 11.7356 4.08298   2
  -5  -4   6 5.80005 2.98468   2
  -5  -4   6 5.84699 3.64622   1
  -5   4  -6 7.29571 4.79921   3
   5   4   6 1.67718 2.52369   2
   6  -4   6 27.2483 3.84695   2
  -6   4   6 24.1057 5.02357   2
  -6  -4  -6 32.3853 6.71105   3
  -6   4   6 29.6336 5.30284   1
  -6  -4   6 32.5694 4.74173   2
   6   4   6 28.6602 4.44994   2
  -6   4  -6 24.7754 6.27477   3
  -6  -4   6 27.9311 4.77470   1
   0   5  -6 0.58781 3.47397   4
   0  -5   6 3.54886 2.12444   2
   0   5  -6 0.65653 2.85995   8
   0  -5  -6 0.38475 3.73021   3
   0   5   6 2.64901 2.63163   2
   0   5   6 6.47018 2.56036   1
  -1   5   6 1940.58 57.7348   2
  -1  -5  -6 1885.99 67.1250   3
   1   5  -6 1860.94 55.5370   8
  -1   5   6 1953.47 53.8816   1
   1   5   6 1901.22 53.0528   1
   1   5   6 1897.73 57.1680   2
  -1  -5   6 1865.24 55.6187   2
  -1   5  -6 1942.46 55.8220   8
   1  -5  -6 1898.42 66.7863   3
  -2   5   6 32.5340 4.63526   1
  -2  -5  -6 39.6394 7.02725   3
  -2   5   6 34.0425 5.16662   2
   2   5  -6 29.3252 4.59046   8
  -2   5  -6 34.1022 4.84866   8
   2  -5  -6 55.9384 7.82207   3
   2   5   6 31.6062 4.21728   2
   2   5   6 35.8264 3.94311   1
  -2  -5   6 48.3633 4.38379   2
  -3  -5  -6 444.547 22.3122   3
  -3   5   6 485.881 18.8860   2
  -3   5   6 474.927 17.6038   1
   3   5  -6 461.515 17.6723   8
  -3  -5   6 460.525 16.1936   1
  -3  -5   6 467.748 16.6714   2
  -3   5  -6 457.310 17.6006   8
   3   5   6 473.764 15.7289   1
  -3   5  -6 429.453 21.9794   3
  -3  -5   6 462.749 16.6806   2
   3   5   6 457.727 16.9696   2
   4  -5   6 121.331 6.31920   2
  -4   5   6 126.624 9.30466   2
  -4  -5  -6 136.018 11.7483   3
  -4   5   6 120.301 8.35753   1
  -4  -5   6 124.568 7.53461   2
   4   5   6 114.674 7.34751   2
  -4  -5   6 120.821 7.69593   1
   4   5   6 132.343 7.11940   1
  -4   5  -6 138.726 11.4951   3
  -5  -5  -6 1448.78 54.4686   3
  -5   5   6 1413.86 44.6551   1
  -5   5   6 1511.18 48.0224   2
   5  -5   6 1520.67 44.2139   2
  -5  -5   6 1439.88 45.8193   2
   5   5   6 1502.07 42.6029   1
   5   5   6 1443.06 45.4641   2
  -5  -5   6 1494.78 44.1192   1
   0  -6   6 341.410 12.7224   2
   0  -6  -6 324.166 17.9687   3
   0   6  -6 337.491 14.4461   8
   0   6   6 330.179 14.2056   2
   0   6   6 334.566 12.9135   1
  -1  -6  -6 389.570 20.1620   3
  -1   6   6 391.197 14.8804   1
   1   6  -6 367.606 15.7489   8
  -1   6   6 402.154 16.1778   2
   1  -6   6 398.427 14.1760   2
  -1   6  -6 407.946 16.2626   8
   1   6   6 405.737 14.3629   1
   1  -6  -6 409.014 20.2769   3
  -1  -6   6 383.304 14.4066   2
   1   6   6 404.929 16.0410   2
   2   6  -6 522.802 19.2895   8
  -2   6   6 531.766 19.9095   2
   2  -6   6 480.309 16.8070   2
  -2   6   6 518.788 18.2451   1
  -2  -6  -6 487.475 23.5938   3
  -2   6  -6 484.769 18.8570   8
   2  -6  -6 495.900 23.2631   3
   2   6   6 493.837 18.4799   2
  -2  -6   6 486.218 17.6684   2
   2   6   6 500.759 16.9646   1
  -2  -6   6 499.316 16.7405   1
  -3   6   6 31.4928 5.62730   2
   3   6  -6 29.5090 5.11243   8
  -3   6   6 25.8717 4.65687   1
  -3  -6  -6 19.3414 5.73044   3
   3  -6   6 24.1425 3.33923   2
  -3  -6   6 30.0488 4.14865   2
  -3   6  -6 28.3993 4.99131   8
   3   6   6 34.6146 4.35452   1
  -3  -6   6 28.3031 4.19465   1
  -3  -6   6 28.4108 4.15756   2
   3   6   6 31.5558 4.57883   2
   4  -6   6 29.4613 3.70368   2
  -4  -6  -6 34.3611 6.95110   3
  -4   6   6 32.9652 5.84542   2
  -4   6   6 26.1253 4.80671   1
  -4  -6   6 32.7437 4.76222   1
  -4   6  -6 28.3763 5.17313   8
   4   6   6 24.5601 4.30628   2
  -4  -6   6 29.2992 4.47789   2
   4   6   6 25.2913 4.06906   1
  -5   6   6 191.205 11.0943   1
  -5   6   6 225.835 12.6883   2
   5  -6   6 193.801 9.17673   2
  -5  -6  -6 202.564 14.4460   3
  -5  -6   6 201.249 10.3472   2
   5   6   6 202.673 9.78041   1
   5   6   6 201.639 10.4100   2
  -5  -6   6 201.099 10.5688   1
   0   7  -6 4.11072 3.62675   8
   0   7   6 -0.4412 2.97893   2
   0  -7   6 -0.7964 2.18069   2
   0   7   6 1.12992 2.59202   1
   0  -7  -6 1.89520 4.89775   3
  -1   7   6 97.3750 7.08655   1
  -1   7   6 109.593 8.05466   2
   1   7  -6 107.039 8.06096   8
  -1  -7  -6 104.516 10.6336   3
   1  -7   6 97.1183 6.44270   2
   1   7   6 99.5667 6.73480   1
  -1  -7   6 99.0140 6.65817   2
   1  -7  -6 90.9458 10.1504   3
  -1   7  -6 99.4203 8.00198   8
   1   7   6 114.698 8.09348   2
  -2  -7  -6 5.40625 4.74666   3
  -2   7   6 12.5594 3.85596   1
   2  -7   6 2.26443 2.46250   2
   2   7  -6 0.89992 3.35671   8
  -2   7   6 5.62961 3.74191   2
  -2   7  -6 4.84368 3.68230   8
  -2  -7   6 7.92356 2.99151   2
  -2  -7   6 5.80778 2.84696   1
   2   7   6 4.55500 3.26659   2
   2  -7  -6 9.19537 5.23810   3
   2   7   6 6.96763 2.83562   1
   3  -7   6 1328.19 41.0442   2
  -3  -7  -6 1326.54 50.7974   3
  -3   7   6 1468.37 44.3903   2
   3   7  -6 1386.51 42.6035   8
  -3   7   6 1340.95 41.2873   1
  -3  -7   6 1299.99 41.9198   2
  -3  -7   6 1325.27 42.0284   2
   3   7   6 1366.72 42.5013   2
  -3   7  -6 1308.99 42.3106   8
  -3  -7   6 1341.64 39.6844   1
   3   7   6 1322.61 39.5191   1
   0   8  -6 1311.24 42.4155   8
   0  -8   6 1345.63 42.1027   2
   0   8   6 1398.03 43.6902   2
   0   8   6 1332.77 40.3985   1
   0  -8  -6 1363.91 51.5267   3
  -1   8   6 73.8990 6.44974   1
  -1  -8  -6 66.4695 9.38183   3
   1  -8   6 62.6667 5.70082   2
   1   8  -6 62.5684 7.05197   8
  -1   8   6 66.6094 6.97773   2
  -1   8  -6 59.2346 7.04152   8
   1  -8  -6 69.0563 9.36910   3
  -1  -8   6 61.3209 5.97456   2
   1   8   6 75.3879 7.18889   2
   1   8   6 56.6268 5.78706   1
   0   0  -7 -1.7706 3.85950   3
   0   0  -7 9.09513 4.32572   4
  -1   0  -7 -1.8537 3.40593   4
   1   0  -7 1.05500 3.79698   4
  -1   0  -7 -3.0496 3.76333   3
   1   0  -7 7.12195 4.73872   3
  -2   0   7 1.34221 2.02021   2
  -2   0  -7 -2.4215 3.85327   3
  -2   0  -7 -0.0994 3.65194   4
  -3   0  -7 1.81571 4.02093   4
  -3   0   7 0.54844 2.26698   2
  -3   0  -7 -2.2551 4.15617   3
  -4   0  -7 5.99666 4.83064   3
  -4   0   7 5.18213 2.92602   2
  -4   0  -7 8.98088 4.91764   4
  -4   0   7 10.3215 3.31263   1
  -5   0  -7 -3.1039 3.85408   3
  -5   0  -7 4.60676 4.22223   4
  -5   0   7 1.64810 2.85340   1
  -5   0   7 2.43534 3.04318   2
  -6   0  -7 4.15886 4.27495   3
   6   0   7 4.42269 2.19460   2
  -6   0  -7 1.51241 4.20711   4
  -6   0   7 7.89024 3.71391   1
  -6   0   7 29.3489 5.04195   2
   0  -1  -7 -0.2805 3.76552   4
   0   1  -7 5.71328 4.28722   3
   0   1  -7 4.09227 3.77520   4
   0  -1  -7 0.31216 3.91204   3
   1   1  -7 730.046 30.3076   4
  -1  -1  -7 681.159 30.0733   4
  -1  -1  -7 744.782 30.4600   3
   1   1  -7 786.891 30.1577   3
  -1   1  -7 671.531 30.0269   4
  -1   1  -7 734.217 30.2274   3
   1  -1  -7 741.883 29.8873   3
  -2  -1  -7 141.576 10.7790   4
  -2   1   7 146.518 7.36396   2
  -2  -1  -7 161.327 12.0696   3
  -2   1  -7 152.627 11.1176   4
  -2   1  -7 149.844 11.5163   3
  -2  -1   7 152.279 6.66137   2
  -3  -1  -7 1799.76 62.1825   3
  -3  -1  -7 1693.36 63.2199   4
  -3   1   7 1735.56 51.7307   2
  -3   1  -7 1729.62 61.9207   3
  -3  -1   7 1736.99 50.9969   2
  -3   1  -7 1672.68 63.3385   4
  -4  -1  -7 9.51884 4.73122   4
  -4  -1  -7 7.86759 4.98034   3
  -4   1   7 4.89969 2.99878   1
  -4   1   7 10.0077 3.44109   2
  -4   1  -7 10.0533 5.18380   3
  -4   1  -7 4.82160 4.36570   4
  -4  -1   7 9.84601 2.95853   2
  -5  -1  -7 1229.96 48.0144   4
  -5   1   7 1316.93 40.2802   2
  -5  -1  -7 1308.26 47.8005   3
  -5   1   7 1253.06 37.7453   1
  -5  -1   7 1174.20 37.1886   1
  -5   1  -7 1310.83 48.0238   3
  -5   1  -7 1143.15 47.8735   4
  -5  -1   7 1248.28 39.3459   2
   0  -2  -7 116.968 10.3455   3
   0   2  -7 94.7197 9.42374   3
   0   2  -7 91.3481 8.75456   4
   1   2  -7 117.371 9.81474   3
  -1  -2  -7 109.395 10.4432   3
   1   2  -7 109.110 9.19560   4
  -1   2   7 106.666 6.31700   2
  -1  -2  -7 106.323 9.51802   4
  -1   2  -7 91.9907 9.44731   3
   1  -2  -7 126.559 10.3332   3
  -1   2  -7 94.5944 8.99762   4
   2   2  -7 623.155 25.5310   4
  -2  -2  -7 528.989 24.9882   4
  -2  -2  -7 633.458 26.5634   3
  -2   2   7 543.542 19.5922   2
  -2   2  -7 571.058 25.5850   3
  -2   2  -7 532.891 25.3240   4
  -3   2   7 66.4790 6.00990   2
  -3  -2  -7 76.1605 9.73275   3
  -3   2   7 62.7956 5.65146   1
  -3  -2  -7 66.7643 7.91090   4
  -3  -2   7 67.1521 4.89426   2
  -3   2  -7 68.6464 8.78138   4
  -3   2  -7 65.1754 8.73702   3
  -4   2   7 1084.30 34.9736   2
  -4   2   7 1092.97 32.9160   1
  -4  -2  -7 1057.26 42.3101   4
  -4  -2  -7 1126.94 42.2936   3
  -4   2  -7 1029.14 42.7091   4
  -4   2  -7 1099.97 42.1485   3
  -4  -2   7 1056.15 33.6900   2
  -5   2   7 106.832 7.64861   1
  -5   2   7 112.958 8.11669   2
  -5  -2  -7 99.0767 9.55907   4
  -5  -2  -7 102.520 10.1057   3
  -5  -2   7 101.142 6.99717   1
  -5   2  -7 93.3151 10.3046   3
  -5   2  -7 93.8474 10.1825   4
  -5  -2   7 104.596 7.24145   2
   5   2   7 102.976 5.98016   2
   0  -3  -7 -1.0601 3.90996   3
   0   3  -7 0.70079 3.64705   4
   0   3  -7 3.08505 4.03731   3
   0   3   7 3.07987 2.47412   2
  -1  -3  -7 431.772 20.9681   3
   1   3  -7 436.965 19.9161   4
  -1   3   7 405.163 15.3546   2
   1   3  -7 417.728 19.6031   3
   1   3   7 395.206 14.4950   2
  -1   3  -7 376.501 19.8555   3
   1  -3  -7 406.999 20.1272   3
  -1   3  -7 399.986 19.8897   4
  -2   3   7 13.8716 3.67110   2
  -2  -3  -7 13.9583 5.64707   3
  -2   3   7 5.83563 2.96792   1
  -2  -3  -7 12.1569 4.90212   4
  -2  -3   7 8.94481 2.31850   2
  -2   3  -7 8.87995 4.90951   3
  -2   3  -7 9.66849 4.78501   4
   2   3   7 7.78053 2.53435   2
  -3  -3  -7 243.704 15.6233   3
  -3   3   7 261.752 10.9177   1
  -3   3   7 240.478 11.5253   2
  -3  -3  -7 240.661 14.5008   4
  -3   3  -7 221.958 14.6382   4
   3   3   7 222.061 9.49683   2
  -3   3  -7 227.776 15.0221   3
  -3  -3   7 241.156 9.82199   2
  -4  -3  -7 5.59617 4.22760   4
  -4  -3  -7 4.21662 4.62775   3
  -4   3   7 2.57782 3.31130   2
  -4   3   7 1.28106 3.10671   1
   4   3   7 0.75761 2.24053   2
  -4   3  -7 3.37284 4.71823   3
  -4  -3   7 -1.3108 2.11896   2
  -5   3   7 215.966 11.5116   2
  -5  -3  -7 177.521 13.5547   3
  -5   3   7 208.638 10.6173   1
  -5  -3  -7 203.671 13.2695   4
  -5  -3   7 202.937 10.1025   2
  -5  -3   7 195.321 9.88845   1
  -5   3  -7 224.893 14.6551   3
   5   3   7 194.523 9.15521   2
   0   4  -7 595.195 25.4335   4
   0  -4  -7 550.314 25.7888   3
   0   4   7 584.863 20.3326   2
   0   4  -7 563.358 25.3508   3
  -1  -4  -7 57.7231 8.47386   3
  -1   4   7 61.9611 6.20143   2
   1   4   7 55.1247 5.14162   2
  -1   4  -7 54.9612 7.71495   4
  -1   4  -7 50.0520 7.78671   3
   1  -4  -7 55.5963 8.02520   3
  -2   4   7 1123.75 35.6982   2
  -2   4   7 1117.53 32.9039   1
  -2  -4  -7 1137.62 43.1478   3
  -2   4  -7 1056.33 42.2447   3
  -2   4  -7 1053.57 42.9159   4
   2   4   7 1067.02 34.0399   2
  -2  -4   7 1108.32 33.3151   2
  -2  -4   7 1098.77 33.2875   2
  -3   4   7 35.3778 4.76352   1
  -3  -4  -7 48.5848 8.19176   3
  -3   4   7 38.5206 5.38706   2
   3   4   7 28.0942 3.98319   2
  -3  -4   7 29.6719 3.91226   2
  -3   4  -7 28.7418 6.91738   3
  -4   4   7 1570.12 48.0783   2
  -4  -4  -7 1548.16 56.1522   3
  -4   4   7 1464.52 44.5741   1
   4   4   7 1494.73 45.6012   2
  -4   4  -7 1478.69 55.6887   3
  -4  -4   7 1479.98 45.9292   2
   0   5   7 0.82075 2.38420   1
   0  -5  -7 2.93199 4.38968   3
   0   5   7 -0.9034 2.65162   2
  -1   5   7 23.9897 3.84114   1
   1   5  -7 11.1160 3.41907   8
  -1   5   7 20.3506 4.35723   2
  -1  -5  -7 19.5013 6.16300   3
   1   5   7 24.8121 4.20971   2
  -1   5  -7 27.9053 6.00621   4
  -1  -5   7 15.0263 2.77012   2
   1  -5  -7 11.7278 5.34806   3
   2   5  -7 150.540 8.92629   8
  -2   5   7 151.171 9.53747   2
  -2  -5  -7 147.346 12.2793   3
  -2   5   7 153.217 8.37199   1
  -2   5  -7 144.608 11.5568   4
  -2  -5   7 143.261 7.40825   2
   2   5   7 142.977 8.06495   2
  -3  -5  -7 210.785 14.6184   3
  -3   5   7 218.740 10.6942   1
  -3   5   7 223.811 12.0830   2
  -3  -5   7 208.610 9.50803   2
   3   5   7 195.944 9.82266   2
   0  -6  -7 940.875 38.5537   3
   0   6  -7 943.387 31.0690   8
   0   6   7 979.053 32.0409   2
   0   6   7 931.119 28.8816   1
   0  -6   7 957.466 29.8489   2
   1   6  -7 13.4846 3.88266   8
  -1   6   7 10.3780 3.98685   2
  -1   6   7 12.0375 3.21292   1
  -1  -6  -7 9.31397 5.28907   3
   1  -6   7 12.1960 2.82182   2
   1  -6  -7 14.8552 5.84292   3
  -1  -6   7 12.9686 2.93427   2
   1   6   7 13.6972 3.28650   1
   1   6   7 9.68743 3.66423   2
  -2   6   7 721.448 24.8931   2
  -2  -6  -7 655.671 29.8526   3
   2  -6   7 650.185 21.3782   2
  -2   6   7 666.715 22.3083   1
   2   6  -7 667.643 23.7559   8
   2   6   7 628.368 23.0014   2
  -2  -6   7 651.950 22.2520   2
   0   0  -8 2882.45 96.3108   3
   0   0  -8 2782.33 99.5362   4
  -1   0  -8 11.1515 5.17838   4
  -1   0  -8 2.24666 4.65772   3
  -2   0   8 625.481 20.3780   2
  -2   0  -8 569.234 27.1882   4
  -2   0  -8 658.589 28.6720   3
  -3   0   8 102.936 6.69948   2
  -3   0  -8 112.729 11.1496   3
  -3   0  -8 106.167 10.0553   4
   0   1  -8 -0.8380 3.95219   4
   0  -1  -8 1.63090 4.76873   3
   0   1  -8 7.53535 5.07228   3
  -1  -1  -8 136.629 11.4907   4
  -1  -1  -8 171.267 13.1421   3
  -1   1  -8 140.354 11.2690   4
  -1   1  -8 162.230 12.8679   3
  -2   1   8 178.249 8.79702   2
  -2  -1  -8 203.902 14.5506   3
  -2  -1  -8 182.695 12.8028   4
  -2   1  -8 175.936 12.8967   4
  -2   1  -8 205.562 14.4236   3
  -2  -1   8 182.509 8.07538   2
  -3  -1  -8 140.749 11.5240   4
  -3   1   8 165.385 8.84695   2
  -3  -1  -8 176.728 13.8198   3
  -3   1  -8 164.493 12.4092   4
  -3   1  -8 179.148 13.8043   3
  -3  -1   8 163.473 8.11698   2
   0  -2  -8 452.442 22.1209   3
   0   2  -8 481.218 22.6692   3
   0   2  -8 418.609 21.2723   4
  -1   2   8 127.018 7.27698   2
  -1  -2  -8 125.315 11.3111   3
   1   2  -8 121.288 10.7798   4
  -1   2  -8 128.849 10.7328   4
  -1   2  -8 142.471 11.9318   3
  -2  -2  -8 761.623 33.6681   4
  -2  -2  -8 829.889 34.1152   3
  -2   2   8 786.609 26.5927   2
  -2   2  -8 798.820 34.1778   4
  -2   2  -8 858.150 34.4619   3
  -2  -2   8 811.530 25.1961   2
   0   3  -8 1.70384 4.19329   4
   0   3   8 13.6489 3.46297   2
   0  -3  -8 1.97105 4.54784   3
   0   3  -8 0.92984 4.42510   3
  -1   3   8 1335.99 42.4859   2
   1   3  -8 1379.19 52.2719   4
  -1  -3  -8 1372.28 51.8050   3
   1   3   8 1360.04 41.6514   2
  -1   3  -8 1387.54 52.8200   4
  -1   3  -8 1456.72 52.3439   3
  -2   3   8 32.3692 4.77214   2
  -2  -3  -8 47.6587 8.08311   3
  -2   3  -8 35.5356 6.91262   4
   2   3   8 32.0312 3.67637   2
  -2  -3   8 31.8132 3.58152   2
  -2   3  -8 31.9718 7.18659   3
   0   0   0    0.00    0.00   0
;
_shelx_hkl_checksum              74208
loop_
_space_group_symop_operation_xyz
'x, y, z'
'-x, -y, z+1/2'
'x, -y+1/2, -z'
'-x, y+1/2, -z+1/2'
'-x, -y, -z'
'x, y, -z-1/2'
'-x, y-1/2, z'
'x, -y-1/2, z-1/2'
loop_
_atom_site_label
_atom_site_type_symbol
_atom_site_fract_x
_atom_site_fract_y
_atom_site_fract_z
_atom_site_U_iso_or_equiv
_atom_site_adp_type
_atom_site_occupancy
_atom_site_site_symmetry_order
_atom_site_calc_flag
_atom_site_refinement_flags_posn
_atom_site_refinement_flags_adp
_atom_site_refinement_flags_occupancy
_atom_site_disorder_assembly
_atom_site_disorder_group
U1 U 0.24933(2) 0.05485(2) 0.2500 0.00735(6) Uani 0.25 2 d S T P . .
Yb1 Yb 0.24933(2) 0.05485(2) 0.2500 0.00735(6) Uani 0.75 2 d S T P . .
Se1 Se 0.11865(5) 0.40677(5) 0.2500 0.00700(8) Uani 1 2 d S T P . .
Se2 Se 0.56912(5) 0.2500 0.0000 0.00969(8) Uani 1 2 d S T P . .
loop_
_atom_site_aniso_label
_atom_site_aniso_U_11
_atom_site_aniso_U_22
_atom_site_aniso_U_33
_atom_site_aniso_U_23
_atom_site_aniso_U_13
_atom_site_aniso_U_12
U1 0.00672(9) 0.00825(9) 0.00709(9) 0.000 0.000 -0.00017(4)
Yb1 0.00672(9) 0.00825(9) 0.00709(9) 0.000 0.000 -0.00017(4)
Se1 0.00587(15) 0.00877(15) 0.00636(15) 0.000 0.000 0.00082(12)
Se2 0.00572(15) 0.00730(15) 0.01607(18) -0.00066(12) 0.000 0.000
loop_
_atom_type_symbol
_atom_type_description
_atom_type_scat_dispersion_real
_atom_type_scat_dispersion_imag
_atom_type_scat_source
Se Se -0.0929 2.2259 'International Tables Vol C Tables 4.2.6.8 and 6.1.1.4'
Yb Yb -0.3850 5.5486 'International Tables Vol C Tables 4.2.6.8 and 6.1.1.4'
U U -9.6767 9.6646 'International Tables Vol C Tables 4.2.6.8 and 6.1.1.4'
loop_
_geom_angle_atom_site_label_1
_geom_angle_atom_site_label_2
_geom_angle_atom_site_label_3
_geom_angle
_geom_angle_site_symmetry_1
_geom_angle_site_symmetry_3
Se1 U1 Se1 94.145(7) . 7
Se1 U1 Se1 78.686(8) . 3
Se1 U1 Se1 75.558(7) 7 3
Se1 U1 Se1 78.686(8) . 3_556
Se1 U1 Se1 75.558(7) 7 3_556
Se1 U1 Se1 141.568(14) 3 3_556
Se1 U1 Se2 150.635(3) . 5_655
Se1 U1 Se2 95.148(9) 7 5_655
Se1 U1 Se2 76.793(8) 3 5_655
Se1 U1 Se2 130.643(8) 3_556 5_655
Se1 U1 Se2 150.635(3) . 2_655
Se1 U1 Se2 95.148(9) 7 2_655
Se1 U1 Se2 130.643(8) 3 2_655
Se1 U1 Se2 76.793(8) 3_556 2_655
Se2 U1 Se2 55.532(5) 5_655 2_655
Se1 U1 Se2 77.586(8) . 6_556
Se1 U1 Se2 151.177(5) 7 6_556
Se1 U1 Se2 128.160(8) 3 6_556
Se1 U1 Se2 75.750(7) 3_556 6_556
Se2 U1 Se2 105.567(5) 5_655 6_556
Se2 U1 Se2 80.915(4) 2_655 6_556
Se1 U1 Se2 77.586(8) . .
Se1 U1 Se2 151.177(5) 7 .
Se1 U1 Se2 75.750(8) 3 .
Se1 U1 Se2 128.160(8) 3_556 .
Se2 U1 Se2 80.915(4) 5_655 .
Se2 U1 Se2 105.567(5) 2_655 .
Se2 U1 Se2 54.452(6) 6_556 .
Se1 U1 Yb1 46.537(4) . 3_556
Se1 U1 Yb1 106.732(5) 7 3_556
Se1 U1 Yb1 125.126(9) 3 3_556
Se1 U1 Yb1 44.023(7) 3_556 3_556
Se2 U1 Yb1 151.914(6) 5_655 3_556
Se2 U1 Yb1 104.101(3) 2_655 3_556
Se2 U1 Yb1 48.126(5) 6_556 3_556
Se2 U1 Yb1 87.688(4) . 3_556
Se1 U1 U1 46.537(4) . 3_556
Se1 U1 U1 106.732(5) 7 3_556
Se1 U1 U1 125.126(9) 3 3_556
Se1 U1 U1 44.023(7) 3_556 3_556
Se2 U1 U1 151.914(6) 5_655 3_556
Se2 U1 U1 104.101(3) 2_655 3_556
Se2 U1 U1 48.126(5) 6_556 3_556
Se2 U1 U1 87.688(4) . 3_556
Yb1 U1 U1 0.0 3_556 3_556
Se1 U1 U1 46.537(4) . 3
Se1 U1 U1 106.732(5) 7 3
Se1 U1 U1 44.023(7) 3 3
Se1 U1 U1 125.126(9) 3_556 3
Se2 U1 U1 104.101(3) 5_655 3
Se2 U1 U1 151.914(6) 2_655 3
Se2 U1 U1 87.688(4) 6_556 3
Se2 U1 U1 48.126(5) . 3
Yb1 U1 U1 86.5 3_556 3
U1 U1 U1 86.536(6) 3_556 3
Se1 U1 Yb1 46.537(4) . 3
Se1 U1 Yb1 106.732(5) 7 3
Se1 U1 Yb1 44.023(7) 3 3
Se1 U1 Yb1 125.126(9) 3_556 3
Se2 U1 Yb1 104.101(3) 5_655 3
Se2 U1 Yb1 151.914(6) 2_655 3
Se2 U1 Yb1 87.688(4) 6_556 3
Se2 U1 Yb1 48.126(5) . 3
Yb1 U1 Yb1 86.536(6) 3_556 3
U1 U1 Yb1 86.536(6) 3_556 3
U1 U1 Yb1 0.000(5) 3 3
U1 Se1 Yb1 132.4 . 7_565
U1 Se1 U1 132.432(13) . 7_565
Yb1 Se1 U1 0.0 7_565 7_565
U1 Se1 Yb1 89.4 . 3_556
Yb1 Se1 Yb1 104.443(7) 7_565 3_556
U1 Se1 Yb1 104.443(7) 7_565 3_556
U1 Se1 U1 89.440(8) . 3_556
Yb1 Se1 U1 104.4 7_565 3_556
U1 Se1 U1 104.443(7) 7_565 3_556
Yb1 Se1 U1 0.0 3_556 3_556
U1 Se1 U1 89.440(8) . 3
Yb1 Se1 U1 104.4 7_565 3
U1 Se1 U1 104.443(7) 7_565 3
Yb1 Se1 U1 141.6 3_556 3
U1 Se1 U1 141.567(14) 3_556 3
U1 Se1 Yb1 89.4 . 3
Yb1 Se1 Yb1 104.443(7) 7_565 3
U1 Se1 Yb1 104.443(7) 7_565 3
Yb1 Se1 Yb1 141.567(14) 3_556 3
U1 Se1 Yb1 141.567(14) 3_556 3
U1 Se1 Yb1 0.000(5) 3 3
Se2 Se2 Se2 180.0 6_556 6
Se2 Se2 Yb1 62.234(2) 6_556 7_665
Se2 Se2 Yb1 117.766(2) 6 7_665
Se2 Se2 U1 62.234(2) 6_556 7_665
Se2 Se2 U1 117.766(2) 6 7_665
Yb1 Se2 U1 0.0 7_665 7_665
Se2 Se2 U1 117.766(2) 6_556 5_655
Se2 Se2 U1 62.234(2) 6 5_655
Yb1 Se2 U1 129.0 7_665 5_655
U1 Se2 U1 129.009(14) 7_665 5_655
Se2 Se2 Yb1 117.766(2) 6_556 5_655
Se2 Se2 Yb1 62.234(2) 6 5_655
Yb1 Se2 Yb1 129.009(14) 7_665 5_655
U1 Se2 Yb1 129.009(14) 7_665 5_655
U1 Se2 Yb1 0.000(4) 5_655 5_655
Se2 Se2 U1 117.226(3) 6_556 3
Se2 Se2 U1 62.773(3) 6 3
Yb1 Se2 U1 99.1 7_665 3
U1 Se2 U1 99.084(4) 7_665 3
U1 Se2 U1 118.891(5) 5_655 3
Yb1 Se2 U1 118.9 5_655 3
Se2 Se2 Yb1 117.226(3) 6_556 3
Se2 Se2 Yb1 62.773(3) 6 3
Yb1 Se2 Yb1 99.084(4) 7_665 3
U1 Se2 Yb1 99.084(4) 7_665 3
U1 Se2 Yb1 118.891(5) 5_655 3
Yb1 Se2 Yb1 118.891(5) 5_655 3
U1 Se2 Yb1 0.000(6) 3 3
Se2 Se2 U1 62.774(3) 6_556 .
Se2 Se2 U1 117.226(3) 6 .
Yb1 Se2 U1 118.9 7_665 .
U1 Se2 U1 118.891(5) 7_665 .
U1 Se2 U1 99.084(4) 5_655 .
Yb1 Se2 U1 99.1 5_655 .
U1 Se2 U1 83.747(10) 3 .
Yb1 Se2 U1 83.7 3 .
loop_
_geom_bond_atom_site_label_1
_geom_bond_atom_site_label_2
_geom_bond_distance
_geom_bond_site_symmetry_2
U1 Se1 2.7867(4) .
U1 Se1 2.8018(4) 7
U1 Se1 2.91051(15) 3
U1 Se1 2.91051(15) 3_556
U1 Se2 2.9498(2) 5_655
U1 Se2 2.9498(2) 2_655
U1 Se2 3.0036(3) 6_556
U1 Se2 3.0036(3) .
U1 Yb1 4.0098(2) 3_556
U1 U1 4.0098(2) 3_556
U1 U1 4.0098(2) 3
U1 Yb1 4.0098(2) 3
Se1 Yb1 2.8018(4) 7_565
Se1 U1 2.8018(4) 7_565
Se1 Yb1 2.91052(16) 3_556
Se1 U1 2.91052(16) 3_556
Se1 U1 2.91052(15) 3
Se1 Yb1 2.91052(15) 3
Se2 Se2 2.74835(10) 6_556
Se2 Se2 2.74835(10) 6
Se2 Yb1 2.9498(2) 7_665
Se2 U1 2.9498(2) 7_665
Se2 U1 2.9498(2) 5_655
Se2 Yb1 2.9498(2) 5_655
Se2 U1 3.0036(3) 3
Se2 Yb1 3.0036(3) 3
