#------------------------------------------------------------------------------
#$Date: 2021-03-15 09:52:16 +0200 (Mon, 15 Mar 2021) $
#$Revision: 263032 $
#$URL: file:///home/coder/svn-repositories/cod/cif/1/56/10/1561011.cif $
#------------------------------------------------------------------------------
#
# This file is available in the Crystallography Open Database (COD),
# http://www.crystallography.net/
#
# All data on this site have been placed in the public domain by the
# contributors.
#
data_1561011
loop_
_publ_author_name
'Li, Qiang'
'Geng, Lei'
'Lu, Hong-Yan'
'Dai, Kai'
'Cheng, Wen-Dan'
_publ_section_title
;
 Crystal structures and characterizations of two new selenite chlorides:
 1D Ba2Zn(SeO3)2Cl2 and 2D BaZn2(SeO3)2Cl2
;
_journal_name_full               'Journal of Solid State Chemistry'
_journal_page_first              117
_journal_page_last               122
_journal_paper_doi               10.1016/j.jssc.2018.05.035
_journal_volume                  265
_journal_year                    2018
_chemical_formula_sum            'Ba Cl2 O6 Se2 Zn2'
_chemical_formula_weight         592.90
_space_group_crystal_system      trigonal
_space_group_IT_number           166
_space_group_name_Hall           '-R 3 2"'
_space_group_name_H-M_alt        'R -3 m :H'
_atom_sites_solution_hydrogens   .
_cell_angle_alpha                90
_cell_angle_beta                 90
_cell_angle_gamma                120
_cell_formula_units_Z            3
_cell_length_a                   5.5156(3)
_cell_length_b                   5.5156(3)
_cell_length_c                   24.584(3)
_cell_measurement_reflns_used    3298
_cell_measurement_temperature    298(2)
_cell_measurement_theta_max      54.908
_cell_measurement_theta_min      8.693
_cell_volume                     647.69(9)
_computing_structure_refinement  'SHELXL-2014/7 (Sheldrick, 2014)'
_diffrn_ambient_temperature      298(2)
_diffrn_measured_fraction_theta_full 0.994
_diffrn_measured_fraction_theta_max 0.995
_diffrn_measurement_device_type  'Bruker D8 QUEST'
_diffrn_radiation_type           MoK\a
_diffrn_radiation_wavelength     0.71073
_diffrn_reflns_av_R_equivalents  0.0200
_diffrn_reflns_av_unetI/netI     0.0067
_diffrn_reflns_Laue_measured_fraction_full 0.994
_diffrn_reflns_Laue_measured_fraction_max 0.995
_diffrn_reflns_limit_h_max       7
_diffrn_reflns_limit_h_min       -7
_diffrn_reflns_limit_k_max       7
_diffrn_reflns_limit_k_min       -7
_diffrn_reflns_limit_l_max       31
_diffrn_reflns_limit_l_min       -31
_diffrn_reflns_number            4041
_diffrn_reflns_point_group_measured_fraction_full 0.994
_diffrn_reflns_point_group_measured_fraction_max 0.995
_diffrn_reflns_theta_full        25.242
_diffrn_reflns_theta_max         27.453
_diffrn_reflns_theta_min         4.346
_exptl_absorpt_coefficient_mu    19.056
_exptl_absorpt_correction_type   multi-scan
_exptl_crystal_colour            colorless
_exptl_crystal_density_diffrn    4.560
_exptl_crystal_description       plate-like
_exptl_crystal_F_000             798
_exptl_crystal_size_max          0.200
_exptl_crystal_size_mid          0.200
_exptl_crystal_size_min          0.100
_exptl_transmission_factor_max   0.149
_exptl_transmission_factor_min   0.031
_refine_diff_density_max         0.277
_refine_diff_density_min         -0.245
_refine_diff_density_rms         0.089
_refine_ls_extinction_coef       0.00259(18)
_refine_ls_extinction_expression Fc^*^=kFc[1+0.001xFc^2^\l^3^/sin(2\q)]^-1/4^
_refine_ls_extinction_method     'SHELXL-2014/7 (Sheldrick 2014'
_refine_ls_goodness_of_fit_ref   1.098
_refine_ls_hydrogen_treatment    undef
_refine_ls_matrix_type           full
_refine_ls_number_parameters     19
_refine_ls_number_reflns         219
_refine_ls_number_restraints     0
_refine_ls_restrained_S_all      1.098
_refine_ls_R_factor_all          0.0120
_refine_ls_R_factor_gt           0.0114
_refine_ls_shift/su_max          0.000
_refine_ls_shift/su_mean         0.000
_refine_ls_structure_factor_coef Fsqd
_refine_ls_weighting_details
'w=1/[\s^2^(Fo^2^)+(0.0158P)^2^+2.6816P] where P=(Fo^2^+2Fc^2^)/3'
_refine_ls_weighting_scheme      calc
_refine_ls_wR_factor_gt          0.0286
_refine_ls_wR_factor_ref         0.0290
_reflns_Friedel_coverage         0.000
_reflns_Friedel_fraction_full    .
_reflns_Friedel_fraction_max     .
_reflns_number_gt                213
_reflns_number_total             219
_reflns_threshold_expression     'I > 2\s(I)'
_cod_data_source_file            JSSC-2018-265-117.cif
_cod_data_source_block           b
_cod_original_cell_volume        647.69(11)
_cod_original_sg_symbol_H-M      'R -3 m'
_cod_original_formula_sum        'Ba1 Cl2 O6 Se2 Zn2'
_cod_database_code               1561011
_shelx_space_group_comment
;
The symmetry employed for this shelxl refinement is uniquely defined
by the following loop, which should always be used as a source of
symmetry information in preference to the above space-group names.
They are only intended as comments.
;
_shelx_estimated_absorpt_t_min   0.115
_shelx_estimated_absorpt_t_max   0.252
_shelx_res_file
;

    a.res created by SHELXL-2014/7


TITL a in R-3m
CELL  0.71073    5.5156    5.5156   24.5840    90.000    90.000   120.000
ZERR        3    0.0003    0.0003    0.0030     0.000     0.000     0.000
LATT   3
SYMM             - Y ,          X - Y ,              Z
SYMM         - X + Y ,            - X ,              Z
SYMM               Y ,              X ,            - Z
SYMM             - X ,        - X + Y ,            - Z
SYMM           X - Y ,            - Y ,            - Z
SFAC Ba Cl  O Se Zn
UNIT     3    6  18   6   6
TEMP     25
size 0.2 0.2 0.1
L.S. 5
FMAP 2
PLAN -20
ACTA
BOND $H
CONF
WGHT    0.015800    2.681600
EXTI    0.002593
FVAR       0.07358
BA1   1    0.333333    0.666667    0.166667    10.08333    0.01978    0.01978 =
         0.01853    0.00000    0.00000    0.00989
ZN1   5    0.666667    0.333333    0.066460    10.16667    0.01260    0.01260 =
         0.01347    0.00000    0.00000    0.00630
SE1   4    0.000000    0.000000    0.074103    10.16667    0.01080    0.01080 =
         0.00847    0.00000    0.00000    0.00540
O1    3    0.311175    0.155588    0.107109    10.50000    0.00966    0.02387 =
         0.01354   -0.00038   -0.00077    0.00483
CL1   2    0.666667    0.333333   -0.025112    10.16667    0.02386    0.02386 =
         0.01485    0.00000    0.00000    0.01193

HKLF 4 1 -1.0000 -1.0000  0.0000  0.0000  1.0000  0.0000  0.0000  0.0000 -1.0000

REM  a in R-3m
REM R1 =  0.0114 for     213 Fo > 4sig(Fo)  and  0.0120 for all     219 data
REM     19 parameters refined using      0 restraints

END

WGHT      0.0128      1.1465

REM Highest difference peak  0.277,  deepest hole -0.245,  1-sigma level  0.089
Q1    1   0.1868  1.0934  0.0916  10.50000  0.05    0.28
Q2    1   0.6667  0.3333  0.0186  10.16667  0.05    0.27
Q3    1   0.7586  0.5172  0.0122  10.50000  0.05    0.27
Q4    1   0.5607  0.4393  0.0157  10.50000  0.05    0.22
Q5    1   0.1958  0.5979  0.0136  10.50000  0.05    0.22
Q6    1  -0.1384  1.1384  0.1303  10.50000  0.05    0.22
Q7    1   0.7843  0.2157  0.1000  10.50000  0.05    0.22
Q8    1   0.4820  0.9640  0.1531  10.50000  0.05    0.21
Q9    1   0.5649  0.8475  0.1395  11.00000  0.05    0.21
Q10   1   0.3333  0.6667  0.1207  10.16667  0.05    0.21
Q11   1   0.0000  1.0000  0.0222  10.16667  0.05    0.21
Q12   1   0.0718  1.1435  0.1222  10.50000  0.05    0.17
Q13   1   0.5417  0.4583  0.0935  10.50000  0.05    0.13
Q14   1   0.0693  1.1385  0.0416  10.50000  0.05    0.12
Q15   1  -0.1056  0.7888  0.0409  10.50000  0.05    0.12
Q16   1   0.2303  0.4606  0.0472  10.50000  0.05    0.11
Q17   1   0.8165  0.4852  0.1444  11.00000  0.05    0.10
Q18   1   0.0973  0.6667  0.1667  10.50000  0.05    0.09
Q19   1   0.5985  0.4015  0.1364  10.50000  0.05    0.09
Q20   1   0.1991  0.9754  0.1426  11.00000  0.05    0.08
;
_shelx_res_checksum              87121
_shelx_hkl_file
;
  -2   1   0  904.19   17.37
   1  -2   0  991.43   16.96
   1  -2   0  884.99   17.50
   1   1   0  938.77   17.16
   1   1   0  935.29   17.57
   1   1   0  871.01   17.47
  -2   1   0  893.49   17.62
  -2   1   0  898.53   17.28
  -1   2   0  883.07   18.03
   2  -1   0  857.76   17.26
   2  -1   0  961.05   17.58
  -1  -1   0  985.21   17.25
  -1  -1   0  921.71   17.81
  -1   2   0  950.10   16.94
  -1   2   0 1000.00   17.50
   2  -1   0  925.28   17.58
  -3   3   0  601.46   11.31
  -3   3   0  600.46   11.36
   0  -3   0  630.46   11.34
   0  -3   0  608.00   11.31
  -3   3   0  622.70   11.31
   3   0   0  589.75   11.30
   3   0   0  586.61   11.25
   3   0   0  655.19   11.49
   3  -3   0  592.42   11.29
   3  -3   0  642.25   11.50
   3  -3   0  616.83   11.34
   0   3   0  598.42   11.30
   0   3   0  630.14   11.38
  -3   0   0  633.95   11.30
  -3   0   0  591.58   11.29
  -3   0   0  609.47   11.44
   2  -4   0  733.42   13.04
   2   2   0  685.69   13.18
   2   2   0  724.86   13.19
  -4   2   0  699.59   13.17
   2   2   0  732.42   13.10
   2   2   0  715.89   13.23
  -4   2   0  718.80   13.08
   2  -4   0  688.40   13.18
  -4   2   0  700.68   13.39
   4  -2   0  708.25   13.19
  -2   4   0  735.40   12.91
  -2   4   0  703.87   13.18
  -2   4   0  704.56   13.16
  -2   4   0  692.88   13.18
  -2  -2   0  744.57   13.08
   4  -2   0  784.47   13.46
  -2  -2   0  718.81   13.25
   4  -2   0  679.65   13.32
   4  -5   0  303.17    6.60
   1   4   0  322.16    6.35
  -5   1   0  317.88    6.27
  -5   1   0  316.83    6.31
   4  -5   0  313.66    6.33
  -5   1   0  338.08    6.63
   1   4   0  326.04    6.46
  -4   5   0  315.86    6.20
   5  -1   0  324.08    6.40
   5  -1   0  349.78    6.63
   5  -1   0  315.03    6.20
  -4   5   0  325.91    6.37
  -4   5   0  322.50    6.23
  -1  -4   0  322.60    6.39
   4   1   0  341.25    6.49
   1  -5   0  321.02    6.40
   4   1   0  320.61    6.42
  -5   4   0  329.67    6.41
  -5   4   0  316.37    6.20
  -5   4   0  313.05    6.78
   4   1   0  318.68    6.41
  -4  -1   0  322.28    6.43
  -4  -1   0  327.75    6.44
   5  -4   0  320.76    6.38
   5  -4   0  321.38    6.22
  -1   5   0  328.83    6.41
   5  -4   0  342.88    6.55
  -1   5   0  325.65    6.48
   3   3   0  234.94    4.82
  -6   3   0  224.92    4.76
   3   3   0  227.64    4.79
   3   3   0  223.22    4.77
  -6   3   0  240.01    5.09
   3  -6   0  233.46    4.80
  -6   3   0  232.83    4.63
   6  -3   0  223.93    4.76
  -3  -3   0  237.67    4.49
  -3   6   0  226.56    4.69
  -3   6   0  226.60    4.78
   6  -3   0  216.00    4.73
  -3  -3   0  222.53    4.84
   6   0   0  185.54    4.13
  -6   6   0  192.60    4.09
   6   0   0  186.51    3.97
  -6   6   0  180.56    4.01
   6  -6   0  177.61    4.05
  -6   0   0  190.20    4.26
   6  -6   0  177.13    4.08
   0   6   0  181.03    4.25
  -1   0  -1    1.35    0.15
   0   1  -1    1.25    0.18
   0   1  -1    1.43    0.10
   1  -1  -1    1.29    0.14
   0   1  -1    1.20    0.16
   1  -1  -1    1.17    0.19
  -1   0  -1    2.01    0.33
  -1   0  -1    1.37    0.20
   1  -1  -1    1.41    0.18
  -1   1   1    1.61    0.27
  -1   1   1    1.16    0.18
   0  -1   1    1.11    0.17
   0  -1   1    1.31    0.17
   1   0   1    1.54    0.21
   1   0   1    1.66    0.16
  -1   1   1    1.34    0.13
   1   0   1    1.61    0.29
   3  -2  -1    1.49    0.34
   3  -2  -1    1.09    0.23
  -1   3  -1    1.11    0.21
   3  -2  -1    1.24    0.17
  -2  -1  -1    1.24    0.25
  -2  -1  -1    0.77    0.26
   2   1   1    0.99    0.20
  -3   2   1    0.92    0.33
  -3   2   1    1.89    0.31
   2   1   1    1.67    0.28
   1  -3   1    1.25    0.23
   2   1   1    1.21    0.24
  -3   2   1    1.12    0.18
   2   0  -1   87.17    1.76
   0  -2  -1   88.02    1.79
   2   0  -1   87.41    1.80
   0  -2  -1   88.51    1.81
   2   0  -1   83.56    1.90
  -2   2  -1   88.82    1.92
  -2   2  -1   88.74    1.78
  -2   2  -1   83.98    1.87
   2  -2   1   84.62    1.77
   0   2   1   90.39    1.84
   2  -2   1   84.80    1.81
  -2   0   1   87.48    1.77
   0   2   1   86.14    1.78
   2  -2   1   87.55    1.73
  -2   0   1   82.97    1.88
  -3  -2  -1    0.35    0.30
  -2   5  -1    0.22    0.28
   5  -3  -1    0.28    0.42
   5  -3  -1    0.26    0.20
  -3  -2  -1    0.30    0.34
  -2   5  -1    0.01    0.28
   5  -3  -1   -0.03    0.29
  -5   3   1    0.32    0.29
  -5   3   1    1.16    0.48
   3   2   1    0.17    0.33
   2  -5   1    0.74    0.30
   3   2   1   -0.45    0.44
   3   2   1    0.14    0.33
  -5   3   1    0.37    0.28
   2  -3  -1    1.16    0.19
   1   2  -1    1.23    0.26
  -3   1  -1    1.35    0.22
   1   2  -1    1.31    0.22
  -3   1  -1    1.04    0.35
   1   2  -1    1.04    0.20
   2  -3  -1    1.06    0.21
  -3   1  -1    1.11    0.20
  -2   3   1    1.09    0.22
   3  -1   1    1.20    0.22
   3  -1   1    1.07    0.32
  -2   3   1    1.09    0.18
  -1  -2   1    1.08    0.16
  -1  -2   1    1.29    0.23
  -2   3   1    1.19    0.24
   4  -1  -1    0.35    0.24
  -3   4  -1    0.25    0.21
   4  -1  -1    0.85    0.31
   4  -1  -1    0.46    0.43
  -3   4  -1    0.43    0.32
  -1  -3  -1    0.03    0.24
  -1  -3  -1    0.29    0.13
  -3   4  -1    0.19    0.26
   1   3   1    0.14    0.22
  -4   1   1    0.15    0.24
  -4   1   1    0.01    0.41
  -4   1   1    0.24    0.22
   1   3   1    0.33    0.31
   3  -4   1    0.77    0.23
   7  -4  -1    0.49    0.32
   7  -4  -1    0.22    0.46
  -3   7  -1    0.28    0.44
  -4  -3  -1    0.70    0.47
   4   3   1   -0.03    0.46
  -7   4   1    0.05    0.49
   4   3   1    0.42    0.45
   3  -7   1    0.01    0.46
  -7   4   1    0.59    0.59
   4  -4  -1   12.89    0.78
   0   4  -1   12.35    0.77
  -4   0  -1   12.93    0.64
   4  -4  -1   11.73    0.68
  -4   0  -1   12.55    0.72
  -4   0  -1   12.28    0.95
   0   4  -1   12.76    0.68
  -4   4   1   11.46    0.83
   4   0   1   12.95    0.87
   4   0   1   13.08    0.70
  -4   4   1   12.49    0.70
   4   0   1   12.79    0.70
  -4   3  -1    0.11    0.41
   3   1  -1    0.18    0.26
   3   1  -1    0.47    0.30
   3   1  -1    0.07    0.34
   1  -4  -1    0.11    0.22
  -4   3  -1    0.30    0.25
   4  -3   1    0.29    0.26
  -1   4   1    0.11    0.27
   4  -3   1    0.41    0.34
   4  -3   1   -0.04    0.19
  -3  -1   1   -0.08    0.31
  -3  -1   1    0.85    0.31
   6  -2  -1    4.49    0.65
  -2  -4  -1    3.33    0.28
   6  -2  -1    3.42    0.48
  -4   6  -1    3.63    0.62
  -4   6  -1    4.10    0.50
  -4   6  -1    3.77    0.58
  -6   2   1    4.28    0.65
  -6   2   1    2.53    0.43
   2   4   1    3.67    0.58
   2   4   1    4.43    0.68
   4  -6   1    4.01    0.59
  -6   2   1    3.92    0.54
   4  -6   1    3.76    0.44
   2   4   1    2.95    0.45
   6  -5  -1   -0.78    0.53
  -5  -1  -1    0.21    0.41
  -1   6  -1   -0.23    0.38
   6  -5  -1    0.22    0.33
   5   1   1    0.12    0.37
  -6   5   1    0.15    0.42
  -6   5   1    0.55    0.38
   5   1   1   -0.60    0.34
   5   1   1   -0.48    0.43
   2   3  -1    0.30    0.25
   2   3  -1    0.13    0.28
   3  -5  -1    0.31    0.26
  -5   2  -1    0.28    0.29
   3  -5  -1    0.15    0.16
  -5   2  -1    0.01    0.26
   2   3  -1    0.05    0.32
   2   3  -1    0.17    0.21
  -5   2  -1   -0.08    0.41
  -3   5   1    0.01    0.25
  -2  -3   1    0.28    0.19
  -3   5   1    0.33    0.30
   5  -2   1   -0.07    0.40
   5  -2   1    0.47    0.24
  -2  -3   1    0.03    0.30
  -3   5   1    0.79    0.27
  -3   5   1    0.40    0.19
  -5   5  -1    0.86    0.30
   5   0  -1    0.28    0.33
  -5   5  -1    0.71    0.37
   5   0  -1    0.26    0.41
   5   0  -1   -0.15    0.43
   5  -5   1    0.34    0.31
  -5   0   1   -0.27    0.38
   5  -5   1   -0.27    0.37
   0   5   1    0.71    0.39
  -5   0   1    0.80    0.32
   0   5   1    0.52    0.32
  -5   0   1    0.30    0.41
  -6   1  -1   -0.28    0.48
   5  -6  -1    0.02    0.33
  -6   1  -1   -0.48    0.48
   1   5  -1   -0.09    0.40
   5  -6  -1    0.23    0.41
  -5   6   1    0.38    0.35
  -5   6   1    0.76    0.38
   6  -1   1    0.31    0.32
  -5   6   1    0.68    0.31
   6  -1   1   -0.01    0.36
   4   2  -1    3.10    0.52
  -6   4  -1    3.90    0.66
  -6   4  -1    3.85    0.51
   4   2  -1    2.86    0.48
  -6   4  -1    3.78    0.54
   4   2  -1    4.04    0.68
   2  -6  -1    4.90    0.61
   6  -4   1    2.88    0.47
   6  -4   1    3.97    0.68
  -2   6   1    3.79    0.55
  -4  -2   1    3.41    0.69
  -4  -2   1    3.77    0.54
   6  -4   1    3.28    0.48
   4  -7  -1    0.81    0.49
  -7   3  -1   -0.12    0.68
   3   4  -1   -0.51    0.46
   3   4  -1   -0.31    0.42
  -7   3  -1    0.38    0.62
   7  -3   1    0.46    0.34
  -4   7   1   -0.29    0.43
   7  -3   1    0.28    0.44
  -1   1  -2   16.64    0.42
  -1   1  -2   15.34    0.41
   1   0  -2   16.39    0.51
   1   0  -2   17.03    0.41
   1   0  -2   16.52    0.45
   0  -1  -2   16.91    0.34
   0  -1  -2   16.29    0.45
  -1   1  -2   15.76    0.46
   0  -1  -2   16.29    0.42
   0   1   2   16.77    0.46
   0   1   2   15.73    0.41
   1  -1   2   15.63    0.41
   1  -1   2   16.46    0.45
   0   1   2   17.37    0.33
  -1   0   2   16.43    0.42
   1  -1   2   16.67    0.42
  -1   0   2   15.86    0.51
   0   2  -2   90.93    1.69
   2  -2  -2   89.32    1.85
  -2   0  -2   91.51    1.99
   2  -2  -2   90.73    1.93
  -2   0  -2   93.95    1.86
  -2   0  -2   93.09    1.94
   0   2  -2   90.41    1.87
   0   2  -2   90.69    1.89
   2   0   2   86.65    1.93
   2   0   2   89.07    1.85
  -2   2   2   91.52    1.77
   0  -2   2   91.46    1.87
   2   0   2   92.39    1.85
  -2   2   2   91.96    1.87
   0  -2   2   89.56    1.87
  -2   2   2   89.11    1.90
  -2   3  -2    4.89    0.46
   3  -1  -2    5.30    0.32
  -1  -2  -2    5.22    0.41
  -2   3  -2    5.35    0.35
  -2   3  -2    5.40    0.38
  -1  -2  -2    5.36    0.36
   3  -1  -2    5.67    0.62
  -3   1   2    4.66    0.59
   2  -3   2    5.86    0.31
   2  -3   2    5.52    0.37
   1   2   2    5.28    0.27
  -3   1   2    5.23    0.35
  -3   1   2    5.59    0.39
   1   2   2    5.88    0.46
   1   2   2    5.12    0.35
  -3  -1  -2    7.97    0.73
  -3  -1  -2    9.63    0.65
  -1   4  -2    8.64    0.60
   4  -3  -2    8.78    0.59
   4  -3  -2    8.14    0.44
   4  -3  -2    9.15    0.83
  -1   4  -2    9.47    0.56
   3   1   2   10.20    0.67
  -4   3   2    8.53    0.80
   3   1   2    8.35    0.55
   3   1   2    8.51    0.65
  -4   3   2    8.83    0.47
  -4   3   2    9.72    0.60
   1  -4   2    8.82    0.56
   2   1  -2    5.60    0.39
  -3   2  -2    5.19    0.34
   1  -3  -2    5.41    0.37
  -3   2  -2    4.94    0.64
   2   1  -2    5.84    0.53
   2   1  -2    5.45    0.41
  -3   2  -2    5.58    0.38
   3  -2   2    5.19    0.33
   3  -2   2    5.64    0.52
   3  -2   2    5.24    0.38
  -2  -1   2    5.15    0.45
  -1   3   2    5.41    0.38
  -2  -1   2    5.01    0.39
  -1   3   2    5.62    0.40
  -2  -3  -2    9.34    0.69
  -3   5  -2    9.93    0.66
  -3   5  -2    9.07    0.60
   5  -2  -2    8.56    0.93
   5  -2  -2   10.42    0.69
  -3   5  -2    9.70    0.54
  -2  -3  -2    9.27    0.49
   5  -2  -2    9.91    0.51
  -5   2   2   10.11    0.63
   2   3   2    9.54    0.43
   2   3   2   10.05    0.95
  -5   2   2    8.70    0.89
   2   3   2    8.10    0.94
   3  -5   2   10.02    0.40
  -5   2   2    9.45    0.61
   2   3   2    9.72    0.64
   3  -5   2   10.04    0.64
  -4  -2  -2   10.45    0.97
   6  -4  -2   10.66    1.12
  -2   6  -2   12.19    0.87
   6  -4  -2   11.97    0.82
   6  -4  -2   12.09    0.62
   4   2   2   12.11    0.79
  -6   4   2   11.65    1.02
   2  -6   2   11.91    0.78
   4   2   2   13.64    0.91
  -6   4   2   12.34    0.81
   4   2   2   12.38    0.80
   1   3  -2    9.31    0.65
   1   3  -2    9.00    0.42
  -4   1  -2    8.63    0.88
   3  -4  -2    9.40    0.56
   3  -4  -2    9.25    0.57
   1   3  -2    8.50    0.56
  -4   1  -2    9.07    0.52
   4  -1   2    8.83    0.54
  -1  -3   2    8.13    0.57
  -3   4   2    7.62    0.56
   4  -1   2    9.59    0.80
  -1  -3   2    8.32    0.32
  -3   4   2    8.63    0.59
   4  -1   2    8.94    0.58
  -3   4   2    7.97    0.50
  -3   4   2    8.89    0.46
   4   0  -2   27.54    0.93
  -4   4  -2   27.09    0.87
   0  -4  -2   27.40    0.98
  -4   4  -2   26.36    1.12
   4   0  -2   27.97    1.21
   4   0  -2   28.11    1.01
  -4   4  -2   29.03    0.98
   4  -4   2   27.18    0.95
  -4   0   2   28.72    0.99
  -4   0   2   27.04    0.93
  -4   0   2   26.10    1.14
   0   4   2   26.35    0.95
   4  -4   2   27.03    0.99
   0   4   2   27.87    1.07
   7  -3  -2    1.34    0.52
  -4   7  -2    1.30    0.47
   4  -7   2    1.51    0.52
  -7   3   2    1.95    0.65
   3   4   2    0.49    0.53
  -7   3   2    0.07    0.55
   3   4   2    1.07    0.47
   5  -5  -2    3.16    0.55
   0   5  -2    3.14    0.53
   0   5  -2    2.68    0.44
  -5   0  -2    3.21    0.59
  -5   0  -2    2.94    0.52
  -5   0  -2    3.90    0.51
   5  -5  -2    2.35    0.49
  -5   5   2    2.60    0.45
   5   0   2    3.83    0.58
   5   0   2    2.48    0.53
   5   0   2    3.39    0.56
  -5   3  -2    9.95    0.65
  -5   3  -2    9.67    0.37
  -5   3  -2   11.03    0.96
   3   2  -2    8.35    1.09
   3   2  -2    9.61    0.85
   3   2  -2   10.90    0.67
   2  -5  -2    9.74    0.70
  -5   3  -2    9.84    0.64
  -2   5   2    8.41    0.87
   5  -3   2    9.03    0.53
   5  -3   2    8.28    1.01
  -3  -2   2    9.91    0.75
  -2   5   2   11.04    0.68
  -3  -2   2    9.87    0.63
   5  -3   2   10.08    0.86
   6  -1  -2    2.66    0.50
   6  -1  -2    2.86    0.50
  -5   6  -2    2.94    0.51
  -5   6  -2    4.03    0.65
  -6   1   2    2.01    0.58
   1   5   2    3.08    0.58
   5  -6   2    1.64    0.43
  -6   1   2    1.79    0.53
   4  -6  -2   11.51    0.58
   2   4  -2   12.76    0.47
  -6   2  -2   10.77    0.74
  -6   2  -2   11.69    0.85
   2   4  -2   12.52    0.79
   2   4  -2   11.76    0.91
   4  -6  -2   12.03    0.77
  -6   2  -2   12.48    1.11
  -4   6   2   13.45    0.57
  -4   6   2   12.40    0.76
  -4   6   2   11.30    0.75
   6  -2   2   11.13    0.80
   6  -2   2   12.94    0.69
  -6   5  -2    2.68    0.57
   5   1  -2    1.63    0.53
   5   1  -2    2.37    0.50
   5   1  -2    3.15    0.49
  -6   5  -2    3.26    0.51
  -5  -1   2    2.62    0.50
  -5  -1   2    2.54    0.63
  -1   6   2    2.62    0.53
   6  -5   2    1.15    0.58
   6  -5   2    2.59    0.46
   3  -7  -2    1.91    0.52
   4   3  -2    0.87    0.51
  -7   4  -2    1.82    0.67
   4   3  -2    1.70    0.55
   7  -4   2    1.47    0.38
  -3   7   2    0.79    0.51
   7  -4   2    1.46    0.48
  -4  -3   2    2.05    0.59
  -1   2  -3    3.91    0.27
  -1   2  -3    3.45    0.23
  -1  -1  -3    2.84    0.31
   2  -1  -3    2.48    0.40
  -1   2  -3    3.22    0.26
   2  -1  -3    2.82    0.18
   2  -1  -3    3.54    0.27
  -2   1   3    2.91    0.21
   1   1   3    3.03    0.23
  -2   1   3    2.74    0.38
   1  -2   3    3.20    0.25
  -2   1   3    3.28    0.26
   1   1   3    3.40    0.32
   1  -2   3    3.16    0.17
  -2   1  -3    3.04    0.41
   1   1  -3    2.74    0.30
   1   1  -3    3.06    0.28
   1  -2  -3    3.35    0.25
   1   1  -3    3.03    0.26
  -1   2   3    3.81    0.19
  -1   2   3    3.08    0.25
   2  -1   3    2.87    0.24
   2  -1   3    2.97    0.25
   2  -1   3    3.05    0.35
  -1  -1   3    2.52    0.26
  -1  -1   3    3.28    0.26
  -1   2   3    3.00    0.30
  -2  -2  -3    2.29    0.38
   4  -2  -3    2.11    0.49
   4  -2  -3    1.69    0.32
  -2  -2  -3    2.12    0.35
  -2   4  -3    2.40    0.43
  -2   4  -3    2.69    0.40
  -2   4  -3    1.86    0.29
  -2   4  -3    1.71    0.29
   4  -2  -3    2.07    0.28
  -4   2   3    1.27    0.43
   2  -4   3    2.03    0.20
  -4   2   3    2.47    0.42
   2   2   3    1.83    0.37
   2   2   3    1.33    0.49
   2   2   3    2.72    0.39
   2   2   3    1.71    0.25
   2  -4   3    1.70    0.30
  -3   0  -3    4.18    0.44
   0   3  -3    3.62    0.42
   0   3  -3    4.18    0.40
  -3   0  -3    4.08    0.68
  -3   0  -3    4.31    0.35
   3  -3  -3    3.43    0.43
   3   0   3    3.59    0.44
  -3   3   3    3.00    0.38
   3   0   3    3.95    0.39
  -3   3   3    3.67    0.41
   3   0   3    3.99    0.52
  -3   3   3    4.44    0.29
   0  -3  -3    0.82    0.24
  -3   3  -3    0.58    0.19
   0  -3  -3    0.26    0.20
  -3   3  -3    0.56    0.34
  -3   3  -3    0.57    0.23
   3   0  -3    0.52    0.23
   3   0  -3    0.15    0.21
   3   0  -3   -0.06    0.32
  -3   0   3    0.49    0.21
   3  -3   3    0.26    0.18
   0   3   3    0.09    0.19
  -3   0   3   -0.33    0.28
   3  -3   3    0.23    0.20
   0   3   3    0.46    0.25
   3  -3   3    0.33    0.22
  -3   6  -3    0.53    0.33
  -3  -3  -3    0.56    0.30
   6  -3  -3    0.52    0.38
   6  -3  -3    0.56    0.24
  -3   6  -3    0.07    0.31
   3   3   3    0.72    0.41
  -6   3   3    0.15    0.44
   3  -6   3   -0.22    0.32
   3   3   3    0.05    0.30
  -6   3   3    0.47    0.38
   3   3   3    0.79    0.41
  -6   3   3   -0.24    0.45
  -4  -1  -3   -0.03    0.36
   5  -4  -3   -0.61    0.44
  -1   5  -3    0.31    0.30
   5  -4  -3   -0.18    0.28
  -4  -1  -3   -0.24    0.37
  -1   5  -3    0.57    0.33
   1  -5   3    0.02    0.28
  -5   4   3    0.01    0.39
   4   1   3    0.55    0.31
   4   1   3    0.38    0.32
  -5   4   3    0.34    0.26
   4   1   3    0.03    0.32
  -5   4   3    0.13    0.32
   2  -4  -3    1.53    0.20
   2  -4  -3    2.26    0.33
   2   2  -3    2.01    0.36
  -4   2  -3    2.50    0.34
  -4   2  -3    2.02    0.52
   2   2  -3    2.05    0.32
   2   2  -3    2.00    0.37
  -2  -2   3    2.13    0.33
   4  -2   3    1.54    0.26
  -2   4   3    1.32    0.22
  -2   4   3    2.05    0.33
   4  -2   3    2.11    0.41
  -2  -2   3    1.64    0.28
   4  -2   3    2.04    0.33
  -2   4   3    2.02    0.32
   5  -1  -3    1.27    0.38
  -4   5  -3    1.75    0.34
  -4   5  -3    1.14    0.38
   5  -1  -3    1.02    0.27
  -1  -4  -3    1.26    0.34
  -4   5  -3    0.55    0.33
   5  -1  -3    0.69    0.48
  -5   1   3    0.01    0.43
   1   4   3    0.68    0.39
   4  -5   3    0.44    0.26
  -5   1   3    1.07    0.24
   1   4   3    1.22    0.37
  -5   1   3    1.17    0.35
   4  -5   3    0.71    0.30
  -5   1   3    1.66    0.36
   4  -5  -3    0.17    0.27
   4  -5  -3   -0.35    0.48
  -5   1  -3    0.03    0.25
   1   4  -3    0.69    0.36
  -5   1  -3    0.55    0.35
  -5   1  -3   -0.28    0.43
   1   4  -3    0.89    0.36
  -4   5   3   -0.13    0.27
  -4   5   3    0.37    0.32
  -1  -4   3    0.28    0.29
  -4   5   3    0.25    0.24
   5  -1   3   -0.23    0.37
   5  -1   3    0.21    0.31
  -4   5   3    0.81    0.27
   4   1  -3    0.58    0.44
  -5   4  -3    0.88    0.33
   1  -5  -3    0.92    0.30
  -5   4  -3    1.12    0.33
   4   1  -3    0.78    0.32
  -5   4  -3    0.85    0.45
   4   1  -3    0.94    0.34
  -1   5   3    1.11    0.33
  -4  -1   3    0.61    0.39
   5  -4   3    1.36    0.29
   5  -4   3    1.43    0.35
  -4  -1   3    0.67    0.35
  -1   5   3    0.55    0.37
   5  -4   3    0.97    0.40
  -6   0  -3    0.16    0.53
   0   6  -3    0.29    0.51
   6  -6  -3   -0.94    0.56
   6  -6  -3    0.33    0.41
  -6   6   3    0.29    0.44
   6   0   3    0.45    0.43
   6   0   3    0.95    0.41
  -6   6   3    1.39    0.41
  -6   3  -3   -0.16    0.34
   3   3  -3   -0.14    0.30
  -6   3  -3    0.65    0.53
  -6   3  -3    0.29    0.41
  -6   3  -3    0.48    0.19
   3   3  -3    0.20    0.38
   3   3  -3    1.26    0.41
   3  -6  -3    0.28    0.32
   3   3  -3    0.03    0.43
  -3   6   3    0.09    0.35
   6  -3   3    0.65    0.29
   6  -3   3    0.46    0.36
  -3  -3   3    0.01    0.41
  -3  -3   3    0.21    0.27
  -3   6   3    0.14    0.34
   6   0  -3    0.04    0.46
  -6   6  -3    0.45    0.48
   6   0  -3    0.42    0.38
   6  -6   3    1.20    0.42
   6  -6   3   -0.42    0.60
  -6   0   3    0.38    0.52
   0   6   3    0.46    0.52
   1  -1  -4  105.53    2.01
  -1   0  -4  108.96    2.04
   0   1  -4  100.62    2.01
  -1   0  -4  105.72    2.04
  -1   0  -4  102.07    1.95
   0   1  -4  103.10    1.92
   1  -1  -4  106.31    2.02
   1   0   4  104.70    1.95
   1   0   4  106.42    2.03
  -1   1   4  104.81    2.01
  -1   1   4  104.26    2.01
   3  -2  -4  101.60    2.13
  -1   3  -4  101.17    2.12
   3  -2  -4  100.32    1.95
  -2  -1  -4   99.65    2.16
  -2  -1  -4  100.18    2.18
  -1   3  -4  101.73    1.93
   3  -2  -4  102.45    2.28
  -1   3  -4  100.34    2.12
   1  -3   4  101.23    2.13
   2   1   4  100.47    2.16
  -3   2   4   99.47    1.96
   2   1   4   96.31    2.09
  -3   2   4  102.91    2.14
  -3   2   4   95.90    2.22
   2   1   4  100.78    2.08
   2   0  -4  115.04    2.33
  -2   2  -4  115.65    2.27
  -2   2  -4  116.87    2.27
   0  -2  -4  115.11    2.28
   2   0  -4  115.13    2.23
   0  -2  -4  115.47    2.13
   2   0  -4  113.48    2.38
   0  -2  -4  116.23    2.33
  -2   2  -4  111.18    2.33
   2  -2   4  110.42    2.27
   0   2   4  114.36    2.27
   2  -2   4  116.89    2.30
  -2   0   4  114.92    2.26
  -2   0   4  117.33    2.38
   0   2   4  115.65    2.35
   2  -2   4  115.37    2.27
  -3  -2  -4   25.31    1.04
  -3  -2  -4   26.39    0.99
   5  -3  -4   25.77    0.99
  -2   5  -4   24.58    0.96
   5  -3  -4   26.99    0.77
   5  -3  -4   25.57    1.27
  -2   5  -4   26.27    0.99
  -2   5  -4   26.07    0.97
   3   2   4   25.07    0.93
   3   2   4   25.23    1.05
   2  -5   4   26.26    0.97
   3   2   4   26.01    0.94
  -5   3   4   26.01    1.00
  -5   3   4   25.33    1.17
  -5   3   4   25.79    0.83
  -3   1  -4  104.35    2.14
   2  -3  -4  100.67    2.13
   1   2  -4  103.13    2.18
  -3   1  -4   99.35    2.32
   1   2  -4   99.10    2.05
   1   2  -4  102.92    2.16
  -3   1  -4  101.83    2.10
   2  -3  -4  101.71    2.10
  -2   3   4   99.51    2.08
  -1  -2   4  102.58    1.98
  -1  -2   4  100.43    2.16
  -2   3   4  102.49    2.04
   3  -1   4   99.74    2.26
  -2   3   4  103.27    2.03
  -2   3   4  103.63    2.15
   3  -1   4  101.92    2.11
   3  -1   4  101.56    2.10
  -1  -3  -4   48.59    1.07
  -1  -3  -4   50.88    1.38
  -3   4  -4   49.22    1.26
  -3   4  -4   47.55    1.30
   4  -1  -4   47.94    1.35
   4  -1  -4   51.53    1.61
  -3   4  -4   48.39    1.38
   4  -1  -4   49.09    1.18
   3  -4   4   48.88    1.17
   1   3   4   50.28    1.43
   1   3   4   48.52    0.99
  -4   1   4   48.57    1.32
  -4   1   4   50.25    1.24
   1   3   4   49.87    1.30
  -4   1   4   48.51    1.13
   3  -4   4   48.17    1.30
  -4   1   4   46.54    1.52
   7  -4  -4   17.33    0.77
  -3   7  -4   15.44    1.12
  -4  -3  -4   17.61    0.94
   7  -4  -4   17.14    1.12
   4   3   4   15.14    1.18
   4   3   4   16.74    1.01
   3  -7   4   17.41    1.26
  -7   4   4   18.32    1.35
   0   4  -4   43.06    1.41
   4  -4  -4   43.38    1.34
  -4   0  -4   47.41    1.37
  -4   0  -4   47.87    1.26
   0   4  -4   46.22    1.32
   4  -4  -4   48.34    1.46
  -4   0  -4   45.86    1.55
   4   0   4   46.24    1.29
   4   0   4   46.62    1.33
   4   0   4   45.61    1.44
  -4   4   4   44.90    1.12
  -4   4   4   47.68    1.36
  -4   4   4   45.44    1.37
  -4   3  -4   48.16    1.24
   3   1  -4   49.13    1.35
   3   1  -4   46.14    1.55
  -4   3  -4   48.84    1.57
  -4   3  -4   48.67    1.28
   3   1  -4   50.40    1.29
   1  -4  -4   48.55    1.30
   4  -3   4   47.50    1.41
  -1   4   4   48.38    1.37
  -1   4   4   48.44    1.31
   4  -3   4   47.19    1.27
  -3  -1   4   48.22    1.35
   4  -3   4   48.27    1.23
  -3  -1   4   48.26    1.36
   6  -2  -4   21.58    1.05
  -4   6  -4   22.69    1.01
  -2  -4  -4   22.51    0.60
   6  -2  -4   22.34    0.80
  -4   6  -4   22.83    0.88
  -4   6  -4   21.77    0.97
  -6   2   4   22.14    1.23
   4  -6   4   21.68    0.81
   2   4   4   22.64    1.15
  -6   2   4   21.67    0.99
   2   4   4   21.85    1.06
   2   4   4   21.45    0.97
   4  -6   4   22.43    1.01
  -1   6  -4   19.36    1.08
   6  -5  -4   18.75    1.36
   6  -5  -4   20.91    1.01
  -5  -1  -4   20.22    1.14
   5   1   4   21.08    1.04
  -6   5   4   22.21    1.13
  -6   5   4   20.03    0.90
   5   1   4   18.59    0.97
   5   1   4   19.79    1.04
   2   3  -4   26.03    0.99
   3  -5  -4   24.55    0.97
  -5   2  -4   26.85    0.98
   2   3  -4   29.75    1.02
   2   3  -4   25.79    1.03
  -5   2  -4   26.76    0.93
   3  -5  -4   25.79    0.75
  -5   2  -4   24.83    1.25
   2   3  -4   26.18    0.88
  -3   5   4   26.84    0.71
  -2  -3   4   28.81    1.04
  -2  -3   4   25.75    0.74
   5  -2   4   26.05    0.96
  -3   5   4   25.08    0.95
  -3   5   4   26.43    0.88
   5  -2   4   25.47    1.15
  -3   5   4   25.91    1.00
   5  -2   4   26.19    0.90
  -5   5  -4   33.64    1.31
   5   0  -4   32.40    1.22
   0  -5  -4   32.42    1.18
  -5   5  -4   32.83    1.11
   5   0  -4   33.67    1.44
  -5   5  -4   33.15    1.20
  -5   0   4   33.62    0.99
   5  -5   4   32.31    1.19
   5  -5   4   32.88    1.16
  -5   0   4   32.84    1.30
   0   5   4   35.64    1.34
  -5   0   4   31.46    1.16
   0   5   4   32.30    1.19
  -5   0   4   33.15    1.22
   1   5  -4   18.89    1.09
   1   5  -4   20.49    0.99
   5  -6  -4   21.12    1.01
  -6   1  -4   18.49    1.26
  -6   1  -4   21.96    1.02
   5  -6  -4   18.79    1.08
   6  -1   4   20.68    0.92
  -5   6   4   21.53    0.94
   6  -1   4   18.45    1.00
  -5   6   4   20.01    0.90
  -5   6   4   21.13    0.89
   4   2  -4   21.40    1.05
  -6   4  -4   19.20    0.96
   2  -6  -4   23.12    1.00
   4   2  -4   22.35    1.03
  -6   4  -4   24.76    1.32
  -6   4  -4   23.21    1.03
   4   2  -4   21.48    1.04
  -2   6   4   20.25    1.08
  -4  -2   4   22.21    1.16
   6  -4   4   22.19    0.99
  -4  -2   4   23.17    0.94
   6  -4   4   22.39    0.88
   4  -7  -4   16.67    1.12
   3   4  -4   14.94    1.14
  -7   3  -4   17.78    1.71
   3   4  -4   15.96    1.08
  -7   3  -4   17.97    0.72
   7  -3   4   18.13    1.05
   7  -3   4   19.08    0.90
  -4   7   4   15.37    1.08
   0  -1  -5  554.51    9.79
  -1   1  -5  521.84    9.88
   1   0  -5  525.30    9.89
   0  -1  -5  529.05    9.88
   1   0  -5  530.92    9.74
  -1   1  -5  538.84    9.91
   0  -1  -5  518.20    9.94
   1   0  -5  518.58   10.10
   0   1   5  529.34    9.91
  -1   0   5  519.60    9.72
   0   1   5  521.65    9.88
  -1   0   5  526.37   10.02
  -1   0   5  505.29   10.00
   1  -1   5  534.52    9.90
   1  -1   5  521.33    9.89
   1  -1   5  536.13    9.97
   0   2  -5  282.17    5.37
   2  -2  -5  285.92    5.36
   0   2  -5  282.21    5.22
  -2   0  -5  291.73    5.42
  -2   0  -5  285.62    5.30
  -2   0  -5  289.22    5.44
   0   2  -5  289.96    5.22
   0   2  -5  281.88    5.37
   2  -2  -5  288.45    5.40
  -2   2   5  287.01    5.37
   2   0   5  282.14    5.38
   2   0   5  291.19    5.42
  -2   2   5  285.73    5.27
  -2   2   5  287.97    5.37
   2   0   5  286.87    5.31
  -2   3  -5  266.63    5.07
   3  -1  -5  279.23    5.27
  -2   3  -5  265.75    5.04
   3  -1  -5  268.79    4.93
   3  -1  -5  264.35    5.13
  -1  -2  -5  270.96    4.99
  -1  -2  -5  271.66    5.16
  -2   3  -5  261.68    5.06
   1   2   5  266.67    5.16
   1   2   5  263.44    4.91
  -3   1   5  265.80    4.96
   2  -3   5  263.19    5.08
   1   2   5  266.71    5.05
   2  -3   5  261.88    4.96
  -3   1   5  266.92    5.23
  -1   4  -5  210.34    4.24
   4  -3  -5  213.73    4.03
  -1   4  -5  211.98    3.91
   4  -3  -5  212.06    4.26
  -3  -1  -5  213.12    4.33
  -3  -1  -5  215.31    4.31
  -1   4  -5  209.79    4.26
   4  -3  -5  217.00    4.45
   3   1   5  208.32    4.23
  -4   3   5  214.09    4.27
   3   1   5  207.36    4.18
  -4   3   5  207.11    4.01
  -4   3   5  210.42    4.36
   3   1   5  211.91    4.30
   1  -4   5  212.32    4.26
   2   1  -5  268.13    5.15
   1  -3  -5  260.76    5.08
  -3   2  -5  260.22    5.08
  -3   2  -5  271.30    5.08
   1  -3  -5  267.52    5.11
   2   1  -5  267.18    5.10
   1  -3  -5  271.17    4.92
  -3   2  -5  272.81    5.28
   2   1  -5  263.80    5.17
   3  -2   5  268.57    5.08
   3  -2   5  266.97    5.08
  -1   3   5  271.45    5.16
  -2  -1   5  272.43    5.12
  -2  -1   5  273.97    5.14
   3  -2   5  277.74    5.23
  -1   3   5  267.60    5.11
   5  -2  -5  171.14    3.80
  -2  -3  -5  165.74    3.58
  -3   5  -5  164.59    3.49
   5  -2  -5  164.46    3.24
  -3   5  -5  160.91    3.47
  -2  -3  -5  166.04    3.27
   5  -2  -5  161.56    3.53
  -3   5  -5  161.99    3.44
  -3   5  -5  171.96    3.51
   3  -5   5  162.73    3.50
  -5   2   5  165.71    3.31
  -5   2   5  167.29    3.53
   2   3   5  163.20    3.58
  -5   2   5  158.68    3.69
   2   3   5  162.46    3.45
   3  -5   5  159.65    3.17
   2   3   5  162.31    3.16
   2   3   5  163.31    3.45
  -4  -2  -5   74.20    2.01
  -2   6  -5   74.90    2.08
   6  -4  -5   73.48    2.03
   4   2   5   72.61    1.97
   4   2   5   73.90    1.99
  -6   4   5   74.13    2.19
   4   2   5   75.92    2.11
   2  -6   5   75.69    2.04
   4   2   5   78.49    1.90
  -6   4   5   77.42    1.83
  -4   1  -5  214.26    4.50
   3  -4  -5  213.98    4.22
   1   3  -5  211.88    4.26
   3  -4  -5  210.72    4.25
   1   3  -5  214.27    4.31
  -4   1  -5  205.33    4.39
  -4   1  -5  216.33    4.25
   1   3  -5  215.79    4.28
  -1  -3   5  211.41    4.29
   4  -1   5  208.19    4.40
  -3   4   5  211.10    4.08
  -3   4   5  217.74    4.28
  -3   4   5  209.56    4.16
   4  -1   5  211.43    4.21
   4  -1   5  210.08    4.20
  -3   4   5  216.78    4.12
  -4   4  -5  143.96    3.03
   4   0  -5  146.78    3.01
   0  -4  -5  148.31    3.14
   4   0  -5  134.49    3.39
  -4   4  -5  149.60    3.27
  -4   4  -5  148.09    3.10
   4   0  -5  146.02    3.33
   4  -4   5  148.82    3.11
  -4   0   5  148.95    3.09
   4  -4   5  151.56    3.10
  -4   0   5  144.02    2.92
  -4   0   5  144.17    3.24
   4  -4   5  147.49    3.06
   0   4   5  147.32    3.10
   0   4   5  148.44    3.25
  -4   0   5  141.98    3.12
   7  -3  -5   45.48    1.26
   7  -3  -5   44.31    1.80
  -4   7  -5   43.19    1.61
   4  -7   5   47.96    1.80
   3   4   5   47.05    1.59
   0   5  -5   79.09    2.13
   5  -5  -5   88.90    2.27
  -5   0  -5   84.57    2.33
   5  -5  -5   83.38    2.14
  -5   0  -5   82.92    2.19
   0   5  -5   84.39    2.23
  -5   5   5   79.62    2.15
  -5   5   5   84.87    1.96
  -5   5   5   82.33    1.90
   5   0   5   83.01    2.10
  -5   5   5   88.23    2.19
   5   0   5   87.31    2.27
   5   0   5   84.70    2.11
   3   2  -5  164.80    3.56
   3   2  -5  166.58    3.48
  -5   3  -5  167.04    3.77
  -5   3  -5  164.85    3.45
  -5   3  -5  157.11    3.43
   2  -5  -5  165.15    3.49
   3   2  -5  169.17    3.53
   5  -3   5  162.70    3.45
  -2   5   5  161.65    3.50
   5  -3   5  167.92    3.68
  -3  -2   5  169.07    3.55
   5  -3   5  159.53    3.40
  -2   5   5  163.14    3.54
  -3  -2   5  164.16    3.37
   6  -1  -5   74.27    1.91
   6  -1  -5   66.48    1.99
  -5   6  -5   69.37    1.94
   1   5   5   69.49    2.10
   5  -6   5   67.83    1.94
  -6   1   5   68.54    2.13
  -6   1   5   70.53    1.95
   5  -6   5   69.54    1.80
  -6   2  -5   75.11    1.94
   2   4  -5   74.66    1.63
   2   4  -5   73.80    2.05
  -6   2  -5   76.93    2.30
   4  -6  -5   73.23    1.71
   4  -6  -5   74.69    2.01
  -6   2  -5   73.70    2.02
   2   4  -5   75.50    2.09
  -4   6   5   74.87    1.98
  -4   6   5   76.97    1.64
  -4   6   5   73.36    1.84
   6  -2   5   74.51    1.97
   6  -2   5   74.12    1.90
  -6   5  -5   68.68    2.12
   5   1  -5   67.44    1.83
   1  -6  -5   66.64    1.91
  -6   5  -5   70.21    2.09
   5   1  -5   68.79    2.02
   5   1  -5   68.58    2.07
  -5  -1   5   67.81    2.05
  -5  -1   5   69.21    1.96
   6  -5   5   70.92    1.83
   6  -5   5   69.16    1.92
  -1   6   5   65.32    2.05
   4   3  -5   46.25    1.84
   4   3  -5   43.28    1.61
   3  -7  -5   46.56    1.66
  -7   4  -5   45.69    1.99
  -3   7   5   44.59    1.70
   7  -4   5   45.72    1.43
   7  -4   5   44.22    1.56
  -4  -3   5   45.36    1.35
   0   0  -6  157.07    2.88
   0   0  -6  151.39    2.87
   0   0  -6  158.50    2.92
   0   0   6  157.21    2.88
   0   0   6  157.88    2.88
   2  -1  -6   28.92    0.77
  -1  -1  -6   29.31    0.80
  -1   2  -6   30.97    0.70
   2  -1  -6   29.37    0.83
  -1  -1  -6   29.41    0.72
  -1   2  -6   28.77    0.73
   2  -1  -6   28.66    0.60
   1   1   6   29.32    0.80
   1   1   6   28.99    0.68
   1  -2   6   29.94    0.75
  -2   1   6   29.53    0.61
  -2   1   6   28.32    0.82
   1   1   6   29.95    0.70
  -2   1   6   29.87    0.77
   1  -2   6   29.80    0.67
   1   1  -6   30.89    0.78
   1   1  -6   29.16    0.75
  -2   1  -6   29.90    0.69
   1   1  -6   29.65    0.75
   1  -2  -6   29.72    0.69
   1  -2  -6   29.62    0.70
  -2   1  -6   27.54    0.80
   1  -2  -6   29.75    0.73
  -2   1  -6   29.37    0.76
   2  -1   6   29.24    0.80
  -1   2   6   30.28    0.75
  -1  -1   6   29.58    0.72
  -1   2   6   29.90    0.75
  -1   2   6   29.57    0.66
   2  -1   6   29.10    0.75
  -1  -1   6   29.41    0.74
   2  -1   6   29.86    0.70
  -2   4  -6   56.22    1.45
   4  -2  -6   56.49    1.49
  -2  -2  -6   60.63    1.56
   4  -2  -6   58.91    1.72
  -2   4  -6   59.04    1.46
  -2  -2  -6   57.72    1.47
  -2   4  -6   57.71    1.35
   4  -2  -6   57.02    1.23
   2   2   6   58.48    1.40
   2   2   6   57.25    1.39
   2   2   6   57.01    1.31
  -4   2   6   58.37    1.28
   2   2   6   57.32    1.55
   2  -4   6   56.81    1.21
  -4   2   6   57.42    1.49
   2  -4   6   57.51    1.47
  -4   2   6   54.06    1.63
  -3   0  -6   36.74    1.23
   0   3  -6   38.12    0.80
  -3   0  -6   38.04    0.95
   0   3  -6   38.60    1.07
   0   3  -6   37.62    0.83
   0   3  -6   30.47    1.35
   3  -3  -6   37.71    1.15
   3  -3  -6   36.98    1.04
   3   0   6   39.11    0.99
  -3   3   6   37.00    1.06
   3   0   6   37.14    1.08
  -3   3   6   37.34    0.85
   3   0   6   35.49    1.10
   3   0  -6   18.99    0.74
   0  -3  -6   19.51    0.67
  -3   3  -6   18.62    0.69
   3   0  -6   19.71    0.64
   3   0  -6   18.83    0.87
  -3   3  -6   19.19    0.67
  -3   3  -6   19.56    0.86
   0  -3  -6   18.72    0.71
   0   3   6   18.60    0.66
  -3   0   6   18.20    0.82
  -3   0   6   19.12    0.73
  -3   0   6   19.36    0.66
   3  -3   6   19.01    0.69
   0   3   6   19.83    0.81
   3  -3   6   19.01    0.67
   3  -3   6   18.83    0.68
   6  -3  -6   12.67    0.85
  -3  -3  -6   13.18    0.76
  -3   6  -6   12.76    0.55
   6  -3  -6   13.12    0.58
  -3   6  -6   13.16    0.84
  -6   3   6   13.08    0.75
   3  -6   6   13.26    0.82
   3   3   6   11.89    0.84
   3   3   6   12.68    0.93
  -6   3   6   13.93    1.05
   3   3   6   12.93    0.57
   3   3   6   13.85    0.78
  -1   5  -6   13.15    0.78
  -4  -1  -6   11.89    1.10
   5  -4  -6   11.95    1.05
  -4  -1  -6   13.07    0.84
  -1   5  -6   12.97    0.74
   5  -4  -6   13.73    0.76
   4   1   6   12.25    0.77
  -5   4   6   12.36    0.78
  -5   4   6   12.70    0.57
  -5   4   6   13.85    0.89
   4   1   6   13.28    0.81
   4   1   6   12.36    0.70
  -4   2  -6   56.24    1.72
  -4   2  -6   58.71    1.46
   2   2  -6   55.60    1.44
  -4   2  -6   59.35    1.41
   2   2  -6   56.77    1.48
   2   2  -6   56.59    1.47
   2  -4  -6   57.76    1.44
   2  -4  -6   59.06    1.31
   4  -2   6   56.01    1.40
  -2   4   6   57.42    1.47
  -2  -2   6   56.66    1.51
   4  -2   6   56.96    1.40
   4  -2   6   55.53    1.59
  -2   4   6   55.64    1.45
  -2  -2   6   56.15    1.33
  -4   5  -6   20.85    0.89
  -4   5  -6   19.98    1.00
  -1  -4  -6   21.18    0.94
   5  -1  -6   20.90    1.21
  -4   5  -6   20.77    0.86
   5  -1  -6   22.24    0.75
   5  -1  -6   20.61    0.95
   1   4   6   22.03    1.04
  -5   1   6   18.16    1.17
   4  -5   6   20.71    0.80
  -5   1   6   21.61    1.11
   1   4   6   22.33    0.90
   4  -5   6   21.40    0.89
  -5   1   6   21.06    0.91
  -5   1  -6   13.30    1.05
   1   4  -6   13.15    0.39
  -5   1  -6   12.32    0.79
   4  -5  -6   11.42    0.83
   4  -5  -6   12.14    0.71
   1   4  -6   12.33    0.79
   1   4  -6   12.37    0.52
   1   4  -6   13.61    0.77
  -5   1  -6   13.35    0.65
  -4   5   6   11.95    0.77
   5  -1   6   12.69    0.71
   5  -1   6   12.74    0.92
   5  -1   6   12.26    0.71
  -4   5   6   11.98    0.64
  -4   5   6   13.06    0.68
  -4   5   6   12.76    0.60
  -1  -4   6   13.53    0.53
  -5   4  -6   20.86    1.19
   4   1  -6   22.34    1.13
  -5   4  -6   21.93    0.88
   4   1  -6   21.44    0.88
  -5   4  -6   20.78    0.88
   4   1  -6   20.77    0.95
   1  -5  -6   21.61    0.88
   5  -4   6   21.01    1.02
  -4  -1   6   21.27    0.76
   5  -4   6   20.26    0.86
  -4  -1   6   20.59    0.98
  -1   5   6   21.91    1.03
  -1   5   6   20.76    0.91
   5  -4   6   21.93    0.83
  -4  -1   6   18.87    1.13
   6  -6  -6   15.61    1.11
   6  -6  -6   16.04    2.07
   0   6  -6   17.00    1.30
  -6   0  -6   16.07    1.29
   6   0   6   16.15    1.01
  -6   6   6   18.37    1.01
  -6   6   6   17.34    0.90
   6   0   6   17.43    1.00
  -6   3  -6   12.45    0.78
   3  -6  -6   13.43    0.81
  -6   3  -6   14.15    1.15
   3   3  -6   13.77    0.86
   3   3  -6   12.40    0.83
  -6   3  -6   12.30    0.92
   3   3  -6   12.13    0.81
   6  -3   6   12.87    0.79
  -3  -3   6   13.00    0.67
   6  -3   6   13.51    0.73
  -3   6   6   12.04    0.78
  -3  -3   6   13.42    0.65
  -3  -3   6   13.42    0.97
  -3   6   6   12.80    0.87
   6   0  -6   12.71    1.06
   6   0  -6   16.03    0.84
  -6   6  -6   14.06    1.13
  -6   0   6   13.04    1.19
  -6   0   6   16.07    1.12
   0   6   6   13.17    1.19
   6  -6   6   14.40    0.94
   1  -1  -7  409.43    7.53
  -1   0  -7  415.42    7.54
   0   1  -7  415.34    7.71
   0   1  -7  424.41    7.73
   1  -1  -7  407.05    7.53
   1  -1  -7  423.02    7.82
  -1   0  -7  404.94    7.60
  -1   1   7  417.74    7.75
   1   0   7  380.69    7.56
  -1   1   7  420.19    7.83
   1   0   7  418.28    7.85
   3  -2  -7  249.80    4.87
  -2  -1  -7  248.95    4.82
  -1   3  -7  248.86    4.59
   3  -2  -7  246.04    4.78
  -1   3  -7  244.28    4.75
  -1   3  -7  248.29    4.77
  -2  -1  -7  251.01    4.78
   1  -3   7  250.54    4.78
  -3   2   7  254.85    4.80
  -3   2   7  241.38    4.84
   2   1   7  241.60    4.81
   2   1   7  246.13    4.72
   2   1   7  246.63    4.67
  -3   2   7  242.51    4.53
   0  -2  -7  125.59    2.47
   0  -2  -7  127.68    2.38
  -2   2  -7  125.15    2.47
   2   0  -7  125.69    2.41
   0  -2  -7  126.27    2.54
  -2   2  -7  122.42    2.50
   2   0  -7  128.33    2.59
   2   0  -7  127.69    2.57
  -2   2  -7  127.00    2.55
   2  -2   7  127.08    2.51
  -2   0   7  126.84    2.55
   2  -2   7  128.39    2.52
   2  -2   7  126.38    2.48
  -2   0   7  122.14    2.56
   0   2   7  126.78    2.48
  -2   0   7  125.65    2.44
   0   2   7  127.74    2.57
   5  -3  -7   98.44    2.36
   5  -3  -7   99.63    2.04
  -2   5  -7   98.25    2.35
  -3  -2  -7   99.33    2.43
  -2   5  -7   98.43    2.33
  -2   5  -7  100.11    2.06
   5  -3  -7  100.41    2.61
  -3  -2  -7   98.04    2.32
  -2   5  -7  100.13    2.35
   3   2   7  101.56    2.19
   3   2   7   99.76    2.27
  -5   3   7   98.58    2.07
   3   2   7   97.57    2.42
   3   2   7   99.72    2.26
  -5   3   7  101.63    2.38
  -5   3   7   96.10    2.50
   2  -5   7  101.54    2.37
  -3   1  -7  246.98    4.78
  -3   1  -7  258.67    4.94
  -3   1  -7  250.94    4.69
   1   2  -7  242.27    4.67
   1   2  -7  247.53    4.82
   2  -3  -7  252.66    4.73
   1   2  -7  249.16    4.79
   2  -3  -7  242.36    4.75
   1   2  -7  246.48    4.79
  -2   3   7  253.32    4.72
  -2   3   7  247.26    4.64
   3  -1   7  245.51    4.69
  -2   3   7  245.94    4.77
  -1  -2   7  244.85    4.63
   3  -1   7  245.03    4.76
   3  -1   7  251.78    4.88
   4  -1  -7  150.38    3.25
  -1  -3  -7  153.61    2.99
  -3   4  -7  155.59    3.21
  -3   4  -7  153.18    3.16
  -1  -3  -7  156.15    3.27
   4  -1  -7  152.18    2.97
  -3   4  -7  154.22    3.17
   4  -1  -7  149.98    3.41
   3  -4   7  151.60    3.17
  -4   1   7  155.38    3.06
  -4   1   7  149.29    3.36
   1   3   7  153.07    3.19
   3  -4   7  151.26    3.04
   1   3   7  153.68    2.87
   1   3   7  152.22    3.30
   4  -4  -7   71.77    1.89
  -4   0  -7   74.33    2.05
   0   4  -7   74.60    1.46
   0   4  -7   75.29    1.52
   0   4  -7   72.66    2.12
  -4   0  -7   73.42    1.72
  -4   0  -7   72.82    1.86
   4  -4  -7   74.89    1.97
   0   4  -7   72.77    1.84
  -4   4   7   72.33    1.64
   4   0   7   73.88    1.76
  -4   4   7   76.49    1.88
   4   0   7   75.31    1.93
  -4   4   7   73.55    1.58
  -4   4   7   74.13    1.83
   1  -4  -7  152.12    3.18
  -4   3  -7  154.77    3.17
   3   1  -7  147.42    3.29
  -4   3  -7  152.50    3.43
  -4   3  -7  155.80    3.16
   1  -4  -7  152.24    3.17
   3   1  -7  158.86    3.16
   3   1  -7  154.32    3.29
   4  -3   7  154.86    3.17
  -3  -1   7  157.07    3.20
  -1   4   7  155.45    3.31
  -1   4   7  157.77    3.21
   4  -3   7  153.74    3.29
  -3  -1   7  155.84    3.06
   4  -3   7  151.07    3.15
  -3  -1   7  151.65    3.21
   6  -2  -7   44.07    1.13
  -4   6  -7   42.34    1.30
   6  -2  -7   40.72    1.46
  -2  -4  -7   41.84    1.00
  -4   6  -7   44.06    1.41
  -6   2   7   42.18    1.30
  -6   2   7   42.95    1.62
   4  -6   7   41.45    1.12
   2   4   7   41.74    1.34
   4  -6   7   42.86    1.42
   2   4   7   41.04    1.42
   2   4   7   41.79    1.53
  -1   6  -7   57.61    1.86
  -5  -1  -7   60.44    1.91
   6  -5  -7   60.72    1.80
  -6   5   7   58.69    1.84
   5   1   7   59.17    1.73
   5   1   7   60.24    1.81
   5   1   7   60.57    1.83
  -6   5   7   61.40    1.54
   2   3  -7   99.60    2.38
   3  -5  -7   99.34    2.33
   2   3  -7   99.02    2.40
  -5   2  -7   99.08    2.63
   3  -5  -7   97.94    2.15
   2   3  -7   99.24    2.38
   2   3  -7  103.92    2.25
  -5   2  -7  101.20    2.36
  -5   2  -7  103.32    2.28
  -3   5   7  101.20    2.34
  -2  -3   7  102.15    2.40
  -3   5   7  101.81    2.02
   5  -2   7   98.14    2.28
  -3   5   7   99.39    2.38
  -2  -3   7  101.08    2.13
   5  -2   7  103.32    2.54
  -3   5   7   94.53    2.17
   5  -2   7  101.48    2.29
  -2  -3   7   98.74    2.07
   0  -5  -7   82.15    2.14
   5   0  -7   83.20    2.22
  -5   5  -7   82.42    2.14
  -5   5  -7   85.36    2.29
  -5   5  -7   82.71    2.08
   5   0  -7   84.83    1.99
   5   0  -7   83.86    2.38
   0   5   7   84.44    2.30
  -5   0   7   83.24    2.25
   5  -5   7   84.69    2.12
   5  -5   7   84.27    2.12
  -5   0   7   85.03    2.14
   0   5   7   81.64    2.14
  -5   0   7   93.38    2.86
  -6   1  -7   57.92    1.64
   5  -6  -7   57.12    1.78
   1   5  -7   60.80    1.90
   1   5  -7   61.23    1.83
  -6   1  -7   59.55    2.04
   5  -6  -7   58.14    1.76
  -5   6   7   58.95    1.53
  -5   6   7   57.58    1.79
  -5   6   7   58.06    1.67
   6  -1   7   58.85    1.72
   6  -1   7   60.35    1.71
  -6   4  -7   42.03    1.68
   4   2  -7   43.24    1.40
  -6   4  -7   40.22    1.43
  -6   4  -7   39.88    1.34
   2  -6  -7   41.99    1.38
   4   2  -7   43.57    1.48
   4   2  -7   42.96    1.49
  -2   6   7   42.57    1.52
   6  -4   7   41.05    1.32
  -4  -2   7   42.37    1.32
   6  -4   7   46.07    1.41
  -4  -2   7   42.59    1.53
   1   0  -8  150.62    2.84
  -1   1  -8  150.27    2.92
   1   0  -8  147.31    2.72
   0  -1  -8  147.13    2.82
  -1   1  -8  146.03    2.74
   0  -1  -8  150.73    2.79
   1   0  -8  146.91    2.84
   1   0  -8  146.72    2.73
   0  -1  -8  147.16    2.74
  -1   1  -8  156.50    2.85
  -1   0   8  146.27    2.83
   0   1   8  145.99    2.74
  -1   0   8  145.96    2.84
   0   1   8  148.10    2.82
   1  -1   8  145.22    2.75
   1  -1   8  150.12    2.83
   1  -1   8  146.37    2.84
   0   2  -8    7.39    0.39
   2  -2  -8    7.91    0.40
  -2   0  -8    7.22    0.29
  -2   0  -8    7.56    0.45
   0   2  -8    7.44    0.39
   0   2  -8    7.56    0.49
   2  -2  -8    6.94    0.44
  -2   0  -8    7.61    0.45
   0   2  -8    7.34    0.30
  -2   2   8    7.60    0.29
   2   0   8    7.23    0.30
   2   0   8    7.02    0.40
  -2   2   8    7.50    0.40
  -2   2   8    7.38    0.23
  -2   2   8    7.48    0.41
   3  -1  -8   66.70    1.59
  -2   3  -8   67.10    1.50
   3  -1  -8   65.16    1.68
  -1  -2  -8   67.43    1.45
  -1  -2  -8   68.74    1.61
  -2   3  -8   67.40    1.51
   3  -1  -8   67.21    1.33
  -2   3  -8   67.41    1.54
  -3   1   8   67.75    1.38
   2  -3   8   66.94    1.53
   1   2   8   68.59    1.63
   1   2   8   68.56    1.48
  -3   1   8   67.49    1.58
   2  -3   8   68.64    1.45
  -3   1   8   64.99    1.66
   1   2   8   68.62    1.39
  -3  -1  -8   40.51    1.26
  -1   4  -8   39.87    1.20
  -1   4  -8   40.69    0.93
  -3  -1  -8   40.67    1.35
   4  -3  -8   40.97    1.41
  -1   4  -8   39.70    1.19
   4  -3  -8   39.80    1.20
  -1   4  -8   40.99    1.18
   3   1   8   39.89    1.09
   3   1   8   38.29    1.14
   3   1   8   38.03    1.24
  -4   3   8   40.89    1.23
  -4   3   8   37.15    1.27
  -4   3   8   38.78    1.00
   1  -3  -8   68.15    1.51
  -3   2  -8   65.93    1.54
   2   1  -8   67.58    1.59
   1  -3  -8   68.07    1.35
   2   1  -8   67.19    1.61
   1  -3  -8   68.02    1.39
   1  -3  -8   67.04    1.53
  -3   2  -8   66.62    1.66
   2   1  -8   67.91    1.52
  -3   2  -8   66.64    1.47
  -2  -1   8   68.67    1.55
  -1   3   8   69.60    1.60
  -1   3   8   69.14    1.54
   3  -2   8   68.84    1.54
   3  -2   8   68.98    1.62
   3  -2   8   67.40    1.48
  -2  -1   8   67.48    1.52
  -3   5  -8   24.52    0.94
   5  -2  -8   23.96    1.01
   5  -2  -8   26.97    1.30
  -3   5  -8   24.27    0.95
  -2  -3  -8   24.66    0.88
  -2  -3  -8   25.09    1.05
   5  -2  -8   24.81    0.69
  -3   5  -8   24.87    0.96
  -5   2   8   23.91    1.13
   3  -5   8   24.50    0.72
   2   3   8   24.62    0.93
  -5   2   8   24.28    0.79
   2   3   8   24.58    1.08
   2   3   8   24.38    0.88
   2   3   8   25.20    0.69
   3  -5   8   24.10    0.97
  -5   2   8   26.29    1.02
   6  -4  -8    3.54    0.54
  -4  -2  -8    3.30    0.54
  -2   6  -8    2.55    0.48
   4   2   8    2.30    0.49
  -6   4   8    2.78    0.39
   4   2   8    2.56    0.44
   2  -6   8    3.51    0.62
  -6   4   8    2.70    0.55
   4   2   8    2.28    0.37
   4   2   8    2.60    0.54
  -4   1  -8   41.04    1.47
   1   3  -8   39.87    1.21
   1   3  -8   39.95    1.05
   3  -4  -8   40.36    1.17
  -4   1  -8   39.59    1.07
  -4   1  -8   40.65    1.23
   1   3  -8   39.92    1.22
   3  -4  -8   40.48    1.22
   1   3  -8   39.81    1.18
   4  -1   8   41.32    1.12
  -3   4   8   40.34    1.11
   4  -1   8   39.08    1.17
  -3   4   8   39.59    0.99
  -3   4   8   40.89    1.21
  -3   4   8   40.72    1.05
   4  -1   8   39.66    1.31
   4   0  -8    6.74    0.49
  -4   4  -8    5.48    0.54
   4   0  -8    5.62    0.59
  -4   4  -8    4.86    0.79
   0  -4  -8    5.72    0.55
  -4   4  -8    5.41    0.53
   4   0  -8    5.45    0.81
   4  -4   8    6.42    0.56
   0   4   8    5.46    0.55
  -4   0   8    5.92    0.53
   0   4   8    5.98    0.75
   4  -4   8    5.60    0.52
  -4   0   8    5.95    0.54
  -4   0   8    5.51    0.81
   4  -4   8    5.64    0.83
   0   5  -8   13.43    0.88
   5  -5  -8   13.42    0.81
   5  -5  -8   10.78    1.08
  -5   0  -8   12.16    0.91
  -5   0  -8   12.77    1.05
  -5   5   8   13.04    0.67
   5   0   8   12.82    0.75
  -5   5   8   12.95    0.70
   5   0   8   12.71    0.81
  -5   5   8   13.32    0.80
   5   0   8   12.16    0.92
  -5   3  -8   24.04    0.89
  -5   3  -8   23.94    1.25
   3   2  -8   24.78    0.96
   2  -5  -8   24.52    0.95
   3   2  -8   25.18    1.04
  -5   3  -8   24.22    0.99
   3   2  -8   25.75    1.02
  -2   5   8   24.59    1.02
  -3  -2   8   25.24    1.01
   5  -3   8   24.34    1.11
  -2   5   8   25.26    0.99
   5  -3   8   28.36    0.95
   5  -3   8   25.01    0.91
  -3  -2   8   24.31    0.87
   6  -1  -8    9.90    0.88
   6  -1  -8   10.43    0.63
  -5   6  -8   11.03    0.95
   1   5   8    8.50    0.97
   5  -6   8   10.00    0.78
  -6   1   8    8.68    0.94
   5  -6   8    8.42    0.73
  -6   1   8    8.56    0.98
  -6   2  -8    2.73    0.40
   4  -6  -8    1.88    0.43
   2   4  -8    2.32    0.36
  -6   2  -8    3.20    0.65
   4  -6  -8    1.69    0.39
   2   4  -8    2.32    0.51
   2   4  -8    2.32    0.45
   6  -2   8    2.40    0.41
  -4   6   8    2.71    0.42
  -4   6   8    2.78    0.39
  -4   6   8    2.57    0.49
   6  -2   8    2.42    0.45
   5   1  -8    9.34    0.88
   5   1  -8    9.85    0.74
   1  -6  -8   10.94    0.77
  -6   5  -8   10.37    1.10
   6  -5   8   11.20    0.77
  -5  -1   8   10.47    0.85
  -1   6   8    9.52    0.96
   6  -5   8   10.53    0.79
  -5  -1   8    8.09    0.96
   0   0  -9  226.23    4.14
   0   0  -9  224.05    4.18
   0   0  -9  230.53    4.10
   0   0   9  219.19    4.08
   0   0   9  224.20    4.13
  -1   2  -9  425.09    8.03
   2  -1  -9  429.91    8.09
  -1  -1  -9  441.40    8.03
  -1   2  -9  443.02    8.08
  -1   2  -9  434.65    8.03
  -1  -1  -9  440.44    8.11
   2  -1  -9  433.72    8.13
   1   1   9  439.67    8.02
   1  -2   9  443.86    8.13
   1   1   9  437.27    8.03
   1   1   9  441.42    8.13
   1  -2   9  433.66    8.01
   1   1   9  442.23    8.08
  -2   1   9  446.35    8.10
  -2   1   9  440.22    8.12
   1  -2  -9  427.71    7.97
   1  -2  -9  432.93    8.00
  -2   1  -9  444.18    8.04
   1   1  -9  429.33    8.02
  -2   1  -9  440.49    8.11
   1   1  -9  439.84    8.09
  -2   1  -9  437.24    8.07
   1  -2  -9  443.24    8.01
   1   1  -9  432.82    8.01
  -1   2   9  434.96    8.01
  -1  -1   9  435.79    8.02
   2  -1   9  427.93    8.06
   2  -1   9  443.46    8.10
  -1   2   9  444.88    8.14
   2  -1   9  442.99    8.07
   4  -2  -9  135.81    3.09
  -2  -2  -9  133.00    2.97
  -2   4  -9  134.89    2.74
   4  -2  -9  131.76    2.56
  -2   4  -9  136.68    2.86
   4  -2  -9  136.01    2.93
  -2  -2  -9  136.25    2.85
  -2   4  -9  135.51    2.88
  -4   2   9  139.41    2.94
   2   2   9  138.64    2.79
   2  -4   9  134.32    2.65
   2  -4   9  134.36    2.89
   2   2   9  137.60    2.72
   2   2   9  135.90    2.99
  -4   2   9  134.76    2.61
  -4   2   9  131.35    3.03
   2   2   9  138.16    2.78
   0   3  -9  285.44    5.30
  -3   0  -9  291.15    5.56
  -3   0  -9  291.30    5.64
   3  -3  -9  286.49    5.51
   0   3  -9  284.81    5.31
   0   3  -9  289.21    5.53
   3  -3  -9  292.04    5.58
  -3   0  -9  282.23    5.38
   0   3  -9  284.19    5.53
  -3   3   9  279.70    5.25
   3   0   9  290.04    5.40
   3   0   9  277.27    5.53
  -3   3   9  290.69    5.50
   3   0   9  283.95    5.57
  -3   3   9  291.94    5.54
  -3   3   9  280.48    5.32
  -3   3  -9  280.03    5.25
  -3   3  -9  263.78    5.17
   0  -3  -9  269.44    5.22
   3   0  -9  274.52    5.09
  -3   3  -9  267.88    5.30
   3   0  -9  270.66    5.32
   0  -3  -9  268.12    5.01
   0  -3  -9  266.18    4.99
   3   0  -9  272.03    5.37
   3  -3   9  272.18    5.20
   0   3   9  276.18    5.20
  -3   0   9  272.12    5.14
   3  -3   9  280.47    5.25
   3  -3   9  269.86    5.24
  -3   0   9  272.47    5.33
   0   3   9  277.34    5.35
  -3   0   9  270.41    5.29
  -3   6  -9   96.59    2.46
  -3   6  -9   99.06    2.16
   6  -3  -9   96.64    2.50
  -3  -3  -9   99.77    2.29
   6  -3  -9   97.79    2.03
   3   3   9   95.78    2.37
  -6   3   9   99.48    2.66
  -6   3   9   97.67    2.13
   3   3   9   97.52    2.58
   3   3   9  100.70    2.13
   3  -6   9   97.74    2.47
   3   3   9   96.57    2.35
  -1   5  -9  135.25    2.54
  -4  -1  -9  130.28    3.08
  -1   5  -9  136.68    3.06
   5  -4  -9  132.31    3.21
   5  -4  -9  134.96    3.02
  -1   5  -9  129.86    3.04
  -4  -1  -9  135.33    3.11
  -1   5  -9  131.88    3.00
   4   1   9  135.28    3.07
   4   1   9  134.06    2.98
  -5   4   9  130.07    2.64
  -5   4   9  130.81    2.67
   4   1   9  135.39    2.89
  -5   4   9  133.11    3.06
  -5   4   9  134.01    3.07
   2   2  -9  137.77    2.97
  -4   2  -9  138.59    2.79
   2   2  -9  138.71    2.90
   2  -4  -9  137.44    2.87
   2   2  -9  138.93    2.88
  -4   2  -9  135.94    2.91
  -4   2  -9  137.11    3.12
   2  -4  -9  134.07    2.74
  -2  -2   9  133.26    2.93
   4  -2   9  136.49    3.02
  -2   4   9  137.68    2.91
  -2  -2   9  134.27    2.76
   4  -2   9  138.79    2.88
   4  -2   9  132.61    2.79
  -2   4   9  136.84    2.90
  -1  -4  -9  138.76    3.14
  -4   5  -9  132.44    3.00
   5  -1  -9  140.61    3.36
  -4   5  -9  139.23    3.11
  -4   5  -9  137.54    3.03
   5  -1  -9  140.75    2.78
   5  -1  -9  136.29    3.15
  -5   1   9  141.24    2.90
  -5   1   9  137.83    3.26
   4  -5   9  134.15    2.88
   4  -5   9  134.81    3.03
   1   4   9  140.62    3.22
   1   4   9  136.40    3.01
   1   4  -9  130.60    3.04
   1   4  -9  134.82    3.06
   1   4  -9  136.74    3.08
   1   4  -9  132.83    2.72
   4  -5  -9  130.04    3.00
  -5   1  -9  136.33    3.29
  -5   1  -9  131.84    2.85
   4  -5  -9  131.56    2.98
  -5   1  -9  135.23    3.03
   1   4  -9  136.48    2.61
   5  -1   9  129.77    2.95
   5  -1   9  133.74    2.89
  -4   5   9  137.34    2.89
  -4   5   9  134.36    2.89
   5  -1   9  130.89    3.14
  -4   5   9  136.43    3.06
   1  -5  -9  137.96    3.03
  -5   4  -9  136.11    3.03
  -5   4  -9  139.77    3.31
   4   1  -9  139.76    2.96
   4   1  -9  137.99    3.17
  -5   4  -9  137.18    3.00
   4   1  -9  137.69    3.21
  -4  -1   9  137.97    3.10
  -1   5   9  135.45    3.06
   5  -4   9  137.36    3.14
  -1   5   9  140.85    3.21
  -4  -1   9  138.50    3.04
   5  -4   9  137.79    3.02
   5  -4   9  138.85    3.03
   3   3  -9  101.25    2.40
  -6   3  -9   96.41    2.31
   3   3  -9   98.26    2.43
  -6   3  -9   97.21    2.76
   3   3  -9  101.37    2.56
   3  -6  -9   95.74    2.41
  -3  -3   9   97.07    2.53
  -3  -3   9   98.50    2.17
  -3   6   9   97.05    2.47
   6  -3   9   95.80    2.34
  -3   6   9   95.15    2.29
   6  -3   9   97.41    2.36
   0   1 -10    1.69    0.27
   1  -1 -10    1.78    0.25
   0   1 -10    1.79    0.20
   1  -1 -10    1.87    0.15
  -1   0 -10    1.61    0.24
   0   1 -10    1.35    0.19
   1  -1 -10    1.67    0.21
  -1   0 -10    2.11    0.29
   1   0  10    1.63    0.25
  -1   1  10    1.59    0.13
   1   0  10    1.44    0.21
  -1   1  10    1.68    0.20
  -1   3 -10    0.26    0.16
  -1   3 -10    0.02    0.18
  -2  -1 -10    0.20    0.24
   3  -2 -10    0.14    0.22
  -2  -1 -10   -0.06    0.25
  -1   3 -10    0.47    0.25
   1  -3  10    0.23    0.22
  -3   2  10   -0.18    0.24
   2   1  10    0.19    0.17
  -3   2  10    0.68    0.25
   2   1  10    0.45    0.16
   2   1  10    0.41    0.29
   2   1  10    0.21    0.15
   2   0 -10   21.93    0.56
   2   0 -10   21.56    0.71
   0  -2 -10   23.63    0.71
  -2   2 -10   21.25    0.60
   0  -2 -10   22.05    0.60
   2   0 -10   22.10    0.74
  -2   2 -10   22.19    0.71
   0  -2 -10   22.64    0.58
   2  -2  10   22.37    0.68
   2  -2  10   22.49    0.67
   0   2  10   22.95    0.73
   2  -2  10   21.16    0.61
  -2   0  10   22.83    0.73
  -2   0  10   22.06    0.69
  -2   5 -10    0.38    0.31
   5  -3 -10    0.57    0.35
  -2   5 -10    0.96    0.32
  -3  -2 -10   -0.04    0.38
  -2   5 -10    0.60    0.28
   5  -3 -10    0.59    0.49
  -2   5 -10    0.57    0.26
  -3  -2 -10    0.35    0.39
   3   2  10    0.91    0.30
   3   2  10    0.74    0.31
  -5   3  10    0.62    0.37
   3   2  10    0.69    0.39
   2  -5  10    0.41    0.29
  -5   3  10    0.73    0.35
  -3   1 -10    0.17    0.25
   1   2 -10    0.25    0.23
   2  -3 -10    0.09    0.21
   2  -3 -10    0.28    0.21
   1   2 -10    0.07    0.24
  -3   1 -10    0.05    0.14
  -3   1 -10    0.33    0.29
   1   2 -10   -0.09    0.20
  -2   3  10    0.54    0.22
  -2   3  10    0.16    0.22
   3  -1  10    0.22    0.21
  -2   3  10    0.15    0.16
   3  -1  10   -0.04    0.21
   3  -1  10   -0.06    0.17
  -3   4 -10    0.39    0.31
  -3   4 -10    0.31    0.27
   4  -1 -10    0.45    0.18
  -3   4 -10    0.38    0.27
  -1  -3 -10    0.64    0.26
   4  -1 -10    0.27    0.40
   4  -1 -10    0.51    0.33
  -1  -3 -10    0.46    0.31
   1   3  10    0.41    0.36
  -4   1  10    0.23    0.24
  -4   1  10    0.09    0.37
   1   3  10    0.70    0.29
   3  -4  10    0.88    0.28
   0   4 -10    4.70    0.51
   4  -4 -10    4.13    0.28
   4  -4 -10    5.06    0.52
  -4   0 -10    4.33    0.62
   0   4 -10    4.88    0.36
   0   4 -10    4.49    0.30
  -4   0 -10    4.25    0.68
   0   4 -10    4.38    0.56
   4  -4 -10    5.00    0.78
  -4   4  10    5.44    0.56
   4   0  10    4.95    0.63
   4   0  10    4.72    0.47
  -4   4  10    4.26    0.58
  -4   4  10    4.14    0.40
   4   0  10    4.40    0.58
  -4   4  10    4.69    0.32
  -4   3 -10    0.38    0.29
   1  -4 -10    0.49    0.18
   3   1 -10    1.04    0.39
   3   1 -10    0.86    0.30
   3   1 -10    0.60    0.32
   1  -4 -10    0.75    0.27
  -4   3 -10    0.13    0.41
   1  -4 -10    0.42    0.25
  -3  -1  10    0.58    0.25
   4  -3  10    0.23    0.29
  -1   4  10    0.84    0.31
  -3  -1  10    0.48    0.28
   4  -3  10    0.35    0.25
   4  -3  10    0.57    0.25
  -1   4  10    0.36    0.34
  -4   6 -10    2.02    0.46
   6  -2 -10    2.26    0.50
   6  -2 -10    2.59    0.35
  -6   2  10    1.95    0.41
   2   4  10    2.17    0.52
   4  -6  10    1.93    0.44
  -6   2  10    1.63    0.53
   2   4  10    1.77    0.37
   4  -6  10    1.78    0.37
   2   4  10    2.31    0.57
   6  -5 -10    0.04    0.39
  -5  -1 -10    0.70    0.51
  -1   6 -10    0.07    0.41
   5   1  10   -0.49    0.37
  -6   5  10   -0.18    0.39
   5   1  10    0.51    0.42
  -6   5  10    0.31    0.32
  -5   2 -10    0.84    0.47
   2   3 -10    0.69    0.32
  -5   2 -10    0.62    0.25
  -5   2 -10    0.18    0.35
   3  -5 -10   -0.01    0.33
   2   3 -10    0.59    0.32
   2   3 -10    0.66    0.35
   3  -5 -10    0.28    0.27
   2   3 -10    0.57    0.33
  -3   5  10    0.47    0.36
   5  -2  10    0.59    0.38
   5  -2  10    0.32    0.27
  -3   5  10    0.56    0.34
  -3   5  10    0.28    0.24
   5  -2  10    0.51    0.30
   5   0 -10    0.09    0.69
  -5   5 -10   -0.11    0.33
  -5   5 -10   -0.28    0.45
   5   0 -10    0.56    0.39
   0  -5 -10    0.14    0.37
   5   0 -10   -0.22    0.27
   5  -5  10    0.42    0.40
   0   5  10   -0.05    0.40
   0   5  10   -0.49    0.41
   5  -5  10    0.65    0.32
  -5   0  10    0.80    0.42
  -5   0  10    0.34    0.38
   1   5 -10   -0.26    0.35
  -6   1 -10   -0.27    0.55
  -6   1 -10    0.49    0.35
   1   5 -10   -0.16    0.41
   5  -6 -10    0.29    0.41
   6  -1  10   -0.02    0.37
  -5   6  10    0.38    0.43
   6  -1  10   -0.26    0.40
  -5   6  10    0.82    0.34
  -5   6  10    0.44    0.31
   4   2 -10    1.42    0.49
  -6   4 -10    1.79    0.41
   2  -6 -10    2.17    0.43
   4   2 -10    1.76    0.43
   4   2 -10    1.26    0.42
  -6   4 -10    1.05    0.61
  -4  -2  10    2.48    0.57
   6  -4  10    2.01    0.40
   6  -4  10    1.88    0.41
  -4  -2  10    1.49    0.38
  -2   6  10    1.72    0.54
   1   0 -11   62.99    1.24
   1   0 -11   61.33    1.38
   0  -1 -11   63.22    1.35
  -1   1 -11   64.44    1.38
   0  -1 -11   64.08    1.34
   1   0 -11   63.36    1.36
   0  -1 -11   62.52    1.23
  -1   1 -11   63.94    1.37
  -1   1 -11   63.13    1.24
   1  -1  11   64.35    1.36
  -1   0  11   64.85    1.52
   0   1  11   64.83    1.35
   1  -1  11   64.53    1.38
   0   1  11   63.96    1.24
  -2   0 -11  102.12    2.18
   2  -2 -11  101.32    2.11
   0   2 -11  100.04    2.05
   2  -2 -11  103.72    2.15
  -2   0 -11  102.64    2.17
   0   2 -11  101.02    2.12
   0   2 -11  102.85    2.06
   0   2 -11  100.15    1.95
   0   2 -11  104.18    2.13
   2   0  11  100.65    1.95
  -2   2  11  100.98    2.11
  -2   2  11  104.17    2.13
   2   0  11  102.77    2.15
   2   0  11  102.11    2.17
  -1  -2 -11   27.03    1.39
  -1  -2 -11   31.04    0.83
  -2   3 -11   30.03    0.85
  -2   3 -11   31.14    0.88
  -2   3 -11   29.21    0.90
   3  -1 -11   29.89    0.96
   3  -1 -11   29.70    1.05
   2  -3  11   30.39    0.88
   1   2  11   30.69    0.77
   2  -3  11   30.55    0.81
  -3   1  11   30.92    0.98
   1   2  11   29.90    0.79
   1   2  11   30.80    1.02
  -3   1  11   29.01    1.00
  -1   4 -11   28.11    0.96
   4  -3 -11   27.28    1.16
  -3  -1 -11   27.60    1.06
   4  -3 -11   25.98    0.99
  -1   4 -11   27.33    0.99
  -1   4 -11   28.43    0.76
  -1   4 -11   27.14    0.73
  -3  -1 -11   27.89    1.09
   3   1  11   27.94    0.92
   3   1  11   28.50    0.84
   3   1  11   27.09    1.09
  -4   3  11   26.56    1.04
   3   1  11   27.40    0.82
  -4   3  11   28.14    1.02
  -3   2 -11   29.99    1.01
   1  -3 -11   30.73    0.74
   1  -3 -11   29.49    0.84
  -3   2 -11   30.62    0.80
   1  -3 -11   29.85    0.84
   2   1 -11   30.47    0.96
   1  -3 -11   30.16    0.78
   2   1 -11   30.41    0.85
   2   1 -11   31.30    0.95
  -3   2 -11   29.49    0.94
  -2  -1  11   30.29    0.90
  -1   3  11   30.47    0.95
   3  -2  11   30.58    0.91
  -1   3  11   31.49    0.89
   3  -2  11   30.06    0.80
   3  -2  11   29.61    0.94
  -2  -3 -11   24.38    1.05
  -3   5 -11   24.28    0.94
   5  -2 -11   23.97    1.04
  -3   5 -11   24.84    0.96
   5  -2 -11   24.07    0.61
   5  -2 -11   24.20    1.28
  -2  -3 -11   23.40    0.94
  -3   5 -11   24.68    0.99
   2   3  11   24.39    1.12
  -5   2  11   23.55    1.11
   3  -5  11   22.87    0.95
   2   3  11   25.21    0.87
   2   3  11   24.42    0.92
  -5   2  11   23.98    1.01
   2   3  11   24.66    0.71
  -5   2  11   24.56    0.73
   3  -5  11   23.35    0.76
  -2   6 -11   18.27    0.68
  -4  -2 -11   19.32    1.06
   6  -4 -11   19.26    1.04
  -2   6 -11   19.01    1.03
   4   2  11   18.68    0.97
   4   2  11   19.63    0.91
  -6   4  11   19.50    1.12
   4   2  11   19.48    1.09
   4   2  11   18.59    0.84
   1   3 -11   27.47    0.97
   3  -4 -11   26.30    0.99
  -4   1 -11   26.81    1.03
   3  -4 -11   26.63    0.93
   1   3 -11   28.21    0.84
   1   3 -11   28.09    0.99
   1   3 -11   24.92    1.02
  -4   1 -11   27.45    0.80
  -3   4  11   28.11    0.74
   4  -1  11   28.86    0.85
   4  -1  11   27.56    1.07
  -3   4  11   26.39    0.87
  -3   4  11   28.22    1.00
  -3   4  11   28.47    0.83
   4  -1  11   23.12    1.11
  -4   4 -11   40.68    1.24
   0  -4 -11   38.87    0.92
   4   0 -11   39.52    1.40
   0  -4 -11   40.01    1.24
   4   0 -11   39.41    1.04
   4   0 -11   42.50    1.33
   0  -4 -11   38.86    0.89
  -4   4 -11   41.27    1.40
  -4   4 -11   40.77    1.17
   4  -4  11   40.94    1.22
  -4   0  11   40.35    1.11
   0   4  11   40.78    1.21
   4  -4  11   41.32    1.19
   0   4  11   37.62    1.42
  -4   0  11   41.42    1.33
   4  -4  11   40.44    1.21
  -4   0  11   41.95    1.28
   5  -5 -11    9.23    1.14
   5  -5 -11    9.27    0.73
   0   5 -11    9.86    0.40
   0   5 -11    9.52    0.82
  -5   0 -11    9.49    1.02
  -5   5  11   10.38    0.51
  -5   5  11    9.41    0.72
   5   0  11    7.43    1.00
   5   0  11    9.74    1.00
  -5   5  11    9.29    0.64
   5   0  11    9.92    0.77
   2  -5 -11   24.46    0.94
   3   2 -11   24.08    1.02
  -5   3 -11   24.78    1.30
  -5   3 -11   24.82    1.04
   2  -5 -11   24.61    0.61
   3   2 -11   24.63    0.95
   3   2 -11   25.14    1.05
  -5   3 -11   25.14    0.89
  -2   5  11   25.04    1.07
  -2   5  11   23.53    1.00
   5  -3  11   24.36    0.94
   5  -3  11   23.79    0.88
  -3  -2  11   24.98    0.90
   5  -3  11   22.99    1.11
  -5   6 -11    9.45    0.99
   6  -1 -11   10.09    0.54
   6  -1 -11    8.69    0.91
   1   5  11    7.99    1.01
  -6   1  11    9.07    0.97
   5  -6  11    8.21    0.78
   5  -6  11    8.53    0.75
   2   4 -11   20.55    1.04
   2   4 -11   18.83    0.87
   4  -6 -11   18.74    1.05
   4  -6 -11   19.74    0.96
  -6   2 -11   19.70    0.84
   2   4 -11   18.81    1.04
  -6   2 -11   19.62    1.33
   6  -2  11   19.18    0.94
  -4   6  11   20.09    0.87
   6  -2  11   20.13    0.94
   1  -6 -11    9.71    0.76
   5   1 -11    9.97    0.74
  -6   5 -11    8.15    1.15
   5   1 -11    7.12    0.90
   6  -5  11    8.99    0.78
  -5  -1  11    9.86    0.86
  -5  -1  11    9.08    0.89
  -1   6  11    7.78    1.01
   6  -5  11    9.65    0.80
   0   0 -12  258.98    4.66
   0   0 -12  254.09    4.73
   0   0 -12  255.81    4.80
   0   0  12  254.43    4.72
   2  -1 -12  249.77    4.74
   2  -1 -12  251.68    4.80
  -1  -1 -12  259.59    4.79
  -1   2 -12  253.63    4.72
  -1   2 -12  255.37    4.75
  -1  -1 -12  249.29    4.71
  -1   2 -12  243.17    4.67
   1  -2  12  244.71    4.73
  -2   1  12  249.99    4.75
   1   1  12  239.50    4.54
   1   1  12  245.17    4.78
   1   1  12  240.04    4.54
  -2   1  12  250.97    4.78
   1   1  12  252.29    4.70
  -2   1 -12  254.77    4.76
   1  -2 -12  247.02    4.65
  -2   1 -12  256.29    4.79
   1  -2 -12  247.01    4.68
   1   1 -12  246.54    4.72
   1  -2 -12  248.99    4.63
   1   1 -12  251.12    4.76
   1   1 -12  245.93    4.66
   1   1 -12  249.61    4.66
  -2   1 -12  246.50    4.54
  -1   2  12  252.04    4.67
   2  -1  12  241.35    4.55
   2  -1  12  253.05    4.77
  -1   2  12  244.67    4.64
   2  -1  12  242.25    4.73
   4  -2 -12  127.26    2.81
  -2   4 -12  126.49    2.76
  -2  -2 -12  130.21    2.87
   4  -2 -12  124.77    2.92
  -2   4 -12  130.64    2.72
  -2  -2 -12  126.83    2.69
  -2   4 -12  129.85    2.63
   2   2  12  127.33    2.60
   2  -4  12  125.69    2.74
   2   2  12  125.29    2.60
   2   2  12  110.34    3.37
   2   2  12  128.02    2.60
  -4   2  12  133.74    2.83
   0   3 -12  192.49    3.72
   3  -3 -12  192.23    3.87
   0   3 -12  194.55    3.72
  -3   0 -12  193.90    3.95
   0   3 -12  191.78    3.91
   0   3 -12  192.27    3.89
  -3   0 -12  193.85    3.98
   0   3 -12  194.29    3.90
   3  -3 -12  192.25    3.94
   3   0  12  193.79    3.70
  -3   3  12  199.78    3.92
  -3   3  12  197.97    3.87
   3   0  12  187.50    3.92
   3   0  12  193.31    3.95
   3   0 -12  152.37    3.23
   0  -3 -12  156.20    3.18
  -3   3 -12  152.51    3.04
   0  -3 -12  152.56    2.94
   3   0 -12  152.92    3.25
   0  -3 -12  151.95    3.04
  -3   3 -12  148.34    3.19
   0  -3 -12  154.81    2.95
   3   0 -12  153.06    2.93
  -3   3 -12  150.55    3.15
  -3   0  12  154.34    3.19
   3  -3  12  148.55    3.06
  -3   0  12  149.17    3.21
   3  -3  12  153.71    3.14
   3  -3  12  155.51    3.16
   0   3  12  153.21    3.07
   0   3  12  149.96    3.21
   6  -3 -12   61.13    1.90
  -3  -3 -12   66.09    1.78
  -3   6 -12   65.63    1.89
  -3   6 -12   64.30    1.66
   3   3  12   64.97    1.78
   3   3  12   65.32    1.73
   3  -6  12   61.85    1.85
   3   3  12   63.37    2.00
   3   3  12   63.70    1.54
  -6   3  12   65.39    2.05
   5  -4 -12   77.04    2.02
   5  -4 -12   79.37    2.26
  -1   5 -12   79.35    1.66
  -1   5 -12   74.01    1.98
  -1   5 -12   73.04    2.03
  -1   5 -12   78.65    1.62
  -4  -1 -12   78.97    2.23
  -1   5 -12   76.73    2.05
  -4  -1 -12   77.78    2.14
   4   1  12   77.29    2.08
  -5   4  12   74.77    2.06
   4   1  12   76.50    1.84
   4   1  12   76.67    1.96
   4   1  12   79.38    1.86
  -5   4  12   76.62    2.04
   2  -4 -12  123.93    2.59
   2  -4 -12  128.91    2.70
  -4   2 -12  121.52    3.26
  -4   2 -12  128.83    2.59
  -4   2 -12  129.25    2.80
   2   2 -12  127.05    2.84
   2   2 -12  125.15    2.70
   2   2 -12  129.50    2.72
   4  -2  12  118.97    3.06
   4  -2  12  125.86    2.85
  -2   4  12  129.84    2.73
  -2   4  12  129.38    2.74
   4  -2  12  125.06    2.60
   5  -1 -12   99.50    1.97
   5  -1 -12   97.84    2.45
   5  -1 -12   92.81    2.59
  -1  -4 -12   94.04    2.39
  -4   5 -12   95.15    2.36
  -1  -4 -12   96.45    2.04
  -4   5 -12   97.15    2.28
   1   4  12   98.80    2.51
  -5   1  12   94.12    2.06
  -5   1  12   93.13    2.48
   1   4  12   96.14    2.28
  -5   1  12   93.82    2.41
   4  -5  12   98.61    2.20
   4  -5  12   97.50    2.33
   1   4 -12   78.26    2.07
   1   4 -12   78.88    1.78
  -5   1 -12   80.04    2.30
   4  -5 -12   76.30    2.07
   1   4 -12   79.06    2.04
  -5   1 -12   71.34    2.02
   1   4 -12   80.05    1.67
   4  -5 -12   77.81    1.98
   1   4 -12   74.14    2.01
  -5   1 -12   78.65    1.81
   5  -1  12   77.79    2.01
   5  -1  12   71.82    2.10
   5  -1  12   78.25    1.85
  -4   5  12   76.96    1.68
  -4   5  12   77.19    2.08
  -4   5  12   78.89    1.81
  -4   5  12   74.32    1.84
   4   1 -12  101.38    2.23
   1  -5 -12   97.11    2.29
   4   1 -12   96.47    2.48
  -5   4 -12   93.50    2.35
  -5   4 -12   99.17    2.27
   4   1 -12   99.96    2.50
  -5   4 -12   96.74    2.59
   1  -5 -12   97.27    2.29
   5  -4  12  100.41    2.37
  -1   5  12   99.42    2.50
  -4  -1  12   96.95    2.29
  -1   5  12   97.67    2.37
  -4  -1  12   98.14    2.37
   5  -4  12   98.62    2.46
   5  -4  12   96.50    2.30
   3   3 -12   64.84    1.82
   3  -6 -12   62.81    1.34
   3   3 -12   65.75    1.97
   3   3 -12   62.64    1.78
   3  -6 -12   61.83    1.54
  -6   3 -12   63.49    1.69
  -6   3 -12   64.13    2.19
   3  -6 -12   64.83    1.81
  -3   6  12   61.94    1.67
  -3   6  12   63.46    1.90
   6  -3  12   64.22    1.81
   6  -3  12   64.95    1.73
   1  -1 -13   77.62    1.54
   0   1 -13   78.92    1.65
   1  -1 -13   80.84    1.62
   0   1 -13   79.67    1.69
   1  -1 -13   80.37    1.71
   0   1 -13   79.41    1.64
  -1   0 -13   82.52    1.72
   0   1 -13   79.56    1.64
  -1   0 -13   79.50    1.71
   1   0  13   81.16    1.70
  -1   1  13   79.14    1.63
  -1   1  13   78.12    1.52
   1   0  13   79.60    1.69
   3  -2 -13   32.27    0.99
  -1   3 -13   32.60    0.72
  -2  -1 -13   32.76    1.06
  -2  -1 -13   31.60    0.99
  -1   3 -13   32.62    0.88
  -1   3 -13   32.16    0.94
   3  -2 -13   33.34    1.11
  -1   3 -13   32.03    0.98
  -3   2  13   32.64    1.04
   2   1  13   32.60    0.79
  -3   2  13   33.00    1.00
   2   1  13   31.79    0.78
   2   1  13   32.63    1.08
   2   0 -13   67.25    1.56
  -2   2 -13   62.89    1.40
   0  -2 -13   66.50    1.52
   0  -2 -13   66.28    1.38
   0  -2 -13   67.89    1.43
   2   0 -13   67.67    1.34
   2   0 -13   66.44    1.32
  -2   2 -13   67.14    1.55
   2  -2  13   67.71    1.52
   0   2  13   66.43    1.55
   2  -2  13   64.42    1.41
   2  -2  13   65.62    1.52
   0   2  13   64.18    1.42
  -2   0  13   66.92    1.56
  -2   0  13   65.97    1.52
  -3  -2 -13   20.52    1.07
  -2   5 -13   21.98    0.92
   5  -3 -13   21.43    0.98
  -3  -2 -13   21.06    1.02
  -2   5 -13   20.49    0.94
  -2   5 -13   21.60    0.78
   5  -3 -13   21.42    1.24
  -2   5 -13   21.67    0.97
   2  -5  13   21.21    0.93
  -5   3  13   21.55    1.07
   3   2  13   21.30    0.81
   3   2  13   21.75    0.80
   3   2  13   21.41    0.82
  -5   3  13   20.88    1.01
   3   2  13   21.26    1.06
   1   2 -13   32.66    1.00
   1   2 -13   31.24    0.95
   2  -3 -13   32.76    0.95
   2  -3 -13   31.71    0.92
  -3   1 -13   31.81    0.78
   1   2 -13   32.20    0.98
  -3   1 -13   32.53    1.05
   1   2 -13   32.25    0.94
   1   2 -13   31.76    0.91
  -3   1 -13   32.81    1.09
  -2   3  13   34.16    0.98
  -2   3  13   31.82    0.86
   3  -1  13   32.96    1.02
   3  -1  13   31.58    0.78
   3  -1  13   32.51    1.01
  -1  -3 -13   27.62    0.83
  -3   4 -13   26.81    0.89
  -3   4 -13   26.66    0.96
  -1  -3 -13   26.77    1.01
  -3   4 -13   28.27    0.97
   4  -1 -13   26.91    1.16
   4  -1 -13   27.14    1.03
   1   3  13   26.23    0.86
   3  -4  13   25.92    0.84
  -4   1  13   26.79    0.99
   1   3  13   21.18    1.64
  -4   1  13   26.82    1.08
   3  -4  13   26.83    0.92
   4  -4 -13   23.42    0.92
   0   4 -13   23.18    0.72
   0   4 -13   22.20    0.95
   0   4 -13   23.12    0.95
   0   4 -13   23.31    0.69
  -4   0 -13   22.59    1.12
   0   4 -13   22.56    0.91
  -4   0 -13   22.21    1.01
   4  -4 -13   24.03    1.11
   4   0  13   23.60    0.97
  -4   4  13   22.31    0.99
  -4   4  13   21.93    0.56
  -4   4  13   21.54    1.00
   4   0  13   21.26    0.94
  -4   4  13   22.34    0.67
   4   0  13   23.59    0.79
   1  -4 -13   26.61    0.87
   3   1 -13   25.29    1.04
  -4   3 -13   27.69    0.90
   1  -4 -13   26.54    0.75
   3   1 -13   27.90    0.86
   1  -4 -13   26.18    0.88
  -4   3 -13   25.58    1.11
   3   1 -13   26.98    1.03
   1  -4 -13   26.93    0.69
  -4   3 -13   26.59    0.99
   4  -3  13   26.91    0.86
  -1   4  13   26.83    0.94
  -1   4  13   29.11    1.04
   4  -3  13   27.47    1.01
  -3  -1  13   26.07    0.95
   4  -3  13   25.68    1.02
  -2  -4 -13    8.93    0.70
  -4   6 -13    8.58    0.95
   6  -2 -13    8.79    0.87
   2   4  13   11.66    0.88
   4  -6  13    8.54    0.78
   2   4  13   10.27    0.72
   2   4  13    8.42    1.02
  -6   2  13   10.18    0.99
   4  -6  13    9.34    0.66
  -5  -1 -13    4.51    0.73
   6  -5 -13    5.68    0.83
  -1   6 -13    4.75    0.70
   5   1  13    5.84    0.92
   5   1  13    5.21    0.94
  -6   5  13    6.45    0.83
   5   1  13    4.09    0.71
   2   3 -13   19.95    1.17
   2   3 -13   20.25    0.94
  -5   2 -13   20.38    1.21
   2   3 -13   22.18    0.90
  -5   2 -13   21.50    0.77
   2   3 -13   22.19    0.99
   3  -5 -13   21.44    0.88
   5  -2  13   19.96    1.06
  -3   5  13   19.76    1.00
   5  -2  13   22.41    0.83
   5  -2  13   20.90    0.92
  -3   5  13   21.11    0.75
  -3   5  13   20.47    0.94
   5   0 -13    5.67    0.78
  -5   5 -13    6.10    0.75
   5   0 -13    7.47    0.52
  -5   5 -13    5.98    0.64
   0   5  13    5.72    0.83
   0   5  13    7.34    0.81
   5  -5  13    6.14    0.64
   5  -5  13    6.34    0.84
  -5   0  13    5.96    0.69
  -5   0  13    7.40    0.79
   5  -6 -13    5.05    0.75
   5  -6 -13    3.31    0.77
  -6   1 -13    4.71    0.83
   1   5 -13    5.99    0.84
   1   5 -13    4.38    0.63
  -5   6  13    4.61    0.67
  -5   6  13    5.89    0.97
   6  -1  13    6.56    0.83
   6  -1  13    4.99    0.59
  -6   4 -13    8.16    0.72
  -6   4 -13    7.81    1.18
   4   2 -13    8.36    0.93
   4   2 -13    7.75    0.87
   4   2 -13    9.05    0.77
   2  -6 -13    9.88    0.73
  -2   6  13    8.33    0.98
   6  -4  13    9.76    0.79
   6  -4  13    9.44    0.74
  -4  -2  13    9.01    0.75
   0  -1 -14  310.70    5.69
  -1   1 -14  303.12    5.69
  -1   1 -14  320.03    5.91
   1   0 -14  318.11    5.91
   0  -1 -14  312.01    5.84
   0  -1 -14  314.69    5.87
   1   0 -14  311.44    5.73
   1   0 -14  326.34    5.86
  -1   1 -14  312.93    5.87
  -1   1 -14  311.31    5.71
  -1   0  14  312.12    5.83
   0   1  14  315.82    5.83
   1  -1  14  312.05    5.86
   0   1  14  312.15    5.70
   0   2 -14  358.01    6.73
   2  -2 -14  353.53    6.70
   0   2 -14  365.91    6.74
  -2   0 -14  363.25    6.79
  -2   0 -14  349.33    6.84
   0   2 -14  361.19    6.71
   0   2 -14  352.64    6.75
   2  -2 -14  360.19    6.83
   0   2 -14  365.42    6.70
  -2   2  14  372.51    6.75
   2   0  14  354.58    6.78
   2   0  14  348.38    6.79
   3  -1 -14  246.46    4.88
  -1  -2 -14  247.50    4.73
  -2   3 -14  249.91    4.80
  -2   3 -14  244.35    4.72
   3  -1 -14  235.91    4.62
  -2   3 -14  250.69    4.84
   3  -1 -14  252.66    4.95
  -1  -2 -14  250.47    4.90
   2  -3  14  246.52    4.83
   1   2  14  244.71    4.64
   1   2  14  246.33    4.91
   2  -3  14  244.31    4.75
   2  -3  14  243.70    4.77
  -3   1  14  248.58    4.92
  -3   1  14  254.28    4.88
  -3  -1 -14  161.01    3.50
  -1   4 -14  156.04    3.41
   4  -3 -14  159.66    3.41
  -1   4 -14  160.39    3.42
  -1   4 -14  164.34    3.17
   4  -3 -14  157.44    3.53
  -1   4 -14  161.89    3.20
  -3  -1 -14  160.36    3.44
  -1   4 -14  161.04    3.38
   4  -3 -14  159.73    3.09
  -4   3  14  166.94    3.48
   3   1  14  160.76    3.17
  -4   3  14  160.02    3.45
   3   1  14  162.33    3.36
   3   1  14  157.69    3.16
   3   1  14  160.04    3.49
   2   1 -14  245.24    4.70
   1  -3 -14  246.68    4.65
   1  -3 -14  243.68    4.70
   1  -3 -14  250.58    4.69
  -3   2 -14  244.09    4.83
   1  -3 -14  254.17    4.73
   2   1 -14  240.74    4.82
   2   1 -14  246.61    4.88
  -3   2 -14  254.34    4.91
  -3   2 -14  246.42    4.62
   3  -2  14  244.03    4.82
  -2  -1  14  239.32    4.78
  -1   3  14  246.75    4.78
   3  -2  14  247.60    4.87
   3  -2  14  242.56    4.64
  -1   3  14  246.86    4.74
   5  -2 -14  113.59    3.09
  -2  -3 -14  103.22    2.37
  -3   5 -14  104.27    2.61
   5  -2 -14  108.59    2.58
  -3   5 -14  103.97    2.42
  -2  -3 -14  101.49    2.57
  -3   5 -14  108.50    2.41
   2   3  14  107.46    2.31
   2   3  14  108.44    2.68
   3  -5  14  104.37    2.48
   2   3  14  102.90    2.34
   2   3  14   87.80    2.27
  -5   2  14  102.56    2.55
  -5   2  14  107.69    2.67
  -2   6 -14   88.94    2.43
   6  -4 -14   90.45    2.42
  -4  -2 -14   89.13    2.41
  -2   6 -14   92.52    2.29
   4   2  14   89.57    2.50
   4   2  14   86.77    2.18
   4   2  14   90.66    2.24
  -6   4  14   93.57    2.52
   4   2  14   89.55    2.19
   1   3 -14  156.74    3.40
   1   3 -14  162.34    3.39
   1   3 -14  155.48    3.23
   3  -4 -14  162.27    3.35
   1   3 -14  160.98    3.44
   3  -4 -14  163.34    3.38
   1   3 -14  154.27    3.38
  -4   1 -14  157.35    3.14
  -4   1 -14  162.24    3.56
  -4   1 -14  162.37    3.46
   4  -1  14  163.32    3.43
  -3   4  14  160.03    3.41
   4  -1  14  160.58    3.16
   4  -1  14  159.69    3.49
  -3   4  14  157.11    3.17
  -3   4  14  161.68    3.07
  -4   4 -14  168.32    3.61
   0  -4 -14  170.38    3.62
  -4   4 -14  172.29    3.49
   4   0 -14  172.31    3.73
   4   0 -14  168.24    3.30
   0  -4 -14  172.23    3.30
   0  -4 -14  161.79    3.26
   4   0 -14  168.21    3.76
  -4   4 -14  174.92    3.83
  -4   0  14  172.07    3.68
   4  -4  14  168.83    3.58
   0   4  14  167.26    3.78
   4  -4  14  167.61    3.60
  -4   0  14  171.09    3.70
   0   4  14  173.58    3.54
   4  -4  14  171.48    3.53
  -5   0 -14   99.19    2.74
   0   5 -14  100.88    2.08
   0   5 -14  101.47    2.13
   5  -5 -14   94.73    2.71
   0   5 -14  101.06    2.58
   5  -5 -14   98.90    2.48
   5   0  14  102.74    2.32
   5   0  14   99.99    2.54
  -5   5  14  103.28    2.41
  -5   3 -14  105.34    2.77
   2  -5 -14  104.75    2.25
  -5   3 -14  105.65    2.33
   3   2 -14  108.07    2.43
   2  -5 -14  106.97    2.13
  -5   3 -14  100.53    2.54
   3   2 -14  108.70    2.64
   2  -5 -14  110.09    2.46
   3   2 -14  104.36    2.51
   5  -3  14  106.72    2.37
  -3  -2  14  104.21    2.39
   5  -3  14  107.74    2.50
  -2   5  14  106.86    2.52
  -2   5  14  107.09    2.55
   5  -3  14  102.02    2.63
   1   5  14   64.40    2.18
   5  -6  14   67.70    1.97
   2   4 -14   91.31    2.40
   4  -6 -14   86.31    2.90
  -6   2 -14   89.96    2.12
   4  -6 -14   90.98    2.33
   2   4 -14   92.78    2.02
  -6   2 -14   91.53    2.74
   2   4 -14   90.37    2.46
   6  -2  14   90.52    2.36
  -4   6  14   87.63    2.28
  -4   6  14   92.92    2.37
   6  -2  14   89.34    2.20
   5   1 -14   66.66    1.73
   6  -5  14   69.49    2.09
   6  -5  14   66.59    1.91
  -1   6  14   65.03    2.15
   0   0 -15    3.42    0.33
   0   0 -15    3.29    0.32
   0   0 -15    3.64    0.20
   0   0  15    3.32    0.27
  -1   2 -15   39.62    0.95
   2  -1 -15   37.46    1.10
   2  -1 -15   40.37    1.05
  -1   2 -15   38.72    1.04
  -1  -1 -15   39.80    1.03
  -1   2 -15   38.85    1.03
  -1  -1 -15   39.86    1.10
  -2   1  15   40.71    1.05
   1  -2  15   39.71    1.04
   1   1  15   38.98    1.08
   1   1 -15   36.82    1.15
   1   1 -15   38.41    0.94
   1  -2 -15   38.75    1.01
   1  -2 -15   39.54    0.93
  -2   1 -15   37.97    1.17
   1   1 -15   39.88    0.95
   1   1 -15   39.09    1.05
   1  -2 -15   40.50    1.19
  -2   1 -15   39.06    1.08
   2  -1  15   38.43    1.05
  -1   2  15   38.47    0.93
  -1   2  15   40.05    0.96
   2  -1  15   39.21    1.06
  -2   4 -15    6.42    0.58
  -2  -2 -15    5.96    0.66
   4  -2 -15    6.74    0.79
  -2   4 -15    6.94    0.51
   4  -2 -15    5.63    0.59
  -2   4 -15    6.37    0.50
  -2  -2 -15    6.24    0.58
   2   2  15    6.01    0.40
   2   2  15    5.80    0.41
   2  -4  15    6.10    0.53
   2   2  15    6.32    0.43
  -4   2  15    5.73    0.64
  -4   2  15    6.06    0.61
   2   2  15    5.69    0.69
   0   3 -15   21.51    0.82
   0   3 -15   22.60    0.86
  -3   0 -15   23.29    0.95
  -3   0 -15   23.11    0.95
   3  -3 -15   23.17    0.96
   0   3 -15   22.31    0.72
   3  -3 -15   22.71    0.83
   0   3 -15   22.07    0.83
   0   3 -15   20.27    0.81
   3   0  15   21.29    0.60
  -3   3  15   23.17    0.88
   3   0  15   21.26    0.85
  -3   3  15   22.51    0.82
  -3   3 -15   33.09    0.90
   3   0 -15   31.20    0.77
   3   0 -15   32.73    1.09
  -3   3 -15   33.75    1.10
   3   0 -15   31.99    0.78
   3   0 -15   32.10    1.15
   0  -3 -15   32.28    0.86
   0  -3 -15   33.98    0.88
  -3   3 -15   31.45    1.04
   0  -3 -15   32.96    1.03
   0  -3 -15   32.89    0.89
   0   3  15   31.18    1.11
   0   3  15   31.05    0.91
  -3   0  15   30.44    1.29
   3  -3  15   30.19    1.21
   3  -3  15   32.53    0.94
   3  -3  15   32.27    1.02
  -3   0  15   32.96    1.06
  -3   6 -15   11.22    0.86
  -3   6 -15   11.20    0.86
  -3  -3 -15   10.68    1.06
   6  -3 -15   11.94    0.95
   3  -6  15   12.17    0.86
   3   3  15   11.63    0.80
   3   3  15   11.00    0.62
   3   3  15   11.69    1.06
   3   3  15   12.24    0.84
  -6   3  15   11.80    1.05
  -4  -1 -15   18.26    1.08
  -1   5 -15   17.17    0.67
   5  -4 -15   18.22    0.92
  -1   5 -15   19.01    0.95
  -1   5 -15   16.90    0.74
   5  -4 -15   16.45    1.26
  -1   5 -15   17.77    0.92
   4   1  15   18.29    0.98
  -5   4  15   17.96    0.95
   4   1  15   16.41    0.79
   4   1  15   17.89    0.76
   4   1  15   15.64    0.85
  -4   2 -15    5.08    0.72
   2   2 -15    7.15    0.60
  -4   2 -15    6.51    0.40
   2   2 -15    6.33    0.56
   2  -4 -15    6.84    0.49
  -4   2 -15    6.08    0.64
   2  -4 -15    6.32    0.53
   2   2 -15    5.64    0.52
   4  -2  15    6.41    0.42
   4  -2  15    5.62    0.54
  -2   4  15    6.33    0.60
   4  -2  15    5.68    0.62
  -2   4  15    5.89    0.58
  -1  -4 -15   15.15    1.12
  -1  -4 -15   12.20    0.55
  -4   5 -15   10.98    0.89
   5  -1 -15   11.42    0.87
  -4   5 -15   12.40    0.70
  -1  -4 -15   11.53    0.71
   4  -5  15   12.41    0.76
   1   4  15   11.92    0.81
   4  -5  15   11.04    0.74
   1   4  15   12.18    0.99
  -5   1  15   12.95    0.91
   1   4 -15   16.88    0.92
   4  -5 -15   17.76    0.86
   1   4 -15   17.24    0.92
   1   4 -15   16.36    0.91
  -5   1 -15   17.36    1.20
   1   4 -15   17.16    0.65
   4  -5 -15   16.73    1.14
   1   4 -15   19.49    0.77
   5  -1  15   17.11    0.76
   5  -1  15   16.83    0.91
  -4   5  15   16.35    0.75
  -4   5  15   15.76    1.03
  -4   5  15   17.24    0.58
   4   1 -15   12.86    0.89
   4   1 -15   13.17    0.69
  -5   4 -15   13.03    1.07
   1  -5 -15   11.14    0.47
   1  -5 -15   13.27    0.70
   4   1 -15   12.37    0.93
  -5   4 -15   11.92    0.67
   1  -5 -15   12.11    0.66
   1  -5 -15   13.10    0.72
  -1   5  15   12.47    0.87
  -4  -1  15   12.85    0.82
   5  -4  15   10.63    1.06
   5  -4  15   12.24    0.77
  -1   5  15   10.37    0.88
   3   3 -15    9.90    0.89
   3  -6 -15    9.91    0.77
   3   3 -15   11.87    0.88
   3   3 -15   11.74    0.96
   3  -6 -15   11.86    0.52
  -6   3 -15   11.37    0.71
  -6   3 -15    9.11    1.25
  -3   6  15   12.51    1.00
   6  -3  15   10.92    0.86
  -3   6  15   11.51    0.76
   6  -3  15   11.97    0.78
   1  -1 -16   60.59    1.28
   1  -1 -16   59.42    1.23
   0   1 -16   61.18    1.41
   0   1 -16   59.94    1.31
  -1   0 -16   60.22    1.42
   0   1 -16   57.73    1.28
   0   1 -16   59.33    1.33
  -1   0 -16   60.41    1.42
   1   0  16   60.13    1.38
  -1   1  16   60.29    1.41
  -1   1  16   59.75    1.20
  -1   3 -16   40.39    1.18
  -2  -1 -16   41.19    1.17
  -1   3 -16   41.05    1.09
  -2  -1 -16   41.82    1.25
   3  -2 -16   38.47    1.26
   3  -2 -16   41.02    1.17
  -3   2  16   38.98    1.20
   2   1  16   39.02    0.85
   2   1  16   39.51    0.85
   2   1  16   39.35    1.10
  -3   2  16   42.06    1.20
   2   1  16   39.99    1.23
  -2   2 -16  130.00    2.70
  -2   2 -16  124.27    2.66
   2   0 -16  129.94    2.69
   0  -2 -16  127.95    2.58
   2   0 -16  125.25    2.42
   2   0 -16  128.94    2.73
   0  -2 -16  126.85    2.45
   2   0 -16  123.21    2.39
   0  -2 -16  129.57    2.65
   2  -2  16  124.41    2.49
   0   2  16  130.16    2.48
   2  -2  16  125.77    2.66
   0   2  16  126.75    2.66
   2  -2  16  127.53    2.66
  -2   0  16  125.90    2.65
  -3  -2 -16   24.80    1.12
   5  -3 -16   25.86    1.08
  -2   5 -16   25.97    1.01
  -2   5 -16   26.38    1.06
  -2   5 -16   25.35    0.91
   3   2  16   24.17    0.85
  -5   3  16   24.98    1.15
   3   2  16   25.16    0.89
   3   2  16   26.14    1.21
  -5   3  16   25.48    1.41
   3   2  16   26.33    0.91
   1   2 -16   38.14    1.13
   1   2 -16   41.24    1.17
   1   2 -16   41.09    1.11
   2  -3 -16   40.13    1.14
  -3   1 -16   39.43    1.29
  -3   1 -16   38.97    0.85
   1   2 -16   37.59    1.09
   1   2 -16   39.91    1.14
   2  -3 -16   38.91    1.07
   3  -1  16   40.31    1.19
  -2   3  16   40.59    0.97
   3  -1  16   38.96    1.17
   3  -1  16   39.00    0.86
  -2   3  16   40.98    1.13
  -1  -3 -16   31.34    1.13
  -3   4 -16   31.78    0.97
  -1  -3 -16   31.55    0.95
  -3   4 -16   30.37    1.08
   4  -1 -16   30.63    1.14
   4  -1 -16   31.21    1.26
   3  -4  16   32.05    1.01
   1   3  16   31.69    0.94
  -4   1  16   29.76    1.15
   3  -4  16   30.78    1.01
  -4   1  16   31.44    1.12
   1   3  16   31.54    1.22
   0   4 -16   56.16    1.61
   0   4 -16   56.15    1.38
  -4   0 -16   54.57    1.74
   0   4 -16   57.85    1.61
   0   4 -16   55.45    1.64
   4  -4 -16   56.96    1.56
   4  -4 -16   54.97    1.72
   0   4 -16   56.26    1.58
  -4   0 -16   53.52    1.66
   0   4 -16   56.71    1.36
   4   0  16   57.03    1.33
  -4   4  16   57.20    1.68
   4   0  16   56.94    1.64
  -4   4  16   56.31    1.53
   4   0  16   56.59    1.64
   3   1 -16   31.49    1.15
   3   1 -16   31.20    0.93
   1  -4 -16   30.56    0.95
   1  -4 -16   32.12    0.85
  -4   3 -16   31.17    1.11
   1  -4 -16   30.87    0.90
  -4   3 -16   32.26    0.90
  -4   3 -16   31.32    1.22
   1  -4 -16   30.47    0.98
   3   1 -16   30.70    1.15
   4  -3  16   31.66    1.08
   4  -3  16   30.26    1.12
  -1   4  16   30.20    1.04
  -3  -1  16   30.50    1.05
   4  -3  16   31.56    0.94
  -1   4  16   30.83    1.13
   6  -2 -16   25.80    1.33
  -2  -4 -16   27.53    1.69
  -4   6 -16   24.74    1.39
   2   4  16   27.47    1.05
   2   4  16   29.21    1.51
   4  -6  16   28.34    1.23
  -6   2  16   29.87    1.78
   2   3 -16   24.45    1.01
   3  -5 -16   26.41    1.10
   2   3 -16   25.49    1.10
  -5   2 -16   24.64    1.30
   2   3 -16   24.78    0.98
   3  -5 -16   25.23    0.97
   5  -2  16   24.50    0.85
  -3   5  16   24.62    0.99
  -3   5  16   24.73    1.16
   5  -2  16   25.55    1.05
   5   0 -16   15.33    1.05
  -5   5 -16   14.85    1.16
  -5   5 -16   14.64    0.84
   5   0 -16   16.34    0.61
   5  -5  16   15.25    0.89
   0   5  16   15.28    1.13
   0   5  16   15.41    1.00
  -5   0  16   15.40    1.02
  -6   4 -16   24.20    1.63
   2  -6 -16   28.75    1.12
   4   2 -16   26.93    1.10
  -6   4 -16   29.45    1.48
   4   2 -16   26.19    1.35
   6  -4  16   28.79    1.13
  -2   6  16   28.18    1.40
  -4  -2  16   28.60    1.13
   6  -4  16   27.68    1.24
   1   0 -17  101.84    2.06
   1   0 -17   99.98    1.96
  -1   1 -17   99.00    1.89
   0  -1 -17  101.82    2.13
   0  -1 -17   99.98    2.08
  -1   1 -17   97.83    1.88
   1   0 -17   98.10    2.16
  -1   1 -17  101.72    2.16
  -1   1 -17  100.47    2.12
   0   1  17   99.15    2.04
   1  -1  17   99.72    2.09
   2  -2 -17  174.51    3.45
   0   2 -17  176.67    3.49
   0   2 -17  178.63    3.48
  -2   0 -17  176.40    3.57
  -2   0 -17  179.83    3.60
   0   2 -17  170.30    3.49
   2  -2 -17  170.05    3.66
   0   2 -17  167.87    3.65
   0   2 -17  175.51    3.50
  -2   2  17  179.16    3.49
   2   0  17  173.65    3.55
   2   0  17  176.70    3.56
  -1  -2 -17   68.41    1.63
  -2   3 -17   72.21    1.58
  -2   3 -17   70.19    1.73
   3  -1 -17   69.67    1.83
  -1  -2 -17   72.79    1.78
  -2   3 -17   70.40    1.70
   3  -1 -17   72.17    1.75
   2  -3  17   70.40    1.76
  -3   1  17   71.01    1.74
  -3   1  17   69.12    1.77
   1   2  17   68.94    1.45
   1   2  17   69.08    1.78
   1   2  17   68.77    1.43
  -3  -1 -17   50.37    1.50
  -1   4 -17   51.37    1.45
  -3  -1 -17   47.08    1.51
  -1   4 -17   50.25    1.45
   4  -3 -17   48.71    1.61
  -1   4 -17   48.88    1.24
  -1   4 -17   49.04    1.38
   4  -3 -17   49.76    1.43
  -1   4 -17   49.31    1.27
   3   1  17   49.94    1.22
  -4   3  17   48.15    1.45
   3   1  17   49.64    1.38
   3   1  17   48.71    1.12
   3   1  17   48.32    1.50
  -4   3  17   49.47    1.49
   1  -3 -17   68.45    1.63
   1  -3 -17   71.15    1.60
   2   1 -17   70.83    1.57
  -3   2 -17   65.43    1.83
  -3   2 -17   68.76    1.74
   1  -3 -17   71.91    1.56
   1  -3 -17   71.28    1.57
   2   1 -17   70.87    1.76
   2   1 -17   69.94    1.74
   2   1 -17   67.11    1.53
   3  -2  17   66.55    1.93
   3  -2  17   69.17    1.47
  -1   3  17   71.41    1.61
  -1   3  17   70.72    1.67
   3  -2  17   74.51    1.78
   5  -2 -17   35.73    1.33
  -2  -3 -17   36.40    1.22
  -3   5 -17   39.69    1.30
  -3   5 -17   37.24    1.19
   3  -5  17   36.72    1.27
   2   3  17   34.92    1.41
   2   3  17   36.25    1.06
   2   3  17   37.45    1.14
  -5   2  17   36.46    1.40
   1   3 -17   45.89    1.39
   1   3 -17   49.18    1.41
   1   3 -17   48.10    1.26
   1   3 -17   49.83    1.46
   3  -4 -17   47.83    1.63
   1   3 -17   50.27    1.32
   3  -4 -17   51.11    1.46
  -4   1 -17   47.72    1.50
  -4   1 -17   49.84    1.59
   4  -1  17   48.32    1.44
   4  -1  17   47.60    1.12
   4  -1  17   49.62    1.51
  -3   4  17   47.83    1.12
  -3   4  17   49.07    1.46
   4   0 -17   72.68    2.10
   0  -4 -17   76.74    1.71
   0  -4 -17   76.40    1.70
   4   0 -17   78.05    1.60
  -4   4 -17   79.05    2.09
   4   0 -17   79.14    2.09
  -4   4 -17   79.69    1.82
   4   0 -17   76.58    1.61
   0  -4 -17   78.21    1.97
   0   4  17   73.99    2.08
  -4   0  17   76.33    2.04
   4  -4  17   79.23    2.00
   0   4  17   76.45    1.88
  -4   0  17   76.52    2.04
   4  -4  17   75.43    1.97
   4  -4  17   78.37    1.88
   0   5 -17   27.90    0.88
   5  -5 -17   26.25    1.15
   0   5 -17   27.99    1.26
   0   5 -17   27.86    1.20
  -5   0 -17   25.83    1.49
  -5   5  17   28.08    1.11
   5   0  17   26.00    0.96
   5   0  17   26.51    1.22
   3   2 -17   38.51    1.20
  -5   3 -17   37.55    1.06
  -5   3 -17   36.07    1.54
   2  -5 -17   37.17    0.97
   3   2 -17   36.83    1.32
   3   2 -17   37.06    1.37
   2  -5 -17   37.84    1.19
   5  -3  17   36.62    1.26
  -2   5  17   35.59    1.33
   5  -3  17   37.28    1.12
  -2   5  17   37.15    1.30
   0   0 -18   21.47    0.69
   0   0 -18   21.01    0.73
   0   0 -18   21.05    0.51
   0   0  18   21.54    0.63
   2  -1 -18   -0.20    0.25
  -1   2 -18    0.81    0.22
  -1   2 -18    0.38    0.19
   2  -1 -18    0.23    0.26
  -1  -1 -18   -0.08    0.22
  -1  -1 -18    0.16    0.30
  -1   2 -18    0.05    0.22
  -1   2 -18    0.42    0.22
   1  -2  18    0.01    0.21
   1   1  18   -0.12    0.26
   1   1 -18   -0.13    0.22
   1  -2 -18    0.11    0.20
   1  -2 -18    0.45    0.19
  -2   1 -18    0.31    0.25
   1   1 -18    0.39    0.20
   1   1 -18   -0.24    0.21
   1  -2 -18    0.17    0.24
   1  -2 -18    0.22    0.19
   1   1 -18    0.42    0.19
  -2   1 -18   -0.21    0.30
  -1   2  18    0.07    0.18
  -1   2  18   -0.03    0.19
   2  -1  18    0.33    0.22
   2  -1  18    0.54    0.25
  -2  -2 -18    5.78    0.70
  -2   4 -18    6.79    0.51
  -2   4 -18    6.17    0.62
  -2  -2 -18    5.82    0.65
   4  -2 -18    6.81    0.64
   4  -2 -18    6.71    0.43
   4  -2 -18    7.40    0.82
   2   2  18    5.75    0.71
  -4   2  18    5.71    0.65
   2   2  18    6.60    0.40
  -4   2  18    6.97    0.69
   2   2  18    5.76    0.37
   3  -3 -18    0.07    0.26
   0   3 -18    0.36    0.25
   0   3 -18    0.23    0.26
   0   3 -18    0.55    0.24
   0   3 -18    0.04    0.27
   3  -3 -18   -0.22    0.32
  -3   0 -18    0.18    0.32
   0   3 -18    0.37    0.25
   0   3 -18    0.02    0.19
  -3   0 -18    0.24    0.33
   3   0  18   -0.10    0.25
  -3   3  18    0.67    0.33
   3   0  18    0.06    0.28
  -3   3 -18    0.25    0.19
   3   0 -18    0.24    0.52
   0  -3 -18    0.30    0.23
   0  -3 -18    0.50    0.20
   3   0 -18    0.39    0.31
   0  -3 -18    0.21    0.27
   0  -3 -18    0.17    0.21
  -3   3 -18   -0.16    0.27
   0   3  18    0.55    0.24
   3  -3  18    0.45    0.27
   0   3  18   -0.25    0.32
   3  -3  18    0.40    0.23
   3  -3  18    0.44    0.26
  -4  -1 -18   -0.38    0.48
   5  -4 -18    0.59    0.37
  -1   5 -18    0.81    0.41
  -1   5 -18    0.59    0.39
  -1   5 -18    0.52    0.26
   4   1  18   -0.17    0.30
   4   1  18    0.27    0.40
  -5   4  18    0.35    0.37
   4   1  18    0.35    0.43
  -4   2 -18    5.84    0.34
   2   2 -18    6.31    0.53
   2   2 -18    4.78    0.56
  -4   2 -18    6.25    0.72
   2  -4 -18    6.25    0.46
   2   2 -18    5.68    0.62
   2   2 -18    5.60    0.58
  -4   2 -18    5.97    0.77
   2  -4 -18    6.72    0.51
   2  -4 -18    6.80    0.65
   2   2 -18    7.19    0.76
  -2   4  18    6.20    0.66
   4  -2  18    5.96    0.65
   4  -2  18    5.95    0.59
  -2   4  18    6.05    0.58
   4  -2  18    6.41    0.41
   5  -1 -18   -0.33    0.38
  -4   5 -18   -0.37    0.33
  -4   5 -18   -0.41    0.39
  -1  -4 -18    0.49    0.31
  -1  -4 -18    0.24    0.36
  -5   1  18   -0.11    0.39
   1   4  18    0.53    0.47
   4  -5  18    0.45    0.38
   1   4  18    0.77    0.49
   4  -5  18   -0.04    0.38
   1   4 -18   -0.35    0.37
   4  -5 -18   -0.02    0.56
  -5   1 -18    0.85    0.57
   1   4 -18    0.49    0.25
   1   4 -18    0.73    0.32
   1   4 -18    0.29    0.36
   4  -5 -18    0.15    0.31
   5  -1  18    0.11    0.29
   5  -1  18    0.02    0.37
   1  -5 -18    0.23    0.25
   1  -5 -18    0.81    0.33
   4   1 -18   -0.06    0.29
   1  -5 -18    0.27    0.32
  -5   4 -18   -0.07    0.31
   4   1 -18   -0.44    0.41
  -5   4 -18   -0.57    0.49
   1  -5 -18    0.07    0.28
  -4  -1  18    0.17    0.35
  -1   5  18   -0.26    0.46
   5  -4  18    0.34    0.37
  -1   5  18    0.51    0.50
   0   1 -19   20.68    0.76
  -1   0 -19   20.84    0.78
  -1   0 -19   20.28    0.94
   1  -1 -19   20.70    0.60
   0   1 -19   20.36    0.61
   1  -1 -19   21.05    0.81
   0   1 -19   20.62    0.69
   0   1 -19   20.95    0.64
   0   1 -19   20.65    0.77
   1  -1 -19   20.81    0.62
  -1   1  19   20.66    0.62
  -1   1  19   22.14    0.55
   1   0  19   21.41    0.72
  -1   3 -19   20.37    0.83
  -1   3 -19   21.16    0.74
   3  -2 -19   20.09    0.80
   3  -2 -19   22.21    0.95
  -2  -1 -19   20.84    0.91
  -2  -1 -19   19.09    1.25
  -1   3 -19   19.81    0.77
  -3   2  19   20.22    0.84
   2   1  19   19.87    0.88
   2   1  19   21.37    0.79
  -2   2 -19   47.80    1.04
   2   0 -19   46.87    1.00
   0  -2 -19   48.60    1.23
   2   0 -19   47.74    1.02
   0  -2 -19   48.38    1.25
   2   0 -19   48.77    1.37
  -2   2 -19   48.00    1.31
   2   0 -19   48.17    1.29
   0  -2 -19   49.41    1.02
   0  -2 -19   49.06    1.28
  -2   2 -19   39.42    1.75
   0   2  19   47.75    1.25
   0   2  19   47.49    1.04
  -2   0  19   49.53    1.27
   2  -2  19   48.07    1.28
  -2   5 -19    9.45    0.66
  -3  -2 -19    7.51    0.86
  -2   5 -19    9.31    0.56
   5  -3 -19    8.08    0.76
  -2   5 -19    8.21    0.72
   3   2  19    8.44    0.57
  -5   3  19    9.05    0.85
   3   2  19    7.39    0.52
   3   2  19    8.11    0.61
   3   2  19    8.91    0.88
   2  -3 -19   20.69    0.72
   1   2 -19   19.95    0.74
   1   2 -19   20.48    0.81
   1   2 -19   20.60    0.76
   1   2 -19   20.66    0.83
   1   2 -19   20.69    0.79
  -3   1 -19   19.90    0.90
  -3   1 -19   21.00    0.92
   2  -3 -19   20.15    0.86
  -2   3  19   20.48    0.57
  -2   3  19   17.10    1.16
   3  -1  19   21.43    0.87
   3  -1  19   20.73    0.83
   4  -1 -19   13.66    1.26
  -3   4 -19   11.99    0.79
  -3   4 -19   11.99    0.76
  -1  -3 -19   12.91    0.68
   4  -1 -19   12.54    0.80
  -1  -3 -19   12.14    0.81
  -3   4 -19   13.50    0.63
   1   3  19   12.49    0.90
  -4   1  19   11.92    0.81
   1   3  19   12.46    0.57
   1   3  19   12.42    0.61
   3  -4  19   12.67    0.70
  -4   1  19   12.86    0.84
   0   4 -19   22.75    1.03
   0   4 -19   23.44    1.02
   4  -4 -19   22.13    1.25
   0   4 -19   20.96    0.94
   0   4 -19   23.88    0.83
   4  -4 -19   22.05    0.94
   0   4 -19   22.83    0.96
   0   4 -19   23.26    1.00
  -4   0 -19   23.57    1.19
  -4   4  19   23.61    1.16
   4   0  19   23.02    0.64
   4   0  19   24.08    1.05
   3   1 -19   12.42    0.85
   3   1 -19   11.64    0.55
   3   1 -19   12.54    0.81
   1  -4 -19   12.89    0.61
   1  -4 -19   13.35    0.65
   1  -4 -19   12.78    0.58
   3   1 -19   12.53    0.60
  -4   3 -19   11.78    0.54
  -4   3 -19   13.61    0.90
   1  -4 -19   13.18    0.69
  -4   3 -19   12.64    0.93
  -1   4  19   11.89    0.75
   4  -3  19   11.88    0.82
  -1   4  19   11.76    0.82
   4  -3  19   13.58    0.62
   4  -3  19   12.20    0.74
   3  -5 -19    9.50    0.67
  -5   2 -19    6.56    1.03
   2   3 -19    7.69    0.72
   2   3 -19    8.28    0.72
   2   3 -19    7.57    0.77
   2   3 -19    8.01    0.71
  -5   2 -19    7.67    0.49
   3  -5 -19    7.78    0.95
   5  -2  19    8.57    0.55
   5  -2  19    8.41    0.74
  -3   5  19    8.04    0.96
  -3   5  19    6.54    1.10
  -3   5  19    8.32    0.52
   1   0 -20   17.13    0.62
   0  -1 -20   19.50    0.70
   0  -1 -20   16.94    0.70
   1   0 -20   17.13    0.76
  -1   1 -20   16.04    0.71
  -1   1 -20   17.26    0.73
   1   0 -20   16.99    0.57
   0   1  20   16.66    0.61
   1  -1  20   17.07    0.67
   0   2 -20    8.73    0.57
   0   2 -20    8.42    0.48
   2  -2 -20    8.41    0.63
   0   2 -20    8.22    0.51
   0   2 -20    7.87    0.51
   2  -2 -20    8.19    0.49
  -2   0 -20    8.09    0.60
  -2   0 -20    8.99    0.67
   0   2 -20    7.66    0.62
   2   0  20    8.41    0.59
   2   0  20    8.11    0.55
  -2   2  20    8.60    0.53
  -2   3 -20   16.86    0.61
  -2   3 -20   18.44    0.81
   3  -1 -20   18.01    0.81
  -1  -2 -20   17.73    0.73
  -1  -2 -20   17.13    0.84
  -2   3 -20   18.40    0.79
   3  -1 -20   17.66    0.91
   1   2  20   17.44    0.85
  -3   1  20   17.75    0.81
  -1   4 -20   10.86    0.64
  -3  -1 -20   10.41    0.84
   4  -3 -20    9.76    0.98
  -1   4 -20   10.86    0.60
  -1   4 -20   10.57    0.77
  -1   4 -20   10.28    0.62
  -3  -1 -20    9.87    1.06
   4  -3 -20   10.31    0.70
  -1   4 -20   10.55    0.70
   3   1  20   10.32    0.69
   3   1  20   10.73    0.80
  -4   3  20   11.15    0.75
  -4   3  20    9.18    0.84
   2   1 -20   18.35    0.60
  -3   2 -20   16.87    0.86
   1  -3 -20   18.12    0.67
   1  -3 -20   18.51    0.64
   2   1 -20   17.60    0.65
   1  -3 -20   16.52    0.76
   2   1 -20   17.43    0.61
   2   1 -20   18.98    0.82
   2   1 -20   19.28    0.86
   1  -3 -20   17.36    0.70
  -3   2 -20   18.00    0.86
   3  -2  20   18.38    0.79
  -1   3  20   17.92    0.74
  -1   3  20   16.87    0.69
   3  -2  20   17.91    0.82
  -3   5 -20    7.02    0.64
  -2  -3 -20    6.17    0.76
  -3   5 -20    6.71    0.73
   5  -2 -20    7.03    0.79
  -5   2  20    7.42    0.86
   2   3  20    5.48    0.51
   2   3  20    7.03    0.91
   1   3 -20   10.76    0.74
   1   3 -20   10.13    0.71
   1   3 -20   10.20    0.61
  -4   1 -20    9.55    0.91
   1   3 -20   11.44    0.73
   3  -4 -20   10.56    0.88
   1   3 -20   11.71    0.67
   1   3 -20   10.86    0.70
   3  -4 -20   10.62    0.65
   4  -1  20   11.16    0.76
  -3   4  20   10.45    0.85
  -4   4 -20    5.21    0.53
   0  -4 -20    5.95    0.61
   4   0 -20    5.22    0.74
  -4   4 -20    5.95    0.82
   0  -4 -20    5.00    0.53
   0  -4 -20    5.05    0.65
   4  -4  20    6.26    0.61
  -4   0  20    5.24    0.71
   0   4  20    6.34    0.69
   0   4  20    4.99    0.80
   4  -4  20    6.52    0.66
   3   2 -20    7.71    0.65
  -5   3 -20    5.77    0.76
   3   2 -20    5.68    0.67
   2  -5 -20    6.04    0.59
   3   2 -20    6.16    0.79
   2  -5 -20    7.21    0.82
   2  -5 -20    6.69    0.54
   5  -3  20    6.80    0.71
  -2   5  20    6.45    0.72
  -2   5  20    6.27    0.82
   5  -3  20    6.67    0.60
   0   0 -21  375.19    6.98
   0   0 -21  376.49    7.42
   0   0 -21  395.81    7.22
   0   0 -21  392.14    7.34
   0   0  21  388.14    7.16
  -1   2 -21  333.93    6.27
  -1  -1 -21  343.30    6.48
   2  -1 -21  329.18    6.52
  -1   2 -21  341.92    6.45
   2  -1 -21  337.06    6.36
  -1  -1 -21  320.41    6.86
  -1   2 -21  337.74    6.24
  -1   2 -21  342.40    6.49
  -2   1  21  334.23    6.38
   1   1  21  336.19    6.42
  -2   1 -21  333.07    6.52
   1   1 -21  331.39    6.39
   1   1 -21  334.82    6.48
   1  -2 -21  337.38    6.46
   1   1 -21  335.02    6.30
   1  -2 -21  338.83    6.21
  -2   1 -21  340.33    6.50
   1  -2 -21  333.54    6.26
   1  -2 -21  321.35    6.60
   1   1 -21  348.30    6.29
   1   1 -21  343.48    6.51
  -1   2  21  336.80    6.22
  -1   2  21  326.38    6.25
   2  -1  21  330.35    6.44
  -2   4 -21  206.40    4.47
   4  -2 -21  208.49    4.31
  -2   4 -21  210.36    4.24
  -2   4 -21  210.68    4.16
  -2  -2 -21  208.26    4.26
  -2  -2 -21  198.49    4.39
   4  -2 -21  207.39    4.01
   2   2  21  197.27    4.66
  -4   2  21  201.53    4.38
  -4   2  21  210.61    4.38
   0   3 -21  228.01    4.56
   0   3 -21  228.71    4.56
  -3   0 -21  227.23    4.74
   0   3 -21  239.68    4.77
   0   3 -21  229.70    4.59
   3  -3 -21  225.75    4.55
  -3   0 -21  227.06    4.73
   3  -3 -21  228.15    4.72
   0   3 -21  224.74    4.66
   0   3 -21  224.83    4.62
   3   0  21  223.75    4.69
   3   0  21  227.70    4.71
  -3   3  21  230.32    4.64
   3   0 -21  263.62    5.31
   0  -3 -21  257.85    5.14
  -3   3 -21  254.22    5.22
   0  -3 -21  250.10    5.06
  -3   3 -21  264.70    5.26
   0  -3 -21  254.46    5.03
  -3   3 -21  254.52    4.87
   3   0 -21  253.63    5.28
   3  -3  21  252.29    5.18
   0   3  21  264.77    5.20
   3  -3  21  260.55    5.20
   0   3  21  262.61    4.91
  -1   5 -21  134.38    3.24
  -4  -1 -21  140.09    3.42
  -1   5 -21  141.86    3.33
  -1   5 -21  142.68    3.03
   5  -4 -21  143.05    3.27
   4   1  21  135.55    3.38
  -5   4  21  141.28    3.29
  -4   2 -21  206.73    4.47
   2  -4 -21  210.10    4.13
   2   2 -21  210.61    4.18
   2   2 -21  197.57    4.13
   2   2 -21  208.09    4.34
   2  -4 -21  207.36    4.13
   2   2 -21  200.76    4.28
   2   2 -21  206.56    4.38
   2  -4 -21  203.61    4.22
  -2   4  21  208.90    4.26
  -2   4  21  206.49    4.07
   4  -2  21  209.51    4.36
  -4   5 -21  120.39    3.09
  -1  -4 -21  128.65    2.87
  -4   5 -21  120.89    3.01
   5  -1 -21  119.91    3.06
   1   4  21  121.75    3.15
   4  -5  21  122.07    2.87
   1   4  21  128.17    2.82
  -5   1  21  122.65    3.38
  -5   1 -21  139.02    3.57
   1   4 -21  134.28    3.05
   1   4 -21  137.99    3.00
   1   4 -21  138.34    3.32
   4  -5 -21  136.83    3.15
   1   4 -21  138.64    3.25
   5  -1  21  146.68    3.66
   1  -5 -21  115.66    2.54
   1  -5 -21  123.78    2.69
   1  -5 -21  115.21    2.71
   4   1 -21  121.07    3.04
  -5   4 -21  119.57    3.15
  -1   5  21  119.44    2.99
   5  -4  21  123.44    3.40
   5  -4  21  121.64    2.71
   1  -1 -22   38.57    1.18
   1  -1 -22   38.33    0.92
   0   1 -22   38.35    0.93
  -1   0 -22   38.69    1.15
   0   1 -22   37.85    1.15
   1  -1 -22   38.75    1.15
   0   1 -22   38.22    0.95
   0   1 -22   39.19    1.16
   0   1 -22   38.40    1.07
  -1   0 -22   37.86    1.15
   1  -1 -22   37.70    0.93
   1   0  22   38.68    1.07
  -1   1  22   37.10    0.92
  -1   1  22   38.60    0.88
  -2  -1 -22   29.63    1.07
  -1   3 -22   30.93    1.00
  -1   3 -22   29.30    1.01
   3  -2 -22   29.02    1.00
   3  -2 -22   29.65    1.19
  -1   3 -22   29.72    0.92
  -1   3 -22   30.48    1.04
  -2  -1 -22   29.29    1.12
  -1   3 -22   30.21    0.97
   2   1  22   29.79    1.08
  -3   2  22   30.46    1.08
  -2   2 -22   21.60    0.89
   0  -2 -22   20.92    0.84
  -2   2 -22   20.16    0.54
   2   0 -22   22.15    0.83
   2   0 -22   21.24    0.92
   0  -2 -22   21.37    0.82
  -2   2 -22   21.10    0.89
   0  -2 -22   21.78    0.82
   0   2  22   21.72    0.80
   2  -2  22   21.52    0.84
   5  -3 -22    9.98    0.86
  -2   5 -22   10.95    0.94
  -2   5 -22   10.18    0.84
  -2   5 -22    7.14    0.83
  -2   5 -22    8.24    0.66
  -3  -2 -22    7.61    0.96
  -5   3  22    8.74    0.96
   3   2  22    9.31    0.98
   1   2 -22   29.50    0.83
   2  -3 -22   30.18    0.90
  -3   1 -22   29.81    1.15
   2  -3 -22   28.92    1.10
   2  -3 -22   30.45    1.02
  -3   1 -22   30.78    1.16
   1   2 -22   29.13    1.06
   1   2 -22   31.16    0.99
   1   2 -22   30.50    1.05
   1   2 -22   29.74    1.00
   1   2 -22   29.39    1.01
   1   2 -22   30.22    0.96
  -2   3  22   30.25    1.02
   3  -1  22   30.54    1.08
   3  -1  22   29.64    1.11
  -1  -3 -22   16.96    0.82
   4  -1 -22   17.92    0.95
  -1  -3 -22   15.95    0.93
  -3   4 -22   17.64    0.94
  -3   4 -22   16.46    0.71
   1   3  22   16.44    1.00
  -4   1  22   16.92    1.02
   1   3  22   16.29    0.63
   1   3  22   16.13    0.55
   0   4 -22    9.38    0.64
   0   4 -22    8.96    0.67
   4  -4 -22   10.32    0.72
   0   4 -22    9.07    0.77
   0   4 -22   11.51    0.94
  -4   0 -22    6.65    0.97
   0   4 -22   10.31    0.80
  -4   4  22    7.64    0.96
   4   0  22    9.73    0.84
   1  -4 -22   16.85    0.90
   1  -4 -22   16.84    0.76
   1  -4 -22   16.72    0.69
  -4   3 -22   16.09    1.04
  -4   3 -22   16.20    0.56
   1  -4 -22   16.41    0.72
   3   1 -22   16.74    0.62
   3   1 -22   17.06    0.96
   4  -3  22   17.12    0.89
   4  -3  22   15.70    0.64
  -1   4  22   16.07    0.89
  -1   4  22   16.08    0.91
   3  -5 -22    8.98    1.05
   2   3 -22    6.60    0.74
   2   3 -22    6.78    0.87
   2   3 -22    8.71    0.78
   3  -5 -22    8.96    0.75
  -5   2 -22    7.72    1.21
   2   3 -22    8.96    0.68
   3  -5 -22    9.20    0.69
  -3   5  22    8.12    1.06
   5  -2  22    9.09    0.91
   1   0 -23   15.04    0.58
   1   0 -23   15.09    0.74
   1   0 -23   14.88    0.75
  -1   1 -23   15.07    0.72
   0  -1 -23   14.41    0.67
   1   0 -23   15.08    0.55
   0  -1 -23   15.12    0.71
   0  -1 -23   14.61    0.74
  -1   1 -23   15.42    0.74
   0   1  23   17.22    0.62
   1  -1  23   16.81    0.67
   0   2 -23    1.51    0.32
   0   2 -23    3.11    0.46
   2  -2 -23    2.07    0.41
  -2   0 -23    1.69    0.40
  -2   0 -23    1.80    0.35
   0   2 -23    1.95    0.33
   2  -2 -23    2.17    0.31
   0   2 -23    2.21    0.34
  -2   2  23    1.79    0.34
   2   0  23    1.90    0.36
  -2   3 -23    8.70    0.67
  -2   3 -23    8.07    0.44
  -1  -2 -23    7.97    0.60
  -2   3 -23    8.37    0.67
  -1  -2 -23    7.41    0.70
   3  -1 -23    7.27    0.68
  -2   3 -23    8.48    0.50
  -3   1  23    7.39    0.71
   1   2  23    8.66    0.70
  -1   4 -23    8.95    0.70
   4  -3 -23    8.51    0.70
  -1   4 -23    7.75    0.64
  -1   4 -23    8.40    0.65
  -3  -1 -23    6.60    0.84
  -1   4 -23    7.99    0.62
  -1   4 -23    8.04    0.67
   3   1  23    9.93    0.83
  -4   3  23    6.87    0.93
  -3   2 -23    8.70    0.76
   2   1 -23    8.57    0.49
   1  -3 -23    8.16    0.57
   1  -3 -23    8.11    0.45
   1  -3 -23    6.91    0.63
   2   1 -23    7.26    0.66
  -3   2 -23    8.67    0.76
   2   1 -23    8.77    0.46
   2   1 -23    9.39    0.74
   2   1 -23    8.05    0.51
   1  -3 -23    7.64    0.69
  -1   3  23    7.83    0.55
  -1   3  23    8.70    0.57
   3  -2  23    8.40    0.63
   1   3 -23    7.57    0.70
   3  -4 -23    8.51    0.62
   1   3 -23    7.91    0.63
  -4   1 -23    7.15    0.92
   1   3 -23    8.53    0.70
   1   3 -23    7.57    0.70
   3  -4 -23    8.57    0.99
   1   3 -23    8.72    0.70
   1   3 -23    7.17    0.72
  -3   4  23    7.94    0.90
   4  -1  23    8.81    0.76
   4   0 -23    1.82    0.51
   0  -4 -23    1.09    0.43
   0  -4 -23    2.67    0.42
   0  -4 -23    1.24    0.35
   4  -4  23    1.76    0.43
   0   4  23    1.57    0.53
   0   0 -24    6.93    0.54
   0   0 -24    7.45    0.57
   0   0 -24    7.20    0.61
   0   0  24    7.40    0.46
  -1   2 -24    0.06    0.20
   2  -1 -24    0.84    0.35
  -1  -1 -24    0.15    0.31
  -1   2 -24    0.15    0.25
  -1   2 -24    0.45    0.17
  -1  -1 -24    0.17    0.27
   2  -1 -24   -0.07    0.25
  -1   2 -24    0.09    0.28
  -2   1  24    0.51    0.34
   1   1  24    0.12    0.28
   1   1 -24    0.80    0.24
   1   1 -24   -0.25    0.25
   1  -2 -24   -0.06    0.23
   1   1 -24    0.41    0.22
   1  -2 -24    0.33    0.32
   1   1 -24    0.50    0.32
  -2   1 -24   -0.03    0.27
   1   1 -24    0.91    0.31
   1   1 -24    0.34    0.24
  -2   1 -24    0.41    0.32
   1  -2 -24    0.70    0.22
   1  -2 -24    0.58    0.18
   2  -1  24    0.66    0.27
  -1   2  24    0.34    0.20
  -1   2  24    0.40    0.21
   4  -2 -24    2.90    0.49
  -2  -2 -24    2.27    0.46
   4  -2 -24    2.73    0.36
  -2   4 -24    3.81    0.50
  -2   4 -24    2.39    0.43
  -2   4 -24    3.67    0.60
   2   2  24    2.67    0.51
  -4   2  24    2.45    0.59
   0   3 -24    0.21    0.33
   0   3 -24    0.27    0.30
   0   3 -24    0.20    0.27
  -3   0 -24    0.16    0.37
   0   3 -24    0.13    0.28
   3  -3 -24    0.77    0.38
  -3   3  24   -0.03    0.44
   3   0  24    0.48    0.35
   0  -3 -24    0.38    0.39
  -3   3 -24   -0.01    0.19
  -3   3 -24    0.32    0.37
   0  -3 -24   -0.02    0.33
   3   0 -24    0.13    0.33
   0  -3 -24   -0.10    0.26
   0   3  24    0.14    0.35
   3  -3  24    0.16    0.32
   0   3  24   -0.02    0.30
   2  -4 -24    2.48    0.54
   2   2 -24    2.47    0.43
  -4   2 -24    2.23    0.53
   2   2 -24    2.40    0.37
   2   2 -24    2.49    0.51
   2   2 -24    3.57    0.61
   2   2 -24    2.39    0.42
   2  -4 -24    3.78    0.56
   2  -4 -24    3.39    0.55
  -2   4  24    3.28    0.47
  -2   4  24    3.13    0.56
   4  -2  24    3.84    0.64
  -1   0 -25    1.71    0.37
  -1   0 -25    1.42    0.33
   0   1 -25    0.98    0.32
   1  -1 -25    1.35    0.24
   0   1 -25    1.72    0.29
   0   1 -25    1.39    0.21
   1  -1 -25    1.23    0.21
   0   1 -25    1.39    0.32
   1  -1 -25    1.06    0.37
   1  -1 -25    0.88    0.27
   1   0  25    1.46    0.31
  -1   1  25    1.46    0.21
  -1   3 -25    1.52    0.36
  -2  -1 -25    0.67    0.43
   3  -2 -25    0.64    0.42
  -2  -1 -25    1.04    0.38
  -1   3 -25    0.87    0.35
   2   1  25    1.21    0.39
  -3   2  25    0.51    0.44
   2   0 -25    2.57    0.39
   0  -2 -25    2.17    0.43
  -2   2 -25    2.40    0.42
   0  -2 -25    2.36    0.36
  -2   2 -25    2.66    0.44
   0  -2 -25    1.95    0.36
   0   2  25    3.17    0.48
   2  -2  25    2.26    0.38
   1   2 -25    0.82    0.25
   2  -3 -25    1.00    0.44
   1   2 -25    1.15    0.37
   1   2 -25    0.78    0.33
  -3   1 -25    1.12    0.42
   2  -3 -25    1.55    0.29
   1   2 -25    1.51    0.32
   2  -3 -25    1.01    0.32
   1   2 -25    1.41    0.34
  -2   3  25    0.90    0.40
   3  -1  25    0.97    0.36
  -3   4 -25    1.49    0.43
  -1  -3 -25    0.32    0.43
  -1  -3 -25    0.56    0.40
   4  -1 -25    0.97    0.45
   1   3  25    0.24    0.46
   1  -4 -25    0.65    0.46
   3   1 -25    0.12    0.42
   1  -4 -25    0.68    0.34
   1  -4 -25    0.95    0.42
  -4   3 -25   -0.16    0.49
   4  -3  25    0.71    0.40
  -1   4  25    1.00    0.45
   0  -1 -26  177.53    3.77
   1   0 -26  178.26    3.82
  -1   1 -26  177.60    3.72
   1   0 -26  195.94    4.33
   0  -1 -26  170.18    3.77
   0  -1 -26  173.31    3.66
  -1   1 -26  176.99    3.80
   1   0 -26  180.40    3.49
   1   0 -26  177.77    3.49
   0   1  26  177.93    3.55
   2  -2 -26  100.53    2.17
   0   2 -26  102.54    2.21
   0   2 -26  103.31    2.44
  -2   0 -26  100.54    2.45
   0   2 -26  102.16    2.30
  -2   0 -26  104.03    2.48
   2  -2 -26  102.23    2.45
   0   2 -26  100.21    2.25
   2   0  26  101.16    2.39
  -2   3 -26  132.15    2.66
  -2   3 -26  129.42    2.78
   3  -1 -26  132.55    2.90
  -2   3 -26  129.37    3.00
  -1  -2 -26  125.59    2.97
  -1  -2 -26  128.45    2.91
  -3   1  26  127.53    2.93
   1   2  26  131.19    2.93
   2   1 -26  130.53    2.97
   1  -3 -26  127.59    3.04
   2   1 -26  134.82    2.74
   2   1 -26  136.34    2.78
   2   1 -26  129.18    2.69
   2   1 -26  132.28    3.09
  -3   2 -26  133.32    3.14
   1  -3 -26  135.05    2.77
   1  -3 -26  133.57    2.61
   1  -3 -26  131.78    2.92
   3  -2  26  129.72    3.00
  -1   3  26  132.78    2.75
  -1   3  26  127.91    2.70
   0   0 -27   14.56    0.79
   0   0 -27   13.36    0.69
   0   0  27   14.25    0.63
   2  -1 -27    2.97    0.44
  -1   2 -27    2.34    0.33
  -1   2 -27    2.85    0.42
  -1  -1 -27    2.48    0.42
  -1   2 -27    3.14    0.27
  -1  -1 -27    2.56    0.43
   2  -1 -27    3.40    0.46
   1   1  27    3.89    0.57
   1   1 -27    2.41    0.43
   1  -2 -27    2.55    0.40
   1  -2 -27    3.46    0.27
   1  -2 -27    2.35    0.31
  -2   1 -27    4.72    0.67
   1   1 -27    3.30    0.48
   1   1 -27    2.98    0.41
   1   1 -27    2.70    0.43
  -2   1 -27    2.49    0.46
   1   1 -27    4.17    0.43
   2  -1  27    3.21    0.53
  -1   2  27    3.77    0.39
   0   3 -27    2.13    0.29
   0   3 -27    1.99    0.45
   0   3 -27    1.74    0.40
   0   3 -27    2.08    0.45
   0   3 -27    2.07    0.42
  -3   0 -27    2.15    0.54
  -3   3  27    2.12    0.53
   3   0  27    2.03    0.49
   0  -3 -27    2.75    0.47
   3   0 -27    3.63    0.49
   3   0 -27    3.52    0.67
   0  -3 -27    3.98    0.64
  -3   3 -27    3.38    0.58
   0   3  27    4.14    0.69
   3  -3  27    4.70    0.72
   0   1 -28   50.67    1.13
   1  -1 -28   48.17    1.18
   1  -1 -28   49.46    1.07
  -1   0 -28   48.53    1.44
  -1   0 -28   51.23    1.54
   0   1 -28   49.12    1.52
   0   1 -28   49.87    1.39
   0   1 -28   48.80    1.11
   1  -1 -28   49.90    1.52
   1   0  28   48.31    1.36
   3  -2 -28   31.94    1.09
  -1   3 -28   31.33    1.06
  -2  -1 -28   29.67    1.27
  -1   3 -28   32.76    1.26
  -3   2  28   32.94    1.29
   2   1  28   33.52    1.27
   2   0 -28   26.83    1.17
   0  -2 -28   25.15    1.03
   0  -2 -28   27.04    1.08
   2   0 -28   27.33    1.04
  -2   2 -28   27.65    1.19
   0   2  28   29.31    1.00
   2  -2  28   27.97    1.07
   1   2 -28   30.11    1.15
   1   2 -28   31.41    0.95
   1   2 -28   30.83    1.24
   1   2 -28   31.39    1.15
   2  -3 -28   35.00    1.24
  -3   1 -28   30.62    1.38
   2  -3 -28   33.16    1.22
   1   2 -28   27.61    1.45
   3  -1  28   31.82    1.24
  -1   1 -29    3.69    0.65
   1   0 -29    3.90    0.40
   0  -1 -29    3.54    0.45
   1   0 -29    3.36    0.54
   0  -1 -29    5.42    0.69
  -1   1 -29    4.78    0.68
   1   0 -29    3.47    0.48
   0   1  29    4.94    0.52
   1  -1  29    5.14    0.57
   0   2 -29    3.02    0.40
  -2   0 -29    2.62    0.48
   2  -2 -29    4.70    0.76
   0   2 -29    2.28    0.45
   2  -2 -29    3.71    0.45
   2   0  29    2.74    0.47
   0   0 -30   67.54    1.71
   0   0 -30   66.30    1.90
   0   0  30   68.47    1.64
  -1   2 -30   49.35    1.66
  -1  -1 -30   44.71    1.51
  -1   2 -30   48.58    1.51
  -1  -1 -30   51.52    1.61
   2  -1 -30   54.73    1.65
   2  -1 -30   46.62    1.66
   1   1  30   50.02    1.46
   1  -2 -30   51.41    1.61
   1   1 -30   49.09    1.69
   1   1 -30   54.52    1.56
   2  -1  30   50.46    1.54
   0   1 -31   11.57    0.96
   1  -1 -31   11.22    0.92
  -1   0 -31   11.01    0.97
   1   0  31   12.69    0.78
   0   0   0    0.00    0.00
;
_shelx_hkl_checksum              1520
loop_
_space_group_symop_operation_xyz
'x, y, z'
'-y, x-y, z'
'-x+y, -x, z'
'y, x, -z'
'-x, -x+y, -z'
'x-y, -y, -z'
'x+2/3, y+1/3, z+1/3'
'-y+2/3, x-y+1/3, z+1/3'
'-x+y+2/3, -x+1/3, z+1/3'
'y+2/3, x+1/3, -z+1/3'
'-x+2/3, -x+y+1/3, -z+1/3'
'x-y+2/3, -y+1/3, -z+1/3'
'x+1/3, y+2/3, z+2/3'
'-y+1/3, x-y+2/3, z+2/3'
'-x+y+1/3, -x+2/3, z+2/3'
'y+1/3, x+2/3, -z+2/3'
'-x+1/3, -x+y+2/3, -z+2/3'
'x-y+1/3, -y+2/3, -z+2/3'
'-x, -y, -z'
'y, -x+y, -z'
'x-y, x, -z'
'-y, -x, z'
'x, x-y, z'
'-x+y, y, z'
'-x+2/3, -y+1/3, -z+1/3'
'y+2/3, -x+y+1/3, -z+1/3'
'x-y+2/3, x+1/3, -z+1/3'
'-y+2/3, -x+1/3, z+1/3'
'x+2/3, x-y+1/3, z+1/3'
'-x+y+2/3, y+1/3, z+1/3'
'-x+1/3, -y+2/3, -z+2/3'
'y+1/3, -x+y+2/3, -z+2/3'
'x-y+1/3, x+2/3, -z+2/3'
'-y+1/3, -x+2/3, z+2/3'
'x+1/3, x-y+2/3, z+2/3'
'-x+y+1/3, y+2/3, z+2/3'
loop_
_atom_site_label
_atom_site_type_symbol
_atom_site_fract_x
_atom_site_fract_y
_atom_site_fract_z
_atom_site_U_iso_or_equiv
_atom_site_adp_type
_atom_site_occupancy
_atom_site_site_symmetry_order
_atom_site_calc_flag
_atom_site_refinement_flags_posn
_atom_site_refinement_flags_adp
_atom_site_refinement_flags_occupancy
_atom_site_disorder_assembly
_atom_site_disorder_group
Ba1 Ba 0.3333 0.6667 0.1667 0.01936(15) Uani 1 12 d S T P . .
Zn1 Zn 0.6667 0.3333 0.06646(2) 0.01289(17) Uani 1 6 d S T P . .
Se1 Se 0.0000 0.0000 0.07410(2) 0.01002(15) Uani 1 6 d S T P . .
O1 O 0.3112(4) 0.1556(2) 0.10711(7) 0.0173(4) Uani 1 2 d S T P . .
Cl1 Cl 0.6667 0.3333 -0.02511(4) 0.0209(3) Uani 1 6 d S T P . .
loop_
_atom_site_aniso_label
_atom_site_aniso_U_11
_atom_site_aniso_U_22
_atom_site_aniso_U_33
_atom_site_aniso_U_23
_atom_site_aniso_U_13
_atom_site_aniso_U_12
Ba1 0.01978(18) 0.01978(18) 0.0185(2) 0.000 0.000 0.00989(9)
Zn1 0.01260(19) 0.01260(19) 0.0135(3) 0.000 0.000 0.00630(10)
Se1 0.01080(18) 0.01080(18) 0.0085(2) 0.000 0.000 0.00540(9)
O1 0.0097(9) 0.0239(8) 0.0135(8) -0.0004(4) -0.0008(7) 0.0048(5)
Cl1 0.0239(4) 0.0239(4) 0.0149(5) 0.000 0.000 0.0119(2)
loop_
_atom_type_symbol
_atom_type_description
_atom_type_scat_dispersion_real
_atom_type_scat_dispersion_imag
_atom_type_scat_source
Ba Ba -0.3244 2.2819 'International Tables Vol C Tables 4.2.6.8 and 6.1.1.4'
Cl Cl 0.1484 0.1585 'International Tables Vol C Tables 4.2.6.8 and 6.1.1.4'
O O 0.0106 0.0060 'International Tables Vol C Tables 4.2.6.8 and 6.1.1.4'
Se Se -0.0929 2.2259 'International Tables Vol C Tables 4.2.6.8 and 6.1.1.4'
Zn Zn 0.2839 1.4301 'International Tables Vol C Tables 4.2.6.8 and 6.1.1.4'
loop_
_geom_angle_atom_site_label_1
_geom_angle_atom_site_label_2
_geom_angle_atom_site_label_3
_geom_angle
_geom_angle_site_symmetry_1
_geom_angle_site_symmetry_3
O1 Ba1 O1 180.0 27 3_565
O1 Ba1 O1 99.82(3) 27 26_455
O1 Ba1 O1 80.18(3) 3_565 26_455
O1 Ba1 O1 99.82(3) 27 25_565
O1 Ba1 O1 80.18(3) 3_565 25_565
O1 Ba1 O1 99.82(3) 26_455 25_565
O1 Ba1 O1 48.66(7) 27 25
O1 Ba1 O1 131.34(7) 3_565 25
O1 Ba1 O1 56.16(7) 26_455 25
O1 Ba1 O1 123.94(5) 25_565 25
O1 Ba1 O1 80.18(3) 27 2_665
O1 Ba1 O1 99.82(3) 3_565 2_665
O1 Ba1 O1 180.0 26_455 2_665
O1 Ba1 O1 80.18(3) 25_565 2_665
O1 Ba1 O1 123.84(7) 25 2_665
O1 Ba1 O1 56.16(7) 27 26_565
O1 Ba1 O1 123.84(7) 3_565 26_565
O1 Ba1 O1 123.94(5) 26_455 26_565
O1 Ba1 O1 48.66(7) 25_565 26_565
O1 Ba1 O1 99.82(3) 25 26_565
O1 Ba1 O1 56.06(5) 2_665 26_565
O1 Ba1 O1 80.18(3) 27 .
O1 Ba1 O1 99.82(3) 3_565 .
O1 Ba1 O1 80.18(3) 26_455 .
O1 Ba1 O1 180.0 25_565 .
O1 Ba1 O1 56.06(5) 25 .
O1 Ba1 O1 99.82(3) 2_665 .
O1 Ba1 O1 131.34(7) 26_565 .
O1 Ba1 O1 123.94(5) 27 27_455
O1 Ba1 O1 56.05(5) 3_565 27_455
O1 Ba1 O1 48.66(7) 26_455 27_455
O1 Ba1 O1 56.16(7) 25_565 27_455
O1 Ba1 O1 99.82(3) 25 27_455
O1 Ba1 O1 131.34(7) 2_665 27_455
O1 Ba1 O1 99.82(3) 26_565 27_455
O1 Ba1 O1 123.84(7) . 27_455
O1 Ba1 O1 131.34(7) 27 1_565
O1 Ba1 O1 48.66(7) 3_565 1_565
O1 Ba1 O1 123.84(7) 26_455 1_565
O1 Ba1 O1 56.05(5) 25_565 1_565
O1 Ba1 O1 180.0 25 1_565
O1 Ba1 O1 56.16(7) 2_665 1_565
O1 Ba1 O1 80.18(3) 26_565 1_565
O1 Ba1 O1 123.95(5) . 1_565
O1 Ba1 O1 80.18(3) 27_455 1_565
O1 Ba1 O1 123.84(7) 27 2
O1 Ba1 O1 56.16(7) 3_565 2
O1 Ba1 O1 56.05(5) 26_455 2
O1 Ba1 O1 131.34(7) 25_565 2
O1 Ba1 O1 80.18(3) 25 2
O1 Ba1 O1 123.95(5) 2_665 2
O1 Ba1 O1 180.0 26_565 2
O1 Ba1 O1 48.66(7) . 2
O1 Ba1 O1 80.18(3) 27_455 2
O1 Ba1 O1 99.82(3) 1_565 2
O1 Ba1 O1 56.06(5) 27 3_665
O1 Ba1 O1 123.95(5) 3_565 3_665
O1 Ba1 O1 131.34(7) 26_455 3_665
O1 Ba1 O1 123.84(7) 25_565 3_665
O1 Ba1 O1 80.18(3) 25 3_665
O1 Ba1 O1 48.66(7) 2_665 3_665
O1 Ba1 O1 80.18(3) 26_565 3_665
O1 Ba1 O1 56.16(7) . 3_665
O1 Ba1 O1 180.0 27_455 3_665
O1 Ba1 O1 99.82(3) 1_565 3_665
O1 Ba1 O1 99.82(3) 2 3_665
O1 Zn1 O1 96.55(7) 2_655 3_665
O1 Zn1 O1 96.55(7) 2_655 .
O1 Zn1 O1 96.55(7) 3_665 .
O1 Zn1 Cl1 120.48(5) 2_655 .
O1 Zn1 Cl1 120.48(5) 3_665 .
O1 Zn1 Cl1 120.48(5) . .
O1 Se1 O1 98.95(8) . 3
O1 Se1 O1 98.95(8) . 2
O1 Se1 O1 98.95(8) 3 2
Se1 O1 Zn1 120.89(9) . .
Se1 O1 Ba1 104.73(5) . .
Zn1 O1 Ba1 102.03(4) . .
Se1 O1 Ba1 104.73(5) . 1_545
Zn1 O1 Ba1 102.04(4) . 1_545
Ba1 O1 Ba1 123.95(5) . 1_545
Zn1 Cl1 Ba1 180.0 . 13_544
loop_
_geom_bond_atom_site_label_1
_geom_bond_atom_site_label_2
_geom_bond_distance
_geom_bond_site_symmetry_2
Ba1 O1 3.1242(8) 27
Ba1 O1 3.1242(8) 3_565
Ba1 O1 3.1242(8) 26_455
Ba1 O1 3.1243(8) 25_565
Ba1 O1 3.1242(8) 25
Ba1 O1 3.1242(8) 2_665
Ba1 O1 3.1242(8) 26_565
Ba1 O1 3.1242(8) .
Ba1 O1 3.1242(8) 27_455
Ba1 O1 3.1242(8) 1_565
Ba1 O1 3.1242(8) 2
Ba1 O1 3.1242(8) 3_665
Zn1 O1 1.9703(19) 2_655
Zn1 O1 1.9703(19) 3_665
Zn1 O1 1.9703(19) .
Zn1 Cl1 2.2512(12) .
Se1 O1 1.6934(19) .
Se1 O1 1.6934(18) 3
Se1 O1 1.6934(18) 2
O1 Ba1 3.1242(8) 1_545
Cl1 Ba1 3.4800(12) 13_544
loop_
_geom_torsion_atom_site_label_1
_geom_torsion_atom_site_label_2
_geom_torsion_atom_site_label_3
_geom_torsion_atom_site_label_4
_geom_torsion
_geom_torsion_site_symmetry_1
_geom_torsion_site_symmetry_2
_geom_torsion_site_symmetry_3
_geom_torsion_site_symmetry_4
O1 Se1 O1 Zn1 129.69(5) 3 . . .
O1 Se1 O1 Zn1 -129.69(5) 2 . . .
O1 Se1 O1 Ba1 -116.20(8) 3 . . .
O1 Se1 O1 Ba1 -15.58(10) 2 . . .
O1 Se1 O1 Ba1 15.57(10) 3 . . 1_545
O1 Se1 O1 Ba1 116.20(8) 2 . . 1_545
