#------------------------------------------------------------------------------
#$Date: 2021-03-17 11:35:53 +0200 (Wed, 17 Mar 2021) $
#$Revision: 263083 $
#$URL: file:///home/coder/svn-repositories/cod/cif/1/56/10/1561064.cif $
#------------------------------------------------------------------------------
#
# This file is available in the Crystallography Open Database (COD),
# http://www.crystallography.net/
#
# All data on this site have been placed in the public domain by the
# contributors.
#
data_1561064
loop_
_publ_author_name
'Dolyniuk, Juli-Anna'
'Lee, Shannon'
'Tran, Nhon'
'Wang, Jian'
'Wang, Lin-Lin'
'Kovnir, Kirill'
_publ_section_title
;
 Eu2P7X and Ba2As7X (X&#x202F;=&#x202F;Br, I): Chiral double-Zintl salts
 containing heptapnictotricyclane clusters
;
_journal_name_full               'Journal of Solid State Chemistry'
_journal_page_first              195
_journal_page_last               202
_journal_paper_doi               10.1016/j.jssc.2018.04.026
_journal_volume                  263
_journal_year                    2018
_chemical_formula_sum            'As7 Ba2 I'
_chemical_formula_weight         926.02
_space_group_crystal_system      cubic
_space_group_IT_number           198
_space_group_name_Hall           'P 2ac 2ab 3'
_space_group_name_H-M_alt        'P 21 3'
_atom_sites_solution_hydrogens   .
_cell_angle_alpha                90
_cell_angle_beta                 90
_cell_angle_gamma                90
_cell_formula_units_Z            4
_cell_length_a                   10.5584(9)
_cell_length_b                   10.5584(9)
_cell_length_c                   10.5584(9)
_cell_measurement_reflns_used    3791
_cell_measurement_temperature    90(2)
_cell_measurement_theta_max      26.35
_cell_measurement_theta_min      2.73
_cell_volume                     1177.05(17)
_computing_structure_refinement  'SHELXL-2016/6 (Sheldrick, 2016)'
_diffrn_ambient_temperature      90(2)
_diffrn_measured_fraction_theta_full 0.995
_diffrn_measured_fraction_theta_max 0.922
_diffrn_measurement_device_type  'Bruker APEX II CCD area-detector'
_diffrn_measurement_method       'profile data from \w scans'
_diffrn_radiation_type           MoK\a
_diffrn_radiation_wavelength     0.71073
_diffrn_reflns_av_R_equivalents  0.0912
_diffrn_reflns_av_unetI/netI     0.0953
_diffrn_reflns_Laue_measured_fraction_full 0.995
_diffrn_reflns_Laue_measured_fraction_max 0.922
_diffrn_reflns_limit_h_max       12
_diffrn_reflns_limit_h_min       -12
_diffrn_reflns_limit_k_max       10
_diffrn_reflns_limit_k_min       -11
_diffrn_reflns_limit_l_max       10
_diffrn_reflns_limit_l_min       -12
_diffrn_reflns_number            3791
_diffrn_reflns_point_group_measured_fraction_full 0.968
_diffrn_reflns_point_group_measured_fraction_max 0.878
_diffrn_reflns_theta_full        25.242
_diffrn_reflns_theta_max         26.357
_diffrn_reflns_theta_min         2.728
_diffrn_source                   'fine-focus sealed tube'
_exptl_absorpt_coefficient_mu    28.740
_exptl_absorpt_correction_T_max  0.46
_exptl_absorpt_correction_T_min  0.25
_exptl_absorpt_correction_type   multi-scan
_exptl_absorpt_process_details   'SADABS v2.03 (Bruker, 2003)'
_exptl_crystal_colour            black
_exptl_crystal_density_diffrn    5.226
_exptl_crystal_description       block
_exptl_crystal_F_000             1584
_exptl_crystal_size_max          0.070
_exptl_crystal_size_mid          0.070
_exptl_crystal_size_min          0.030
_refine_diff_density_max         1.262
_refine_diff_density_min         -1.452
_refine_diff_density_rms         0.359
_refine_ls_abs_structure_details
;
 Flack x determined using 195 quotients [(I+)-(I-)]/[(I+)+(I-)]
 (Parsons, Flack and Wagner, Acta Cryst. B69 (2013) 249-259).
;
_refine_ls_abs_structure_Flack   0.07(5)
_refine_ls_extinction_coef       .
_refine_ls_extinction_method     none
_refine_ls_goodness_of_fit_ref   1.051
_refine_ls_hydrogen_treatment    undef
_refine_ls_matrix_type           full
_refine_ls_number_parameters     31
_refine_ls_number_reflns         723
_refine_ls_number_restraints     0
_refine_ls_restrained_S_all      1.051
_refine_ls_R_factor_all          0.0769
_refine_ls_R_factor_gt           0.0445
_refine_ls_shift/su_max          0.000
_refine_ls_shift/su_mean         0.000
_refine_ls_structure_factor_coef Fsqd
_refine_ls_weighting_details
'w=1/[\s^2^(Fo^2^)+(0.0145P)^2^] where P=(Fo^2^+2Fc^2^)/3'
_refine_ls_weighting_scheme      calc
_refine_ls_wR_factor_gt          0.0540
_refine_ls_wR_factor_ref         0.0594
_reflns_Friedel_coverage         0.643
_reflns_Friedel_fraction_full    0.929
_reflns_Friedel_fraction_max     0.818
_reflns_number_gt                573
_reflns_number_total             723
_reflns_threshold_expression     'I > 2\s(I)'
_cod_data_source_file            JSSC-2018-263-195.cif
_cod_data_source_block           1
_cod_original_cell_volume        1177.0(3)
_cod_database_code               1561064
_shelx_space_group_comment
;
The symmetry employed for this shelxl refinement is uniquely defined
by the following loop, which should always be used as a source of
symmetry information in preference to the above space-group names.
They are only intended as comments.
;
_shelx_estimated_absorpt_t_min   0.238
_shelx_estimated_absorpt_t_max   0.479
_shelx_res_file
;
TITL NT115_BaAsI_multiint in P2(1)3
    shelx.res
    created by SHELXL-2016/6 at 13:03:38 on 23-Jan-2018
CELL 0.71073  10.55840  10.55840  10.55840  90.0000  90.0000  90.0000
ZERR    4.00   0.00090   0.00090   0.00090   0.0000   0.0000   0.0000
LATT -1
SYMM 0.5-X, -Y, 0.5+Z
SYMM -X, 0.5+Y, 0.5-Z
SYMM 0.5+X, 0.5-Y, -Z
SYMM Z, X, Y
SYMM 0.5+Z, 0.5-X, -Y
SYMM 0.5-Z, -X, 0.5+Y
SYMM -Z, 0.5+X, 0.5-Y
SYMM Y, Z, X
SYMM -Y, 0.5+Z, 0.5-X
SYMM 0.5+Y, 0.5-Z, -X
SYMM 0.5-Y, -Z, 0.5+X
SFAC AS I BA
UNIT 28 4 8
temp -183
size 0.07 0.07 0.03
L.S. 17
BOND
FMAP 2
PLAN -20
acta

WGHT    0.014500
FVAR       0.05361
AS1   1    0.017547    0.361239    0.446020    11.00000    0.00455    0.00410 =
         0.00335   -0.00055    0.00010   -0.00010
AS2   1    0.135641    0.187225    0.528998    11.00000    0.00412    0.00251 =
         0.00437   -0.00025    0.00155    0.00041
AS3   1    0.781687    0.781687    0.781687    10.33333    0.00372    0.00372 =
         0.00372    0.00033    0.00033    0.00033
I1    2    0.151019    0.151019    0.151019    10.33333    0.00684    0.00684 =
         0.00684   -0.00221   -0.00221   -0.00221
BA1   3    0.600256    0.600256    0.600256    10.33333    0.00532    0.00532 =
         0.00532   -0.00168   -0.00168   -0.00168
BA2   3    0.341652    0.341652    0.341652    10.33333    0.00304    0.00304 =
         0.00304    0.00048    0.00048    0.00048
HKLF 4




REM  NT115_BaAsI_multiint in P2(1)3
REM R1 =  0.0445 for     573 Fo > 4sig(Fo)  and  0.0769 for all     723 data
REM     31 parameters refined using      0 restraints

END

WGHT      0.0145      0.0000

REM Highest difference peak  1.262,  deepest hole -1.452,  1-sigma level  0.359
Q1    1   0.1454  0.3800  0.2855  11.00000  0.05    1.26
Q2    1   0.0615  0.2042  0.4162  11.00000  0.05    1.19
Q3    1   0.2266  0.2120  0.4280  11.00000  0.05    1.13
Q4    1   0.0860  0.1373  0.3448  11.00000  0.05    1.12
Q5    1  -0.0467  0.4019  0.2647  11.00000  0.05    1.11
Q6    1   0.2231  0.2619  0.5892  11.00000  0.05    1.11
Q7    1   0.0807  0.2204  0.6651  11.00000  0.05    1.11
Q8    1   0.1213  0.2043  0.0911  11.00000  0.05    1.10
Q9    1  -0.1430  0.3352  0.4149  11.00000  0.05    1.09
Q10   1  -0.0208  0.1016  0.3938  11.00000  0.05    1.08
Q11   1  -0.0759  0.1599  0.4300  11.00000  0.05    1.08
Q12   1   0.0030  0.2170  0.2539  11.00000  0.05    1.06
Q13   1  -0.0441  0.1325  0.4638  11.00000  0.05    1.06
Q14   1  -0.0443  0.1044  0.4794  11.00000  0.05    1.06
Q15   1  -0.1780  0.3429  0.2620  11.00000  0.05    1.04
Q16   1   0.1448  0.3584  0.2484  11.00000  0.05    1.04
Q17   1   0.5963  0.6286  0.6369  11.00000  0.05    1.03
Q18   1  -0.1485  0.3519  0.5435  11.00000  0.05    1.03
Q19   1  -0.0046  0.1558  0.2853  11.00000  0.05    1.01
Q20   1  -0.0248  0.4283  0.5897  11.00000  0.05    1.00
;
_shelx_res_checksum              24421
_shelx_hkl_file
;
   0  -1  -1    5.48    1.09
   1   0  -1    9.83    1.13
   1  -1   1    7.56    0.79
   1   1  -1    6.50    0.91
  -1   1   1    7.84    1.44
   1  -1  -1    4.19    1.20
  -1  -1   1    5.78    0.95
  -1   1  -1    4.63    0.74
  -2   0   0    0.06    0.81
   0   0  -2    0.33    0.71
   0   0   2   -1.10    0.56
   0   2   0   -1.30    0.60
   2   0   0   -0.28    0.79
   0   2   1    1.34    0.91
   1   0  -2    2.69    1.03
   2  -1   0    0.78    0.84
   0  -2  -1    3.23    1.25
   0  -2   1    3.14    0.64
  -1   0   2    1.38    1.01
  -2   1   0    2.75    1.06
   2   0  -1   29.86    2.39
   0   1   2   25.00    2.26
   0  -1   2   26.74    1.47
   0   1  -2   24.85    1.47
  -2   0   1   29.33    2.47
  -1   2   0   23.91    2.26
   0  -1  -2   24.95    2.40
   2   1  -1   89.90    4.40
   1  -2   1   92.16    3.89
  -2   1   1   78.13    4.73
  -1  -1  -2   92.00    4.72
  -1   2   1   79.52    4.71
  -1   1   2   87.40    4.89
   2  -1   1   83.25    4.14
   1   1  -2   86.00    3.95
  -1  -1   2   86.95    4.04
  -1   2  -1   79.97    3.83
   1  -1  -2   81.57    4.82
   1  -2  -1   77.33    4.74
   2  -1  -1   87.42    4.76
  -2   1  -1   85.55    4.15
  -2  -1   1   88.63    4.49
  -2   0   2   55.78    3.78
   0  -2  -2   53.27    4.03
   0  -2   2   57.52    2.24
   0   2   2   62.01    3.95
   2   0  -2   56.45    3.68
   2  -2   1    0.48    0.77
  -1  -2  -2    0.29    1.35
  -2   1   2   -0.68    1.21
   2   1  -2    2.01    1.01
  -2   2   1    2.17    1.48
  -1   2   2    0.20    1.30
  -1  -2   2    1.93    0.77
  -2   2  -1    2.41    1.09
  -2   1  -2    0.88    0.71
   1  -2  -2    0.81    1.48
   2  -2  -1    3.25    1.49
  -2  -1   2    1.51    1.09
   2  -1  -2   -0.67    1.30
  -1   2  -2    1.01    0.46
   2  -2   2  295.71   10.68
  -2   2   2  274.07   12.41
  -2   2  -2  273.73   10.59
   2  -2  -2  261.06   12.26
  -2  -2   2  273.45   11.25
  -3   0   0   -1.96    1.06
   0  -3   0   -0.95    1.03
   0   0  -3   -0.22    1.01
   0   0   3   -1.31    0.80
   0   3   0   -0.63    0.99
   3   0   0    0.89    1.20
  -1   0   3  141.52    6.96
   0  -3  -1  135.04    7.10
   0  -3   1  148.95    6.17
   0   3   1  145.09    6.99
   1   0  -3  134.56    6.83
   3  -1   0  133.38    6.80
  -3   1   0  145.25    7.07
  -1   0  -3  149.70    6.59
  -3  -1   0  147.52    7.03
   0   3   2 1000.00   35.79
   2   0  -3  981.66   35.45
  -3   2   0  964.93   35.65
  -2   0   3  934.46   35.61
   0  -3  -2  969.94   36.12
   0  -3   2  954.89   33.69
  -1   3   0   32.32    2.88
  -3   0  -1   35.25    2.90
  -3   0   1   34.73    3.22
   3   0  -1   31.64    3.03
   0  -1  -3   30.36    3.16
   1  -3   0   30.69    2.87
   0   1   3   31.49    2.91
   0   1  -3   30.38    2.19
   0  -1   3   32.41    2.07
  -1   3   1   52.81    3.99
   1   1  -3   51.21    3.16
   3   1  -1   59.69    3.92
  -1  -1  -3   54.03    3.87
   1  -3   1   55.00    3.32
  -3   1   1   58.19    4.28
  -1   1   3   50.75    4.00
  -1  -3  -1   54.56    3.99
   1  -1  -3   44.38    3.96
  -1   1  -3   54.48    2.90
  -1   3  -1   51.91    3.19
   1  -3  -1   52.51    4.15
  -1  -1   3   49.93    3.34
   3  -1  -1   51.10    3.92
  -3  -1   1   57.24    3.94
  -3   2   1  129.98    7.39
   2   1  -3  142.90    6.51
  -2   1   3  137.24    7.50
   3  -2   1  130.92    6.44
  -1  -3  -2  144.44    7.49
   1  -3   2  140.68    5.30
  -1   3   2  139.84    7.42
  -3   2  -1  118.85    6.41
  -3  -2   1  127.02    6.76
  -2  -1   3  130.56    6.60
   3  -2  -1  126.23    7.08
   2  -1  -3  124.64    7.21
   1  -3  -2  106.76    7.15
  -1   3  -2  123.51    5.22
   0  -2  -3  331.63   14.20
   0   2  -3  328.29   11.48
   0   2   3  323.95   13.66
   0  -2   3  323.45   11.55
  -2   3   0  320.96   13.58
  -3   0   2  312.95   13.79
   3   0  -2  336.07   13.64
   2  -3   1  500.74   18.35
  -1   2   3  483.29   19.57
   3   1  -2  495.18   18.87
  -3   1   2  452.39   19.48
   1   2  -3  469.20   17.49
  -1  -2  -3  521.00   19.68
  -2   3   1  450.06   19.32
   3  -1  -2  511.16   19.48
  -1   2  -3  480.59   16.81
   2  -3  -1  481.85   19.55
  -1  -2   3  493.46   17.77
  -1   2  -3  492.94   16.91
  -3  -1   2  485.22   19.14
  -3   1  -2  496.06   18.35
   1  -2  -3  464.38   19.70
  -2   3  -1  456.90   18.40
   3  -2   2   59.56    3.78
   2   2  -3   55.60    3.53
  -3   2   2   57.66    5.19
  -2   2   3   48.83    4.86
   2  -3   2   58.39    3.20
  -2   3   2   51.89    4.81
  -2  -3   2   60.16    3.87
  -2   3  -2   61.82    3.57
  -2   2  -3   58.64    2.99
   2  -3  -2   57.91    5.13
  -2  -2   3   62.33    3.93
   2  -2  -3   56.34    5.05
  -3   2  -2   64.56    3.85
   3  -2  -2   57.80    4.92
  -3  -2   2   61.20    4.42
  -3   0   3    3.77    2.03
   0  -3  -3   -0.29    2.13
   0   3   3    2.69    1.88
   3   0  -3   -1.11    1.56
   3   1  -3   79.00    4.97
  -3   1   3   73.45    5.79
  -1   3   3   72.40    5.60
  -3   3   1   66.92    5.48
  -1  -3  -3   83.73    5.97
   3  -3   1   74.15    4.59
  -3   3  -1   71.05    4.93
   1  -3  -3   64.91    5.80
   3  -3  -1   72.53    5.51
  -1  -3   3   73.68    3.71
   3  -1  -3   74.58    5.47
  -3  -1   3   76.64    5.28
   3   2  -3   27.44    2.94
   3  -3   2   24.89    2.52
  -2  -3  -3   24.58    4.03
  -3   2   3   22.81    4.21
  -2   3   3   27.51    4.27
  -3   3   2   27.91    4.15
  -3   3  -2   28.68    2.96
  -2  -3   3   26.41    2.76
  -2   3  -3   23.94    2.02
  -3   2  -3   28.84    2.53
   2  -3  -3   22.87    4.45
   3  -3  -2   27.18    4.27
  -3  -2   3   28.51    3.37
   3  -2  -3   33.16    4.41
  -3  -3   2   20.25    3.08
  -3   3   3  275.31   13.89
  -3   3  -3  274.97   11.03
  -3  -3   3  273.19   12.12
   3  -3  -3  254.56   13.49
  -4   0   0  304.39   13.23
   0  -4   0  298.15   12.79
   0   0  -4  286.52   12.71
   0   0   4  313.62   12.46
   0   4   0  324.50   12.85
   4   0   0  303.38   13.17
  -1   0  -4    1.74    1.38
  -1   0   4    3.40    1.64
   0  -4  -1    0.46    1.67
   0  -4   1    1.47    1.26
   0   4   1    2.44    1.57
   1   0  -4    0.06    1.55
   4  -1   0    0.88    1.63
  -4   1   0    2.74    1.83
  -4  -1   0    1.98    1.56
  -2   0   4    3.35    2.04
  -2   0  -4    1.95    1.52
   0   4   2   -0.86    1.73
   2   0  -4   -0.65    1.65
   4  -2   0    1.83    1.73
   0  -4   2    1.99    0.98
   0  -4  -2    4.38    2.62
  -4  -2   0    2.42    1.93
  -4   2   0    2.85    2.03
   0   4   3   23.84    3.77
   0  -4   3   17.05    1.47
  -3   0   4   16.92    3.28
   0  -4  -3   15.69    3.67
  -4   3   0   21.63    3.99
   3   0  -4   16.90    3.14
  -4   0  -1   71.08    4.77
   1  -4   0   70.98    4.83
  -1   4   0   61.87    4.43
   0   1  -4   61.72    3.91
   0  -1   4   71.90    3.78
  -4   0   1   71.50    5.14
   0  -1  -4   65.65    5.06
   0   1   4   66.95    4.57
   4   0  -1   70.63    5.01
   4  -1   1   25.25    3.11
  -4  -1  -1   24.96    3.19
  -1  -1  -4   25.00    3.31
   1   1  -4   19.92    2.49
   1  -4   1   21.07    2.61
  -1   1   4   23.71    3.48
  -4   1   1   26.45    3.56
  -1  -4  -1   18.98    3.11
  -1   4   1   23.34    3.19
   4   1  -1   29.43    3.37
   4  -1  -1   22.79    3.25
  -1  -1   4   19.30    2.67
  -1   1  -4   20.52    2.26
  -4  -1   1   22.59    3.29
   1  -1  -4   21.26    3.40
  -4   1  -1   23.93    3.10
  -1   4  -1   23.14    2.48
  -4   2   1   69.02    5.74
   2   1  -4   73.36    4.69
  -1   4   2   76.62    5.66
  -1  -4  -2   78.46    5.85
   1  -4   2   69.09    3.92
  -2   1   4   70.73    5.73
  -2  -1  -4   70.43    5.11
  -4  -2   1   74.08    5.31
  -2  -1   4   74.24    5.05
  -1   4  -2   73.25    3.72
   4  -2  -1   68.11    5.25
   2  -1  -4   64.90    5.48
   1  -4  -2   64.19    5.74
   3   1  -4  241.21   10.74
  -3   1   4  216.58   11.81
  -1  -4  -3  223.84   11.87
   1  -4   3  234.50    8.26
   4  -3   1  228.93   10.53
  -4   3   1  218.58   11.71
  -1  -4   3  233.74    9.26
  -3  -1   4  234.51   11.25
   4  -3  -1  223.09   11.31
  -4  -3   1  233.74   11.32
  -4   3  -1  229.67   10.99
   3  -1  -4  216.65   11.32
   0   2  -4  106.97    4.65
   0  -2   4  112.64    4.63
  -4   0   2  116.81    7.16
   4   0  -2  107.60    6.58
   0  -2  -4  101.46    7.05
   0   2   4  109.53    6.51
  -2   4   0   96.46    6.22
  -4   0  -2  119.76    6.27
   2  -4   0  102.49    6.54
   2  -4   1    4.27    1.68
  -4   1   2    1.78    2.25
   4   1  -2    2.58    1.87
  -2   4   1    3.45    2.20
  -1  -2  -4    5.56    2.42
   1   2  -4    3.87    1.15
  -1   2   4    1.88    2.02
  -2   4  -1    2.38    1.67
  -4  -1   2    5.86    2.24
   4  -1  -2    0.68    1.98
  -4   1  -2    3.51    1.63
  -1  -2   4    3.02    1.31
   1  -2  -4    1.32    2.40
   2  -4  -1    2.24    2.22
  -1   2  -4    2.14    0.91
  -2   4   2   85.66    6.37
  -2   2   4   79.50    6.53
  -4   2   2   83.88    6.49
  -2  -4  -2   82.02    6.13
   4  -2   2   91.14    5.39
   2   2  -4   83.88    4.67
  -2  -2  -4   72.05    5.98
   2  -4   2   83.63    4.38
   2  -4  -2   79.59    6.49
  -2  -2   4   75.63    4.95
  -2   4  -2   74.01    4.52
   2  -2  -4   73.97    6.25
  -4   2  -2   74.84    5.04
  -4  -2   2   74.60    5.84
   4  -2  -2   86.19    6.22
  -2   4   3   45.97    5.50
  -2  -4  -3   45.82    5.39
  -4   3   2   32.44    5.27
   3   2  -4   44.56    3.98
   2  -4   3   49.93    2.65
  -3   2   4   44.04    5.44
   4  -3   2   48.09    3.83
   2  -4  -3   46.51    5.87
   3  -2  -4   45.47    5.57
  -2   4  -3   44.47    2.91
   4  -3  -2   47.50    5.28
  -4  -3   2   52.62    5.02
  -2  -4   3   49.89    3.75
  -3   2  -4   45.26    3.18
  -3  -2   4   40.21    4.24
  -4   3  -2   46.62    4.23
   4   0  -3   87.25    6.13
  -3   4   0   90.14    6.28
   0   3   4   89.33    6.27
  -4   0   3   87.24    6.60
   0  -3  -4   88.40    7.18
   4   1  -3    1.82    2.06
  -1   3   4    1.43    2.30
  -3   4   1    2.57    2.52
  -4   1   3    2.82    2.70
   3  -4   1    1.22    1.63
  -1  -3  -4    3.43    2.81
  -1  -3   4    2.60    1.16
   1  -3  -4    6.00    3.00
   3  -4  -1    2.75    2.41
  -3   4  -1   -0.52    1.72
   4  -1  -3    3.65    2.33
  -4  -1   3    1.99    2.43
  -4   1  -3    3.73    1.62
   3  -4   2    5.59    1.70
  -3   4   2    5.59    2.94
   4   2  -3    7.72    2.14
  -2   3   4    5.64    2.94
  -2  -3  -4    1.62    2.47
  -4   2   3    5.54    3.14
  -4  -2   3    5.02    2.60
  -4   2  -3    3.05    1.59
   4  -2  -3    6.73    2.90
  -3  -4   2    4.41    2.09
  -3   4  -2    3.84    1.81
   3  -4  -2   -1.14    2.54
   2  -3  -4    4.81    3.23
  -2  -3   4    6.36    1.73
  -2   3  -4    4.95    0.90
  -3   4   3   49.45    6.04
   3  -4   3   48.64    3.30
  -4   3   3   52.94    6.09
  -3   3   4   44.44    5.98
  -4   3  -3   46.60    3.94
  -3   3  -4   48.67    3.18
  -3  -4   3   44.29    4.43
  -3   4  -3   45.91    3.69
  -4  -3   3   48.77    5.20
   3  -4  -3   34.25    5.78
  -3  -3   4   50.32    4.47
   3  -3  -4   39.26    5.80
   4  -3  -3   48.61    5.85
  -4   0   4   80.47    6.86
   0  -4  -4   74.67    7.32
   0   4   4   86.31    6.66
   4   0  -4   72.09    6.01
   4   1  -4   97.28    6.49
  -4   1   4   85.14    7.39
  -1   4   4   98.51    7.36
  -4   4   1   85.26    7.22
  -1  -4  -4   85.01    7.65
   4  -4   1   88.79    5.99
  -4   4  -1   84.42    6.41
   1  -4  -4   93.97    8.15
   4  -4  -1   90.68    7.21
  -1  -4   4   93.54    4.42
   4  -1  -4  100.60    7.30
  -4  -1   4  100.73    7.19
   4  -4   2   33.36    3.53
  -4   4   2   34.49    5.69
   4   2  -4   31.74    3.95
  -4   2   4   34.99    5.99
  -2   4   4   38.05    5.51
  -2  -4  -4   32.40    5.34
  -4  -2   4   26.36    4.49
  -2  -4   4   30.11    3.26
  -4   4  -2   31.29    4.11
   2  -4  -4   44.60    6.43
   4  -4  -2   39.63    5.65
  -4  -4   2   34.10    4.71
   4  -2  -4   44.68    5.66
  -4   2  -4   34.14    3.33
  -3  -4  -4   89.72    7.76
   4  -4   3   90.27    5.35
  -4   4   3   78.61    8.17
  -4   3   4   70.28    8.07
  -3   4   4   92.51    8.19
  -4   3  -4   98.73    5.40
  -4   4  -3   91.97    5.87
  -3  -4   4   91.84    6.09
  -3   4  -4   89.76    4.81
  -4  -4   3   97.30    7.14
   3  -4  -4   83.36    8.22
   4  -4  -3   89.92    8.17
  -4  -3   4   83.46    6.70
   4  -3  -4   88.42    8.08
  -4   4   4  144.10   10.75
  -4   4  -4  142.98    7.33
  -4  -4   4  135.56    8.71
   4  -4  -4  148.36   10.65
  -5   0   0    1.55    2.05
   0  -5   0   -0.79    1.66
   0   0  -5   -0.03    1.85
   0   0   5    1.38    1.53
   5   0   0   -0.93    1.85
  -5   1   0   19.43    3.64
  -1   0  -5   21.16    3.40
  -1   0   5   21.20    3.52
   0  -5   1   22.24    2.98
   0   5   1   26.50    3.66
   1   0  -5   27.69    3.89
   5  -1   0   26.27    3.95
  -5  -1   0   21.94    3.89
  -2   0  -5   -0.74    1.63
   0  -5  -2    0.03    2.46
   0  -5   2    1.63    1.27
   0   5   2    2.17    2.30
  -2   0   5   -0.37    2.26
   5  -2   0   -1.51    2.15
  -5   2   0    2.15    2.39
  -5  -2   0    0.76    2.23
   2   0  -5    0.28    2.06
   3   0  -5  373.87   16.35
  -5   3   0  345.86   16.70
   0   5   3  387.21   16.87
   0  -5  -3  359.61   17.54
  -5  -3   0  372.81   16.78
   0  -5   3  356.09   13.79
   5  -3   0  371.79   16.22
  -3   0   5  358.65   16.78
   0   5   4  147.10    9.31
  -5   4   0  136.59    9.33
  -4   0   5  118.01    9.29
   4   0  -5  144.59    8.75
   0  -5  -4  132.09   10.34
   1  -5   0   56.93    5.05
  -5   0  -1   60.55    5.09
  -5   0   1   53.96    5.42
  -1  -5   0   68.04    5.01
  -1   5   0   62.88    4.85
   5   0  -1   57.36    5.23
   0   1   5   61.14    4.87
   0  -1  -5   56.08    5.42
   0   1  -5   53.59    4.13
  -5  -1  -1  227.77   11.22
  -1   1   5  222.54   11.22
   5   1  -1  246.14   11.52
  -5   1   1  228.80   11.78
  -1  -5  -1  235.22   11.45
   5  -1   1  235.73   11.19
   1   1  -5  230.20   10.34
  -1   5   1  251.11   11.48
  -1  -1  -5  223.62   11.22
   1  -5   1  225.41   10.41
  -5   1  -1  214.81   10.94
  -5  -1   1  216.29   11.43
   1  -1  -5  221.36   11.58
   5  -1  -1  231.96   11.36
  -1  -1   5  236.71   10.50
  -1   5  -1  227.34   10.12
  -1   1  -5  221.22    9.98
  -1  -5   1  229.51   10.29
  -1   5   2   62.03    5.43
   1  -5   2   47.05    3.74
  -1  -5  -2   55.45    5.67
  -5   2   1   53.53    5.77
   2   1  -5   59.05    4.65
  -2  -1  -5   58.90    5.18
  -2   1   5   48.71    5.70
  -2   1  -5   49.41    3.90
   2  -1  -5   49.18    5.43
   1  -5  -2   47.50    5.85
  -1  -5   2   53.03    3.69
  -2  -1   5   41.73    4.82
   5  -2  -1   53.39    5.07
  -5   2  -1   46.68    4.94
  -5  -2   1   44.72    5.17
  -1   5  -2   48.71    3.47
   1  -5   3  102.99    4.60
  -1  -5  -3   95.53    8.02
  -3   1   5   92.33    7.79
  -1   5   3   99.24    7.44
   3   1  -5  104.33    6.46
  -3  -1  -5  105.32    7.11
  -5   3   1   85.39    7.63
   1  -5  -3   84.21    7.88
  -5   3  -1   90.14    6.85
  -3  -1   5   87.67    6.81
  -5  -3   1   93.47    7.22
   5  -3  -1   98.07    7.18
   3  -1  -5   89.56    7.20
  -1  -5  -4   49.30    7.10
  -1   5   4   61.34    6.42
   5  -4   1   48.60    4.90
  -4   1   5   48.49    6.85
   4   1  -5   54.03    5.43
  -5  -4   1   44.68    6.03
   1  -5  -4   50.25    7.44
  -5   4  -1   49.01    5.73
  -4  -1   5   49.48    6.03
   5  -4  -1   46.99    5.77
   4  -1  -5   40.81    5.69
  -1  -5   4   44.61    3.07
   0  -2   5  179.47    7.22
   0  -2  -5  174.23   10.11
  -2   5   0  173.87    9.13
   0   2  -5  164.18    7.34
  -5   0  -2  174.33    9.08
   5   0  -2  168.10    9.42
   2  -5   0  171.52    9.27
  -5   0   2  165.19    9.94
   0   2   5  175.79    9.45
   1   2  -5   50.69    3.45
  -1  -2  -5   49.35    5.49
   2  -5   1   48.93    4.39
  -2  -5  -1   45.22    4.90
   5   1  -2   51.92    4.94
  -2   5   1   43.72    4.99
  -5   1   2   48.53    5.68
  -1   2   5   45.55    5.16
  -2   5  -1   45.70    4.23
  -1  -2   5   43.75    3.69
  -1   2  -5   42.80    3.13
   1  -2  -5   36.64    5.43
  -5   1  -2   48.63    4.55
   5  -1  -2   57.27    5.34
  -5  -1   2   42.23    5.32
  -2  -2  -5   60.90    5.67
  -2   5   2   52.27    5.65
  -2   2   5   47.98    5.81
  -5   2   2   46.85    6.22
   2  -5   2   55.25    4.04
   5  -2   2   52.29    4.73
   2   2  -5   54.87    4.04
  -2  -5  -2   51.35    5.59
   5  -2  -2   47.76    5.38
  -2   5  -2   54.37    4.02
  -5   2  -2   48.93    4.65
   2  -5  -2   51.92    6.05
  -2  -2   5   51.84    4.61
   2  -2  -5   49.08    6.00
  -5  -2   2   52.12    5.67
  -2   2  -5   55.57    3.50
   5  -3   2  167.64    8.89
  -2   5   3  191.23   10.84
  -3   2   5  158.93   10.65
  -2  -5  -3  172.46   10.63
   3   2  -5  165.17    8.54
  -5   3   2  161.25   10.79
   2  -5   3  182.18    7.21
  -3  -2  -5  154.28    9.75
   3  -2  -5  173.44   10.77
  -2  -5   3  173.14    8.35
   5  -3  -2  177.35   10.32
  -5   3  -2  155.76    8.93
  -2   5  -3  175.21    7.30
  -3  -2   5  160.27    9.17
   2  -5  -3  168.39   10.93
  -5  -3   2  170.33   10.25
   4   2  -5   -0.79    2.31
  -2   5   4    1.92    3.50
  -2  -5  -4   -0.84    3.32
   5  -4   2   -1.08    1.96
  -5   4   2    0.84    3.51
  -4   2   5    0.13    3.74
  -4  -2   5   -3.56    2.78
  -4   2  -5   -2.17    1.43
  -5   4  -2    1.92    2.52
  -5  -4   2    4.36    3.11
   4  -2  -5   -0.59    3.13
  -2  -5   4   -0.24    1.66
   5  -4  -2    4.11    3.56
   2  -5  -4   -1.11    3.65
  -5   0  -3   17.68    3.52
   3  -5   0   25.97    4.50
   0   3   5   25.57    4.37
   0   3  -5   20.32    1.32
  -3   5   0   18.53    4.08
   0  -3  -5   20.93    4.68
  -5   0   3   20.96    4.40
   5   0  -3   21.19    4.13
  -5   1   3   47.94    6.31
   5   1  -3   42.04    5.00
  -3   5   1   45.17    5.69
  -1  -3  -5   47.20    6.28
   1   3  -5   42.82    2.73
  -1   3   5   44.86    5.56
   3  -5   1   42.27    4.54
   1  -3  -5   51.32    6.48
  -3   5  -1   43.98    4.75
  -5  -1   3   42.51    5.72
  -5   1  -3   40.54    4.11
   5  -1  -3   48.16    5.38
  -1  -3   5   42.97    3.35
  -3   5   2  635.01   26.34
  -5   2   3  607.63   26.66
  -2  -3  -5  623.60   26.24
  -2   3   5  634.01   26.42
   5   2  -3  650.26   25.01
   3  -5   2  617.55   23.52
   2   3  -5  641.63   22.98
   3  -5  -2  605.60   26.15
  -2  -3   5  609.69   23.58
   5  -2  -3  627.99   25.90
  -2   3  -5  615.97   21.73
  -5  -2   3  626.87   25.92
   2  -3  -5  607.05   26.60
  -2   3  -5  628.85   21.93
  -5   2  -3  578.53   23.98
  -3   5  -2  578.57   23.84
  -5   3   3    6.98    4.19
  -3   5   3    9.52    3.78
   3  -5   3    8.93    1.85
   3   3  -5    9.52    2.12
  -3  -3  -5   13.93    3.95
  -3  -5  -3   12.53    3.95
  -3   3   5    9.76    4.19
  -3   5  -3    5.89    2.08
   3  -5  -3    6.56    3.94
  -3  -5   3   12.92    2.97
   3  -3  -5    8.76    4.37
  -3  -3   5    9.93    2.87
  -3   3  -5    9.40    1.60
  -5   3  -3   10.34    2.63
  -5  -3   3   14.84    4.07
   5  -3  -3    4.00    3.34
  -3   5   4   83.69    8.35
   5  -4   3   78.68    5.58
  -4   3   5   84.36    8.85
   4   3  -5   94.23    6.08
  -3  -5  -4   88.84    8.53
  -5   4   3   86.56    8.78
  -4   3  -5   83.21    4.89
  -3  -5   4   75.90    5.77
   5  -4  -3   70.79    7.93
  -3   5  -4   73.38    4.40
   4  -3  -5   59.34    7.80
  -5   4  -3   72.99    6.09
   3  -5  -4   76.46    8.78
  -4  -3   5   78.05    6.76
  -4   5   0   20.12    4.25
   0   4   5   18.44    4.12
   4  -5   0   23.66    4.54
   5   0  -4   12.45    3.69
  -5   0   4   26.46    5.07
   0  -4  -5   17.66    5.00
  -5   1   4   81.19    8.22
  -1   4   5   82.85    7.56
   4  -5   1   84.28    6.34
  -4   5   1   86.61    7.58
  -1  -4  -5   80.30    8.18
   5   1  -4   86.42    6.69
   1  -4  -5   85.06    8.38
   5  -1  -4   91.83    7.41
  -4   5  -1   82.45    6.83
   4  -5  -1   93.68    7.81
  -5   1  -4   89.46    5.96
  -5  -1   4   85.53    7.85
  -1  -4   5   88.83    4.44
  -5   2   4  177.93   12.35
  -4   5   2  194.15   12.04
  -2  -4  -5  193.15   12.13
   5   2  -4  196.95   10.47
  -2   4   5  176.92   11.67
   4  -5   2  194.52    9.45
   4  -5  -2  200.78   11.95
   2  -4  -5  192.14   12.41
   5  -2  -4  197.01   11.70
  -2  -4   5  190.66    8.88
  -4  -5   2  200.24   10.90
  -4   5  -2  198.43   10.26
  -5  -2   4  197.06   11.48
  -5   2  -4  203.78    9.67
  -4   5   3    0.28    3.67
  -3  -4  -5   -1.04    3.68
  -5   3   4    7.37    4.25
   4  -5   3   -0.26    1.62
  -3   4   5    5.54    4.12
   3  -4  -5    5.24    4.55
   4  -5  -3   -2.09    3.82
  -3   4  -5   -0.48    1.14
   5  -3  -4    1.39    3.55
  -5   3  -4    3.90    2.15
  -3  -4   5    0.61    2.12
  -4  -5   3    2.35    2.64
  -4   5  -3    1.01    2.21
  -4   4   5   14.35    5.46
  -4  -4  -5    5.34    4.61
  -5   4   4   11.68    5.17
  -4  -5  -4   12.75    4.62
  -4   5   4   14.55    4.87
  -5   4  -4    9.53    2.63
  -4  -4   5    7.77    3.20
  -4   4  -5    8.53    2.14
  -5  -4   4    8.55    3.71
  -4   5  -4    9.81    2.60
  -4  -5   4    8.92    3.16
   4  -5  -4   10.32    4.74
   4  -4  -5    9.01    4.63
   5  -4  -4   13.75    4.73
  -5   0   5    5.20    4.22
   0  -5  -5    5.98    4.63
   0   5   5    9.09    3.90
   5   0  -5   11.89    3.81
  -1   5   5  254.43   14.28
  -5   1   5  249.46   15.13
   5  -5   1  282.08   13.04
  -5   5   1  250.81   14.53
  -1  -5  -5  266.32   15.67
  -5   5  -1  235.81   13.41
  -5   1  -5  257.24   12.03
   1  -5  -5  255.70   15.74
   5  -5  -1  280.19   14.28
  -1  -5   5  260.09    9.97
   5  -1  -5  267.91   14.11
   5  -5   2   13.26    3.12
  -5   5   2   20.34    5.29
   5   2  -5   13.93    3.57
  -5   2   5   14.95    5.52
  -2   5   5    9.86    4.41
  -2  -5  -5   14.24    5.02
  -5  -2   5   15.79    4.59
  -2  -5   5   14.64    3.04
  -5   5  -2   12.39    3.58
   2  -5  -5   18.99    5.39
   5  -5  -2   13.17    4.33
  -5  -5   2   15.68    4.41
   5  -2  -5   24.16    4.98
  -5   2  -5   10.69    2.38
   5   3  -5   14.20    3.34
   5  -5   3   12.55    2.86
  -3  -5  -5   14.50    5.18
  -5   3   5    5.74    5.31
  -3   5   5    4.90    4.73
  -5   5   3   17.36    5.36
  -5   5  -3   11.92    3.29
  -3  -5   5   12.27    2.96
  -3   5  -5   11.73    0.99
  -5   3  -5   18.04    3.50
   3  -5  -5   10.45    5.36
   5  -5  -3   13.82    4.77
  -5  -3   5   10.67    4.17
   5  -3  -5   12.52    4.86
  -5  -5   3    7.15    3.94
  -4  -5  -5   93.48    9.73
  -4   5   5   96.95   10.45
  -5   5   4   99.35   10.72
  -5   4   5   86.81   10.54
  -5   5  -4   90.08    6.89
  -5   4  -5  108.89    6.44
  -5  -5   4  101.06    8.57
  -4  -5   5   99.91    7.53
  -4   5  -5   94.16    5.67
  -5  -4   5  103.79    8.71
   4  -5  -5   91.86   10.59
   5  -5  -4  103.89   10.43
   5  -4  -5   92.61    9.88
  -5  -5  -5  632.20   28.63
  -5   5   5  579.51   29.15
  -5   5  -5  602.33   24.04
  -5  -5   5  619.57   26.08
   5  -5  -5  653.82   29.26
  -6   0   0  287.96   14.63
   0  -6   0  310.66   14.26
   0   0  -6  298.01   14.17
   0   0   6  319.66   13.50
   6   0   0  318.88   14.81
   0  -6   1   62.33    4.97
   1   0  -6   63.94    5.74
   6  -1   0   53.99    5.63
  -1   0   6   66.61    5.57
  -6  -1   0   55.97    5.98
  -6   1   0   60.00    6.11
  -1   0  -6   56.00    5.34
  -6   2   0   25.86    4.93
   0   6   2   23.06    4.73
   2   0  -6   21.57    4.37
   6  -2   0   24.48    4.22
   0  -6  -2   16.32    4.29
   0  -6   2   23.99    3.28
  -2   0   6   22.52    4.85
  -6  -2   0   22.97    4.26
  -2   0  -6   23.34    3.99
   6  -3   0   33.11    5.05
   0   6   3   45.09    5.83
   0  -6  -3   32.12    6.55
  -6   3   0   33.86    5.64
   0  -6   3   30.74    3.20
  -6  -3   0   30.11    5.66
  -3   0   6   42.04    6.14
   3   0  -6   33.98    5.32
  -6  -4   0   89.06    8.44
   6  -4   0  105.84    7.80
   0   6   4  112.48    8.53
   0  -6  -4   97.84    9.62
   0  -6   4   99.77    4.54
   0  -6   4   96.54    4.64
  -6   4   0  105.06    8.79
   0   6   5    6.76    3.91
  -5   0   6    2.29    4.82
  -6   5   0   -3.39    3.80
   0  -6  -5    6.37    5.82
   5   0  -6   -2.91    3.48
   0   1   6  145.71    8.19
  -6   0  -1  130.40    8.40
  -1   6   0  145.40    8.12
   0  -1  -6  135.07    8.84
   1  -6   0  115.21    8.11
   6   0  -1  138.62    8.71
  -6   0   1  122.34    8.75
   0  -1   6  137.81    6.93
   0   1  -6  128.07    7.38
  -1  -6   0  129.48    7.92
   1  -6   1  108.88    6.99
  -1  -1  -6  118.57    8.08
  -1   6   1  118.12    7.84
   6  -1   1  120.68    7.92
  -1   1   6  117.93    7.91
  -6   1   1  122.32    8.78
   1   1  -6  112.98    6.94
  -6  -1  -1  133.56    8.30
   1  -1  -6  109.67    8.08
  -1  -1   6  109.59    6.92
  -1   6  -1  128.16    7.02
  -6   1  -1  108.48    7.82
  -1   1  -6  115.53    6.81
  -6  -1   1  118.55    8.46
   6  -1  -1  119.07    8.14
  -1  -6   1  111.18    6.91
  -2  -1  -6   76.48    6.59
   2   1  -6   89.49    6.10
  -2   1   6   75.22    7.16
  -1  -6  -2   66.71    7.23
   1  -6   2   73.00    5.18
  -6  -2  -1   81.84    6.96
  -6   2   1   68.22    7.13
  -1   6   2   77.43    6.92
   6  -2   1   75.97    6.43
  -1  -6   2   86.53    5.28
   2  -1  -6   80.46    7.15
   1  -6  -2   84.52    7.63
  -6  -2   1   68.00    6.98
  -2   1  -6   82.90    5.50
   6  -2  -1   89.20    7.08
  -2  -1   6   72.01    6.30
  -6   2  -1   87.33    6.90
  -3   1   6   31.68    6.69
   1  -6   3   40.34    3.48
  -1   6   3   50.43    6.05
  -1  -6  -3   52.01    6.79
  -6   3   1   44.46    6.64
  -3  -1  -6   39.39    5.23
  -6   3  -1   40.48    5.77
   6  -3  -1   28.15    5.17
  -1  -6   3   38.02    3.31
  -6  -3   1   37.29    6.05
   3  -1  -6   32.76    5.68
   1  -6  -3   31.09    6.61
  -4   1   6   53.31    7.98
   1  -6   4   54.97    2.40
  -6   4   1   48.63    7.22
  -4  -1  -6   54.76    6.32
  -1   6   4   76.68    7.51
  -1  -6  -4   40.66    7.69
   4   1  -6   60.21    6.14
   1  -6  -4   67.04    8.57
  -1  -6   4   59.89    3.86
  -4  -1   6   57.03    7.19
   6  -4  -1   66.91    7.26
   4  -1  -6   64.99    7.35
  -6   4  -1   54.73    6.94
  -6  -4   1   57.51    7.25
  -1  -6   4   57.57    3.69
   5   1  -6   28.12    5.55
  -5   1   6   10.48    5.66
   6  -5   1   22.37    4.22
  -1   6   5   29.39    5.89
  -6   5   1   25.45    5.93
  -1  -6  -5   49.54    8.84
  -1  -6   5   22.47    2.25
   6  -5  -1   25.72    5.31
  -6  -5   1   23.25    5.50
   5  -1  -6   30.57    6.17
   1  -6  -5   32.28    7.11
  -6   5  -1   22.69    5.10
  -1  -6   5   24.29    2.37
  -5  -1   6   15.17    5.18
  -6   0  -2    3.04    2.51
  -6   0   2    0.30    3.17
   0  -2  -6   -2.86    3.06
   0   2  -6    1.50    1.48
  -2   6   0   -2.10    2.03
   6   0  -2   -3.22    2.49
   0   2   6   -1.79    2.44
   2  -6   0   -2.24    2.38
   0  -2   6    1.38    1.31
   2  -6   1  203.72   10.42
  -1   2   6  196.77   11.44
   1   2  -6  199.00    9.19
  -6   1   2  196.82   12.09
  -6  -1  -2  202.32   10.90
   6   1  -2  212.01   11.36
  -2   6   1  207.81   11.30
  -1  -2  -6  188.85   11.57
  -2  -6  -1  197.40   11.07
  -6  -1   2  189.99   11.78
  -1   2  -6  198.95    9.00
  -1  -2   6  202.30    9.44
   1  -2  -6  198.58   12.00
  -2   6  -1  218.79   10.25
  -6   1  -2  210.84   10.87
   6  -1  -2  226.49   11.70
  -2  -6   1  213.67   10.22
   2  -6   2   -0.09    1.86
   2   2  -6    5.25    2.16
  -2  -6  -2    1.84    3.15
  -2   6   2    3.43    3.11
  -2  -2  -6    0.03    3.11
  -6   2   2    5.46    3.75
  -2   2   6    3.05    3.62
  -2   6  -2   -0.20    1.69
  -2  -2   6   -0.01    2.41
   2  -6  -2    3.14    3.33
   2  -2  -6    2.51    3.53
   6  -2  -2   -0.18    3.01
  -2   2  -6    2.97    1.71
  -6  -2   2    1.99    3.53
  -6   2  -2   -0.07    2.40
  -3   2   6  403.46   20.63
   3   2  -6  446.88   18.20
  -2   6   3  441.04   20.28
  -2  -6  -3  417.66   20.20
   6  -3   2  410.87   18.59
   2  -6   3  443.60   16.76
  -3  -2  -6  434.41   20.00
  -6   3   2  413.30   20.79
   2  -6  -3  442.22   21.18
  -2   6  -3  460.32   16.77
  -3   2  -6  462.00   17.42
  -6  -3   2  439.67   20.54
   3  -2  -6  442.48   20.62
  -3  -2   6  419.94   18.93
  -6   3  -2  425.57   19.04
   6  -3  -2  477.73   20.49
   2  -6   4   29.30    2.01
  -4  -2  -6   29.63    6.23
  -4   2   6   22.91    6.03
   6  -4   2   35.92    4.97
  -2   6   4   43.17    6.68
  -6   4   2   19.74    5.61
  -2  -6  -4   22.40    5.64
   4   2  -6   41.13    4.91
  -4  -2   6   27.36    4.77
   4  -2  -6   34.97    6.28
  -2  -6   4   31.37    3.77
  -4   2  -6   36.30    3.67
   2  -6  -4   33.68    6.66
  -6   4  -2   27.86    5.26
   6  -4  -2   45.02    6.75
   5   2  -6   32.58    5.56
  -6   5   2   31.76    6.33
  -2  -6  -5   34.28    7.02
   6  -5   2   22.53    4.08
  -2   6   5   36.04    6.72
  -5   2  -6   36.08    4.30
  -6   5  -2   32.23    5.48
  -6  -5   2   25.55    5.69
   2  -6  -5   42.12    8.81
   6  -5  -2   31.60    6.11
  -6   0  -3    8.05    2.75
  -3   6   0    6.60    3.14
   6   0  -3   15.33    3.85
   0   3   6   10.67    3.61
   3  -6   0   11.85    3.67
   0  -3  -6    9.81    4.31
   0   3  -6    8.69    1.51
  -6   0   3   12.24    4.44
   6   1  -3  150.74    9.39
  -6  -1  -3  144.71    8.99
   1   3  -6  143.43    6.45
  -6   1   3  140.81   10.66
  -1   3   6  152.01   10.02
   3  -6   1  145.07    8.60
  -1  -3  -6  133.02   10.48
  -3   6   1  123.53    9.39
  -3   6  -1  147.16    8.67
  -1  -3   6  137.16    6.86
   6  -1  -3  152.02    9.75
  -1   3  -6  148.15    5.67
   1  -3  -6  149.42   10.83
  -6  -1   3  159.86   10.71
  -2  -3  -6  113.03    9.02
  -2   3   6  112.04    9.26
  -3  -6  -2  106.09    8.32
   2   3  -6  103.65    5.51
  -3   6   2  102.71    8.67
  -6   2   3   92.66    9.52
   6   2  -3  114.32    7.85
   3  -6   2  100.20    6.25
  -6  -2   3   93.20    8.60
  -6   2  -3   90.80    6.90
   6  -2  -3   80.74    7.86
  -2  -3   6   83.76    6.11
   2  -3  -6   83.31    8.73
  -2   3  -6   93.88    4.18
  -3   6  -2  103.84    6.58
  -2   3  -6   89.98    4.59
   3  -6  -2   80.64    8.38
   3   3  -6   17.80    3.01
  -3  -3  -6   17.49    4.81
  -6   3   3   11.79    5.11
  -3   6   3   13.51    4.72
  -3  -6  -3   12.20    4.28
   3  -6   3   15.25    2.89
  -3   3   6   20.10    5.62
   3  -3  -6   17.35    5.35
   6  -3  -3   16.91    4.66
  -3  -3   6   11.32    3.38
  -3   6  -3   16.61    3.31
  -6   3  -3   12.41    3.51
   3  -6  -3   15.98    5.24
  -3  -6   3   12.73    3.26
  -3   3  -6   13.56    2.59
  -3   3  -6   16.31    2.29
  -3  -6  -4   13.01    5.00
  -4   3   6   17.75    5.83
  -4  -3  -6   21.57    5.37
  -3   6   4   20.27    5.55
  -6   4   3   20.52    5.72
   6  -4   3   24.93    4.08
   3  -6   4   16.39    2.33
   4   3  -6   18.98    3.99
   3  -6  -4   22.24    6.10
   6  -4  -3   19.26    5.09
   4  -3  -6   24.95    6.23
  -4   3  -6   17.50    3.07
  -6  -4   3   22.10    5.37
  -6   4  -3   15.20    3.71
  -3   6  -4   16.30    2.56
  -3  -6  -5   24.12    6.40
   6  -5   3   20.85    4.44
   5   3  -6   27.18    5.11
  -3   6   5   39.00    8.29
  -6   5   3   22.97    6.34
  -5   3   6   28.58    7.41
  -5   3  -6   29.12    4.09
   5  -3  -6   37.30    7.93
  -3  -6   5   30.34    4.56
  -6   5  -3   26.31    4.67
  -6  -5   3   33.96    6.28
  -5  -3   6   19.12    5.10
   6  -5  -3   27.80    6.60
   3  -6  -5   22.46    6.91
   4  -6   0   15.26    3.95
  -4   6   0    6.62    3.41
  -6   0  -4   13.05    3.25
   0   4   6    9.38    3.91
  -6   0   4    2.11    4.44
   6   0  -4    8.48    3.74
   0  -4  -6    8.86    4.52
  -4   6   1    5.30    3.70
   6   1  -4    8.49    3.42
  -1  -4  -6    6.63    4.61
  -6   1   4    4.32    4.68
   4  -6   1    4.01    2.96
  -1   4   6    7.25    4.04
   6  -1  -4   12.59    3.93
  -6   1  -4    3.46    2.57
   1  -4  -6    6.76    4.78
   4  -6  -1    0.49    3.48
  -6  -1   4   -0.24    4.21
  -4   6  -1    5.73    3.18
  -6   2   4   59.18    9.19
  -2   4   6   41.78    7.52
   4  -6   2   60.41    5.34
  -4   6   2   56.61    7.44
   6   2  -4   59.75    6.66
  -2  -4  -6   55.23    8.18
   2  -4  -6   65.27    8.84
  -2  -4   6   59.68    4.86
   4  -6  -2   57.04    7.51
  -4   6  -2   59.17    5.88
   6  -2  -4   50.38    6.99
  -6   2  -4   60.66    5.48
  -3  -4  -6   37.15    7.48
  -4   6   3   24.52    5.60
  -4  -6  -3   34.79    5.98
  -6   3   4   28.75    6.77
  -3   4   6   30.91    6.69
   4  -6   3   26.68    3.69
  -6  -3   4   38.89    7.41
  -6   3  -4   34.76    4.81
  -3   4  -6   28.31    2.06
   6  -3  -4   35.00    7.10
  -3   4  -6   26.80    2.11
   3  -4  -6   31.74    6.69
  -4   6  -3   35.27    4.66
   4  -6  -3   23.43    5.91
  -4   4   6   13.99    6.33
   4  -6   4   15.99    2.99
  -6   4   4   19.73    6.20
  -4   6   4   18.86    5.70
  -4  -6  -4   12.72    5.37
  -4  -4  -6   19.33    5.79
  -4   6  -4   15.31    2.91
  -4  -6   4   11.07    3.71
  -6   4  -4   11.04    3.35
   4  -4  -6   11.52    5.70
   4  -6  -4    5.08    5.44
  -6  -4   4    9.23    4.69
  -4   4  -6   17.45    2.86
   6  -4  -4    9.02    5.05
  -4  -4   6   12.30    3.71
  -4  -6  -5   60.47    9.92
  -4   6   5   87.63   10.72
  -6   5   4   81.93   11.19
  -5  -4  -6   60.66    9.50
  -5   4   6   62.20   10.99
  -5  -4   6   76.78    8.14
  -6  -5   4   82.44    9.07
  -4  -6   5   85.63    7.16
  -4   6  -5   81.04    4.73
  -6   5  -4   70.70    6.91
   4  -6  -5   47.95   10.23
   5  -4  -6   86.89   10.43
  -5   4  -6   75.59    5.47
   6  -5  -4   61.54    9.69
   0  -5  -6   -6.83    4.79
   0   5   6    3.82    4.49
   5  -6   0    2.31    3.70
  -5   6   0   -0.43    4.26
  -1   5   6   76.93    8.83
   6   1  -5   62.63    6.90
  -1  -5  -6   71.61    9.85
   5  -6   1   63.26    6.67
  -5   6   1   68.64    8.53
  -6   1   5   64.64   10.03
   6  -1  -5   69.38    8.14
  -6  -1   5   75.12    9.72
   5  -6  -1   72.88    7.89
   1  -5  -6   66.02    9.80
  -6   1  -5   60.90    5.92
  -5   6  -1   61.49    7.37
   6   2  -5   36.22    5.86
  -2  -5  -6   36.83    7.39
  -6   2   5   32.64    7.69
  -5   6   2   42.97    7.71
   5  -6   2   37.17    4.86
  -2   5   6   44.51    8.31
   2  -5  -6   47.01    9.43
   5  -6  -2   41.98    7.74
  -6  -2   5   26.79    6.19
   6  -2  -5   38.15    7.42
  -5   6  -2   31.07    6.06
  -6   2  -5   25.84    4.67
  -5   6   3   57.63    8.66
   6   3  -5   52.39    6.53
  -3   5   6   53.00    8.99
  -6   3   5   66.38   10.41
   5  -6   3   62.00    5.34
  -3  -5  -6   61.26    9.48
   6  -3  -5   75.92    9.15
  -6   3  -5   55.92    5.65
  -3  -5   6   54.85    5.51
  -5   6  -3   58.15    6.40
   3  -5  -6   51.45   10.04
   5  -6  -3   58.01    8.74
  -5  -6   3   49.49    7.46
  -6  -3   5   45.99    7.84
  -4   5   6    3.65    6.39
  -5   6   4   17.42    6.32
  -5  -6  -4   11.36    5.93
  -4  -5  -6    8.76    5.85
  -6   4   5    6.07    6.43
  -6  -4   5    8.72    4.96
  -5  -6   4   11.80    4.49
  -4  -5   6    5.35    3.42
  -6   4  -5    9.56    3.21
   4  -5  -6   -4.26    5.60
   5  -6  -4   12.29    5.93
   6  -4  -5    4.61    5.48
  -5   6  -4   16.09    3.65
  -5   5   6  123.52   13.80
  -5  -5  -6  110.12   12.03
  -6   5   5  121.91   13.67
  -5  -6  -5  114.67   12.42
  -5   6   5  124.34   12.97
  -6   5  -5  121.55    8.29
  -5  -5   6  121.86    9.47
  -5   5  -6  107.69    6.97
  -6  -5   5  106.12   10.39
  -5   6  -5  107.19    7.37
  -5  -6   5  130.57    9.63
   5  -6  -5  128.91   13.35
   5  -5  -6  127.13   13.01
   6  -5  -5  137.29   12.75
  -6   0   6  306.17   18.60
  -6   6   0  275.75   16.67
   0  -6  -6  312.51   19.26
   0   6   6  304.61   17.11
   6   0  -6  340.25   16.73
   6   1  -6   35.79    6.70
   6  -6   1   20.60    4.60
  -6   1   6    5.31    6.29
  -1   6   6   22.07    6.26
  -6   6   1   22.97    6.12
  -1  -6  -6   13.16    6.75
  -6   6  -1   18.78    5.17
   1  -6  -6   11.75    6.89
   6  -6  -1   20.35    5.15
  -6   1  -6   22.84    4.78
   6  -1  -6   24.31    5.78
  -6  -1   6   25.79    5.90
   6  -6   2    5.38    3.24
  -6   6   2   16.94    6.04
   6   2  -6    2.96    3.74
  -6   2   6   -1.02    6.15
  -2   6   6    1.88    5.27
  -2  -6  -6    1.31    6.11
  -6  -2   6    8.57    5.21
  -2  -6   6    5.68    2.16
  -6   6  -2   11.05    4.46
   2  -6  -6    9.59    6.79
   6  -6  -2   -1.21    4.72
  -6  -6   2    8.34    4.79
   6  -2  -6   12.15    5.56
  -6   2  -6    5.77    2.98
   6  -6   3   -1.81    2.78
  -6   6   3    4.41    5.98
   6   3  -6    3.76    3.62
  -6   3   6   -1.13    6.60
  -3   6   6    4.05    5.76
  -3  -6  -6   -4.35    5.74
  -6  -3   6   -1.81    4.73
  -3  -6   6   -2.94    2.51
  -6   6  -3    7.48    4.06
   3  -6  -6    3.06    6.38
   6  -6  -3   -4.42    4.92
  -6  -6   3    4.10    5.00
   6  -3  -6   -0.57    5.29
  -6   3  -6    0.25    2.77
  -6   6   4  102.69   12.41
  -4   6   6   68.53   11.90
  -4  -6  -6   98.87   12.06
  -6   6  -4   90.98    8.06
  -6  -6   4   98.75   10.18
  -6   4  -6   84.85    6.84
  -4  -6   6   95.08    7.54
  -6  -4   6   68.99    9.36
   4  -6  -6   77.53   12.39
   6  -6  -4   83.19   11.32
  -6  -6  -5   12.47    7.11
  -5  -6  -6    3.59    6.82
  -6  -5  -6    9.64    7.05
  -6   6   5   10.57    8.10
  -5   6   6    3.65    7.38
  -6   6  -5   31.56    6.12
  -6  -5   6    6.34    5.23
  -6  -6   5   23.03    6.05
  -5  -6   6   12.80    4.71
  -5   6  -6   14.17    2.82
  -6   5  -6   12.95    3.69
   5  -6  -6   15.82    8.09
   6  -6  -5    8.54    7.29
  -6  -6  -6  238.71   18.09
  -6   6   6  265.96   19.85
  -6   6  -6  239.41   12.40
  -6  -6   6  234.05   14.96
   6  -6  -6  277.52   19.31
  -7   0   0    2.99    3.07
   0  -7   0    0.14    2.77
   0   0  -7   -1.46    2.80
   0   0   7   -1.93    2.43
  -7  -1   0  165.09   10.65
  -7   1   0  162.66   10.43
  -1   0  -7  153.86    9.52
  -1   0   7  158.95    9.38
   0  -7   1  141.15    8.72
   1   0  -7  156.12    9.73
   7  -1   0  142.30    9.69
  -7  -2   0  267.49   14.70
  -7   2   0  269.09   14.75
  -2   0  -7  278.09   13.51
  -2   0   7  257.66   13.91
   0  -7  -2  263.92   14.90
   0  -7   2  279.76   12.53
   2   0  -7  266.72   13.85
   7  -2   0  285.93   14.34
   0  -7   3  126.28    6.92
   0   7   3  137.68    9.77
  -3   0  -7  124.32    8.48
  -3   0   7  125.68    9.98
   0  -7  -3  109.58   10.21
   3   0  -7  117.04    8.82
  -7  -3   0  107.11    9.91
  -7   3   0  128.84    9.96
   7  -3   0  127.28    9.27
  -7   4   0   51.86    7.86
   0  -7   4   57.84    4.13
   0   7   4   70.44    8.13
  -4   0  -7   57.71    6.72
  -7  -4   0   62.72    8.66
   4   0  -7   73.74    7.57
   7  -4   0   52.80    7.07
   0  -7  -4   53.94    9.70
  -5   0   7   42.22    8.56
  -7   5   0   43.96    8.72
   0  -7  -5   50.11   10.05
   0   7   5   64.77    8.67
  -7  -5   0   58.02    9.13
   7  -5   0   56.39    7.75
   5   0  -7   37.66    7.34
   0  -7  -6   75.33   12.67
  -7   6   0   47.73    9.63
  -7  -6   0   39.78    8.20
  -6   0   7   54.51   10.82
   0   7   6   49.32    9.38
   6   0  -7   68.69    8.48
   0  -1   7   11.42    2.56
  -1  -7   0   10.80    3.42
   0   1   7    5.42    2.99
  -7   0  -1   10.77    3.68
  -7   0   1    9.25    4.24
   0  -1  -7    7.83    3.59
  -1   7   0    9.80    3.04
   7   0  -1   27.26    5.36
   1  -7   0   10.51    3.73
   0   1  -7    9.05    2.84
   1   1  -7   60.99    5.68
  -7   1   1   66.53    7.45
  -7  -1  -1   53.95    6.57
  -1   1   7   56.51    6.31
  -1  -1  -7   54.79    6.64
   1  -7   1   56.83    5.68
  -1   1  -7   55.52    5.39
  -1  -7   1   65.13    5.62
   1  -1  -7   50.20    6.95
  -7   1  -1   52.51    6.53
  -1  -1   7   63.86    5.49
   7  -1  -1   60.06    6.84
  -7  -1   1   60.71    7.25
   2   1  -7    9.96    3.05
  -7  -2  -1   13.49    4.13
  -7   2   1    6.70    4.30
   1  -7   2   10.82    3.04
  -2   1   7   10.30    4.24
  -2  -1  -7    5.23    3.51
  -1  -7  -2    9.47    4.19
  -1   7   2   10.63    3.68
   7  -2   1   10.92    3.74
   1  -7  -2    9.96    4.43
   7  -2  -1   10.08    3.95
  -7  -2   1    5.28    4.34
  -2   1  -7    6.73    2.81
  -1  -7   2   10.81    2.85
   2  -1  -7    7.18    4.02
  -7   2  -1    4.44    3.47
  -2  -1   7   11.01    3.66
   1  -7   3    9.48    2.46
  -1   7   3   11.06    4.11
  -3   1   7    6.91    4.36
  -7   3   1    3.00    4.16
  -7  -3  -1   10.80    4.34
  -1  -7  -3   12.63    5.02
  -3  -1  -7   10.77    3.73
   7  -3   1   12.52    3.88
   3   1  -7   14.42    3.50
  -1  -7   3    7.67    2.37
   1  -7  -3   10.52    5.06
   7  -3  -1    8.91    4.01
  -7  -3   1    2.77    4.72
  -7   3  -1    4.76    3.75
  -3   1  -7    6.10    2.73
   3  -1  -7   -0.45    3.73
  -3  -1   7    6.74    3.72
  -7   4   1   65.27    8.53
  -4  -1  -7   53.09    6.84
  -1  -7  -4   53.79    9.14
  -7  -4  -1   65.22    8.27
   1  -7   4   53.16    3.41
   4   1  -7   49.63    6.22
  -1   7   4   51.88    7.71
  -4   1   7   43.17    8.58
  -4   1  -7   58.22    5.96
  -4  -1   7   51.02    7.30
  -1  -7   4   52.67    4.30
   1  -7  -4   56.97    9.49
   4  -1  -7   60.24    7.75
   7  -4  -1   64.14    7.79
  -7   4  -1   41.67    7.41
  -5   1   7   79.17   10.83
  -1   7   5   97.26    9.71
   5   1  -7   92.32    8.46
   7  -5   1   95.96    8.24
  -7   5   1   79.22   10.31
  -5  -1  -7   76.57    8.50
  -1  -7  -5   74.63   11.49
   5  -1  -7   83.72    8.85
  -1  -7   5   84.83    4.43
  -5  -1   7   83.84    9.62
  -7   5  -1   75.75    9.31
   7  -5  -1   61.45    8.55
  -7  -5   1   89.14   10.13
   1  -7  -5   76.07   11.64
  -1  -7   5   80.23    4.73
  -7   6   1   -3.15    5.59
  -6   1   7    3.66    6.54
  -1  -7  -6    4.74    7.63
  -1   7   6   11.57    6.07
   7  -6   1   12.08    4.47
   6   1  -7   16.95    5.21
   1  -7  -6   11.93    7.84
  -7   6  -1    7.43    5.67
   6  -1  -7    1.49    5.02
  -6   1  -7    4.63    3.31
  -6  -1   7   13.33    6.67
   7  -6  -1    3.27    5.16
  -7  -6   1   12.29    6.05
   0  -2  -7   -0.55    3.72
   0  -2   7    0.81    1.61
   7   0  -2    1.03    3.45
   0   2   7    2.85    3.26
  -7   0  -2   -2.53    2.85
  -7   0   2    1.73    4.10
  -2  -7   0    2.83    2.65
  -2   7   0   -0.74    2.63
   0   2  -7    2.75    1.99
   2  -7   0   -0.10    3.14
   1   2  -7   25.61    3.81
  -1   2   7   29.32    5.40
  -1  -2  -7   30.76    5.66
  -7  -1  -2   31.40    5.46
   7   1  -2   27.74    5.24
  -7   1   2   35.00    7.08
  -2  -7  -1   27.18    5.68
   2  -7   1   27.91    4.95
   7  -1  -2   31.79    5.86
  -1   2  -7   27.34    3.78
  -2   7  -1   28.40    4.53
  -7   1  -2   29.93    5.36
  -2  -7   1   29.47    4.48
  -7  -1   2   19.41    5.24
   1  -2  -7   23.17    5.58
  -1  -2   7   30.25    3.97
  -7   2   2   23.17    5.59
   2   2  -7   27.51    4.11
  -2   2   7   37.47    7.05
   2  -7   2   35.67    4.69
  -2  -2  -7   29.17    5.83
  -2  -7  -2   31.37    6.38
  -7  -2  -2   37.40    5.90
  -2   7   2   31.60    6.06
  -7   2  -2   25.07    4.73
   2  -2  -7   32.59    6.27
  -2  -2   7   28.33    4.84
  -2   7  -2   24.37    3.97
  -2  -7   2   29.59    4.23
   2  -7  -2   27.78    5.89
  -2   2  -7   30.55    3.93
   7  -2  -2   28.35    6.05
  -7  -2   2   27.66    6.06
  -3   2   7    8.93    5.16
   3   2  -7    4.57    2.80
  -7   3   2   -0.27    4.68
  -3  -2  -7   -1.09    3.57
  -2  -7  -3    3.45    4.27
   2  -7   3    1.27    1.92
  -7  -3  -2    2.64    3.98
  -2   7   3    2.83    3.79
  -3   2  -7    2.74    2.17
  -3  -2   7   -2.14    3.29
  -7  -3   2    1.70    4.85
  -7   3  -2   -1.88    3.18
   2  -7  -3    0.95    4.63
  -2  -7   3    4.23    2.11
   3  -2  -7   -1.26    4.16
   7  -3  -2    3.91    3.92
   2  -7   4   44.52    3.03
  -4   2   7   43.34    9.09
  -7   4   2   53.19    8.83
  -2  -7  -4   40.87    7.60
   7  -4   2   37.15    5.61
  -2   7   4   50.31    7.67
   4   2  -7   40.22    5.68
  -4  -2  -7   52.99    7.74
  -7   4  -2   34.53    6.00
   7  -4  -2   39.53    7.53
  -7  -4   2   29.99    6.84
   4  -2  -7   36.67    7.69
  -2  -7   4   39.21    4.57
  -2  -7   4   44.49    4.14
  -4  -2   7   38.70    7.01
   2  -7  -4   33.13    7.56
  -4   2  -7   42.87    4.88
   7  -5   2  102.11    8.16
   5   2  -7   97.02    8.19
  -2   7   5   97.10   10.24
  -2  -7  -5   90.43   11.92
  -7   5   2   88.51   11.34
  -5  -2  -7  109.93   10.24
  -2  -7   5  106.45    6.17
   5  -2  -7   97.02   10.53
  -2  -7   5  104.89    5.81
   7  -5  -2   97.26    9.95
   2  -7  -5  108.53   12.70
  -5  -2   7  109.29   10.19
  -7  -5   2  107.74   11.26
  -5   2  -7  107.42    6.95
  -7   5  -2   95.53    9.35
  -2   7   6  118.98   12.33
  -7   6   2   98.90   11.97
   6   2  -7   95.82    9.07
  -2  -7  -6   89.13   13.15
   7  -6   2  121.81    9.03
  -6   2   7   98.88   12.89
   6  -2  -7  114.96   11.49
  -7   6  -2   87.65    9.95
  -2  -7   6   97.14    5.31
  -6   2  -7  104.16    7.62
   2  -7  -6  115.61   14.60
   7  -6  -2  107.69   11.46
  -7  -6   2  108.05   11.62
  -2  -7   6  102.08    5.74
  -6  -2   7   73.56   10.59
   7   0  -3   22.39    4.95
   0  -3  -7   23.94    6.22
   3  -7   0   19.67    4.46
  -7   0  -3   24.91    4.31
  -7   0   3   15.16    5.42
  -3   7   0   15.34    3.74
   0   3  -7   20.04    2.48
  -7  -1  -3   88.45    7.64
  -1  -3  -7   85.35    9.36
   1   3  -7   91.41    4.95
   7   1  -3   91.18    8.00
  -3  -7  -1   75.81    7.45
  -7   1   3   74.57    9.56
   3  -7   1   79.41    7.12
  -1   3  -7   90.93    4.37
  -7   1  -3   84.34    7.54
  -7  -1   3   67.72    9.01
   7  -1  -3   78.32    8.00
  -3   7  -1   91.51    7.03
  -1  -3   7   88.86    5.24
  -2   3   7   15.54    5.19
   3  -7   2   14.93    3.36
  -7   2   3    7.51    5.36
  -7  -2  -3   13.68    4.14
   2   3  -7   15.31    3.18
  -2  -3  -7   20.18    5.65
  -3   7   2   13.91    4.34
  -3  -7  -2    9.87    4.58
  -3   7  -2   17.36    3.51
   3  -7  -2   18.22    5.43
   7  -2  -3   16.17    5.07
  -2   3  -7   18.18    2.60
  -7   2  -3   15.17    4.00
   2  -3  -7   13.17    5.62
   3  -7   3   74.54    5.17
  -7   3   3   75.63   10.00
  -3  -3  -7   57.05    8.37
  -3   3   7   88.17   10.10
  -3  -7  -3   57.01    8.04
  -3   7   3   69.30    8.06
   3   3  -7   72.90    5.46
  -3   3  -7   72.89    4.14
   3  -3  -7   61.33    9.59
   3  -7  -3   50.83    8.74
  -7  -3   3   55.59    9.43
   7  -3  -3   66.78    8.28
  -3   3  -7   66.67    4.65
  -7   3  -3   64.19    6.79
  -3  -3   7   54.56    6.46
  -3   7  -3   63.58    5.16
  -3  -7  -4   18.83    6.31
  -7   4   3   16.77    6.57
   3  -7   4   20.03    2.86
  -3   7   4   24.01    6.16
  -4  -3  -7   19.49    5.87
  -4   3   7   32.67    7.29
   4   3  -7   17.67    3.55
   4  -3  -7    7.82    6.13
  -4   3  -7   16.56    2.72
  -7   4  -3   20.43    4.60
  -4  -3   7   15.15    4.63
   7  -4  -3   16.37    5.94
  -4   3  -7   20.29    3.67
  -3  -7   4   20.72    3.94
   3  -7  -4   14.06    6.17
  -3   7  -4   23.15    2.99
  -3  -7  -5   50.91   10.08
  -7   5   3   48.74   10.32
  -3   7   5   39.41    7.46
  -5   3   7   30.01    8.13
  -5  -3  -7   37.71    7.59
   5   3  -7   46.45    5.98
   7  -5   3   40.65    5.79
  -7  -5   3   29.99    7.49
   3  -7  -5   45.67    8.84
  -3  -7   5   42.85    5.28
  -5  -3   7   36.11    6.66
  -7   5  -3   29.69    5.80
   5  -3  -7   47.97    8.27
   7  -5  -3   41.88    8.74
  -5   3  -7   44.27    4.72
   7  -6   3   17.00    4.40
   6   3  -7   24.08    5.06
  -6  -3  -7   27.01    7.67
  -3   7   6   27.25    8.25
  -3  -7  -6   12.10    7.79
  -6   3   7   14.62    7.58
  -7   6   3   28.82    8.08
  -6  -3   7   26.61    6.73
  -7   6  -3   14.52    5.29
   7  -6  -3   26.24    7.31
  -6   3  -7   27.68    5.27
   3  -7  -6   27.37    8.64
  -7  -6   3   14.20    6.55
  -3  -7   6   19.59    3.60
   6  -3  -7   20.38    7.00
   7   0  -4   40.85    7.31
  -7   0   4   34.91    7.61
   4  -7   0   42.18    6.73
  -7   0  -4   40.56    5.83
  -4   7   0   51.22    7.10
  -7  -1  -4   45.34    6.21
   4  -7   1   51.76    6.17
   7   1  -4   60.32    7.51
  -1  -4  -7   43.49    8.90
  -7   1   4   46.15    8.29
  -7   1  -4   41.62    5.93
  -1  -4   7   46.00    3.26
  -4   7  -1   50.68    6.54
  -7  -1   4   52.07    8.78
   7  -1  -4   38.74    7.17
  -2  -4  -7   18.34    5.84
  -7   2   4   23.33    7.09
   7   2  -4   18.88    4.79
  -2   4   7   20.81    6.08
  -4   7   2   25.27    6.03
   4  -7   2   16.14    3.51
  -4  -7  -2   23.98    5.74
   7  -2  -4   24.41    5.73
  -7   2  -4   15.67    4.17
   2  -4  -7   12.71    6.59
  -2  -4   7   19.97    4.02
  -7  -2   4   21.15    6.47
   4  -7  -2   25.27    6.01
  -4   7  -2   22.55    4.23
  -3  -4  -7   64.23    9.41
  -3   4   7   62.21   10.31
  -4   7   3   67.85    9.29
   4  -7   3   69.88    5.33
  -4  -7  -3   86.53    9.62
  -7   3   4   54.74    9.82
  -4  -7   3   75.69    7.52
   7  -3  -4   60.47    8.85
  -7  -3   4   54.59    9.02
  -7   3  -4   65.36    6.82
   4  -7  -3   47.62    9.30
  -3  -4   7   55.78    6.36
   3  -4  -7   50.56    9.96
  -4   7  -3   68.83    6.24
  -4  -7  -4   24.71    6.54
   4  -7   4   26.72    3.74
  -4   7   4   45.41    9.09
  -4   4   7   30.35    7.78
  -7   4   4   27.70    8.28
  -4  -4  -7   28.72    7.40
   7  -4  -4   43.06    9.13
  -7   4  -4   36.11    6.10
  -4   4  -7   31.41    3.33
  -7  -4   4   33.75    7.12
  -4   7  -4   34.31    4.33
  -4  -7   4   29.56    6.05
  -4  -4   7   32.88    6.44
   4  -4  -7   41.67    8.25
   4  -7  -4   31.60    8.05
  -4  -7  -5   71.54   11.46
  -5  -4  -7   79.32   11.20
  -5   4   7   65.84   11.78
  -7   5   4   63.04   12.16
  -4   7   5   73.18   10.96
  -5  -4   7   67.02    8.59
   7  -5  -4   85.67   10.94
   4  -7  -5   72.33   11.87
  -4   7  -5   76.91    4.35
   5  -4  -7   90.33   11.54
  -7  -5   4   87.95   11.10
  -7   5  -4   72.36    8.02
  -4  -7   5   73.83    7.33
  -5   4  -7   74.16    5.51
  -6  -4  -7  135.14   13.50
  -7   6   4  128.56   15.00
  -4   7   6  135.57   14.84
  -4  -7  -6  145.51   14.98
  -6  -4   7  127.88   11.61
  -7  -6   4  129.01   12.98
   6  -4  -7  139.72   14.00
   4  -7  -6  119.57   15.07
   7  -6  -4  111.68   13.35
  -4  -7   6  124.86    8.93
  -7   6  -4  115.67   10.15
  -6   4  -7  117.88    7.99
   5  -7   0    0.63    3.81
  -5   7   0    5.17    4.37
   7   0  -5   11.66    5.09
  -7   0   5   14.14    6.66
  -7   1   5    5.69    6.60
  -5   7   1    3.45    4.78
  -1  -5  -7    5.94    6.30
   7   1  -5    3.08    4.12
   5  -7   1    0.51    3.72
   7  -1  -5   -4.97    4.31
   5  -7  -1    2.06    5.11
  -7  -1   5   11.50    6.37
  -7   1  -5    3.13    3.26
  -5   7  -1    0.40    3.94
  -2  -5  -7   23.54    7.29
  -5   7   2   21.44    6.11
   5  -7   2   29.13    5.40
   7   2  -5   28.45    5.62
   5  -7  -2   28.02    6.40
  -7   2  -5   32.91    5.80
  -2  -5   7   24.41    3.82
  -5   7  -2   24.03    5.16
  -7  -2   5   18.99    6.76
  -5  -7  -3   84.06   10.13
  -3  -5  -7   71.14   11.45
  -3   5   7   86.30   11.18
  -7   3   5   67.44   12.94
   5  -7   3   93.77    6.70
  -5   7   3   77.62   10.35
  -7  -3   5   86.94   10.66
  -3  -5   7   77.11    6.59
  -5  -7   3   90.83    8.91
   3  -5  -7   71.30   12.02
  -7   3  -5   84.39    7.53
   5  -7  -3  102.09   11.37
   7  -3  -5   62.60   10.04
  -4   5   7    5.26    7.39
  -5  -7  -4   14.64    6.43
   5  -7   4   17.24    3.19
  -5   7   4   25.52    7.32
  -7   4   5   13.44    8.31
  -4  -5  -7   24.82    7.33
   4  -5  -7   12.41    7.45
  -5   7  -4   12.24    3.72
  -7  -4   5   11.57    5.97
  -4  -5   7   19.78    4.47
  -5  -7   4   16.28    5.19
   5  -7  -4   19.46    7.49
   7  -4  -5   29.65    7.28
  -7   4  -5   13.16    3.99
  -5   7   5   14.70    7.72
  -5  -5  -7    8.35    7.49
  -5  -7  -5   15.10    7.61
  -7   5   5    6.95    8.63
  -5   5   7   17.51    8.29
  -7  -5   5   15.66    6.63
  -5   5  -7   14.22    2.88
  -5  -7   5   14.93    4.81
  -5   7  -5   18.42    3.50
   7  -5  -5   18.42    7.47
   5  -5  -7    3.97    7.55
  -5  -5   7   19.54    5.47
   5  -7  -5   10.92    7.67
  -7   5  -5   15.89    4.44
  -6  -5  -7    2.68    7.99
  -5   7   6    7.96    8.64
  -5  -7  -6    6.59    7.88
  -7   6   5   -0.01    8.52
  -6  -5   7    9.02    5.57
  -7  -6   5   10.08    6.55
  -5  -7   6    0.93    4.26
  -6   5  -7    7.72    3.38
  -7   6  -5   10.67    4.72
  -5   7  -6    2.21    1.74
   5  -7  -6    2.20    8.90
   6  -5  -7    4.11    7.56
   7  -6  -5    6.68    7.46
   0  -6  -7  125.67   14.84
   0   6   7  125.83   12.14
  -6   7   0  134.85   11.70
  -7   0  -6  126.49    9.30
  -7   0   6  129.06   13.84
   6  -7   0  139.23   10.76
   7   0  -6  131.87   11.14
  -1  -6  -7   40.71    9.10
   7   1  -6   44.58    8.24
   6  -7   1   53.80    7.27
  -6   7   1   45.01    9.49
   7  -1  -6   38.91    8.21
  -7  -1   6   39.55    8.84
  -6   7  -1   43.14    8.09
  -7   1  -6   45.42    6.30
   6  -7   2  112.15    8.45
  -7   2   6  115.01   14.13
   7   2  -6  103.47    9.48
  -2  -6  -7  110.09   13.80
  -6   7   2   82.33   11.63
  -6   7  -2   97.40    9.69
  -2  -6   7  103.71    5.41
   6  -7  -2   92.57   11.22
  -7   2  -6  101.22    8.29
   7  -2  -6  114.12   11.63
  -6  -7   2   92.99   10.57
  -7  -2   6  108.27   12.49
   7   3  -6   12.95    4.92
  -3  -6  -7   12.56    7.77
  -6   7   3   10.65    7.04
   6  -7   3   10.99    3.44
  -3   6   7   15.58    7.76
  -7   3   6    4.75    8.00
   7  -3  -6   13.86    6.90
   3  -6  -7   15.85    8.78
  -7   3  -6   10.57    3.93
  -6   7  -3   15.25    4.93
   6  -7  -3   19.07    6.71
  -3  -6   7   13.60    3.48
  -7  -3   6    7.35    6.57
  -4  -6  -7   68.68   12.98
  -4   6   7   62.51   10.60
  -7   4   6   74.02   13.73
  -6   7   4   55.73   10.39
   6  -7   4   59.85    6.22
  -6  -7  -4   64.64   11.54
   6  -7  -4   87.94   12.29
  -6  -7   4   63.24    9.70
   7  -4  -6   65.65   11.63
  -7  -4   6   72.19   10.85
  -7   4  -6   64.26    7.21
  -6   7  -4   74.38    8.05
   4  -6  -7   47.71   10.63
  -4  -6   7   61.63    7.39
  -5   6   7   33.32   10.09
  -7   5   6   29.62   10.54
  -6  -7  -5   35.36    9.08
  -5  -6  -7   43.59   10.15
  -6   7   5   46.76   10.02
  -6  -7   5   31.94    6.48
  -5  -6   7   33.27    6.14
  -7  -5   6   16.87    6.80
   5  -6  -7   23.72    9.34
   6  -7  -5   35.85    9.62
   7  -5  -6   52.04   10.32
  -7   5  -6   19.16    4.72
  -7  -6  -6    5.76    8.78
  -6  -6  -7   -5.03    8.53
  -7   6   6   13.03   10.31
  -6  -7  -6    3.44    8.65
  -6   6   7    9.65    9.85
  -6   7   6    2.39    9.76
  -7  -6   6   -5.29    6.39
  -6   7  -6   -0.94    3.34
  -6   6  -7   -0.67    3.24
   6  -7  -6    4.87    8.99
   6  -6  -7   -2.03    8.75
   7  -6  -6    5.72    8.72
  -7   0  -7   23.06    5.44
  -7   0   7   20.33    8.49
   0  -7  -7   22.73    9.53
   7  -7   0   42.04    8.25
   7   0  -7   23.50    7.11
   7  -7   1    1.92    4.40
  -1  -7  -7    0.41    8.62
   7   1  -7   -7.45    4.81
  -7   1   7   16.78    8.70
  -7   7   1   -7.95    5.87
  -7  -1   7    7.09    7.16
   1  -7  -7    8.02    9.13
   7  -7  -1    2.43    6.14
  -7  -7   1    3.81    6.21
   7  -1  -7   -5.59    5.49
  -7   1  -7   -3.72    3.57
   7  -7   2   63.15    7.96
  -2  -7  -7   80.06   14.07
  -7   2   7   45.15   10.28
  -7   7   2   62.64   10.96
  -7  -2   7   71.39   12.18
   2  -7  -7   41.00   11.85
   7  -7  -2   62.64   11.12
  -7  -7   2   63.14   11.05
   7  -2  -7   77.79   11.49
  -7   2  -7   55.01    7.11
  -7   7   3   24.98    8.57
  -3   7   7   41.21    9.54
  -3  -7  -7   36.22   10.35
  -7   3   7   37.20   10.66
  -7  -7   3   29.54    8.04
  -7   3  -7   39.27    6.50
  -3  -7   7   31.39    5.44
  -7  -3   7   39.75    8.16
   3  -7  -7   37.83   10.96
   7  -7  -3   37.77    8.72
   7  -3  -7   36.37    8.44
  -7   7   4   13.04    9.19
  -4   7   7    7.84    8.57
  -7   4   7    5.84   10.08
  -4  -7  -7    7.14    9.29
  -7  -7   4    4.35    6.56
  -7   7  -4    4.79    5.26
  -4  -7   7    3.58    4.09
  -7  -4   7    8.57    7.06
   4  -7  -7   13.12    9.51
   7  -7  -4   -5.19    7.44
   7  -4  -7   20.81    8.37
  -7  -7  -5   -1.94    8.42
  -7  -5  -7   -9.14    8.37
  -7   5   7    8.00   10.64
  -5   7   7    9.55    9.50
  -7   7   5   -5.15    9.22
  -5  -7  -7    6.15    9.72
  -7   7  -5    3.93    5.13
   5  -7  -7  -11.28   10.11
   7  -7  -5   15.77    9.41
   7  -5  -7    5.84    8.50
  -7  -7  -6    9.60    9.97
  -7  -6  -7    4.54    9.78
  -6  -7  -7    3.64   10.37
  -7   6   7    3.60   11.27
  -6   7   7   10.63   11.18
  -7   6  -7   17.50    5.16
  -6   7  -7   14.84    3.04
  -7   7  -6    8.69    5.12
   6  -7  -7   31.72   11.37
   7  -6  -7    1.07   10.14
  -7  -7  -7   48.91   13.38
  -7   7   7  101.03   20.71
  -7   7  -7   80.99    8.14
   7  -7  -7  107.73   19.33
  -8   0   0   28.14    5.59
   0  -8   0   23.54    4.91
   0   0  -8   22.49    4.74
   0   0   8   24.25    4.20
   1   0  -8   24.26    5.07
   8  -1   0   34.23    6.54
   0  -8   1   29.48    5.36
  -1   0   8   27.53    5.50
  -1   0  -8   24.46    4.86
  -8   1   0   26.78    5.60
  -8  -1   0   22.48    5.63
  -2   0  -8   51.68    6.81
   8  -2   0   70.79    7.78
   2   0  -8   52.25    7.25
   0  -8   2   61.99    6.02
  -2   0   8   57.89    7.46
   0  -8  -2   53.32    8.20
  -8   2   0   85.47    8.48
  -8  -2   0   59.69    8.53
  -8  -3   0   93.14   10.22
   3   0  -8   92.56    8.71
   8  -3   0  100.64    9.20
   0  -8  -3  101.38   10.88
  -3   0  -8   91.81    8.23
  -3   0   8   96.39    9.65
   0  -8   3  103.54    6.95
  -8   3   0  116.49   10.35
   8  -4   0  117.95    9.85
  -8   4   0  119.83   11.02
   0  -8   4  107.42    6.55
  -4   0   8  115.24   10.80
  -4   0  -8  108.88    9.05
   0  -8  -4   99.20   11.85
   4   0  -8  127.87   10.21
  -8   5   0  118.60   12.66
  -5   0   8  132.74   12.69
  -5   0  -8  130.19   11.26
   5   0  -8  126.28   10.79
   0  -8  -5  137.11   14.75
   8  -5   0  140.69   11.39
  -8  -5   0  137.85   12.36
   6   0  -8   18.20    5.90
   0  -8  -6   12.71    8.91
  -8   6   0    2.79    6.81
   8  -6   0   -2.75    5.14
  -6   0   8    5.45    6.93
  -8  -6   0    5.83    6.73
  -8  -7   0   66.34   11.92
  -7   0   8   60.33   13.04
   0  -8  -7   82.10   14.23
   0   1  -8   82.59    6.87
   0  -1   8   83.85    6.18
  -1  -8   0   74.42    7.57
   0  -1  -8   65.55    7.95
  -8   0  -1   83.98    8.16
   8   0  -1   81.71    8.36
   1  -8   0   73.23    7.71
  -8   0   1   65.28    8.91
   0   1   8   81.35    7.14
   1  -8   1    5.47    3.41
  -1   1   8    4.77    4.09
  -1   8   1    6.96    3.88
  -8   1   1   10.39    4.95
  -8  -1  -1   17.93    4.93
   1   1  -8    9.51    3.46
  -1  -1  -8   11.75    4.48
  -1  -1   8    5.82    3.33
   8  -1  -1    7.48    4.14
  -1   1  -8    4.89    3.14
  -8  -1   1   11.95    5.34
  -8   1  -1    6.78    3.95
   1  -1  -8   13.94    4.57
  -1  -8   1   10.56    3.30
  -8   2   1    1.71    4.64
  -1   8   2    6.96    4.15
  -2   1   8    2.57    4.20
  -2  -1  -8    7.87    4.37
   1  -8   2    7.90    3.17
  -1  -8  -2   13.68    5.16
   2   1  -8    8.32    3.39
   8  -2   1   16.20    4.42
  -8  -2  -1   11.03    4.85
   8  -2  -1    4.25    4.20
  -1  -8   2    5.96    2.93
   2  -1  -8    4.15    4.36
  -2   1  -8    4.02    2.93
   1  -8  -2   -1.81    4.58
  -8  -2   1    7.98    5.34
  -8   2  -1    6.00    4.01
  -2  -1   8   -0.72    3.23
  -1   8   3  160.79   11.15
   3   1  -8  158.34    9.88
   8  -3   1  136.81   10.01
  -3   1   8  143.13   11.63
  -8  -3  -1  129.75   11.20
   1  -8   3  152.61    8.33
  -1  -8  -3  138.22   11.96
  -8   3   1  142.72   11.97
  -3  -1  -8  133.45   10.45
  -8   3  -1  144.55   11.38
   3  -1  -8  144.37   11.04
   1  -8  -3  129.27   12.35
   8  -3  -1  143.19   10.76
  -3  -1   8  126.78   10.19
  -3   1  -8  125.47    8.69
  -8  -3   1  139.87   12.53
  -1  -8   3  132.22    8.24
  -8   4   1   62.99    9.45
   4   1  -8   76.35    7.84
  -4   1   8   77.99   10.06
   1  -8   4   69.89    4.81
  -1   8   4   64.37    8.91
  -8  -4  -1   55.09    9.75
  -1  -8  -4   90.64   11.61
   8  -4   1   56.04    7.49
  -4  -1  -8   76.72    8.89
   4  -1  -8   70.54    9.07
  -8   4  -1   75.83    9.27
  -4   1  -8   65.56    6.86
   8  -4  -1   71.82    8.82
   1  -8  -4   66.06   11.16
  -8  -4   1   74.64   10.71
  -4  -1   8   56.57    8.55
  -1  -8   4   58.70    5.43
  -1  -8  -5   57.70   12.30
  -8   5   1   50.22    9.28
  -5  -1  -8   53.44    8.95
  -8  -5  -1   54.80   10.23
  -5   1   8   38.35    8.48
   5   1  -8   57.32    8.20
  -1   8   5   82.36   10.15
  -1  -8   5   72.77    4.77
  -8  -5   1   72.28   11.02
   8  -5  -1   62.94    9.32
   1  -8  -5   63.82   11.23
  -5  -1   8   50.20    9.87
  -1  -8   5   69.03    4.33
   5  -1  -8   72.50    9.75
  -1   8   6   24.62    7.69
  -8  -6  -1   30.99    7.64
   6   1  -8    7.53    5.19
  -1  -8  -6    2.93    8.14
  -6   1   8   19.72    8.06
  -8   6   1   24.92    8.01
  -8  -6   1   16.04    7.75
  -8   6  -1   26.03    7.23
   1  -8  -6   16.66    9.54
  -6  -1   8   14.98    6.87
   8  -6  -1   15.46    6.81
   6  -1  -8   15.39    6.45
  -1  -8  -7  163.46   18.95
   8  -7   1  171.23   12.96
  -7   1   8  157.17   17.22
  -8   7   1  133.80   15.79
  -1   8   7  195.56   16.50
   8  -7  -1  209.02   15.17
  -8  -7   1  160.00   15.00
  -8   7  -1  166.39   14.67
  -7   1  -8  174.41   11.21
  -7  -1   8  187.95   16.28
   1  -8  -7  135.61   19.56
  -8   0   2   95.89   10.51
   8   0  -2   92.31    8.85
  -8   0  -2  110.52    8.66
  -2   8   0   99.39    8.01
   0  -2  -8  109.75   10.18
   0   2  -8   94.66    6.54
   0   2   8   90.26    8.66
  -2  -8   0   88.52    7.99
   2  -8   0   88.30    8.58
  -2   8   1   93.65    8.75
  -1  -2  -8   88.57    9.69
  -8  -1  -2  109.04    9.14
   2  -8   1  109.93    8.33
  -8   1   2   83.38   10.43
   1   2  -8  102.80    6.88
  -1   2   8   87.03    9.16
  -8  -1   2  101.29   10.65
  -2  -8   1  106.32    7.81
  -1   2  -8   99.79    6.84
   8  -1  -2   98.83    9.27
   2  -8  -1   93.62    9.64
  -2   8  -1  122.73    7.96
   1  -2  -8  102.57    9.94
  -1  -2   8  107.62    6.82
  -8   1  -2   95.59    8.60
  -2  -2  -8    6.55    5.03
  -8   2   2    4.71    5.57
  -2  -8  -2    1.87    4.37
  -2   8   2    0.00    3.99
  -8  -2  -2    5.57    4.36
   2   2  -8    2.46    2.69
  -2   2   8    3.93    4.58
   2  -8   2    1.54    2.99
  -2   2  -8    4.24    2.61
   2  -8  -2    7.62    5.48
  -2  -2   8    4.29    3.25
  -2  -8   2    1.49    2.75
  -8   2  -2    0.65    3.83
   8  -2  -2   -0.43    4.38
  -8  -2   2   -1.61    5.03
   2  -2  -8   -2.97    4.97
  -3  -2  -8   24.05    6.11
  -2  -8  -3   38.90    7.07
  -8  -3  -2   23.66    6.20
   3   2  -8   31.86    5.28
  -3   2   8   33.38    7.79
  -2   8   3   37.29    7.89
  -8   3   2   30.61    7.22
   2  -8   3   29.51    4.75
   8  -3  -2   42.44    7.67
  -3  -2   8   34.06    6.74
  -8   3  -2   30.00    5.69
  -8  -3   2   28.50    7.19
   2  -8  -3   26.50    6.94
  -3   2  -8   30.50    4.87
  -2  -8   3   33.89    4.80
   3  -2  -8   34.68    7.12
  -2  -8  -4   15.52    6.73
  -8  -4  -2   10.00    6.02
  -2   8   4   14.85    5.98
  -4   2   8   10.49    6.52
  -8   4   2   22.72    7.13
  -4  -2  -8   16.07    5.62
   8  -4   2   14.50    4.59
  -8   4  -2    7.89    4.86
   4  -2  -8   14.25    5.99
  -4  -2   8   13.43    4.97
   2  -8  -4   17.37    7.30
  -2  -8   4   10.61    3.25
  -2  -8   4   16.02    3.22
  -8  -4   2   23.56    7.52
  -4   2  -8   16.63    3.69
   8  -4  -2   27.39    6.61
   8  -5   2   52.49    7.54
  -2  -8  -5   55.81   11.30
  -2   8   5   51.00   10.17
   5   2  -8   55.29    7.39
  -8   5   2   55.77   11.68
  -5  -2  -8   63.24   10.00
  -5   2   8   67.99   11.67
  -8   5  -2   52.96    9.14
   5  -2  -8   63.71   10.40
  -5  -2   8   60.50    9.54
  -2  -8   5   52.19    5.00
  -5   2  -8   54.83    6.61
  -2  -8   5   54.14    5.10
  -5   2  -8   55.03    5.65
   2  -8  -5   58.64   12.42
  -8  -5   2   44.72    8.94
   8  -5  -2   57.76   10.00
  -8   6   2   12.16    7.70
  -2  -8  -6   12.39    8.78
  -6   2   8    2.13    7.77
  -2   8   6    9.63    7.15
   8  -6   2    8.31    4.78
  -6  -2  -8    9.07    6.28
  -6  -2   8   20.84    6.83
  -2  -8   6    4.41    2.45
  -8  -6   2   -6.77    6.69
   2  -8  -6    9.87    9.05
   8  -6  -2    5.82    6.41
  -8   6  -2    1.04    5.60
  -6   2  -8    5.00    3.61
   6  -2  -8    2.99    6.51
  -7   2   8   38.82   10.83
   8  -7   2   42.53    7.84
   7   2  -8   24.97    6.51
  -8   7   2   33.15    9.76
  -2  -8  -7   26.53   11.42
  -2   8   7   45.96   10.14
   8  -7  -2   38.20    8.72
   7  -2  -8   32.26    8.30
  -7  -2   8   35.02    8.88
   2  -8  -7   53.74   13.08
  -8  -7   2   74.84   11.82
  -8   7  -2   35.69    7.76
  -7   2  -8   25.19    5.27
   8   0  -3  761.28   31.99
  -8   0  -3  763.76   31.48
  -8   0   3  727.22   33.79
  -3   8   0  776.01   30.97
   0  -3  -8  698.96   33.12
   0   3   8  731.36   32.84
   3  -8   0  755.89   31.45
   0   3  -8  795.09   27.56
  -1  -3  -8   65.94    9.38
  -8  -1  -3   65.42    7.76
   3  -8   1   68.59    7.62
  -8   1   3   77.55   11.17
  -3  -8  -1   61.83    8.07
  -3   8   1   75.14    8.37
   1   3  -8   76.17    5.06
  -8   1  -3   80.37    8.24
  -3   8  -1   76.44    7.15
  -3  -8   1   73.64    7.44
   1  -3  -8   69.54   10.41
  -1  -3   8   79.86    5.39
  -1   3  -8   83.55    4.64
   8  -1  -3   89.88    9.15
   3  -8  -1   66.10    8.76
  -8   2   3   74.16   11.43
  -3   8   2   77.90    8.57
  -2  -3  -8   64.22    9.68
   3  -8   2   67.86    6.70
   2   3  -8   70.31    5.38
  -3  -8  -2   64.56    8.40
  -8  -2  -3   79.89    8.71
  -2   3   8   73.62    9.75
  -3   8  -2   73.79    6.44
  -3  -8   2   72.92    6.58
  -2   3  -8   64.02    4.64
  -8   2  -3   71.01    8.20
   3  -8  -2   75.16    9.38
  -8  -2   3   67.68   10.37
   8  -2  -3   69.70    8.97
   2  -3  -8   89.38   10.80
  -2  -3   8   51.43    5.89
  -3   8   3    4.92    4.83
   3  -8   3    1.75    2.59
   3   3  -8    6.32    2.77
  -3   3   8   -4.73    5.68
  -8  -3  -3   -6.07    4.45
  -3  -8  -3    0.80    5.27
  -8   3   3    5.53    6.23
  -3  -3  -8    9.50    5.83
  -3  -8   3    0.75    2.96
   8  -3  -3    1.60    5.34
  -8   3  -3    0.47    3.84
   3  -8  -3    1.21    5.47
  -3   3  -8    0.58    2.23
  -3   3  -8    6.18    1.86
  -3   8  -3   -0.94    2.41
  -3  -3   8    3.75    3.77
   3  -3  -8   -1.17    5.67
  -3  -8  -4  144.67   12.96
  -3   8   4  157.54   12.59
  -8   4   3  102.41   13.57
  -4   3   8  128.34   13.42
  -4  -3  -8  118.55   11.95
  -4  -3   8  137.23   10.61
  -4   3  -8  136.79    7.22
  -3  -8   4  132.93    8.86
   8  -4  -3  151.67   12.59
   3  -8  -4  152.62   14.47
  -8  -4   3  110.98   13.46
  -3  -8   4  140.65    8.27
  -4   3  -8  147.12    7.90
   4  -3  -8  147.15   13.31
  -8   4  -3  131.15   10.64
  -3  -8  -5   96.30   12.84
  -8   5   3   87.89   13.39
  -5  -3  -8   66.38   10.95
  -5   3   8   61.99   12.93
  -3   8   5   86.95   11.75
   3  -8  -5  104.73   14.10
  -8  -5   3   67.44   11.97
  -3  -8   5   62.51    6.52
  -5   3  -8   64.41    5.96
   5  -3  -8   64.01   11.15
  -8   5  -3   72.09    9.10
  -3  -8   5   75.13    6.13
   8  -5  -3   73.78   11.48
  -5  -3   8   66.16    9.58
  -5   3  -8   72.98    6.38
  -3   8   6  119.22   14.35
  -8   6   3  112.28   15.21
  -6   3   8  122.21   15.31
  -3  -8  -6  104.51   15.68
   8  -6   3  118.81    9.61
  -6   3  -8  119.45    8.42
  -8  -6   3  100.16   13.82
  -8   6  -3  107.46   11.28
   6  -3  -8  135.77   14.26
  -6  -3   8  121.05   12.25
   3  -8  -6  131.60   16.48
   8  -6  -3  106.28   13.65
  -3  -8   6  118.40    7.17
  -3  -8   6  111.99    7.73
  -3   8   7   28.21    9.53
  -8   7   3   47.50   10.63
  -7   3   8   30.10   11.12
  -3  -8  -7   78.38   15.76
   7   3  -8   48.92    8.88
   8  -7   3   42.20    7.75
  -3  -8   7   32.63    4.52
   7  -3  -8   51.76   10.12
  -7   3  -8   34.49    5.88
  -7  -3   8   26.88    8.49
  -8  -7   3   32.23    9.79
  -8   7  -3   33.87    7.56
   3  -8  -7   37.14   12.82
   8  -7  -3   35.45    9.84
  -3  -8   7   36.02    5.52
  -4   8   0  114.42    9.61
   4  -8   0  137.14   10.57
   0  -4  -8  106.39   12.43
  -8   0  -4  119.15    9.25
   0   4   8  101.37   11.41
  -8   0   4   82.19   12.56
   8   0  -4  105.92   10.06
  -8  -1  -4   34.00    6.55
   4  -8   1   31.22    5.62
  -1  -4  -8   25.80    7.64
  -4  -8  -1   26.16    5.62
  -4   8   1   22.56    5.73
   8   1  -4   39.36    7.80
  -8   1   4   38.41    9.09
  -8  -1   4   29.11    7.80
  -4   8  -1   39.75    6.49
  -1  -4   8   32.68    3.10
   1  -4  -8   21.10    7.51
  -8   1  -4   30.95    5.66
  -4   8   2   50.42    8.76
  -2   4   8   47.16    9.97
   4  -8   2   54.64    6.51
  -2  -4  -8   59.17   10.89
   2   4  -8   52.09    4.17
  -8  -2  -4   50.99    8.05
  -8   2   4   53.56   11.51
  -4  -8  -2   52.61    8.78
   8   2  -4   55.38    8.63
  -8  -2   4   45.21    8.74
  -2  -4   8   48.00    5.03
  -8   2  -4   55.94    7.48
  -4   8  -2   48.65    6.59
   2  -4  -8   49.87    9.28
   4  -8  -2   55.01    9.76
   8  -2  -4   52.75    8.94
  -4   8   3   37.81    7.54
  -3   4   8   39.93    8.46
  -4  -8  -3   46.63    8.44
  -3  -4  -8   57.14    9.51
  -8   3   4   44.44   10.20
   4  -8   3   46.60    5.56
   3   4  -8   44.82    4.68
   4  -8  -3   54.51    9.98
   3  -4  -8   53.36   11.07
  -4   8  -3   54.19    5.88
  -8  -3   4   53.44   10.83
   8  -3  -4   57.33    9.68
  -4  -8   3   51.09    7.36
  -3  -4   8   50.07    6.53
  -8   3  -4   43.20    7.25
   4  -8   4   50.47    5.16
  -8   4   4   65.07   11.25
  -4   8   4   66.11   10.57
  -4  -4  -8   54.16   11.45
  -4  -8  -4   62.68   11.03
  -4   4   8   59.63   10.09
  -8   4  -4   67.00    8.30
   4  -4  -8   50.49    9.67
  -4  -8   4   62.45    7.51
  -8  -4   4   60.59   10.00
  -4  -4   8   45.39    7.57
   4  -8  -4   57.77   11.52
   8  -4  -4   54.47   10.23
  -4   4  -8   55.44    4.24
  -4   8  -4   50.71    5.40
  -4   4  -8   55.54    3.84
  -5   4   8   11.43    8.51
  -4   8   5    8.99    7.11
  -4  -8  -5    3.87    7.88
  -5  -4  -8   34.12    8.33
  -8   5   4    8.92    8.74
  -5   4  -8   14.81    3.12
   8  -5  -4   16.03    7.50
  -4  -8   5   10.49    4.23
   4  -8  -5   16.44    9.01
  -8  -5   4   11.96    7.89
  -5   4  -8   17.10    3.12
  -5  -4   8    6.54    5.62
   5  -4  -8   20.67    8.07
  -4  -8  -6   49.87   11.03
  -6   4   8   40.34   10.72
  -8   6   4   20.28   10.45
  -4   8   6   39.72    9.98
   4  -8  -6   28.65   10.54
  -6   4  -8   33.92    5.73
  -8   6  -4   32.02    6.93
  -8  -6   4   39.72    9.35
  -6  -4   8   14.45    6.63
   6  -4  -8   38.19   10.18
  -4  -8   6   28.93    5.07
   8  -6  -4   40.61    9.23
  -6   4  -8   29.58    5.90
  -4  -8  -7   12.66   11.13
  -8   7   4   27.75   11.05
  -7   4   8   26.27   11.52
  -4   8   7   33.89   10.70
   8  -7  -4   49.29   11.52
   4  -8  -7   44.05   13.21
   7  -4  -8   32.23   10.61
  -8   7  -4   30.18    7.40
   0   5   8    4.78    5.85
  -8   0  -5   -2.23    3.92
  -5   8   0    6.00    4.95
   0  -5  -8   -7.34    7.08
   8   0  -5    1.45    5.18
   5  -8   0   -2.31    4.85
   8   1  -5   71.00    9.44
  -1  -5  -8   78.05   13.03
  -8  -1  -5   59.73    8.01
  -8   1   5   92.49   12.95
   5  -8   1   48.71    7.61
  -8   1  -5   59.58    8.05
  -5   8  -1   72.55    8.53
   1  -5  -8   41.19    9.62
  -8  -1   5   65.66   12.76
   8  -1  -5   74.76    9.64
  -2  -5  -8   72.07   12.55
  -5   8   2   88.49   11.21
  -5  -8  -2   78.04   10.52
   8   2  -5   69.57    9.14
  -2   5   8   79.76   11.40
   5  -8   2   73.44    7.51
  -8   2   5   74.02   13.53
  -8  -2   5   80.60   11.66
   5  -8  -2   75.05   10.95
   2  -5  -8   76.63   13.31
   8  -2  -5  102.35   10.81
  -2  -5   8   81.00    5.13
  -8   2  -5   78.48    8.50
  -5   8  -2   79.58    8.30
  -8   3   5  323.44   23.51
  -3  -5  -8  335.22   22.08
   5  -8   3  367.25   16.24
  -5  -8  -3  384.84   20.83
  -5   8   3  383.55   21.39
  -3   5   8  358.96   21.91
   5  -8  -3  381.46   21.64
  -8   3  -5  376.32   18.08
  -8  -3   5  313.39   20.82
   8  -3  -5  381.36   21.03
  -3  -5   8  351.38   15.83
   3  -5  -8  366.85   23.18
  -5  -8   3  352.89   18.63
  -5   8  -3  377.53   17.14
  -4  -5  -8   52.91   10.54
  -5   8   4   40.67    8.71
  -4   5   8   51.41   10.25
   5  -8   4   42.93    5.52
  -5  -8  -4   30.82    8.60
  -4  -5   8   44.42    7.33
   5  -8  -4   50.75   10.19
  -5   8  -4   54.91    6.18
  -8  -4   5   49.97    9.72
  -5  -8   4   37.63    8.10
   4  -5  -8   28.32    9.52
  -5   8   5   14.47    8.50
  -5  -5  -8   -2.35    8.29
  -8   5   5    3.39    9.75
  -5   5   8    4.77    8.97
  -5  -8  -5    4.81    8.32
  -5   8  -5    2.53    2.77
  -5   5  -8    4.89    2.05
   5  -8  -5   12.71    9.00
   5  -5  -8   11.70    8.75
   8  -5  -5    7.21    7.85
  -8  -5   5   -1.89    7.13
  -5  -5   8    5.13    5.35
  -5   5  -8    1.87    1.69
  -5  -8   5    1.32    4.54
  -8   5  -5    6.02    4.78
  -5  -8  -6   79.60   13.12
  -8   6   5   92.23   16.30
  -5   8   6   49.12   11.16
  -6   5   8   69.18   12.61
   5  -8  -6   38.96   11.82
   6  -5  -8   57.70   12.05
  -6   5  -8   62.58    6.11
   8  -6  -5   43.20   10.97
  -8   6  -5   49.43    9.78
  -8  -6   5   30.89    9.04
  -6   5  -8   54.02    5.51
  -5   8   7  141.39   18.20
  -5  -8  -7  130.58   19.22
  -7   5   8   81.19   15.48
   5  -8  -7   97.10   19.22
   7  -5  -8  109.79   17.81
  -7   5  -8  105.07    8.97
  -8   7  -5  108.22   11.65
   0  -6  -8   13.69    9.31
   8   0  -6    1.86    5.58
  -8   0   6   16.30    8.19
   6  -8   1   23.58    5.85
  -8   1   6   10.80    9.21
  -8  -1  -6   20.39    5.54
   8   1  -6   25.46    6.73
  -1   6   8   29.35    8.23
  -1  -6  -8   22.92    9.46
  -6   8   1   20.17    7.61
  -8  -1   6   19.92    8.50
   8  -1  -6   14.80    6.88
   1  -6  -8   31.16   10.13
  -2   6   8  123.77   13.59
  -2  -6  -8   89.47   14.70
  -6   8   2  117.11   12.69
   6  -8   2  112.13    9.00
  -8   2   6   80.45   16.43
   8   2  -6  114.88   10.91
   6  -8  -2  111.37   12.30
  -8   2  -6  101.52    9.63
  -8  -2   6  113.67   14.74
   2  -6  -8  117.11   16.59
   8  -2  -6  116.93   12.66
  -6  -8   2  121.32   11.54
  -3   6   8  141.77   15.66
  -6   8   3  154.78   15.14
   6  -8   3  145.78    9.63
  -3  -6  -8  136.93   15.62
  -8   3   6  143.72   18.81
  -6  -8  -3  125.79   14.74
  -6  -8   3  147.66   12.63
   8  -3  -6  149.97   14.34
   6  -8  -3  155.95   14.24
   3  -6  -8  143.40   17.52
  -3  -6   8  145.84    8.42
  -8  -3   6  137.94   14.69
  -8   3  -6  147.70   10.95
  -6   8  -3  139.93   11.45
   6  -8   4    0.27    3.65
  -4   6   8   12.28    8.92
  -6   8   4   30.55    8.53
  -4  -6  -8   -1.95    9.00
  -6  -8  -4    7.45    7.93
   4  -6  -8  -10.65    9.16
   8  -4  -6    9.70    8.12
  -4  -6   8    8.55    4.33
   6  -8  -4   12.00    8.16
  -8  -4   6   11.36    7.83
  -8   4  -6    5.41    4.63
  -6  -8   4    3.98    6.17
  -6   8  -4    9.54    4.38
  -6  -8  -5    3.36    8.63
  -5  -6  -8    6.91    9.58
  -5   6   8    6.57    9.79
  -8   5   6   12.05   10.90
  -6   8   5    4.04    9.52
  -6   8  -5   13.43    4.30
  -8   5  -6   13.33    5.31
   5  -6  -8   -3.50    9.56
   8  -5  -6   29.43    9.72
  -8  -5   6   11.94    8.13
   6  -8  -5   39.46   10.38
  -6   6   8    4.65   11.39
  -6   8   6   21.51   11.19
  -8   6   6   -1.03   11.13
  -6  -8  -6    2.86   10.33
   8  -6  -6    2.40    9.47
   6  -8  -6   -1.43   10.55
  -6   6  -8    4.62    1.59
   6  -6  -8   13.45   11.19
  -6   8  -6    0.94    2.99
  -7  -6  -8   27.88   12.63
  -7   6   8   10.04   12.86
  -8  -7  -6   -1.38   10.74
  -6  -8  -7   -7.15   11.81
  -7   6  -8    6.40    4.55
   7  -6  -8   -7.84   11.14
   0  -7  -8   35.91   11.84
  -8   0  -7   13.25    5.32
  -8   0   7   25.58   10.10
   8   0  -7   19.10    7.21
  -7   8   0   18.40    6.99
   7  -8   0   18.75    6.24
  -8   1   7  115.01   16.72
  -8  -1  -7   99.28   11.09
  -1  -7  -8   64.96   13.27
  -7   8   1   81.37   12.66
   7  -8   1   79.99    9.38
  -1   7   8   69.89   13.26
   1  -7  -8  126.75   17.82
   8  -1  -7   81.01   12.03
  -7  -8   1   72.59   12.27
  -8  -1   7   78.71   15.49
  -8   1  -7   87.55    9.24
  -7   8  -1   94.11   11.84
  -2   7   8    6.17    8.11
   7  -8   2   -9.24    4.57
  -2  -7  -8   14.25   10.52
  -8   2   7    5.24    9.70
  -7   8   2    1.18    7.64
  -7   8  -2   -7.01    5.59
  -8  -2   7    4.25    8.54
   8  -2  -7    0.30    7.07
   2  -7  -8    0.50   10.52
   7  -8  -2    7.65    7.22
  -8   2  -7    6.83    4.98
  -7  -8   2   10.88    7.46
  -8   3   7   65.04   13.27
  -7   8   3   75.40   14.09
  -3   7   8   56.61   11.09
   7  -8   3   75.67    7.89
  -3  -7  -8   33.80   11.36
   8   3  -7   68.01   10.56
  -3  -7   8   45.59    5.24
  -8  -3   7   48.46   10.11
  -8   3  -7   52.39    8.30
   3  -7  -8   67.97   13.24
  -7  -8   3   49.86    9.18
  -7   8  -3   46.52    9.87
   8  -3  -7   39.90    9.69
   7  -8  -3   61.38   10.86
  -7  -8  -4   57.11   11.69
  -4  -7  -8   33.57   12.07
  -8   4   7  107.88   18.17
  -4   7   8   79.62   15.47
  -7   8   4   59.87   12.07
   7  -8   4   56.90    7.95
   8  -4  -7   40.06   10.64
   4  -7  -8   45.50   12.74
  -8   4  -7   63.98    8.74
  -7   8  -4   58.88    9.74
  -7  -8  -5   51.25   11.78
  -8   5   7   45.55   13.87
  -5   7   8   53.15   12.04
  -5  -7  -8   41.69   12.69
   8  -5  -7   31.00   11.55
   5  -7  -8   48.52   13.01
  -7   8  -5   37.28    6.41
  -8   6   7  133.62   22.96
  -7  -8  -6  144.51   19.58
  -6   7   8  131.90   20.23
  -7   8  -6  138.76   10.25
   8  -6  -7  125.59   18.93
   6  -7  -8  148.27   21.90
  -8   6  -7  143.34   12.21
  -7  -7  -8   33.42   15.31
  -8  -8   0   20.15    8.83
  -8   0   8   10.14    9.89
   0  -8  -8   46.32   13.57
   8   0  -8   14.79    8.46
   8   1  -8   41.39    8.91
  -1   8   8   31.40   10.16
  -8   1   8   11.36   11.07
  -1  -8  -8   42.39   13.55
  -8  -1   8    6.13   10.25
   1  -8  -8   37.65   13.81
  -8  -8   1   40.10    9.58
  -8   2   8   34.46   11.84
  -2  -8  -8   47.62   13.47
  -2   8   8   35.59   10.59
   2  -8  -8   40.39   14.25
  -8   3   8  -21.28   11.11
  -3  -8  -8   21.19   12.85
  -3   8   8  -10.40   10.20
   3  -8  -8   21.33   13.08
  -8  -4  -8   38.38   12.02
  -8   4   8   31.56   14.06
  -4  -8  -8   40.78   13.38
  -4   8   8   31.02   11.99
   4  -8  -8   27.63   14.67
   8  -4  -8    8.39   10.66
  -8   5   8    6.35   14.28
  -5  -8  -8    1.75   12.92
  -5   8   8    2.22   11.71
   8  -5  -8    0.34   10.93
  -9   0   0   -7.39    4.86
   0  -9   0   -0.91    4.33
   0   0  -9   -0.08    3.92
   0   0   9    4.84    3.54
   0  -9   1   23.90    5.31
   1   0  -9   18.15    5.01
  -1   0   9   29.79    6.23
   0  -9  -1   28.42    6.15
  -9  -1   0   44.80    8.67
  -9   1   0   23.85    6.50
  -2   0   9  271.29   14.58
   0  -9  -2  243.90   16.18
  -9  -2   0  257.29   16.82
  -9   2   0  249.87   16.17
   0  -9   2  233.75   13.26
   2   0  -9  248.65   14.47
   9  -2   0  263.28   15.18
   0  -9   3   10.11    3.93
   3   0  -9    9.54    5.08
   9  -3   0    4.27    4.97
   0  -9  -3   13.96    7.14
  -9   3   0   12.51    6.38
  -3   0   9   13.25    5.71
   9  -4   0   34.33    6.93
  -9  -4   0   43.97    8.79
  -4   0   9   35.05    7.85
  -9   4   0   37.66    8.11
   4   0  -9   35.41    6.64
  -5   0   9  135.87   14.07
   0  -9   5  142.08    6.14
  -9  -5   0  151.05   14.76
   0  -9  -5  132.67   16.18
   9  -5   0  132.58   12.27
  -9   5   0  157.71   14.69
   0  -9   5  145.96    5.98
  -9  -6   0   38.56    9.62
   9  -6   0   39.71    8.02
  -6   0   9   17.06    8.47
   0  -9  -6   34.56   11.42
  -9   6   0   36.42    8.60
  -7   0   9   10.11    9.32
   7   0  -9    5.85    7.47
  -9  -7   0   -1.26    8.64
   0  -9  -7   24.73   12.44
  -9  -8   0   16.79   10.16
   0  -9  -8   11.52   14.59
  -1  -9   0   17.17    5.07
  -9   0   1   12.51    6.31
   0   1  -9    8.55    3.98
   0  -1  -9   18.27    5.71
  -9   0  -1   24.59    6.09
   0   1   9   17.63    4.63
   1  -9   0   16.90    5.30
  -1  -1  -9   30.86    6.72
  -1   1   9   49.67    7.37
  -9  -1  -1   41.32    8.51
   1  -9   1   43.76    7.24
  -9   1   1   36.32    7.32
   1  -1  -9   38.96    8.35
   9  -1  -1   41.20    7.98
   1  -9  -1   47.27    8.70
  -1  -1   9   35.59    5.96
  -1   1  -9   37.77    6.25
  -9   1  -1   33.73    6.93
  -1  -9   1   49.30    6.88
  -9  -1   1   52.76    9.95
  -9  -2  -1   37.96    7.26
  -2   1   9   33.79    6.83
   1  -9   2   38.50    6.52
  -2  -1  -9   43.82    8.25
  -1  -9  -2   39.98    7.47
  -9   2   1   20.95    7.04
  -1  -9   2   34.28    6.11
  -9   2  -1   44.63    8.07
   9  -2  -1   30.56    6.88
   2  -1  -9   36.52    7.24
  -2  -1   9   45.28    6.82
  -2   1  -9   24.51    4.80
   1  -9  -2   46.97    9.65
  -9  -2   1   31.33    7.90
  -1  -9  -3   17.35    7.24
   9  -3   1    9.29    5.27
  -1   9   3   19.46    5.95
  -9  -3  -1   28.77    7.25
  -9   3   1   22.42    6.96
  -3   1   9   17.48    6.40
   1  -9   3   16.31    4.03
  -3  -1  -9   13.79    5.47
   1  -9  -3   18.97    7.42
  -9   3  -1   12.79    5.53
   9  -3  -1    6.08    5.45
   3  -1  -9   19.28    5.91
  -9  -3   1   18.94    7.47
  -3  -1   9   15.35    5.31
  -1  -9   3   14.46    4.07
  -9   4   1   53.20    9.65
   9  -4   1   45.98    7.66
  -9  -4  -1   47.22    9.07
  -4   1   9   60.30   10.85
  -1   9   4   61.91    9.98
  -1  -9  -4   61.04   12.26
   1  -9   4   67.45    5.48
  -9  -4   1   59.07   11.42
  -9   4  -1   55.59   10.37
  -4  -1   9   53.03    9.51
   9  -4  -1   60.51   10.03
   4  -1  -9   65.27    9.92
   1  -9  -4   60.37   12.16
  -1  -9   4   66.71    6.47
   9  -5   1    7.88    5.59
  -1   9   5    3.24    6.51
  -1  -9  -5    5.59    8.59
  -9   5   1   11.95    7.75
  -5   1   9   20.76    7.92
  -9   5  -1    3.57    6.54
  -1  -9   5   10.56    2.66
   1  -9  -5   16.51    9.55
   9  -5  -1   16.44    6.70
  -5  -1   9    7.77    6.22
  -9  -5   1    8.27    7.93
  -9   6   1   82.62   13.64
  -1  -9  -6   99.13   17.16
   6   1  -9   76.72   10.95
  -9  -6  -1   83.85   13.35
  -6  -1  -9   86.27   11.44
  -1   9   6   92.15   13.81
   1  -9  -6   57.71   13.62
   9  -6  -1   80.28   11.97
  -6  -1   9   83.24   12.79
  -9  -6   1   88.97   14.07
  -9   6  -1   71.90   12.62
  -1  -9  -7   21.52   12.59
  -9  -7  -1    3.18    8.75
  -7   1   9   15.01   10.05
  -1   9   7   21.03    9.53
   1  -9  -7    4.98   12.21
  -9  -7   1   16.28    9.41
   7  -1  -9   11.83    8.43
  -1  -9  -8   22.99   14.24
  -9  -8  -1    5.95   10.15
   1  -9  -8   13.90   14.93
   0   2   9    2.56    4.80
  -2  -9   0    6.01    4.47
   2  -9   0    2.67    4.53
  -2   9   0    6.04    4.11
   9   0  -2    1.66    4.80
  -9   0  -2   -2.40    4.52
   0   2  -9    2.62    2.99
   0  -2  -9    4.44    5.71
  -9   0   2   -5.24    6.13
  -9   1   2   17.32    7.43
  -1   2   9   29.79    6.15
  -9  -1  -2   22.52    5.83
   2  -9   1   29.08    5.58
   1   2  -9   24.27    4.26
  -2   9   1   28.96    5.66
  -1  -2  -9   21.69    6.48
  -1   2  -9   23.61    4.15
  -2  -9   1   38.79    6.33
  -9  -1   2   30.37    8.74
  -1  -2   9   33.65    5.10
   9  -1  -2   33.48    6.72
  -9   1  -2   32.54    6.50
   1  -2  -9   53.12   10.10
   2  -9  -1   44.27    8.53
  -2   9   2   22.21    5.67
  -2  -2  -9    9.43    5.62
  -2   2   9   11.44    5.53
  -9  -2  -2    2.70    5.18
  -9   2   2    3.50    6.54
  -2  -9  -2   13.03    5.83
   2  -9   2    7.15    4.00
  -2   2  -9   10.43    3.44
   2  -2  -9   12.14    6.55
   2  -9  -2   22.29    6.78
  -9  -2   2   14.66    7.26
  -9   2  -2    8.73    5.36
   9  -2  -2   -2.07    5.18
  -2  -2   9   15.65    4.14
  -2  -9   2   11.85    3.95
  -2  -9  -3   19.27    7.01
  -2   9   3   20.23    6.36
  -9  -3  -2   12.13    6.27
  -3   2   9   31.39    7.18
  -3  -2  -9   10.96    6.20
   2  -9   3   25.55    4.30
  -9   3   2   10.07    7.38
   9  -3  -2   22.71    6.85
  -3   2  -9   17.86    4.21
   3  -2  -9   19.61    6.69
  -3  -2   9    8.38    4.70
  -2  -9   3   17.72    4.16
   2  -9  -3   13.23    7.22
  -9   3  -2   25.18    6.27
   2  -9   4   43.69    4.57
  -9   4   2   32.22    9.02
  -2   9   4   33.74    7.61
  -2  -9  -4   39.40    8.91
  -9  -4  -2   35.55    8.31
  -4   2   9   36.64    8.62
   4  -2  -9   39.11    8.05
   2  -9  -4   28.01    8.97
  -9  -4   2   44.99    9.48
  -4  -2   9   34.48    6.85
  -2  -9   4   32.22    5.89
   9  -4  -2   37.12    7.79
  -4   2  -9   37.42    6.46
  -2  -9   4   36.75    5.61
  -2   9   5  119.08   13.05
  -5   2   9  112.25   14.20
  -9  -5  -2  138.84   14.10
  -2  -9  -5  111.55   14.98
   9  -5   2   86.42    9.76
  -9   5   2   63.36   13.22
  -5  -2   9   67.16   11.04
  -9   5  -2   88.32   11.48
   9  -5  -2   94.84   12.49
   2  -9  -5  106.18   15.92
  -2  -9   5   82.98    7.14
  -5   2  -9   86.07    8.33
  -2  -9   5   84.66    6.63
  -5   2  -9   87.87    7.19
  -9  -5   2  105.29   14.17
  -6  -2  -9   29.39    8.08
  -9  -6  -2   39.72   10.09
  -9   6   2   44.74   10.22
   6   2  -9   42.63    8.95
  -2   9   6   28.54    8.75
  -2  -9  -6   30.51   11.05
  -6   2   9   22.59    9.69
   9  -6  -2   41.08    8.99
   2  -9  -6   51.68   12.75
  -2  -9   6   32.93    4.49
  -2  -9   6   33.11    4.48
  -6  -2   9   29.95    8.34
  -9  -6   2   26.77    9.92
  -9   6  -2   36.06    8.06
  -6   2  -9   25.85    5.04
  -9  -7  -2   41.98   10.88
  -7   2   9   60.06   12.85
  -2  -9  -7   73.36   14.75
  -2   9   7   77.99   12.42
  -7   2  -9   55.27    8.41
  -9  -7   2   89.19   15.66
   7  -2  -9   79.65   14.23
   2  -9  -7   64.97   14.88
  -2   9   8   11.92   11.12
  -2  -9  -8   29.92   14.32
   2  -9  -8   27.06   16.03
  -9   0  -3  109.37    9.66
   0  -3  -9   91.73   12.24
  -3   9   0   94.20    9.09
  -9   0   3   93.70   13.26
   0   3  -9  100.79    5.88
   0   3   9   87.95    9.96
   3  -9   0   86.77    9.68
   9   0  -3  101.98   10.98
  -3  -9   0   75.71    9.23
  -9  -1  -3   23.64    6.08
  -3   9   1   34.40    6.57
  -1  -3  -9   30.59    7.80
  -1   3   9   32.59    6.83
  -3  -9  -1   26.30    6.10
   3  -9   1   27.22    5.34
  -9   1   3   47.72    9.45
   1   3  -9   23.39    4.19
   9   1  -3   35.39    6.95
  -1   3  -9   30.30    3.77
  -3   9  -1   31.33    6.29
   1  -3  -9   24.99    7.50
   9  -1  -3   21.75    6.45
   3  -9  -1   23.14    6.50
  -9   1  -3   18.88    5.65
  -3  -9   1   26.18    5.26
  -9  -1   3    4.65    7.16
  -1  -3   9   24.49    4.42
  -9  -2  -3   10.11    5.79
  -2  -3  -9   16.46    6.80
  -2   3   9   13.21    6.88
  -3  -9  -2    7.68    5.77
  -3   9   2   12.69    5.45
   3  -9   2   20.55    4.56
  -9   2   3    9.11    8.24
   2   3  -9   10.48    2.98
  -2   3  -9   13.96    2.82
  -3  -9   2    8.89    4.40
  -2  -3   9   11.65    3.56
  -9   2  -3   10.18    5.34
   2  -3  -9    9.18    7.43
  -3   9  -2    8.94    3.76
   3  -9  -2   15.91    6.68
   9  -2  -3   12.56    6.37
   3   3  -9   94.34    7.29
   3  -9   3  107.93    7.63
  -9  -3  -3   81.09   10.74
  -3   9   3  100.84   11.01
  -3  -3  -9   86.77   12.63
  -3   3   9   80.44   12.16
  -3  -9  -3  109.27   11.65
  -9   3   3  117.74   14.36
   3  -3  -9   83.03   12.89
  -3   3  -9   87.04    6.38
   3  -9  -3  101.21   13.04
  -3  -9   3   96.68    8.04
   9  -3  -3  100.04   11.65
  -3  -3   9   90.24    8.42
  -9  -3   3   79.97   13.07
  -9  -4  -3   34.86    8.43
  -4   3   9   10.11    8.67
   3  -9   4   23.37    3.51
  -3  -9  -4   10.30    7.84
  -3   9   4   32.74    7.92
  -9   4   3   29.57    9.93
  -9   4  -3   17.56    6.28
  -9  -4   3   24.95    8.96
   9  -4  -3   32.73    8.11
  -4   3  -9   30.38    4.39
  -3  -9   4   30.55    5.83
  -3  -9   4   37.30    6.45
  -4   3  -9   35.13    4.39
   3  -9  -4   36.29    9.67
  -4  -3   9   18.50    5.71
   4  -3  -9   31.57    8.81
  -3   9   5    6.67    7.27
  -9  -5  -3   15.12    8.53
  -3  -9  -5   15.05    9.09
  -5   3   9    0.86    8.11
  -9   5   3    3.03    9.62
  -3  -9   5   17.88    4.24
  -9  -5   3   16.79    8.68
   9  -5  -3   19.12    8.17
  -3  -9   5   31.33    6.25
  -5  -3   9   16.16    6.57
  -5   3  -9   20.56    3.89
  -9   5  -3   16.84    6.30
  -5   3  -9   18.80    4.10
   3  -9  -5   17.19    9.66
   5  -3  -9    9.24    8.19
  -6   3   9   29.36   10.62
  -9   6   3   26.11   10.27
  -3  -9  -6   29.55   11.24
  -3   9   6   18.41    9.23
  -6  -3  -9   32.48    9.45
  -3  -9   6   17.95    4.14
   9  -6  -3   18.53    8.76
  -9  -6   3   29.14    9.81
   3  -9  -6   21.60   11.44
  -7   3   9   -5.17   10.95
  -3  -9  -7   14.48   12.10
  -3   9   7   10.41   10.55
  -3  -9   7   12.81    3.28
   7  -3  -9   10.54   10.31
   3  -9  -7   23.49   13.72
  -3  -9  -8    0.60   14.65
  -8   3   9   23.22   14.05
   8  -3  -9   18.91   11.93
   4  -9   0   64.04    9.16
   0  -4  -9   57.60   11.92
  -9   0   4   61.86   11.32
   9   0  -4   55.27    8.67
   0   4   9   66.83   10.58
  -4   9   0   54.56    8.47
  -9   0  -4   57.04    8.52
   4  -9   1   41.24    7.57
  -1   4   9   22.69    7.18
   9   1  -4   44.09    9.35
  -1  -4  -9   27.16    8.49
  -4  -9  -1   35.87    7.24
  -9  -1  -4   37.52    7.74
  -9   1   4   11.76    8.95
  -4   9  -1   27.44    5.60
   4  -9  -1   20.17    7.12
  -9  -1   4   26.26    9.27
  -4  -9   1   27.91    5.55
  -9   1  -4   22.88    6.23
   1  -4  -9   34.43    9.02
   9  -1  -4   36.92    7.78
  -4  -9  -2   54.90   10.20
  -4   9   2   95.68   11.08
  -2   4   9   57.02   12.01
   4  -9   2   69.38    7.87
   2   4  -9   76.94    5.22
  -2  -4  -9   89.07   12.75
  -9   2   4   75.97   14.68
  -9  -2  -4   69.22    9.66
  -4  -9   2   74.99    8.57
  -9   2  -4   64.56    9.09
   9  -2  -4   71.53   11.23
   4  -9  -2   69.09   11.69
   2  -4  -9   68.81   13.43
  -9  -2   4   78.85   13.93
  -2  -4   9   85.69    6.19
  -4   9  -2   78.78    7.81
  -4  -9  -3   51.40   11.06
  -9   3   4   70.37   12.81
  -3   4   9   69.93   12.25
   4  -9   3   81.48    7.18
  -9  -3  -4   67.29   10.89
  -3  -4  -9   57.65   10.82
   3   4  -9   58.09    5.69
  -4   9   3   76.86   11.07
   3  -4  -9   69.34   13.72
  -3  -4   9   66.07    7.25
  -9   3  -4   47.12    7.77
  -4   9  -3   82.74    7.02
  -9  -3   4   45.44   10.34
   4  -9  -3   56.03   11.81
   9  -3  -4   58.09   11.03
   4  -9   4    1.58    2.97
  -4   4   9    3.20    7.65
  -4  -9  -4    2.06    7.34
  -9   4   4    7.70   10.29
  -4   9   4    5.42    7.02
   4   4  -9   -1.77    3.09
  -9  -4  -4   -0.63    6.95
  -9  -4   4   -4.23    8.03
   4  -4  -9    6.53    8.33
   9  -4  -4   -1.25    7.26
   4  -9  -4   -2.42    8.09
  -4  -4   9    2.56    4.77
  -4   4  -9    4.24    2.02
  -9   4  -4   -6.83    5.21
  -4   4  -9    2.38    1.74
  -4  -9   4   -2.40    3.61
  -4  -9   4   -3.17    4.03
  -4   9   5   26.64    8.80
  -4  -9  -5   24.10    9.79
  -9   5   4   -5.62    9.83
  -5   4   9   32.38   10.63
  -4  -9   5   27.99    5.04
   9  -5  -4   20.99    9.01
   4  -9  -5   23.55   10.48
  -5   4  -9   32.39    5.01
  -5   4  -9   23.40    3.42
  -9   5  -4   16.08    6.24
   5  -4  -9   30.50   10.30
  -9  -5   4   16.39    9.54
  -6  -4  -9   55.33   12.03
  -4   9   6   38.10   11.33
  -4  -9  -6   42.12   12.50
  -6   4   9   27.24   11.10
  -9   6   4   34.76   12.78
   4  -9  -6   72.78   14.16
  -4  -9   6   43.03    7.05
  -4  -9  -7   13.09   12.43
  -7   4   9   13.59   12.48
  -4  -9   7    2.85    3.97
  -7   4  -9   14.55    4.93
  -8   4   9    8.59   14.60
   8  -4  -9  -14.65   11.97
  -9   0   5   -4.25    8.78
   0  -5  -9   14.76    8.91
  -9   0  -5   14.27    5.82
  -5  -9   0   -0.20    5.42
   9   0  -5   19.06    7.13
  -5   9   0   28.31    6.67
   5  -9   0   24.97    6.21
   5  -9   1   58.10    8.89
  -1   5   9   64.69   11.73
  -9   1   5   56.79   11.98
  -9  -1  -5   40.59    8.51
  -1  -5  -9   58.18   11.33
  -5  -9  -1   62.07   10.58
  -5   9   1   57.99   10.17
   9   1  -5   53.39   10.10
  -5   9  -1   73.46    9.12
  -9  -1   5   53.02   10.76
   5  -9  -1   56.52   10.76
   1  -5  -9   75.90   14.53
   9  -1  -5   61.74    9.76
  -9  -2  -5    9.50    5.89
   9   2  -5    6.31    6.10
  -2  -5  -9   13.85    8.60
  -2   5   9   12.78    7.73
  -5   9   2   10.03    6.52
  -5  -9  -2    7.02    6.75
   9  -2  -5    8.39    6.58
  -9   2  -5    2.14    5.05
   2  -5  -9   13.64    9.29
   5  -9  -2    0.96    6.50
  -2  -5   9    9.79    2.37
  -9  -2   5  -16.80    8.15
  -5   9   3   22.93    8.00
  -9   3   5    9.65   10.32
  -9  -3  -5    8.23    6.54
  -5  -9  -3   17.08    7.62
   5  -9   3   15.19    4.63
  -3   5   9   17.51    8.98
  -3  -5  -9   20.43    9.39
   3  -5  -9    4.05    9.38
  -3  -5   9    8.23    3.71
  -5  -9   3    7.09    5.18
  -9  -3   5   10.65    9.31
  -9   3  -5    8.39    5.86
   9  -3  -5    6.16    7.51
   5  -9  -3   15.94    8.11
  -9   4   5    8.09   11.33
  -4   5   9   28.95    9.76
   5  -9   4   33.89    5.76
  -5  -9  -4   16.92    8.99
  -5   9   4   23.63    8.65
  -9  -4   5    4.31    9.42
  -9   4  -5   23.22    6.56
   5  -9  -4   30.58    9.90
  -5   9  -4   26.35    4.37
   4  -5  -9   17.46   10.50
   9  -4  -5   23.02    9.31
  -4  -5   9   13.79    5.07
  -5  -9  -5   13.24    9.53
  -9   5   5    1.98   11.51
  -5   5   9   18.08   10.60
   5  -5  -9   12.48   10.30
   9  -5  -5   23.88    9.45
  -9  -5   5   11.70    9.35
  -6  -5  -9   38.18   11.95
  -5  -9  -6   43.93   12.53
  -6   5   9   20.58   11.54
  -7   5   9   58.75   15.60
  -7   5  -9   53.52    7.88
  -8   5   9  -12.76   14.81
   8  -5  -9   11.17   13.94
   9   0  -6   -1.44    6.96
   0  -6  -9   -7.85    9.71
  -9   0   6   41.25   11.04
   6  -9   0    7.00    5.90
  -6   9   0    0.62    6.51
   9   1  -6   -1.18    6.32
   6  -9   1   44.13    8.75
  -9  -1  -6   11.62    6.14
  -9   1   6   20.04   10.82
  -1   6   9   -2.78    7.91
  -6   9   1   22.94    7.63
  -1  -6  -9   22.49   10.61
  -9   1  -6   13.18    5.77
   1  -6  -9   27.24   10.95
  -6   9  -1   26.48    6.87
   9  -1  -6   18.14    7.91
   6  -9  -1   17.51    7.37
  -9  -1   6   23.93   10.10
  -6   9   2   23.41    8.26
  -2   6   9    7.08    8.37
  -6  -9  -2   15.90    8.17
  -9  -2  -6   22.60    6.90
  -2  -6  -9    8.27   10.28
   6  -9   2    9.48    5.02
  -9   2   6   16.77   11.39
   2  -6  -9   28.69   11.48
  -9  -2   6    5.63    9.40
  -9   2  -6   15.94    5.94
   9  -2  -6    9.28    8.04
  -6   9  -2   23.73    6.60
  -6  -9   2    7.75    6.60
  -9   3   6   13.53   11.79
  -3   6   9   15.00    9.70
  -3  -6  -9    9.89   10.90
  -6  -9  -3   27.22    9.02
   6  -9   3   29.57    5.45
  -6   9  -3   28.78    6.18
  -9  -3   6   25.44   10.31
  -9   3  -6   24.99    6.45
   3  -6  -9   27.12   11.81
  -3  -6   9   23.96    4.90
   9  -3  -6   26.19    9.05
  -6  -9  -4   92.60   15.87
  -4   6   9   99.85   17.24
  -9   4   6  119.09   19.97
   9  -4  -6   94.55   16.11
  -6   9  -4  112.15    9.50
   4  -6  -9   84.34   17.93
  -9   5   6  -13.27   12.73
  -5   6   9   12.09   11.41
  -6   9  -5    1.36    3.83
   9  -5  -6   11.00   10.57
   5  -6  -9  -16.38   11.32
  -6  -6  -9   17.02   13.16
  -6   6   9   -9.97   12.07
  -7   6   9   17.89   15.31
  -9   0   7   -3.26   10.64
   0  -7  -9   -7.36   11.32
  -1   7   9    0.36    9.57
   9   1  -7   13.50    7.89
  -9   1   7    6.48   11.61
  -1  -7  -9    8.42   11.99
  -9  -1   7    6.19   11.10
  -7  -9   1   14.58    8.36
   1  -7  -9   15.59   12.06
   9   2  -7   23.50    7.94
  -2  -7  -9    9.34   11.96
  -2   7   9   12.37    9.64
  -9   2   7    4.37   12.17
   2  -7  -9   11.32   12.61
  -9  -2   7   12.66   10.50
   9  -2  -7   11.03    8.62
  -3   7   9  -21.32    9.57
  -3  -7  -9    1.60   11.79
  -9   3   7    1.27   12.33
   9  -3  -7  -18.15    8.46
   3  -7  -9    1.75   12.53
  -9   4   7   40.85   15.28
  -4   7   9   39.84   12.78
   4  -7  -9   20.63   13.60
   9  -4  -7   31.96   11.52
  -5  -7  -9  -14.22   13.66
  -5   7   9   45.70   13.50
  -9   5   7   49.06   15.85
   5  -7  -9   -6.01   13.40
   9  -5  -7   13.66   11.82
  -9  -6  -7   37.98   15.16
  -6   7   9   78.64   16.07
  -7   9  -6   73.10    7.64
   0  -8  -9  -10.88   14.44
  -1  -8  -9  174.50   24.75
  -9   1   8  149.15   21.86
   1  -8  -9  108.46   22.97
   9  -1  -8  119.91   17.00
  -2  -8  -9    8.12   13.85
  -2   8   9  -19.57   10.61
  -9   2   8   16.52   13.82
   2  -8  -9   30.05   16.24
   9  -2  -8   15.18   10.33
  -3   8   9   57.34   13.26
  -9   3   8   33.59   14.71
   9  -3  -8   17.54   11.21
   3  -8  -9   37.80   16.61
  -9   4   8   32.21   16.41
  -4   8   9   13.42   12.78
   4  -8  -9  -18.95   15.45
  -5  -8  -9   12.08   15.85
 -10   0   0   77.76   11.74
   0 -10   0   77.69    9.96
 -10   1   0  159.37   14.50
  -1   0  10  177.01   11.36
   0 -10   1  163.38   12.07
 -10  -1   0  151.84   15.13
 -10   2   0    7.36    6.77
  -2   0  10    3.94    4.80
   0 -10  -2   11.88    7.43
   0 -10   2    8.66    4.96
  10  -2   0   13.75    6.64
 -10  -2   0    3.29    7.22
   0 -10   3   -2.41    4.18
   0 -10  -3    7.13    7.66
 -10  -3   0    1.36    7.76
 -10   3   0    5.56    7.00
  -3   0  10    1.35    5.53
  10  -3   0   -5.40    5.70
   0 -10  -4    8.41    8.50
   4   0 -10    9.64    6.16
  10  -4   0    1.30    6.13
 -10  -4   0    1.96    8.06
 -10   4   0   11.65    7.51
  -4   0  10   12.06    6.50
   0 -10   5   57.29    4.13
   5   0 -10   59.15   11.54
   0 -10   5   53.47    4.44
   0 -10  -5   95.37   16.79
 -10  -5   0   47.96   10.95
 -10  -6   0  191.98   18.83
 -10  -7   0   17.62   10.51
 -10   0   1  104.47   14.24
 -10   0  -1  133.72   12.98
   1 -10   1    5.39    5.07
 -10   1   1   19.94    8.17
 -10  -1  -1   13.08    6.92
  -1   1  10   13.44    5.35
 -10  -1   1   32.27    8.69
  -1  -1  10    8.07    4.04
  -1 -10   1    8.05    5.04
  10  -1  -1   16.33    6.90
 -10   1  -1    8.23    6.63
  -2   1  10   10.35    6.01
 -10   2   1   14.06    7.99
   1 -10   2   13.86    5.07
 -10  -2  -1   15.25    7.60
  -1 -10  -2   -2.31    6.54
 -10  -2   1   15.77    8.34
  -2  -1  10   15.62    4.81
  10  -2  -1   15.27    6.71
   1 -10  -2   -2.79    7.20
 -10   2  -1   17.49    6.98
  -1 -10   2    7.20    4.67
   1 -10   3    7.34    4.60
 -10   3   1    5.77    7.55
  -3   1  10    0.04    5.91
  -1 -10  -3   -4.22    7.00
  10  -3  -1   13.12    6.75
 -10   3  -1    3.65    6.33
  -1 -10   3    2.89    4.61
   1 -10  -3   16.58    8.39
 -10  -3   1    1.54    8.55
  -3  -1  10   -2.30    4.76
  -4  -1 -10   18.35    7.26
   4   1 -10    9.41    5.77
  10  -4   1   13.36    6.48
  -4   1  10    5.84    7.50
  -1 -10  -4   20.99    8.94
 -10   4   1   11.84    8.64
 -10  -4  -1    9.94    8.29
   4  -1 -10   11.81    6.58
 -10   4  -1    6.61    7.43
 -10  -4   1   25.15    9.13
  10  -4  -1   -0.18    6.99
  -1 -10   4   12.75    4.62
   1 -10  -4   13.16    9.54
  -4  -1  10    4.77    6.38
 -10  -5  -1   15.03    8.63
  -5   1  10   10.42    8.18
 -10   5   1    6.97    9.11
  -1 -10  -5   -3.74    9.57
 -10  -5   1    6.30    9.05
  -1 -10   5   11.55    3.04
   5  -1 -10    9.44    7.13
  -1 -10   5    9.81    3.66
   1 -10  -5   -0.43   10.64
 -10  -6  -1   27.44   10.98
 -10  -6   1   51.23   11.70
 -10  -7  -1   23.67   11.44
   0   2 -10    2.09    3.47
 -10   0  -2    5.52    5.95
  -2 -10   0    4.48    5.41
  -2  10   1   93.82   10.16
  -1   2  10   97.56   10.38
 -10   1   2   83.30   13.73
 -10  -1  -2  100.88   12.00
   1   2 -10   78.29    7.48
   2 -10   1   70.19   10.25
 -10   1  -2   86.32   10.66
   2 -10  -1   57.23   11.30
  -1  -2  10   78.18    7.27
  -1   2 -10   68.39    7.26
  10  -1  -2   95.80   11.79
 -10  -1   2   72.88   13.66
 -10  -2  -2   33.61    8.16
  -2 -10  -2   49.02   10.49
  -2   2  10   23.02    7.51
  -2  10   2   35.07    7.14
 -10   2   2   41.45   10.41
   2 -10   2   35.77    6.22
  -2  -2  10   31.62    6.77
  -2   2 -10   39.76    6.53
 -10   2  -2   40.36    7.91
  10  -2  -2   27.13    7.72
 -10  -2   2   20.09    9.98
   2 -10   3  166.58   10.78
  -3   2  10  184.15   15.31
  -2 -10  -3  176.65   16.02
 -10  -3  -2  159.51   15.21
  -2  10   3  200.52   14.51
 -10   3   2  159.91   16.96
  -3  -2  10  167.94   11.67
 -10   3  -2  164.62   14.18
   2 -10  -3  184.50   16.99
  -3   2 -10  154.17   10.69
 -10  -3   2  180.10   17.18
  10  -3  -2  147.89   14.67
 -10   4   2   95.18   14.40
  -4  -2 -10   56.55   11.92
  -2  10   4   88.61   12.09
 -10  -4  -2   64.43   11.39
  -2 -10  -4   52.87   10.91
  -4   2  10   69.40   13.63
   2 -10  -4   71.76   15.41
 -10   4  -2   52.03    9.30
 -10  -4   2   67.19   14.46
  10  -4  -2   99.01   13.18
  -4   2 -10   53.56    7.95
 -10  -5  -2   36.75   10.21
  -2  10   5   19.37    8.48
  -5   2  10   14.21    9.15
  -2 -10  -5    6.89   10.41
 -10   5   2   28.11   10.86
 -10  -5   2   31.43   10.84
   5  -2 -10   35.02    9.49
 -10  -6  -2   23.83   10.70
 -10  -6   2   35.06   11.94
  -2 -10   6   47.48    5.46
 -10  -7  -2   -3.97   10.56
 -10  -8  -2   32.64   13.19
  -3  10   0    5.88    4.82
 -10   0  -3    0.82    5.88
  -3 -10   0    0.08    5.32
  10   0  -3  -10.46    5.68
 -10   0   3   11.91    8.70
   0   3 -10    2.51    2.54
   3 -10   0    9.66    6.34
  -3  10   1   10.85    5.79
   3 -10   1    4.61    5.32
 -10  -1  -3   -0.06    6.15
 -10   1   3  -16.19    8.83
  -1   3  10   -1.96    6.06
  -3 -10  -1   -3.16    5.85
   1   3 -10    3.74    2.81
  -3  10  -1    2.00    4.54
  10  -1  -3    6.91    6.87
 -10  -1   3  -10.33    7.84
  -3 -10   1    5.63    4.91
   3 -10  -1   -5.85    6.26
 -10   1  -3    5.03    5.53
  -1   3 -10    0.44    2.51
  -2   3  10   41.00    8.63
 -10   2   3   25.93   10.33
  -3  10   2   28.51    7.43
   2   3 -10   33.29    5.64
  -3 -10  -2   27.06    8.14
 -10  -2  -3   54.74   10.54
  -3 -10   2   27.89    5.57
 -10   2  -3   40.02    7.98
  10  -2  -3   37.66    8.98
  -2  -3  10   39.45    6.27
 -10  -2   3   72.07   13.75
  -2   3 -10   30.04    4.87
  -3  10   3   81.26   11.36
  -3   3  10   92.60   13.61
   3 -10   3   84.47    8.22
  -3 -10  -3   80.89   13.09
 -10   3   3  115.75   17.42
 -10  -3  -3   66.86   12.60
   3   3 -10   92.93    7.86
 -10   3  -3   71.85   11.41
  -3 -10   3  100.08    8.88
 -10  -3   3   84.86   15.76
  -3   3 -10   87.00    6.86
  -3  -3  10   82.03    8.42
   3 -10  -3   93.15   13.63
  10  -3  -3   96.87   13.75
   3 -10   4   23.04    4.02
 -10   4   3   26.20   11.50
  -4   3  10   24.12    9.21
  -4  -3 -10   22.73    8.84
  -3  10   4   22.28    7.79
 -10  -4  -3   29.81    9.92
 -10  -4   3   30.38   11.07
  -4   3 -10   31.20    4.83
  -4   3 -10   23.76    4.47
  10  -4  -3   15.88    8.96
  -3 -10   4   26.63    5.53
 -10  -5  -3   -5.71    8.96
  -5   3  10   11.50    9.71
   5  -3 -10   19.19    9.74
 -10  -5   3   13.25   10.53
  -3 -10   5    9.47    4.66
  -5   3 -10    7.78    3.65
 -10  -6  -3   14.15   11.07
  -6   3 -10   33.53    7.03
  -3 -10   6   24.99    5.04
 -10  -7  -3    1.69   11.09
  -4  10   0    3.19    5.40
 -10   0   4   31.90   11.29
  10   0  -4    5.99    7.00
 -10   0  -4   -0.82    5.96
   4 -10   0    0.09    5.75
  -4 -10   0   13.61    6.44
  -1   4  10   11.39    7.56
  -4  10   1   12.24    6.25
 -10  -1  -4   21.64    6.94
  -4 -10  -1    5.59    6.38
   1   4 -10    9.00    2.27
  10   1  -4    9.66    7.26
 -10   1   4    6.24   11.27
   4 -10   1   17.54    5.62
 -10   1  -4   17.56    6.63
  -4 -10   1   18.63    6.19
  10  -1  -4    4.69    7.20
 -10  -1   4  -10.57    9.78
   4 -10  -1   11.72    7.21
  -4  10  -1    9.37    5.11
  -4 -10  -2   29.06    8.19
  -2   4  10   22.16    8.66
 -10   2   4   28.08   11.28
 -10  -2  -4   34.76    7.69
   4 -10   2   26.02    5.49
   2   4 -10   26.45    4.44
  -4  10   2   29.30    7.58
  -4  10  -2   35.15    7.51
  -2  -4  10   27.49    5.17
 -10   2  -4   22.33    7.35
  10  -2  -4   29.88    8.61
 -10  -2   4   17.85   10.04
 -10  -3  -4   83.61   12.40
  -3  -4 -10   75.16   12.57
  -3   4  10   72.16   14.10
 -10   3   4   92.14   18.07
 -10  -3   4   87.68   17.01
  -4 -10   3   63.35    9.00
  10  -3  -4   74.64   13.54
  -4  -4 -10    2.42    9.69
  -4   4  10   13.12    9.75
 -10  -4  -4  -13.14    8.22
  -4 -10   4   -0.42    5.18
 -10  -4   4    2.02   10.32
  -5   4  10   23.23   10.58
 -10  -5  -4   21.44   10.34
  -5   4 -10   18.34    3.30
   5  -4 -10   32.48   11.68
  -6   4 -10  134.13    8.77
 -10   0   5  -12.88   10.65
  10   0  -5    0.49    7.56
  10   1  -5   31.70    8.73
  -1   5  10   26.05    8.89
 -10   1   5   39.03   12.92
  -5  10  -1   16.47    6.43
 -10  -1   5   27.24   11.34
  10  -1  -5    1.17    7.58
   5 -10   2   16.65    5.52
 -10   2   5   17.72   12.66
  -2   5  10   20.11    8.69
  -5  10  -2    6.97    5.33
 -10  -2   5   16.40   10.76
  10  -2  -5   -1.54    8.28
 -10   3   5    7.83   12.94
  -3   5  10   29.34   10.39
  -3  -5 -10   26.19   11.63
 -10  -3   5   50.89   12.45
  10  -3  -5   34.39   10.40
  -4   5  10   21.14   11.12
   5 -10   4   18.11    4.39
  -4  -5 -10   -5.99   11.02
  -5  10  -4    4.22    4.20
  10  -4  -5    5.95    9.39
  -5   5  10   15.42   11.33
   5  -5 -10   21.21   12.02
 -10   0   6  330.00   27.05
  -1   6  10   36.67   10.99
 -10   1   6   29.11   13.84
 -10  -1   6   20.82   12.72
 -10   2   6   30.15   14.30
  -2  -6 -10   28.67   13.04
  -2   6  10   47.78   11.38
  10  -2  -6   35.45   10.66
 -10  -2   6   26.49   12.82
  -3  -6 -10    1.17   12.24
  -3   6  10   16.34   10.90
 -10   3   6    7.82   14.29
  10  -3  -6   10.11   10.26
 -10   4   6   68.74   17.16
  -4   6  10  101.40   19.03
   4  -6 -10   56.77   15.63
  10  -4  -6   78.47   16.67
  -5   6  10   62.54   15.15
   5  -6 -10   49.32   15.75
  -6  10  -5   51.03    7.27
 -10   0   7   32.40   15.18
  10   0  -7   39.96   10.28
  -1  -7 -10  -18.48   13.63
 -10   1   7  -20.41   13.32
  -1   7  10   18.67   10.98
  10  -1  -7    3.69   10.01
 -10   2   7   56.07   17.41
  -2   7  10   34.66   12.45
  -2  -7 -10   48.93   16.46
 -10   3   7   20.38   15.77
  -3   7  10    9.62   12.17
  -3  -7 -10   50.54   16.15
   3  -7 -10   30.65   16.40
  -4   7  10   18.54   12.89
 -10   4   7   13.77   17.16
   4  -7 -10   33.09   16.50
  -5   7  10   38.65   15.95
   5  -7 -10    6.88   17.26
   0  -8 -10   -8.37   16.50
  -1  -8 -10   46.87   18.12
   1  -8 -10   18.77   17.28
  -2   8  10   52.80   14.45
  -2  -8 -10   18.80   17.56
   2  -8 -10   55.99   18.84
  -3   8  10   83.26   16.51
 -11   0   0    0.82    8.17
   0 -11   0   12.25    6.66
 -11  -1   0   17.12    9.32
 -11   1   0   19.99    8.52
   0 -11   1   14.76    6.35
 -11  -2   0   63.55   12.13
 -11   2   0   52.58   10.82
   0 -11   2   55.50    8.42
 -11  -3   0   -9.94    9.25
   0 -11   4   -3.42    4.64
 -11  -4   0   13.26   10.34
   0 -11   5   10.43    3.28
 -11  -5   0   22.91   12.06
 -11  -6   0   29.32   13.31
 -11   0  -1   95.83   14.04
   1 -11   0  107.43   12.75
 -11  -1  -1  167.34   16.90
 -11   1   1  197.32   18.19
   1 -11   1  186.61   14.15
 -11  -1   1  175.90   18.21
  -1 -11   1  189.04   13.80
 -11   1  -1  156.34   15.75
 -11   2   1    1.73    9.18
   1 -11   2    8.27    6.00
 -11   2  -1    1.32    7.53
 -11  -2   1   12.59    9.79
  -1 -11   2   13.56    6.12
  11  -2  -1    6.64    7.72
 -11  -3  -1   51.02   11.18
 -11   3   1   50.22   11.64
  -1 -11   3   43.34    7.54
 -11  -3   1   60.50   12.55
 -11  -4  -1   36.79   11.44
 -11  -4   1   24.60   11.60
 -11  -5  -1   54.93   12.79
 -11  -5   1   52.44   13.03
 -11  -6  -1    2.81   11.42
 -11  -6   1   15.42   12.43
 -11  -7  -1   42.00   13.87
   0  -2 -11    1.38    8.42
 -11   0   2  -11.71    9.44
 -11   0  -2    6.65    7.48
   2 -11   1    0.86    6.09
 -11   1   2    2.34   10.19
 -11  -1  -2    0.25    7.88
 -11  -1   2    9.03    9.87
  11  -1  -2    4.92    7.83
 -11   1  -2    7.87    7.47
 -11  -2  -2   43.52   10.44
   2 -11   2   54.07    9.82
 -11   2   2   43.64   11.99
 -11  -2   2   51.35   11.89
  11  -2  -2   62.81   12.42
   2 -11   3   10.38    5.33
 -11  -3  -2  -15.50    8.67
 -11   3   2   28.16   11.26
 -11  -3   2   -5.68   10.01
  11  -3  -2    7.40    9.29
  -2 -11   3   17.43    6.96
   2 -11   4   72.72    7.42
  -2 -11   4   70.73   10.12
 -11  -4   2   64.12   14.04
 -11  -5  -2   21.36   10.74
 -11  -5   2    1.57   12.09
  -2 -11   5    2.74    5.27
 -11  -6  -2   23.72   12.98
 -11   0   3   43.53   12.67
  -1   3 -11   30.32    5.33
 -11  -1   3   29.41   12.04
  11  -1  -3   26.76    9.27
 -11   2   3  109.13   19.72
 -11  -2   3  157.64   20.03
  11  -2  -3  155.80   16.37
   3 -11   3    7.97    5.22
 -11   3   3   26.00   12.98
  11  -3  -3   13.43    9.90
 -11  -3   3   19.32   12.33
   3 -11   4   72.89    7.38
 -11  -4   3   64.63   14.07
  -4   3 -11   68.93    6.34
  -5   3 -11   44.55    6.84
  11   0  -4   34.63    9.87
 -11   0   4   21.12   12.67
 -11   1   4  -12.05   12.12
 -11  -1   4   -2.56   11.64
  11  -1  -4    1.82    8.61
 -11   2   4   22.09   13.76
 -11  -2   4   16.11   12.32
  11  -2  -4   23.59    9.88
  11  -3  -4   12.89    9.68
 -11  -3   4   26.91   13.09
   4 -11   4   14.97    4.70
 -11   0   5  -15.19   13.22
 -11   1   5   64.80   16.58
  11  -1  -5  132.67   16.82
 -11  -1   5   92.36   16.92
 -11   2   5   87.34   17.91
  11  -2  -5   77.67   13.29
 -11  -2   5  137.25   21.78
 -11   3   5   53.47   16.89
  11   0  -6   14.05   10.51
 -11   0   6   33.27   16.09
 -11   1   6   25.00   16.46
 -11   2   6   -8.35   15.99
 -12  -2   0   15.33   11.43
 -12  -3   0    6.94   12.05
 -12  -4   0   21.47   13.16
 -12  -5   0    0.34   13.83
 -12   0   1    9.02   11.76
 -12  -1   1    1.29   11.01
 -12  -2   1    3.07   11.97
 -12  -3   1    0.43   12.25
 -12  -4   1   56.60   15.28
 -12  -5   1   12.90   14.17
 -12   0   2   -2.23   12.21
 -12  -1   2  -15.57   12.03
 -12  -2   2   46.40   14.01
 -12  -3   2   22.60   13.84
 -12  -4   2   30.02   15.40
 -12   0   3   45.02   15.00
 -12  -1   3   37.72   14.24
 -12  -2   3   -7.13   13.20
 -12  -3   3   23.94   14.48
  -4   3 -12   12.68    3.99
 -12   0   4   56.16   16.82
 -12  -1   4   29.38   15.47
 -12  -2   4   11.64   15.64
  12   0  -5   97.37   19.03
 -12   0   5  159.26   26.94
   0   0   0    0.00    0.00
;
_shelx_hkl_checksum              45296
loop_
_space_group_symop_operation_xyz
'x, y, z'
'-x+1/2, -y, z+1/2'
'-x, y+1/2, -z+1/2'
'x+1/2, -y+1/2, -z'
'z, x, y'
'z+1/2, -x+1/2, -y'
'-z+1/2, -x, y+1/2'
'-z, x+1/2, -y+1/2'
'y, z, x'
'-y, z+1/2, -x+1/2'
'y+1/2, -z+1/2, -x'
'-y+1/2, -z, x+1/2'
loop_
_atom_site_label
_atom_site_type_symbol
_atom_site_fract_x
_atom_site_fract_y
_atom_site_fract_z
_atom_site_U_iso_or_equiv
_atom_site_adp_type
_atom_site_occupancy
_atom_site_site_symmetry_order
_atom_site_calc_flag
_atom_site_refinement_flags_posn
_atom_site_refinement_flags_adp
_atom_site_refinement_flags_occupancy
_atom_site_disorder_assembly
_atom_site_disorder_group
As1 As 0.01755(18) 0.36124(18) 0.44602(16) 0.0040(5) Uani 1 1 d . . . . .
As2 As 0.13564(19) 0.18723(17) 0.52900(17) 0.0037(5) Uani 1 1 d . . . . .
As3 As 0.78169(17) 0.78169(17) 0.78169(17) 0.0037(8) Uani 1 3 d S T P . .
I1 I 0.15102(12) 0.15102(12) 0.15102(12) 0.0068(5) Uani 1 3 d S T P . .
Ba1 Ba 0.60026(10) 0.60026(10) 0.60026(10) 0.0053(5) Uani 1 3 d S T P . .
Ba2 Ba 0.34165(10) 0.34165(10) 0.34165(10) 0.0030(5) Uani 1 3 d S T P . .
loop_
_atom_site_aniso_label
_atom_site_aniso_U_11
_atom_site_aniso_U_22
_atom_site_aniso_U_33
_atom_site_aniso_U_23
_atom_site_aniso_U_13
_atom_site_aniso_U_12
As1 0.0046(11) 0.0041(11) 0.0034(10) -0.0006(9) 0.0001(8) -0.0001(9)
As2 0.0041(11) 0.0025(10) 0.0044(11) -0.0003(8) 0.0015(9) 0.0004(8)
As3 0.0037(8) 0.0037(8) 0.0037(8) 0.0003(9) 0.0003(9) 0.0003(9)
I1 0.0068(5) 0.0068(5) 0.0068(5) -0.0022(5) -0.0022(5) -0.0022(5)
Ba1 0.0053(5) 0.0053(5) 0.0053(5) -0.0017(5) -0.0017(5) -0.0017(5)
Ba2 0.0030(5) 0.0030(5) 0.0030(5) 0.0005(5) 0.0005(5) 0.0005(5)
loop_
_atom_type_symbol
_atom_type_description
_atom_type_scat_dispersion_real
_atom_type_scat_dispersion_imag
_atom_type_scat_source
As As 0.0499 2.0058 'International Tables Vol C Tables 4.2.6.8 and 6.1.1.4'
I I -0.4742 1.8119 'International Tables Vol C Tables 4.2.6.8 and 6.1.1.4'
Ba Ba -0.3244 2.2819 'International Tables Vol C Tables 4.2.6.8 and 6.1.1.4'
loop_
_geom_angle_atom_site_label_1
_geom_angle_atom_site_label_2
_geom_angle_atom_site_label_3
_geom_angle
_geom_angle_site_symmetry_1
_geom_angle_site_symmetry_3
As2 As1 As1 104.26(7) . 12_565
As2 As1 As1 104.54(6) . 6_456
As1 As1 As1 60.0 12_565 6_456
As2 As1 Ba2 64.64(6) . .
As1 As1 Ba2 69.84(9) 12_565 .
As1 As1 Ba2 124.13(8) 6_456 .
As2 As1 Ba2 65.45(6) . 4_456
As1 As1 Ba2 123.62(7) 12_565 4_456
As1 As1 Ba2 69.27(8) 6_456 4_456
Ba2 As1 Ba2 130.09(5) . 4_456
As2 As1 Ba1 126.42(7) . 2_564
As1 As1 Ba1 111.12(7) 12_565 2_564
As1 As1 Ba1 127.65(3) 6_456 2_564
Ba2 As1 Ba1 91.30(5) . 2_564
Ba2 As1 Ba1 118.76(6) 4_456 2_564
As1 As2 As3 100.13(10) . 3_646
As1 As2 Ba1 119.33(8) . 4_456
As3 As2 Ba1 139.21(10) 3_646 4_456
As1 As2 Ba2 75.45(6) . .
As3 As2 Ba2 93.05(7) 3_646 .
Ba1 As2 Ba2 105.78(6) 4_456 .
As1 As2 Ba2 74.93(7) . 4_456
As3 As2 Ba2 91.99(6) 3_646 4_456
Ba1 As2 Ba2 88.89(6) 4_456 4_456
Ba2 As2 Ba2 150.37(7) . 4_456
As2 As3 As2 101.22(10) 11_566 7_665
As2 As3 As2 101.22(10) 11_566 3_656
As2 As3 As2 101.22(10) 7_665 3_656
As2 As3 Ba1 116.82(8) 11_566 .
As2 As3 Ba1 116.82(8) 7_665 .
As2 As3 Ba1 116.82(8) 3_656 .
Ba2 I1 Ba1 94.94(3) . 4_456
Ba2 I1 Ba1 94.94(3) . 2_564
Ba1 I1 Ba1 119.266(10) 4_456 2_564
Ba2 I1 Ba1 94.94(3) . 3_645
Ba1 I1 Ba1 119.266(10) 4_456 3_645
Ba1 I1 Ba1 119.266(10) 2_564 3_645
As3 Ba1 As2 133.96(4) . 12_565
As3 Ba1 As2 133.96(4) . 8_655
As2 Ba1 As2 77.13(7) 12_565 8_655
As3 Ba1 As2 133.96(4) . 4_556
As2 Ba1 As2 77.13(7) 12_565 4_556
As2 Ba1 As2 77.13(7) 8_655 4_556
As3 Ba1 I1 85.53(3) . 4_556
As2 Ba1 I1 76.38(4) 12_565 4_556
As2 Ba1 I1 140.13(6) 8_655 4_556
As2 Ba1 I1 68.30(4) 4_556 4_556
As3 Ba1 I1 85.53(3) . 3_655
As2 Ba1 I1 140.13(6) 12_565 3_655
As2 Ba1 I1 68.30(4) 8_655 3_655
As2 Ba1 I1 76.38(4) 4_556 3_655
I1 Ba1 I1 119.399(8) 4_556 3_655
As3 Ba1 I1 85.53(3) . 2_565
As2 Ba1 I1 68.30(4) 12_565 2_565
As2 Ba1 I1 76.38(4) 8_655 2_565
As2 Ba1 I1 140.13(6) 4_556 2_565
I1 Ba1 I1 119.399(8) 4_556 2_565
I1 Ba1 I1 119.399(8) 3_655 2_565
As3 Ba1 As1 65.24(4) . 10_655
As2 Ba1 As1 120.96(4) 12_565 10_655
As2 Ba1 As1 69.33(5) 8_655 10_655
As2 Ba1 As1 135.30(4) 4_556 10_655
I1 Ba1 As1 150.54(6) 4_556 10_655
I1 Ba1 As1 64.38(4) 3_655 10_655
I1 Ba1 As1 57.58(4) 2_565 10_655
As3 Ba1 As1 65.24(4) . 6_556
As2 Ba1 As1 135.30(4) 12_565 6_556
As2 Ba1 As1 120.96(4) 8_655 6_556
As2 Ba1 As1 69.33(5) 4_556 6_556
I1 Ba1 As1 64.38(4) 4_556 6_556
I1 Ba1 As1 57.58(4) 3_655 6_556
I1 Ba1 As1 150.54(6) 2_565 6_556
As1 Ba1 As1 103.70(5) 10_655 6_556
As3 Ba1 As1 65.24(4) . 2_565
As2 Ba1 As1 69.33(5) 12_565 2_565
As2 Ba1 As1 135.30(4) 8_655 2_565
As2 Ba1 As1 120.96(4) 4_556 2_565
I1 Ba1 As1 57.58(4) 4_556 2_565
I1 Ba1 As1 150.54(6) 3_655 2_565
I1 Ba1 As1 64.38(4) 2_565 2_565
As1 Ba1 As1 103.70(5) 10_655 2_565
As1 Ba1 As1 103.70(5) 6_556 2_565
As3 Ba1 Ba2 180.00(8) . .
As2 Ba1 Ba2 46.04(4) 12_565 .
As2 Ba1 Ba2 46.04(4) 8_655 .
As2 Ba1 Ba2 46.04(4) 4_556 .
I1 Ba1 Ba2 94.47(3) 4_556 .
I1 Ba1 Ba2 94.47(3) 3_655 .
I1 Ba1 Ba2 94.47(3) 2_565 .
As1 Ba1 Ba2 114.76(4) 10_655 .
As1 Ba1 Ba2 114.76(4) 6_556 .
As1 Ba1 Ba2 114.76(4) 2_565 .
As2 Ba2 As2 110.63(4) 9 5
As2 Ba2 As2 110.62(4) 9 .
As2 Ba2 As2 110.63(4) 5 .
As2 Ba2 As2 108.08(2) 9 12_565
As2 Ba2 As2 138.97(5) 5 12_565
As2 Ba2 As2 66.43(6) . 12_565
As2 Ba2 As2 66.43(6) 9 8_655
As2 Ba2 As2 108.08(2) 5 8_655
As2 Ba2 As2 138.97(5) . 8_655
As2 Ba2 As2 75.63(6) 12_565 8_655
As2 Ba2 As2 138.97(5) 9 4_556
As2 Ba2 As2 66.43(6) 5 4_556
As2 Ba2 As2 108.08(2) . 4_556
As2 Ba2 As2 75.63(6) 12_565 4_556
As2 Ba2 As2 75.63(6) 8_655 4_556
As2 Ba2 I1 71.71(5) 9 .
As2 Ba2 I1 71.71(5) 5 .
As2 Ba2 I1 71.71(5) . .
As2 Ba2 I1 134.93(4) 12_565 .
As2 Ba2 I1 134.93(4) 8_655 .
As2 Ba2 I1 134.93(4) 4_556 .
As2 Ba2 As1 138.13(7) 9 5
As2 Ba2 As1 39.91(5) 5 5
As2 Ba2 As1 72.74(5) . 5
As2 Ba2 As1 110.87(5) 12_565 5
As2 Ba2 As1 138.48(5) 8_655 5
As2 Ba2 As1 67.23(4) 4_556 5
I1 Ba2 As1 70.20(4) . 5
As2 Ba2 As1 39.91(5) 9 9
As2 Ba2 As1 72.74(5) 5 9
As2 Ba2 As1 138.13(7) . 9
As2 Ba2 As1 138.48(5) 12_565 9
As2 Ba2 As1 67.23(4) 8_655 9
As2 Ba2 As1 110.87(5) 4_556 9
I1 Ba2 As1 70.20(4) . 9
As1 Ba2 As1 109.14(4) 5 9
As2 Ba2 As1 72.74(5) 9 .
As2 Ba2 As1 138.13(7) 5 .
As2 Ba2 As1 39.91(5) . .
As2 Ba2 As1 67.23(4) 12_565 .
As2 Ba2 As1 110.87(5) 8_655 .
As2 Ba2 As1 138.48(5) 4_556 .
I1 Ba2 As1 70.20(4) . .
As1 Ba2 As1 109.14(4) 5 .
As1 Ba2 As1 109.14(4) 9 .
As2 Ba2 As1 71.34(5) 9 12_565
As2 Ba2 As1 177.73(4) 5 12_565
As2 Ba2 As1 67.36(4) . 12_565
As2 Ba2 As1 39.62(5) 12_565 12_565
As2 Ba2 As1 73.64(5) 8_655 12_565
As2 Ba2 As1 112.94(6) 4_556 12_565
I1 Ba2 As1 108.21(4) . 12_565
As1 Ba2 As1 137.84(3) 5 12_565
As1 Ba2 As1 109.42(2) 9 12_565
As1 Ba2 As1 40.88(6) . 12_565
As2 Ba2 As1 177.73(4) 9 4_556
As2 Ba2 As1 67.36(4) 5 4_556
As2 Ba2 As1 71.34(5) . 4_556
As2 Ba2 As1 73.64(5) 12_565 4_556
As2 Ba2 As1 112.94(6) 8_655 4_556
As2 Ba2 As1 39.62(5) 4_556 4_556
I1 Ba2 As1 108.21(4) . 4_556
As1 Ba2 As1 40.88(6) 5 4_556
As1 Ba2 As1 137.84(3) 9 4_556
As1 Ba2 As1 109.42(2) . 4_556
As1 Ba2 As1 110.70(4) 12_565 4_556
loop_
_geom_bond_atom_site_label_1
_geom_bond_atom_site_label_2
_geom_bond_distance
_geom_bond_site_symmetry_2
As1 As2 2.387(3) .
As1 As1 2.520(3) 12_565
As1 As1 2.520(3) 6_456
As1 Ba2 3.601(2) .
As1 Ba2 3.614(2) 4_456
As1 Ba1 3.8781(18) 2_564
As2 As3 2.398(2) 3_646
As2 Ba1 3.349(2) 4_456
As2 Ba2 3.362(2) .
As2 Ba2 3.405(2) 4_456
As3 Ba1 3.318(4) .
I1 Ba2 3.486(3) .
I1 Ba1 3.7713(4) 4_456
I1 Ba1 3.7713(4) 2_564
I1 Ba1 3.7713(4) 3_645
Ba1 Ba2 4.729(3) .
