#------------------------------------------------------------------------------
#$Date: 2021-04-09 11:44:47 +0300 (Fri, 09 Apr 2021) $
#$Revision: 264014 $
#$URL: file:///home/coder/svn-repositories/cod/cif/1/56/16/1561615.cif $
#------------------------------------------------------------------------------
#
# This file is available in the Crystallography Open Database (COD),
# http://www.crystallography.net/
#
# All data on this site have been placed in the public domain by the
# contributors.
#
data_1561615
loop_
_publ_author_name
'Pei, Da-Ting'
'Sun, Wei'
'Huang, Ya-Xi'
'Sun, Zhi-Mei'
'Pan, Yuanming'
'Mi, Jin-Xiao'
_publ_section_title
;
 Novel phosphate halides BaMnIII[PO4]FCl and BaMnIII[PO4]F2: Effects of
 mixed halides on crystal structures and magnetic properties
;
_journal_name_full               'Journal of Solid State Chemistry'
_journal_page_first              29
_journal_page_last               35
_journal_paper_doi               10.1016/j.jssc.2015.11.023
_journal_volume                  234
_journal_year                    2016
_chemical_formula_sum            'Ba F2 Mn O4 P'
_chemical_formula_weight         325.25
_space_group_crystal_system      monoclinic
_space_group_IT_number           14
_space_group_name_Hall           '-P 2ybc'
_space_group_name_H-M_alt        'P 1 21/c 1'
_atom_sites_solution_hydrogens   .
_cell_angle_alpha                90
_cell_angle_beta                 116.24(3)
_cell_angle_gamma                90
_cell_formula_units_Z            4
_cell_length_a                   5.1463(9)
_cell_length_b                   12.691(2)
_cell_length_c                   7.8709(14)
_cell_measurement_temperature    200(2)
_cell_volume                     461.09(18)
_computing_cell_refinement       'SAINT (Bruker, 2001)'
_computing_data_collection       'SMART (Bruker, 2001)'
_computing_data_reduction        'SAINT (Bruker, 2001)'
_computing_molecular_graphics
'DIAMOND (Brandenburg, 2011) and ATOMS (Dowty, 2004)'
_computing_publication_material  'SHELXL-2013 (Sheldrick, 2015)'
_computing_structure_refinement  'SHELXL-2013 (Sheldrick, 2015)'
_computing_structure_solution    'SHELXS-2013 (Sheldrick, 2015)'
_diffrn_ambient_temperature      200(2)
_diffrn_detector_area_resol_mean .
_diffrn_measured_fraction_theta_full 0.974
_diffrn_measured_fraction_theta_max 0.908
_diffrn_measurement_device_type  'Bruker Diffraction CCD area-detector'
_diffrn_measurement_method
'1265 images,\f=0, 90, 180 degree, and \D\w=0.3 degree, \c= 54.74 degree'
_diffrn_radiation_monochromator  graphite
_diffrn_radiation_source         'fine-focus sealed tube'
_diffrn_radiation_type           MoK\a
_diffrn_radiation_wavelength     0.71073
_diffrn_reflns_av_R_equivalents  0.0348
_diffrn_reflns_av_unetI/netI     0.0476
_diffrn_reflns_Laue_measured_fraction_full 0.974
_diffrn_reflns_Laue_measured_fraction_max 0.908
_diffrn_reflns_limit_h_max       6
_diffrn_reflns_limit_h_min       -3
_diffrn_reflns_limit_k_max       16
_diffrn_reflns_limit_k_min       -17
_diffrn_reflns_limit_l_max       10
_diffrn_reflns_limit_l_min       -10
_diffrn_reflns_number            2752
_diffrn_reflns_point_group_measured_fraction_full 0.974
_diffrn_reflns_point_group_measured_fraction_max 0.908
_diffrn_reflns_theta_full        25.242
_diffrn_reflns_theta_max         28.769
_diffrn_reflns_theta_min         3.210
_diffrn_standards_decay_%        .
_diffrn_standards_interval_count .
_diffrn_standards_interval_time  .
_diffrn_standards_number         0
_exptl_absorpt_coefficient_mu    11.549
_exptl_absorpt_correction_T_max  0.782
_exptl_absorpt_correction_T_min  0.453
_exptl_absorpt_correction_type   multi-scan
_exptl_absorpt_process_details   'SMART (Bruker, 2001)'
_exptl_crystal_colour            Pink
_exptl_crystal_density_diffrn    4.685
_exptl_crystal_description       tablet
_exptl_crystal_F_000             584
_exptl_crystal_size_max          0.350
_exptl_crystal_size_mid          0.250
_exptl_crystal_size_min          0.100
_refine_diff_density_max         1.450
_refine_diff_density_min         -1.467
_refine_diff_density_rms         0.321
_refine_ls_extinction_coef       0.0094(12)
_refine_ls_extinction_expression Fc^*^=kFc[1+0.001xFc^2^\l^3^/sin(2\q)]^-1/4^
_refine_ls_extinction_method     SHELXL
_refine_ls_goodness_of_fit_ref   1.043
_refine_ls_hydrogen_treatment    undef
_refine_ls_matrix_type           full
_refine_ls_number_parameters     86
_refine_ls_number_reflns         1086
_refine_ls_number_restraints     6
_refine_ls_restrained_S_all      1.042
_refine_ls_R_factor_all          0.0402
_refine_ls_R_factor_gt           0.0358
_refine_ls_shift/su_max          0.000
_refine_ls_shift/su_mean         0.000
_refine_ls_structure_factor_coef Fsqd
_refine_ls_weighting_details
;
 w=1/[\s^2^(Fo^2^)+(0.0554P)^2^+0.4673P]
 where P=(Fo^2^+2Fc^2^)/3
;
_refine_ls_weighting_scheme      calc
_refine_ls_wR_factor_gt          0.0935
_refine_ls_wR_factor_ref         0.0961
_reflns_Friedel_coverage         0.000
_reflns_Friedel_fraction_full    .
_reflns_Friedel_fraction_max     .
_reflns_number_gt                980
_reflns_number_total             1086
_reflns_threshold_expression     'I > 2\s(I)'
_cod_data_source_file            JSSC-2016-234-29.cif
_cod_data_source_block           pdtf
_cod_original_sg_symbol_H-M      'P 21/c'
_cod_database_code               1561615
_shelx_space_group_comment
;
The symmetry employed for this shelxl refinement is uniquely defined
by the following loop, which should always be used as a source of
symmetry information in preference to the above space-group names.
They are only intended as comments.
;
_shelx_estimated_absorpt_t_min   0.107
_shelx_estimated_absorpt_t_max   0.391
_shelxl_version_number           2013-2
_shelx_res_file
;
TITL mi in P2(1)/c, BaMnF2(PO4), pink
CELL 0.71073   5.1463  12.6910   7.8709  90.000 116.240  90.000
ZERR    4.00   0.0009   0.0023   0.0014   0.000   0.030   0.000
LATT  1
SYMM -X, 0.5+Y, 0.5-Z
SFAC O  F P MN BA
UNIT 16 8 4  4 4

L.S. 4
BOND
FMAP 2
PLAN 20
TEMP -73
ACTA
SIZE 0.35 0.25 0.10

WGHT    0.055400    0.467300
EXTI    0.009401
FVAR       0.15229
BA1   5    0.148702    0.203018    0.189818    11.00000    0.00791    0.00897 =
         0.00817   -0.00043    0.00441   -0.00169
MN1   4    0.000000    0.500000    0.000000    10.50000    0.00332    0.00738 =
         0.00678    0.00084    0.00268    0.00019
MN2   4    0.500000    0.500000    0.500000    10.50000    0.00244    0.00651 =
         0.00537   -0.00104    0.00105   -0.00091
P1    3    0.631312    0.390315    0.197164    11.00000    0.00281    0.00778 =
         0.00568    0.00000    0.00133   -0.00130
F1    2    0.339329    0.365811    0.447127    11.00000    0.00829    0.00957 =
         0.01034    0.00069    0.00548   -0.00056
ISOR 0.004 F2
F2    2    0.168875    0.561893    0.264071    11.00000    0.00429    0.01217 =
         0.00553    0.00026   -0.00027    0.00346
O1    1    0.724233    0.285960    0.298704    11.00000    0.00417    0.00968 =
         0.00994   -0.00194    0.00136   -0.00149
O2    1    0.788555    0.405708    0.072945    11.00000    0.00949    0.01225 =
         0.01043   -0.00395    0.00636   -0.00596
O3    1    0.690025    0.481584    0.337698    11.00000    0.00295    0.01550 =
         0.00738   -0.00011    0.00206    0.00106
O4    1    0.301272    0.386426    0.060497    11.00000    0.00588    0.00883 =
         0.00933    0.00202    0.00150   -0.00037
HKLF 4

REM  mi in P2(1)/c, BaMnF2(PO4), pink
REM R1 =  0.0358 for     980 Fo > 4sig(Fo)  and  0.0402 for all    1086 data
REM     86 parameters refined using      6 restraints

END

WGHT      0.0361      0.2941

REM Highest difference peak  1.450,  deepest hole -1.467,  1-sigma level  0.321
Q1    1   0.0965  0.2484  0.2580  11.00000  0.05    1.45
Q2    1   0.2700  0.2573  0.2714  11.00000  0.05    1.38
Q3    1   0.1557  0.2475  0.1209  11.00000  0.05    1.35
Q4    1   0.1946  0.1582  0.1280  11.00000  0.05    1.32
Q5    1   0.0879  0.1594  0.2423  11.00000  0.05    1.28
Q6    1   0.7001  0.4218  0.1302  11.00000  0.05    1.01
Q7    1   0.2664  0.5203  0.2378  11.00000  0.05    1.00
Q8    1   0.7548  0.5805  0.2257  11.00000  0.05    0.96
Q9    1   0.7362  0.3240 -0.0822  11.00000  0.05    0.94
Q10   1   0.6384  0.1861  0.1554  11.00000  0.05    0.93
Q11   1   0.1226  0.5824  0.3864  11.00000  0.05    0.92
Q12   1   0.0753  0.4661 -0.0598  11.00000  0.05    0.92
Q13   1   0.6426  0.4695  0.3916  11.00000  0.05    0.92
Q14   1   0.5820  0.2621  0.4429  11.00000  0.05    0.90
Q15   1   0.3015  0.2940  0.4972  11.00000  0.05    0.89
Q16   1   0.9430  0.4818  0.3080  11.00000  0.05    0.89
Q17   1   0.2051  0.4443  0.1423  11.00000  0.05    0.88
Q18   1   0.4137  0.6506  0.2528  11.00000  0.05    0.86
Q19   1   0.3216  0.1996  0.3800  11.00000  0.05    0.86
Q20   1   0.1219  0.3184  0.3333  11.00000  0.05    0.84
;
_shelx_res_checksum              93900
_shelx_hkl_file
;
   1   0  -1    0.30    0.47
  -2   0   2  977.03   17.65
   2   0  -2 1000.00   21.41
   3   0  -3    0.44    0.35
  -3   0   3    0.46    0.15
   4   0  -4  209.61   10.06
   5   0  -5    0.32    0.59
   5   0  -5   -0.07    0.39
   6   0  -6    1.24    0.85
   0   1   0    0.12    0.09
   1   1  -1    4.48    0.87
  -1   1   1    5.34    0.55
   1   1  -1    4.52    0.94
   1  -1  -1    3.83    0.70
  -2   1   2  333.06    7.40
   2   1  -2  336.76    8.98
   2   1  -2  342.98   10.44
   2  -1  -2  339.80   10.04
   3   1  -3   30.74    3.21
   3  -1  -3   31.81    3.15
   4   1  -4  388.55   14.61
   4  -1  -4  405.56   12.19
   4  -1  -4  412.70   14.57
   5   1  -5   15.40    3.34
   5  -1  -5   10.97    2.71
   5  -1  -5   20.81    3.25
   6   1  -6  163.10   10.52
   6  -1  -6  164.98   10.57
   0   2   0   22.46    0.67
   0   2   0   24.43    2.13
   0  -2   0   21.34    0.90
   1   2  -1   67.52    4.00
   1   2  -1   56.40    2.83
  -1   2   1   68.62    3.45
   1  -2  -1   63.80    2.53
   1  -2  -1   65.38    2.58
   2   2  -2  105.93    5.40
  -2   2   2  108.97    4.32
   2   2  -2  105.46    5.30
   2  -2  -2  108.13    4.40
   2  -2  -2  107.36    4.91
   3   2  -3  161.88    6.62
   3   2  -3  163.06    8.01
  -3   2   3  144.01    5.47
   3  -2  -3  163.03    6.49
   3  -2  -3  177.88    7.71
   4   2  -4    3.42    1.28
   4  -2  -4    2.12    0.72
   4  -2  -4    2.37    0.99
   5   2  -5  153.05    9.59
   5  -2  -5  167.64    8.05
   5  -2  -5  168.88    9.63
   6   2  -6   25.89    4.78
   6  -2  -6   22.22    3.89
   0   3   0    0.58    0.27
   0  -3   0    0.13    0.12
  -1   3   1  992.56   21.85
   1   3  -1  896.81   23.02
   1   3  -1  863.58   17.99
   1  -3  -1  927.16   17.58
   1  -3  -1  934.61   16.42
  -2   3   2   65.67    3.93
   2   3  -2   60.59    4.55
   2   3  -2   60.56    3.97
   2  -3  -2   56.57    3.18
   2  -3  -2   57.65    3.31
   3   3  -3  568.17   16.68
   3   3  -3  554.81   16.69
   3  -3  -3  588.48   14.75
   3  -3  -3  569.47   15.51
   4   3  -4   51.75    4.85
   4  -3  -4   51.91    3.98
   4  -3  -4   44.46    4.07
   5   3  -5   74.66    6.56
   5  -3  -5   83.70    5.57
   5  -3  -5   69.71    5.84
   6   3  -6   83.25    7.41
   6  -3  -6   66.54    5.30
   6  -3  -6   70.47    6.30
   0   4   0  133.43    7.50
   0   4   0  140.23    2.83
   0  -4   0  133.15    3.58
   1   4  -1   12.17    2.82
  -1   4   1   12.94    2.58
   1   4  -1   15.34    1.42
   1  -4  -1    9.05    1.04
   1  -4  -1   13.86    0.84
   2   4  -2  357.56   13.84
  -2   4   2  363.87   12.17
   2   4  -2  332.88   10.69
   2  -4  -2  337.55    9.10
   2  -4  -2  346.67    9.73
   3   4  -3   91.26    6.34
   3   4  -3   82.83    5.65
   3  -4  -3   82.63    4.79
   3  -4  -3   83.11    4.73
   4   4  -4   80.61    6.24
   4  -4  -4   78.11    5.12
   4  -4  -4   78.74    5.44
   5   4  -5  174.84   10.53
   5  -4  -5  176.70    8.89
   5  -4  -5  187.01    9.75
   6   4  -6   79.57    7.25
   6  -4  -6   87.35    7.10
   6  -4  -6   81.47    6.10
   0   5   0   -0.49    0.13
   0   5   0   -0.55    0.57
   0  -5   0   -0.61    0.21
  -1   5   1  211.82   10.29
   1   5  -1  204.77   11.06
   1   5  -1  206.86    6.16
   1  -5  -1  198.10    4.06
   1  -5  -1  176.82    6.00
   2   5  -2   11.14    2.90
  -2   5   2   13.34    2.79
   2   5  -2   11.30    2.07
   2  -5  -2   10.85    1.16
   2  -5  -2   11.67    1.93
   3   5  -3   15.98    3.37
   3   5  -3    8.03    1.93
   3  -5  -3   12.69    2.04
   3  -5  -3    8.81    1.70
   4   5  -4    0.96    0.69
   4  -5  -4    2.00    0.74
   4  -5  -4    3.86    1.30
   5   5  -5    8.63    2.19
   5  -5  -5   11.45    2.59
   5  -5  -5    6.37    1.81
   6   5  -6    9.30    2.50
   6  -5  -6    3.74    1.02
   0   6   0   73.45    1.84
   0   6   0   71.32    6.67
   0  -6   0   75.06    2.93
   1   6  -1   53.30    5.95
  -1   6   1   78.74    6.65
   1   6  -1   75.64    3.37
   1  -6  -1   73.22    3.57
  -2   6   2  163.93    9.53
   2   6  -2  175.27   10.86
   2   6  -2  164.58    6.92
   2  -6  -2  154.26    6.37
   2  -6  -2  161.35    5.09
   3   6  -3  240.38   10.25
   3   6  -3  251.99   13.09
   3  -6  -3  254.07    8.46
   3  -6  -3  246.68    9.41
   4   6  -4   49.54    4.80
   4  -6  -4   48.82    4.24
   5   6  -5  102.03    7.80
   5  -6  -5  101.80    6.76
   6   6  -6   68.33    6.85
   6  -6  -6   58.03    5.18
   0   7   0   -0.03    0.94
   0  -7   0    0.46    0.23
  -1   7   1  724.42   25.08
   1   7  -1  719.29   14.93
   1   7  -1  690.18   25.98
   1  -7  -1  727.55   16.08
   2   7  -2    4.18    1.12
  -2   7   2    2.72    1.26
   2   7  -2    5.55    2.21
   2  -7  -2    1.87    0.70
   3   7  -3  340.55   16.81
   3   7  -3  352.79   12.61
   3  -7  -3  334.52   11.56
   4   7  -4    1.81    0.85
   4  -7  -4    0.72    0.54
   5   7  -5   76.19    6.59
   5  -7  -5   71.39    5.65
   6  -7  -6   31.91    3.70
   0   8   0    3.65    2.07
  -1   8   1   16.78    4.17
   1   8  -1   21.49    1.69
   1   8  -1   19.33    4.92
   1  -8  -1   20.35    2.00
  -2   8   2   19.27    4.34
   2   8  -2   17.12    4.16
   2   8  -2   18.86    2.09
   2  -8  -2   18.66    2.20
   3   8  -3  180.71   12.63
   3   8  -3  176.33    8.62
   3  -8  -3  179.34    8.29
   4   8  -4   -0.10    0.54
   4  -8  -4    0.04    0.62
   5   8  -5  156.19   10.19
   5  -8  -5  157.10    8.94
   0   9   0    0.25    1.29
   0  -9   0    0.14    0.20
   1   9  -1   67.55    8.07
  -1   9   1   59.39    7.27
   1  -9  -1   65.38    3.58
  -2   9   2   20.16    4.60
   2   9  -2   19.81    4.96
   2   9  -2   20.88    2.22
   2  -9  -2   15.53    2.45
   3   9  -3   -1.49    1.13
   3   9  -3    3.01    1.21
   3  -9  -3    1.85    0.78
   4   9  -4  147.65    8.98
   4  -9  -4  151.11    8.51
   5   9  -5   44.60    4.90
   5  -9  -5   45.38    4.65
   0  10   0  784.85   32.45
   0 -10   0  807.78   16.74
   1  10  -1   12.15    4.02
  -1  10   1    8.05    2.83
   1 -10  -1   12.67    1.93
   2  10  -2  424.29   22.69
  -2  10   2  437.37   22.17
   2 -10  -2  435.73   13.43
   3  10  -3    7.88    2.88
   3  10  -3    6.35    1.74
   3 -10  -3    9.09    2.09
   4  10  -4  199.63   10.59
   4 -10  -4  199.17   10.14
   5  10  -5   21.17    3.69
   5 -10  -5   24.11    4.00
   0  11   0   -1.14    1.26
   0 -11   0    0.56    0.35
  -1  11   1    0.62    1.60
   1  11  -1    6.08    2.85
   1 -11  -1    5.84    1.23
   2  11  -2  171.75   14.53
  -2  11   2  180.64   14.33
   3  11  -3   37.38    7.80
   3 -11  -3   37.79    3.77
   4 -11  -4  248.69   11.54
   0  12   0  137.07   13.48
   0 -12   0  133.77    5.74
  -1  12   1   12.09    3.76
   1  12  -1   14.16    5.00
   1 -12  -1   10.05    1.80
  -2  12   2   64.13   10.83
   2  12  -2   51.96    9.72
   2 -12  -2   55.28    4.05
   3  12  -3   34.20    7.44
   3 -12  -3   32.83    3.53
   4 -12  -4    0.39    0.65
   0  13   0    0.46    1.39
   0 -13   0    0.26    0.31
  -1  13   1  304.21   21.10
   1  13  -1  286.29   20.96
   1 -13  -1  287.02    9.55
  -2  13   2   32.11    7.36
   2  13  -2   18.78    5.67
   2 -13  -2   22.47    3.19
   3  13  -3  146.93   13.82
   3 -13  -3  149.87    7.80
   0  14   0  114.21   12.86
   0 -14   0  114.97    5.62
  -1  14   1   11.29    3.85
   1  14  -1   11.31    3.93
   1 -14  -1   10.90    1.89
   2  14  -2  125.36   13.76
  -2  14   2  119.33   12.72
   2 -14  -2  124.25    6.65
   3  14  -3   44.51    9.27
   3 -14  -3   41.90    3.96
   0  15   0    2.22    2.06
   1  15  -1   19.94    6.26
  -1  15   1   15.04    4.47
   1 -15  -1   15.67    2.52
  -2  15   2    4.92    2.61
   2  15  -2   11.21    4.49
   2 -15  -2    5.78    1.35
   3  15  -3   16.24    4.92
   0  16   0   27.87    7.80
  -1  16   1   -0.40    2.09
   1  16  -1    0.50    2.13
   1 -16  -1    1.08    0.51
  -2  16   2   20.44    5.66
   1 -17  -1  185.60    9.51
   6   0  -5   -0.48    0.68
   5   0  -4  195.54   10.63
   4   0  -3    0.59    0.47
   3   0  -2  282.80   10.53
   2   0  -1    0.29    0.33
   1   0   0  104.65    2.92
   1   0   0  105.95    3.38
   0   0  -1    0.04    0.13
   0   0   1    0.40    0.23
   1   0  -2    8.36    0.67
   1   0  -2    9.47    1.03
   2   0  -3    0.02    0.19
  -2   0   3    1.11    0.39
   2   0  -3    0.73    0.28
   3   0  -4   14.58    2.65
  -3   0   4   16.65    1.48
   3   0  -4   17.65    1.75
   4   0  -5   -0.22    0.30
   4   0  -5   -0.22    0.42
   5   0  -6   67.07    6.20
   6   0  -7   -0.75    0.88
   6   1  -5   22.79    4.48
   6  -1  -5   29.85    3.22
   6  -1  -5   23.02    4.02
   5   1  -4    0.73    0.73
   5  -1  -4    1.95    1.20
   4   1  -3    8.85    2.20
   4  -1  -3   12.37    2.55
   3   1  -2   74.23    5.07
   3   1  -2   77.97    2.87
   3  -1  -2   81.74    5.14
   2   1  -1    0.63    0.33
   2   1  -1    0.88    0.39
   2  -1  -1    0.60    0.32
   1   1   0  258.62    6.97
   1   1   0  273.68    6.49
  -1   1   0  274.09    6.59
   1  -1   0  264.58    6.11
   0   1  -1    0.95    0.61
   0   1   1    3.79    0.85
   0   1  -1    1.39    0.46
   1   1  -2  262.29    8.29
  -1   1   2  277.01    7.11
   1   1  -2  264.67    7.13
   1   1  -2  265.85    5.22
   1  -1  -2  273.30    6.84
   1  -1  -2  275.28    6.10
   2   1  -3  149.84    5.97
  -2   1   3  147.09    5.06
   2   1  -3  123.49    5.87
   2  -1  -3  152.35    6.08
   2  -1  -3  146.74    4.86
   3   1  -4  252.12   10.20
  -3   1   4  242.41    7.49
   3  -1  -4  258.01   10.09
   3  -1  -4  259.53    8.02
   4   1  -5    8.25    2.18
   4   1  -5    4.67    1.08
   4  -1  -5    3.04    0.91
   4  -1  -5    4.57    1.52
   5   1  -6  113.48    8.36
   5  -1  -6  102.66    7.79
   6   1  -7    7.97    1.97
   6  -1  -7   10.36    2.59
   6   2  -5    0.45    0.76
   6  -2  -5    5.28    1.90
   6  -2  -5    1.16    0.80
   5   2  -4  127.10    8.53
   5  -2  -4  130.36    7.11
   5  -2  -4  129.43    8.20
   4   2  -3    9.52    2.34
   4  -2  -3    8.13    1.93
   3   2  -2  245.31    8.18
   3   2  -2  231.34    9.67
   3  -2  -2  238.55    9.27
   2   2  -1   12.78    1.56
   2   2  -1   14.24    2.19
   2  -2  -1   17.11    1.70
   1   2   0  206.29    7.26
  -1   2   0  208.81    6.93
   1   2   0  203.55    5.63
   1  -2   0  201.28    4.91
   0   2  -1   19.78    1.19
   0   2   1   21.19    1.86
   0  -2  -1   19.69    1.03
   0  -2   1   19.59    0.87
   1   2  -2   14.22    2.49
   1   2  -2   10.02    1.14
  -1   2   2   11.63    1.32
   1  -2  -2   12.72    1.05
   1  -2  -2   11.16    1.01
   2   2  -3  262.87    9.69
  -2   2   3  258.12    8.09
   2   2  -3  258.10    8.96
   2  -2  -3  264.98    8.32
   2  -2  -3  253.40    7.33
  -3   2   4   16.84    1.80
   3   2  -4   18.66    2.17
   3  -2  -4   17.61    1.88
   3  -2  -4   17.06    2.76
   4   2  -5   30.05    4.58
   4  -2  -5   32.77    3.04
   4  -2  -5   30.18    4.34
   5   2  -6   82.19    7.08
   5  -2  -6   77.04    6.49
   5  -2  -6   79.36    5.24
   6   2  -7   26.47    5.04
   6  -2  -7   28.19    4.91
   6   3  -5   75.19    6.84
   6  -3  -5   62.53    5.65
   6  -3  -5   60.50    5.07
   5   3  -4   14.60    3.29
   5  -3  -4   15.16    3.11
   5  -3  -4   18.68    3.16
   4   3  -3   75.45    5.94
   4  -3  -3   72.04    5.39
   4  -3  -3   73.29    4.86
   3   3  -2    5.65    1.59
   3   3  -2    7.72    1.71
   3  -3  -2    4.75    1.21
   2   3  -1  294.96    9.53
  -2   3   1  296.04    9.23
   2   3  -1  307.86   11.00
   2  -3  -1  297.86    8.46
  -1   3   0  342.41   11.19
   1   3   0  326.53    8.04
   1   3   0  326.40   11.26
   1  -3   0  339.14    6.98
   1  -3   0  339.87    8.10
   0   3  -1   42.59    1.85
   0   3   1   42.39    3.32
   0   3  -1   39.88    3.56
   0  -3   1   43.50    1.59
   0  -3  -1   41.10    1.80
   1   3  -2  515.42   11.54
   1   3  -2  425.49   14.99
  -1   3   2  515.83   13.84
   1  -3  -2  520.27   10.87
   1  -3  -2  525.60   10.28
   2   3  -3    1.56    0.66
   2   3  -3    0.85    0.47
  -2   3   3    0.88    0.53
   2  -3  -3    1.26    0.49
   2  -3  -3    0.19    0.22
   3   3  -4  208.02    9.27
  -3   3   4  200.27    8.01
   3  -3  -4  188.56    8.14
   3  -3  -4  200.50    7.50
   4   3  -5   42.49    4.56
   4  -3  -5   42.62    3.57
   4  -3  -5   39.15    3.97
   5   3  -6   25.46    4.60
   5  -3  -6   31.54    3.25
   5  -3  -6   35.71    4.15
   6   3  -7   53.84    5.96
   6  -3  -7   58.76    5.80
   6   4  -5    6.28    1.83
   6  -4  -5    5.88    1.68
   6  -4  -5   12.50    2.47
   5   4  -4   62.77    5.77
   5  -4  -4   64.71    5.40
   5  -4  -4   58.04    4.77
   4   4  -3    5.57    1.82
   4  -4  -3    6.95    1.76
   4  -4  -3    3.38    1.08
   3   4  -2   42.97    3.92
   3   4  -2   53.96    4.64
   3  -4  -2   44.05    3.44
   3  -4  -2   41.27    3.35
  -2   4   1  112.27    6.20
   2   4  -1  120.40    7.20
   2   4  -1  116.58    5.67
   2  -4  -1  114.40    4.64
   2  -4  -1  120.40    5.20
   1   4   0  132.11    7.32
  -1   4   0  129.29    7.26
   1   4   0  131.71    4.60
   1  -4   0  121.70    4.35
   1  -4   0  126.80    3.43
   0   4  -1  396.66    8.22
   0   4   1  419.53   13.97
   0   4  -1  386.46   14.58
   0  -4   1  395.53    8.11
   0  -4  -1  396.57    8.23
   1   4  -2   67.21    5.62
   1   4  -2   80.38    3.64
  -1   4   2   75.65    5.14
   1  -4  -2   77.39    2.77
   1  -4  -2   73.91    3.33
   2   4  -3  355.84   11.15
  -2   4   3  372.13   12.64
   2   4  -3  358.25   14.35
   2  -4  -3  351.09    9.82
   2  -4  -3  362.35    9.60
   3   4  -4   43.39    4.29
   3   4  -4   47.55    4.32
  -3   4   4   28.98    3.18
   3  -4  -4   37.21    3.20
   3  -4  -4   38.23    3.06
   4   4  -5  254.56   12.25
   4  -4  -5  247.95   10.79
   4  -4  -5  267.93   10.15
   5   4  -6   92.29    7.71
   5  -4  -6   84.96    6.54
   5  -4  -6   84.84    5.77
   6   4  -7   24.93    4.78
   6  -4  -7   27.91    4.62
   6   5  -5  135.83    9.38
   6  -5  -5  131.49    8.27
   5   5  -4    0.77    0.72
   5  -5  -4    1.38    0.49
   5  -5  -4   -0.12    0.56
   4   5  -3  525.12   18.25
   4  -5  -3  556.98   16.57
   4  -5  -3  535.91   16.22
   3   5  -2    2.10    1.05
   3   5  -2    2.05    1.01
   3  -5  -2    0.77    0.59
   3  -5  -2    1.44    0.59
   2   5  -1  240.58   11.67
   2   5  -1  220.99    8.41
  -2   5   1  222.27   10.40
   2  -5  -1  225.72    7.71
   2  -5  -1  237.29    7.11
   1   5   0   60.59    5.37
   1   5   0   55.65    2.92
  -1   5   0   52.27    4.98
   1  -5   0   55.02    1.98
   1  -5   0   60.16    3.03
   0   5   1  298.23    5.83
   0   5  -1  274.85   13.11
   0   5   1  275.70   12.28
   0   5  -1  293.13    6.54
   0  -5  -1  282.01    6.85
   0  -5   1  280.42    6.63
   1   5  -2   10.19    2.61
   1   5  -2    7.70    1.30
  -1   5   2   13.45    2.94
   1  -5  -2    8.41    0.75
   1  -5  -2    9.26    1.53
   2   5  -3   56.79    5.61
   2   5  -3   45.94    3.55
  -2   5   3   51.32    4.70
   2  -5  -3   49.02    3.29
   2  -5  -3   49.95    2.83
   3   5  -4   27.14    3.95
   3   5  -4   24.62    4.40
  -3   5   4   31.20    3.60
   3  -5  -4   24.83    2.56
   3  -5  -4   29.03    2.62
   4   5  -5  154.16    9.26
   4  -5  -5  155.50    7.99
   4  -5  -5  147.53    7.40
   5   5  -6    4.57    1.49
   5  -5  -6    9.65    2.11
   5  -5  -6    5.06    1.32
   6   6  -5   58.24    5.89
   6  -6  -5   58.61    5.27
   5   6  -4   36.18    5.43
   5  -6  -4   32.88    3.72
   4   6  -3    4.75    1.53
   4  -6  -3    1.92    0.84
   4  -6  -3    2.08    0.69
   3   6  -2   10.66    2.19
   3   6  -2   14.24    3.41
   3  -6  -2   14.79    2.26
   3  -6  -2   12.76    2.27
   2   6  -1  238.35    8.84
  -2   6   1  224.44   11.64
   2   6  -1  230.75   12.55
   2  -6  -1  247.01    7.05
   2  -6  -1  241.99    8.29
  -1   6   0    5.94    2.07
   1   6   0    4.93    1.80
   1   6   0    7.56    1.29
   1  -6   0    4.60    0.47
   1  -6   0    5.60    1.15
   0   6  -1  628.14   12.04
   0   6   1  605.74   21.08
   0   6   1  653.25   11.42
   0   6  -1  619.90   22.66
   0  -6  -1  607.02   12.53
  -1   6   2   13.22    3.19
   1   6  -2   12.26    1.34
   1   6  -2   13.26    3.68
   1  -6  -2   11.49    1.30
   2   6  -3  433.52   12.83
  -2   6   3  446.57   17.12
   2   6  -3  428.54   18.47
   2  -6  -3  429.68   11.91
   2  -6  -3  409.16   10.03
   3   6  -4    9.27    2.14
   3   6  -4   15.55    3.69
  -3   6   4   12.74    3.04
   3  -6  -4    8.24    1.78
   3  -6  -4   11.01    1.88
   4   6  -5  182.71   10.35
   4  -6  -5  177.86    8.48
   5   6  -6   10.19    2.46
   5  -6  -6   14.58    2.92
   6  -6  -7   10.18    1.83
   6   7  -5   89.33    7.95
   6  -7  -5   94.71    7.05
   5   7  -4    2.48    1.20
   5  -7  -4    3.23    1.20
   4   7  -3  179.53    9.82
   4  -7  -3  184.53    8.98
   3   7  -2   20.34    3.22
   3   7  -2   15.29    3.69
   3  -7  -2   16.81    2.74
   2   7  -1  168.90    7.07
  -2   7   1  196.40   11.53
   2   7  -1  177.00   11.62
   2  -7  -1  127.54    6.16
  -1   7   0   63.52    6.77
   1   7   0   68.18    3.47
   1   7   0   64.93    6.63
   1  -7   0   65.41    2.01
   1  -7   0   71.98    3.73
   0   7   1   18.34    1.03
   0   7  -1   23.77    1.37
   0   7   1   23.72    4.73
   0   7  -1   27.93    5.58
   0  -7   1   17.28    1.31
   0  -7  -1   19.55    1.69
  -1   7   2  209.78   12.10
   1   7  -2  181.25   12.55
   1   7  -2  223.62    6.83
   1  -7  -2  211.86    6.62
  -2   7   3   -0.10    0.86
   2   7  -3    1.17    0.53
   2   7  -3    2.31    1.02
   2  -7  -3   -0.05    0.41
   3   7  -4  136.09   10.33
   3   7  -4  142.48    7.90
   3  -7  -4  134.12    6.85
   4   7  -5   32.54    4.98
   4  -7  -5   31.19    3.42
   5   7  -6   15.75    3.27
   5  -7  -6   24.88    4.08
   5   8  -4   86.18    6.93
   5  -8  -4   87.52    6.56
   4   8  -3    6.67    1.81
   4  -8  -3    4.18    1.45
   3   8  -2  207.25   13.50
   3   8  -2  210.95    9.65
   3  -8  -2  222.74    9.40
   2   8  -1   51.60    3.80
  -2   8   1   55.04    6.40
  -1   8   0  179.71   12.64
   1   8   0  156.51   11.57
   1   8   0  192.92    6.18
   1  -8   0  185.12    6.53
   0   8   1   63.66    7.12
   0   8  -1   73.26    8.01
   0  -8  -1   74.07    3.67
   0  -8   1   77.04    3.16
   1   8  -2    1.36    0.54
   1   8  -2    0.73    1.00
  -1   8   2    0.54    0.94
   1  -8  -2    0.57    0.32
   2   8  -3   95.82    5.33
  -2   8   3   95.80    8.31
   2   8  -3  105.43    9.66
   2  -8  -3   93.68    5.21
   3   8  -4   62.25    5.02
   3   8  -4   56.35    6.91
   3  -8  -4   53.06    4.20
   4   8  -5   35.58    5.26
   4  -8  -5   35.70    3.60
   5   8  -6  101.35    8.06
   5  -8  -6  109.64    7.33
   5   9  -4   -0.55    0.73
   5  -9  -4    1.53    0.83
   4   9  -3    2.78    1.18
   4  -9  -3    4.21    1.30
   3   9  -2   33.57    6.36
   3   9  -2   29.38    3.23
   3  -9  -2   29.55    3.18
   2   9  -1   25.92    5.73
  -2   9   1   25.94    5.59
   2   9  -1   25.63    2.53
   2  -9  -1   26.20    2.76
  -1   9   0  106.06   10.17
   1   9   0   91.94    9.26
   0   9   1    0.45    1.03
   0   9  -1    2.11    1.89
   0  -9  -1    0.28    0.27
   0  -9   1    1.27    0.37
  -1   9   2  253.39   15.57
   1   9  -2  264.31   17.21
   1  -9  -2  266.52    8.24
   2   9  -3    7.21    1.46
   2   9  -3   11.82    4.18
  -2   9   3    7.01    2.70
   3   9  -4  163.43    8.49
   3   9  -4  168.96   12.91
   3  -9  -4  167.44    8.17
   4   9  -5    9.06    2.15
   4  -9  -5   10.50    2.28
   5   9  -6   67.99    6.49
   5  -9  -6   71.45    5.76
   5  10  -4   93.74    7.32
   5 -10  -4   91.84    6.90
   4  10  -3    2.29    0.89
   4 -10  -3    2.43    0.92
   3  10  -2   76.55    8.59
   3 -10  -2   80.98    5.71
   2  10  -1    2.58    1.78
  -2  10   1    5.70    2.38
   2 -10  -1    2.60    0.94
  -1  10   0   60.84    9.65
   1  10   0   61.31   10.02
   0  10  -1   18.86    5.64
   0  10   1   11.64    4.06
   0 -10   1   11.87    1.57
   0 -10  -1   11.80    1.80
  -1  10   2   27.49    5.90
   1  10  -2   23.80    6.02
   1 -10  -2   20.95    2.16
  -2  10   3    3.23    1.56
   2  10  -3    8.92    3.43
   2 -10  -3    5.56    1.26
   3  10  -4    3.31    1.92
   3  10  -4    2.19    0.95
   3 -10  -4    3.44    1.13
   4  10  -5   12.55    2.69
   4 -10  -5   17.95    3.36
   5  10  -6   76.53    6.90
   5 -10  -6   68.89    5.94
   4 -11  -3    5.10    1.57
   3  11  -2   32.53    6.87
   3 -11  -2   28.72    3.32
   2  11  -1    7.50    3.11
  -2  11   1    6.40    2.28
   2 -11  -1    5.63    1.41
  -1  11   0  108.91   11.41
   1  11   0  105.09   11.21
   1 -11   0  109.50    4.99
   0  11  -1    9.04    3.39
   0  11   1    4.26    2.08
   0 -11   1    4.91    0.93
   0 -11  -1    8.15    1.56
  -1  11   2  128.89   11.86
   1  11  -2  129.40   12.92
   1 -11  -2  130.01    5.88
  -2  11   3    0.57    1.19
   2  11  -3    2.11    2.10
   2 -11  -3   -0.47    0.33
   3  11  -4  148.04   13.16
   4 -11  -5    0.04    0.55
   4 -12  -3   16.74    3.22
   3  12  -2  116.37   11.73
   3 -12  -2  105.63    6.84
  -2  12   1   18.63    5.09
   2  12  -1   16.85    4.90
   2 -12  -1    8.84    1.84
   1  12   0   42.77    8.88
  -1  12   0   42.53    9.07
   1 -12   0   39.39    2.97
   0  12   1    3.42    1.97
   0  12  -1   -1.92    1.43
   0 -12   1    4.84    1.07
   0 -12  -1    1.01    0.47
  -1  12   2    5.78    2.33
   1  12  -2    6.73    3.01
   1 -12  -2    5.16    1.31
  -2  12   3   18.18    4.68
   2  12  -3   28.31    7.23
   2 -12  -3   17.87    2.89
   3  12  -4   18.59    5.21
   3 -12  -4   17.84    2.99
   4 -12  -5   11.47    2.19
   4 -13  -3   20.65    3.73
   3  13  -2    6.24    2.65
   3 -13  -2   10.27    2.41
   2  13  -1   33.26    7.86
  -2  13   1   38.93    8.51
   2 -13  -1   28.53    2.75
   1  13   0  112.44   12.72
  -1  13   0  112.01   12.36
   1 -13   0  112.27    5.42
   0  13   1    5.69    2.26
   0  13  -1    1.11    1.72
   0 -13   1    3.34    0.86
  -1  13   2   90.29   10.69
   1  13  -2   93.63   14.65
   1 -13  -2   86.92    5.23
  -2  13   3   -0.21    1.79
   2  13  -3   -1.10    1.56
   2 -13  -3    0.17    0.43
   3  13  -4   74.11   12.28
   3 -13  -4   71.92    5.29
   3  14  -2   98.82   11.69
   2  14  -1   40.73    9.01
  -2  14   1   62.04   11.15
   2 -14  -1   44.10    3.70
   1  14   0   46.61   10.02
  -1  14   0   47.46   10.55
   1 -14   0   35.64    2.90
   0  14   1  132.00   13.80
   0  14  -1  111.94   13.16
   1  14  -2   -0.69    1.85
  -1  14   2    2.14    1.65
   1 -14  -2    0.18    0.42
   2  14  -3   89.21   14.16
  -2  14   3   90.21   10.70
   2 -14  -3   91.92    5.68
   3  14  -4   20.35    4.71
   3 -14  -4   22.06    3.61
   3  15  -2   11.80    3.78
   2  15  -1   82.55   14.45
  -2  15   1   82.76   13.47
   2 -15  -1   72.72    4.89
   1  15   0    4.13    2.49
  -1  15   0    4.81    2.54
   1 -15   0    3.83    1.03
   0  15   1   41.28    9.00
   0  15  -1   40.66    8.95
  -1  15   2   44.89    9.84
   1  15  -2   40.28    9.40
   1 -15  -2   32.88    3.21
   2  15  -3    2.95    2.06
  -2  15   3    0.86    2.19
   2 -15  -3    1.86    0.63
  -2  16   1   59.92   11.34
   2 -16  -1   47.43    3.97
   1  16   0   -2.78    2.07
  -1  16   0   -0.07    2.09
   0  16   1  174.51   17.04
   0  16  -1  162.95   17.06
  -1  16   2   -0.39    2.14
   1 -16  -2    1.02    0.65
  -2  16   3  187.23   17.01
   6   0  -4  298.75   14.51
   5   0  -3   -0.27    0.45
   4   0  -2  283.95   11.68
   3   0  -1   -0.56    0.29
   2   0   0  151.09    4.81
   2   0   0  143.95    5.55
   1   0   1    0.14    0.14
   0   0   2  218.22    6.59
   1   0  -3   -0.76    0.16
   1   0  -3   -0.35    0.13
  -1   0   3    1.44    0.66
   2   0  -4  255.29    8.92
   2   0  -4  258.64    6.58
  -2   0   4  249.46    8.02
  -3   0   5    0.28    0.43
   3   0  -5   -0.31    0.42
   3   0  -5   -0.04    0.29
   4   0  -6   93.08    6.90
   5   0  -7    0.18    0.74
   6   0  -8   11.27    3.01
   6   1  -4  121.90    8.89
   6  -1  -4  119.61    8.56
   5   1  -3    0.40    0.56
   5  -1  -3   -0.04    0.52
   4   1  -2  435.08   15.05
   4  -1  -2  416.60   14.56
   3   1  -1   61.15    3.15
   3   1  -1   57.26    4.16
   3  -1  -1   45.47    3.62
   2   1   0  456.28   11.75
   2   1   0  475.01   11.69
   2  -1   0  467.78   10.07
   2  -1   0  475.91   11.48
   0   1  -2  361.36   10.83
   0   1   2  377.40    9.83
   0   1  -2  371.89    9.01
   1   1  -3  414.95   10.52
   1   1  -3  403.21   12.40
   1   1  -3  419.05    6.84
  -1   1   3  403.43   10.84
   1  -1  -3  421.21   10.38
   1  -1  -3  418.63    7.90
  -2   1   4    4.74    1.16
   2   1  -4    5.13    0.59
   2   1  -4    4.62    1.28
   2  -1  -4    4.32    1.21
   2  -1  -4    3.61    0.78
   3   1  -5  268.42   10.97
  -3   1   5  269.96    9.13
   3   1  -5  279.48    7.71
   3  -1  -5  267.34   10.61
   3  -1  -5  287.89    8.44
  -3  -1   5  276.93    8.88
   4   1  -6   16.98    3.44
   4  -1  -6   20.18    3.75
   5   1  -7  108.75    8.38
   5  -1  -7   96.28    7.60
   6   1  -8  144.84   10.83
   6  -1  -8  116.81    9.29
   6   2  -4    1.79    1.14
   6  -2  -4    3.55    1.22
   5   2  -3   77.13    6.31
   5  -2  -3   83.58    6.29
   4   2  -2   79.46    5.91
   4  -2  -2   79.74    5.69
   3   2  -1  428.66   12.26
   3   2  -1  406.49   12.89
   3  -2  -1  404.69   12.31
   2   2   0  219.59    7.38
   2   2   0  215.43    7.99
  -2   2   0  214.47    6.61
   2  -2   0  210.99    6.72
   1   2   1  489.01   13.27
  -1   2  -1  502.95   13.56
   0   2   2  583.47   14.91
   0   2  -2  569.66   16.12
   0   2  -2  597.26   12.68
   1   2  -3   27.52    2.20
  -1   2   3   28.81    2.47
   1   2  -3   24.64    2.76
   1  -2  -3   29.03    2.12
   1  -2  -3   27.39    1.54
   2   2  -4  725.94   18.09
   2   2  -4  710.72   19.77
   2   2  -4  746.79   13.21
  -2   2   4  698.98   17.68
   2  -2  -4  743.45   15.38
   2  -2  -4  741.93   17.26
  -3   2   5   57.61    4.16
   3   2  -5   56.47    4.75
   3  -2  -5   59.82    3.56
   3  -2  -5   55.38    4.38
   4   2  -6  357.68   15.10
   4  -2  -6  403.96   14.95
   4  -2  -6  395.83   12.04
   5   2  -7   48.96    5.51
   5  -2  -7   40.95    4.56
   6  -2  -8  130.04    9.60
   6   3  -4   31.06    5.19
   6  -3  -4   36.37    4.16
   6  -3  -4   31.18    3.51
   5   3  -3  173.88    9.95
   5  -3  -3  197.49   10.00
   4   3  -2   93.21    6.56
   4  -3  -2   82.62    5.71
   3   3  -1   89.58    5.42
   3   3  -1   89.45    5.45
   3  -3  -1   81.16    4.80
   2   3   0  283.08    8.97
  -2   3   0  299.72    9.69
   2   3   0  296.99   10.93
   2  -3   0  291.46    8.15
   1   3   1    1.33    0.64
  -1   3  -1    1.71    0.70
   1   3   1    1.41    0.45
   0   3   2   15.76    2.65
   0   3  -2   11.33    1.19
   0   3  -2   13.09    2.59
   1   3  -3  246.50    7.66
   1   3  -3  235.68   10.62
  -1   3   3  242.00    9.12
   1  -3  -3  238.18    6.02
   1  -3  -3  243.26    7.02
  -2   3   4    8.14    1.91
   2   3  -4    6.46    1.87
   2   3  -4    9.52    1.93
   2   3  -4    5.83    0.48
   2  -3  -4    6.33    1.28
   2  -3  -4    5.96    1.29
  -3   3   5   81.91    5.42
   3   3  -5   82.97    5.89
   3   3  -5   92.60    6.27
   3  -3  -5   87.30    4.70
   4   3  -6   28.70    4.75
   4  -3  -6   27.33    2.77
   4  -3  -6   30.25    3.48
   5   3  -7    2.28    0.97
   5  -3  -7    4.62    1.45
   6  -3  -8    2.08    1.20
   6   4  -4   61.96    6.22
   6  -4  -4   62.71    5.41
   6  -4  -4   59.69    5.61
   5   4  -3  130.49    8.51
   5  -4  -3  128.27    7.51
   5  -4  -3  144.40    8.26
   4   4  -2   47.44    4.62
   4  -4  -2   41.98    3.91
   3   4  -1  252.04   11.04
   3   4  -1  249.88    9.87
   3  -4  -1  251.49    8.94
   2   4   0  101.41    4.92
  -2   4   0   97.34    5.75
   2   4   0  101.41    6.62
   2  -4   0   93.40    4.05
   1   4   1  241.46   10.48
  -1   4  -1  257.79   10.96
   1   4   1  236.81    6.52
   0   4   2    1.37    0.73
   0   4  -2    1.98    1.01
   0   4  -2    2.39    0.61
   0  -4   2    2.22    0.44
   1   4  -3  136.58    5.49
   1   4  -3  129.17    8.30
  -1   4   3  132.21    7.12
   1  -4  -3  138.53    4.92
   1  -4  -3  133.75    4.47
   2   4  -4   45.50    4.77
   2   4  -4   49.99    3.86
  -2   4   4   57.40    4.55
   2  -4  -4   48.42    3.20
   2  -4  -4   49.52    3.12
  -3   4   5    0.36    0.65
   3   4  -5    0.00    0.50
   3   4  -5    1.02    0.63
   3  -4  -5    1.61    0.64
   3  -4  -5    1.31    0.56
   4   4  -6   10.52    2.80
   4  -4  -6   12.17    2.28
   4  -4  -6   15.12    2.88
   5   4  -7   36.91    5.84
   5  -4  -7   41.77    4.53
   6   5  -4    1.36    0.86
   6  -5  -4   -0.38    0.60
   5   5  -3    6.33    1.97
   5  -5  -3    3.97    1.23
   5  -5  -3    4.00    1.17
   4   5  -2    0.12    0.49
   4  -5  -2    0.75    0.60
   4  -5  -2   -0.10    0.44
   3   5  -1  145.77    8.82
   3  -5  -1  137.00    6.23
   3  -5  -1  138.28    6.68
  -2   5   0    5.84    1.62
   2   5   0    7.14    2.14
   2   5   0    6.55    1.45
   2  -5   0    6.02    1.12
   2  -5   0    4.84    1.18
   1   5   1  612.49   13.13
  -1   5  -1  614.41   20.37
   1   5   1  583.09   19.78
   1  -5   1  637.66   13.61
   0   5   2    0.26    0.56
   0   5  -2    0.21    0.27
   0   5  -2    1.10    0.86
   0  -5   2    1.15    0.32
   0  -5  -2    2.02    0.56
  -1   5   3  563.05   18.55
   1   5  -3  534.30   20.17
   1   5  -3  569.45   13.62
   1  -5  -3  546.30   12.10
   1  -5  -3  568.98   12.01
   2   5  -4    0.34    0.65
   2   5  -4    0.43    0.70
  -2   5   4   -0.84    0.61
   2  -5  -4    0.33    0.34
   2  -5  -4    0.56    0.46
   3   5  -5  351.41   15.71
  -3   5   5  370.85   14.85
   3   5  -5  378.88   13.91
   3  -5  -5  374.48   11.89
   3  -5  -5  356.75   11.30
   4   5  -6    0.81    0.72
   4  -5  -6   -0.06    0.49
   4  -5  -6   -0.35    0.43
   5   5  -7  272.57   14.56
   5  -5  -7  287.99   11.70
   6   6  -4   22.52    4.27
   6  -6  -4   28.60    4.43
   5   6  -3  187.33   10.91
   5  -6  -3  184.02    9.58
   4   6  -2   15.24    3.07
   4  -6  -2   16.67    2.79
   4  -6  -2   16.72    3.04
   3   6  -1  293.30   14.12
   3  -6  -1  285.83   10.49
   3  -6  -1  300.88    9.71
   2   6   0  102.52    5.29
  -2   6   0   98.57    7.35
   2   6   0  102.07    7.78
   2  -6   0  100.59    4.19
   2  -6   0   95.09    4.96
   1   6   1  188.90    6.04
  -1   6  -1  170.44   10.65
   1   6   1  185.97   10.98
   1  -6   1  174.73    5.97
   0   6   2   71.23    6.49
   0   6  -2   71.69    3.41
   0   6  -2   65.90    6.79
   0  -6   2   70.75    2.74
   0  -6  -2   74.67    3.43
  -1   6   3   12.29    3.04
   1   6  -3   12.23    1.89
   1   6  -3   13.25    3.42
   1  -6  -3   10.60    1.60
   2   6  -4   99.81    8.42
  -2   6   4  100.53    7.65
   2   6  -4   97.82    5.63
   2  -6  -4  100.97    4.69
   2  -6  -4  106.92    4.77
   3   6  -5    4.43    1.53
   3   6  -5    6.22    2.04
  -3   6   5    5.86    1.61
   3  -6  -5    5.61    1.30
   3  -6  -5    7.12    1.63
   4   6  -6    8.33    2.28
   4  -6  -6   12.50    2.45
   5   6  -7   15.38    3.46
   5  -6  -7   22.66    3.58
   6   7  -4   10.62    2.47
   6  -7  -4   11.64    2.51
   5   7  -3   71.58    6.43
   5  -7  -3   72.29    5.76
   4   7  -2   12.69    2.79
   4  -7  -2   11.60    2.53
   3   7  -1   20.21    3.23
   3   7  -1   28.93    5.32
   3  -7  -1   14.15    2.41
   2   7   0   53.52    3.73
   2   7   0   52.86    6.01
  -2   7   0   57.22    6.02
   2  -7   0   53.21    2.87
   2  -7   0   52.85    3.72
  -1   7  -1   -0.16    0.81
   1   7   1    2.13    1.49
   0   7   2   -0.07    0.81
   0   7   2    1.13    0.28
   0   7  -2    0.15    0.22
   0   7  -2    0.54    1.03
   0  -7   2    0.54    0.16
   0  -7  -2   -0.23    0.15
   1   7  -3    8.57    1.56
  -1   7   3   12.66    3.58
   1   7  -3    3.17    1.75
   2   7  -4   28.05    5.55
   2   7  -4   30.46    3.11
  -2   7   4   35.54    5.97
   2  -7  -4   30.39    2.56
  -3   7   5   62.52    6.55
   3   7  -5   88.22    6.28
   3   7  -5   95.11    8.55
   3  -7  -5   86.86    5.33
   4   7  -6    1.33    0.65
   4  -7  -6    0.13    0.48
   5   7  -7   22.45    4.22
   5  -7  -7   18.99    3.36
   5   8  -3  124.19    8.73
   5  -8  -3  122.19    7.90
   4   8  -2   29.42    4.53
   4  -8  -2   29.19    3.38
   3   8  -1  184.07    8.95
   3   8  -1  152.91   11.52
   3  -8  -1  186.87    8.51
   2   8   0  114.26    5.96
  -2   8   0  114.04    9.28
   2   8   0  111.07    9.48
  -1   8  -1  195.06   13.18
   1   8   1  166.82   11.84
   1   8   1  216.86    6.93
   1  -8   1  204.27    6.93
   0   8  -2  391.74   19.97
   0   8   2  386.39   18.76
   0  -8   2  396.37    8.52
   0  -8  -2  385.62   10.13
  -1   8   3   41.68    6.67
   1   8  -3   43.76    3.10
   1   8  -3   32.98    6.79
   1  -8  -3   41.34    2.88
  -2   8   4  329.62   17.14
   2   8  -4  321.26   18.21
   2   8  -4  323.78   11.26
   2  -8  -4  330.01   10.06
   3   8  -5   12.17    2.63
   3   8  -5   13.80    3.48
   4   8  -6  149.11    9.55
   4  -8  -6  165.00    8.52
   5   8  -7   50.16    5.46
   5  -8  -7   50.08    4.66
   5   9  -3   14.79    3.35
   5  -9  -3    9.52    2.16
   4   9  -2  155.16    9.30
   4  -9  -2  150.46    8.55
   3   9  -1   29.64    3.25
   3   9  -1   36.71    6.66
   3  -9  -1   34.54    3.49
   2   9   0  208.68   14.15
  -2   9   0  223.80   14.34
   2   9   0  206.80    8.56
   2  -9   0  220.13    8.55
   1   9   1  283.57   16.78
  -1   9  -1  282.04   17.18
   1  -9   1  295.65    8.97
   0   9   2  192.34   13.41
   0   9  -2  206.08   14.88
   0  -9  -2  204.65    7.12
   0  -9   2  202.42    5.73
  -1   9   3  438.39   20.98
   1   9  -3  423.36   22.42
   1  -9  -3  423.91   11.40
   2   9  -4    3.10    1.65
  -2   9   4    1.66    1.01
   2   9  -4    2.97    0.97
   2  -9  -4    3.31    1.00
   3   9  -5  208.28   10.16
   3   9  -5  215.93   14.84
   3  -9  -5  218.84    8.79
   4   9  -6   18.80    3.62
   5   9  -7   74.33    7.00
   5  -9  -7   69.28    5.70
   5  10  -3    1.15    0.93
   5 -10  -3    2.46    0.84
   4  10  -2  149.39    8.89
   4 -10  -2  139.17    8.22
   3  10  -1   52.77    9.19
   3 -10  -1   58.56    4.72
   2  10   0    4.04    2.05
  -2  10   0    0.44    1.12
   2 -10   0    1.89    0.77
   1  10   1   17.06    4.94
  -1  10  -1   15.16    4.31
   1 -10   1   18.14    1.93
   0  10  -2   42.46    8.15
   0  10   2   43.60    7.78
   0 -10   2   44.73    2.50
  -1  10   3    3.73    1.83
   1  10  -3   -0.81    0.96
   1 -10  -3    2.65    0.83
  -2  10   4  160.06   12.47
   2  10  -4  173.37   14.30
   2 -10  -4  161.34    7.15
   3  10  -5    5.26    2.24
   3  10  -5    4.17    1.01
   3 -10  -5    5.84    1.64
   4  10  -6   65.15    6.00
   4 -10  -6   64.45    4.91
   4 -11  -2  327.39   13.69
   3  11  -1   47.68    8.84
   3 -11  -1   42.33    4.00
  -2  11   0  356.88   20.77
   2  11   0  351.63   21.06
   2 -11   0  354.78   12.02
   1  11   1   68.82    8.58
  -1  11  -1   74.30   11.66
   0  11  -2  145.02   13.59
   0  11   2  146.67   13.02
   1  11  -3   31.62    7.64
  -1  11   3   38.36    7.63
   1 -11  -3   43.80    3.51
   2  11  -4    2.67    1.47
  -2  11   4    1.58    1.34
   2 -11  -4    0.49    0.45
   3  11  -5   72.59    8.57
   3 -11  -5   65.70    4.81
   4 -11  -6   21.69    3.54
   4 -12  -2   10.56    2.42
   3  12  -1   60.99   10.41
   3 -12  -1   52.21    4.58
  -2  12   0  108.96   11.27
   2  12   0  117.48   12.25
   2 -12   0  109.59    6.21
   1  12   1   37.59    8.12
  -1  12  -1   36.48    8.56
   1 -12   1   34.77    2.68
   0  12  -2  268.11   19.74
   0  12   2  242.54   17.77
   1  12  -3   24.38    6.81
  -1  12   3   17.91    4.70
   1 -12  -3   17.02    2.64
  -2  12   4  320.96   20.53
   2  12  -4  368.34   23.44
   2 -12  -4  361.83   11.96
   3  12  -5    2.63    1.65
   4 -13  -2   61.15    5.54
   3  13  -1   25.14    6.55
   3 -13  -1   26.11    3.97
   2  13   0   39.12    8.40
  -2  13   0   50.61    9.33
   2 -13   0   44.23    3.82
   1  13   1    0.31    1.44
  -1  13  -1    0.71    1.82
   1 -13   1   -0.60    0.35
   0  13   2   30.60    7.69
   0  13  -2   29.72    7.27
   1  13  -3   35.94    8.32
  -1  13   3   41.87    8.51
   1 -13  -3   35.88    3.30
  -2  13   4   27.82    6.76
   2  13  -4   16.53    5.23
   2 -13  -4   19.66    2.98
   3  13  -5   26.97    6.52
   3 -13  -5   30.25    3.20
   3  14  -1  157.06   15.09
   3 -14  -1  159.72    8.89
  -2  14   0    5.90    2.36
   2  14   0   12.52    4.81
   2 -14   0    7.79    1.52
  -1  14  -1  100.99   11.99
   1  14   1   87.90   14.47
   0  14   2    2.24    1.66
   0  14  -2    0.77    1.93
   1  14  -3   46.72   10.20
  -1  14   3   30.54    7.04
   1 -14  -3   38.64    3.54
   2  14  -4    2.95    2.32
  -2  14   4    0.42    2.11
   2 -14  -4    7.26    1.68
   3  14  -5    6.67    2.09
   3  15  -1   29.91    7.49
  -2  15   0    5.94    2.61
   2  15   0   11.11    5.00
   2 -15   0    5.53    1.24
   1  15   1   87.72   15.32
  -1  15  -1   88.89   14.67
   0  15  -2    2.35    1.94
   0  15   2    3.90    1.87
  -1  15   3  188.40   17.29
   1  15  -3  224.31   20.07
   1 -15  -3  192.35    8.91
  -2  15   4    2.76    2.04
  -2  16   0   16.53    4.60
  -1  16  -1   66.26   12.22
   6   0  -3    0.40    0.77
   5   0  -2   76.70    6.29
   4   0  -1    0.84    0.75
   3   0   0  154.31    5.77
   3   0   0  154.99    7.07
   2   0   1   -0.01    0.36
   2   0   1   -0.46    0.27
   1   0   2  540.86   13.66
   0   0   3    0.02    0.28
   1   0  -4  385.11   11.13
  -1   0   4  380.78   11.36
   2   0  -5    0.16    0.24
   2   0  -5    1.16    0.72
  -2   0   5   -0.02    0.22
  -3   0   6   36.84    3.25
   3   0  -6   44.12    4.16
   4   0  -7   -0.40    0.49
   5   0  -8    0.18    0.65
   6   1  -3    4.91    1.56
   6  -1  -3    3.40    1.27
   5   1  -2   47.13    4.85
   5  -1  -2   48.36    4.88
   4   1  -1    4.68    1.43
   4  -1  -1    3.03    1.20
   3   1   0   51.12    3.94
   3   1   0   52.17    3.43
   3  -1   0   51.27    2.79
   3  -1   0   53.27    3.93
   2   1   1    6.07    1.35
   2   1   1    2.49    0.81
   2  -1   1    2.39    0.72
   2  -1   1    3.85    0.92
   1   1   2   17.83    1.93
   1  -1   2   16.81    1.73
   1   1  -4  104.34    5.27
  -1   1   4  111.90    5.51
   1  -1  -4  102.86    5.11
   2   1  -5   12.31    2.30
   2   1  -5   10.25    0.75
  -2   1   5    8.86    1.79
   2  -1  -5   11.82    1.07
  -2  -1   5   10.30    1.84
   2  -1  -5    8.26    1.85
   3   1  -6  243.15   10.78
  -3  -1   6  236.18    9.15
   3  -1  -6  239.74   10.30
   4   1  -7    2.72    0.94
   4  -1  -7    4.99    1.60
   5   1  -8  191.33   11.98
   5  -1  -8  206.21   12.03
   6   2  -3   27.38    4.87
   6  -2  -3   34.88    5.20
   5   2  -2   55.38    5.31
   5  -2  -2   48.00    4.80
   4   2  -1    2.48    1.03
   4  -2  -1    4.59    1.55
   3   2   0  256.74    9.66
   3  -2   0  239.31    9.03
   2   2   1    5.93    1.48
   2   2   1    8.46    1.55
   2  -2   1    4.17    1.03
   1   2   2  409.21   12.75
  -1   2  -2  410.87   13.15
   0   2  -3  174.99    8.41
   0   2   3  177.20    7.47
   1   2  -4  304.91    9.86
   1   2  -4  313.86   12.23
  -1   2   4  297.88   10.42
   1  -2  -4  304.91    9.53
   1  -2  -4  290.33    7.02
   2   2  -5    0.54    0.74
  -2   2   5    2.15    0.88
   2  -2  -5    3.24    0.80
   2  -2  -5    2.59    0.83
  -2  -2   5    4.60    1.20
  -3   2   6   85.56    5.60
   3   2  -6   81.78    6.03
   3  -2  -6   83.10    5.70
   4   2  -7   29.07    4.82
   4  -2  -7   36.54    4.11
   5   2  -8    6.06    2.13
   5  -2  -8    6.09    1.59
   6   3  -3    6.14    1.82
   6  -3  -3    7.90    1.78
   5   3  -2  167.72    9.95
   5  -3  -2  175.08    9.54
   4   3  -1  174.17    8.89
   4  -3  -1  165.26    8.30
   3   3   0   60.69    4.74
   3  -3   0   54.97    3.90
   2   3   1  300.86    9.22
   2   3   1  293.08   11.30
  -2   3  -1  291.18   10.43
   2  -3   1  317.21    8.87
   1   3   2   49.87    4.21
  -1   3  -2   54.68    4.52
   0   3   3  144.02    7.37
   0   3  -3  147.24    8.28
   1   3  -4  181.48    9.48
  -1   3   4  176.67    8.39
   1   3  -4  169.96    7.12
   1  -3  -4  174.71    5.35
   1  -3  -4  175.12    6.74
   2   3  -5   55.56    5.12
  -2   3   5   54.61    4.49
   2   3  -5   51.72    4.15
   2  -3  -5   49.13    3.79
   2  -3  -5   57.07    2.96
  -3   3   6  193.43    9.44
   3   3  -6  190.77    9.72
   3  -3  -6  185.84    8.77
   4   3  -7   14.16    3.20
   4  -3  -7   10.52    2.38
   5   3  -8   65.60    6.82
   5  -3  -8   71.94    6.22
   6   4  -3  104.89    8.10
   6  -4  -3   98.23    7.07
   6  -4  -3  111.66    7.80
   5   4  -2    9.98    2.59
   5  -4  -2    8.44    2.28
   4   4  -1  127.05    7.60
   4  -4  -1  108.86    6.50
   3   4   0  134.69    8.02
   3   4   0  119.60    6.49
   3  -4   0  119.08    5.89
   2   4   1    5.07    1.23
  -2   4  -1   11.50    2.34
   2   4   1    8.65    2.29
   2  -4   1    4.22    0.95
  -1   4  -2  261.68   11.72
   1   4   2  240.65   10.80
   0   4  -3   13.63    3.25
   0   4   3   16.73    3.09
   0   4  -3   11.28    1.86
  -1   4   4   88.11    6.16
   1   4  -4   84.48    4.86
   1   4  -4   88.93    7.07
   1  -4  -4   81.89    4.31
   1  -4  -4   88.69    3.86
   2   4  -5  291.97   10.94
   2   4  -5  295.89   13.61
  -2   4   5  293.00   12.28
   2  -4  -5  299.77   10.18
   2  -4  -5  293.84    8.22
   3   4  -6    0.54    0.62
   3   4  -6    1.38    0.76
  -3   4   6    3.71    1.45
   3  -4  -6    0.71    0.36
   3  -4  -6    1.02    0.67
   4   4  -7  229.98   12.43
   4  -4  -7  234.36   11.04
   5   4  -8    5.55    1.68
   5  -4  -8    8.61    2.07
   6   5  -3   39.08    6.03
   6  -5  -3   27.34    4.39
   5   5  -2    1.97    0.98
   5  -5  -2    1.64    0.94
   5  -5  -2    2.47    0.81
   4   5  -1  123.77    7.73
   4  -5  -1  128.82    6.97
   3   5   0   14.25    3.11
   3   5   0    8.28    1.83
   3  -5   0    9.29    1.73
  -2   5  -1  672.74   21.01
   2   5   1  680.14   22.40
   2   5   1  687.83   16.63
   2  -5   1  713.94   15.36
   1   5   2    1.30    1.17
  -1   5  -2    0.28    0.98
   0   5  -3  622.50   21.97
   0   5   3  622.56   20.31
   0  -5   3  631.15   12.11
   1   5  -4    4.39    1.18
   1   5  -4    3.94    1.53
  -1   5   4    3.39    1.50
   1  -5  -4    6.94    1.28
   2   5  -5  164.23    7.89
   2   5  -5  162.58   10.57
  -2   5   5  161.13    9.26
   2  -5  -5  162.30    7.00
   2  -5  -5  143.49    5.71
   3   5  -6    8.01    2.31
  -3   5   6   11.10    2.61
   3   5  -6    8.87    2.25
   3  -5  -6    8.77    1.92
   3  -5  -6    7.92    1.53
   4   5  -7    1.57    0.92
   4  -5  -7    3.71    0.86
   5   5  -8    5.22    1.93
   6   6  -3  135.12    9.79
   6  -6  -3  141.96    8.80
   5   6  -2    4.59    1.37
   5  -6  -2    3.18    0.93
   4   6  -1  181.61    9.62
   4  -6  -1  173.55    8.62
   4  -6  -1  166.52    8.06
   3   6   0    3.34    1.04
   3   6   0    2.76    1.28
   3  -6   0    3.01    1.05
   3  -6   0    3.53    0.99
  -2   6  -1   18.70    3.64
   2   6   1   18.90    4.21
   2   6   1   18.76    2.07
   2  -6   1   19.60    1.79
   2  -6   1   18.39    2.06
  -1   6  -2   71.98    6.76
   1   6   2   66.55    6.46
   1   6   2   67.38    3.41
   1  -6   2   63.74    3.35
   0   6  -3   45.93    5.64
   0   6   3   44.86    5.24
   0  -6   3   41.93    1.98
   1   6  -4   32.56    2.97
   1   6  -4   30.28    5.37
  -1   6   4   25.38    4.76
   2   6  -5  465.74   20.44
  -2   6   5  492.12   19.12
   2   6  -5  495.77   15.27
   2  -6  -5  489.95   12.44
   2  -6  -5  504.71   13.85
   3   6  -6    3.54    1.32
   3   6  -6    2.55    1.54
  -3   6   6    3.68    1.68
   3  -6  -6    2.37    0.77
   3  -6  -6    3.36    1.00
   4   6  -7  245.62   12.97
   4  -6  -7  258.44    9.66
   5   6  -8    3.05    1.48
   6   7  -3   10.17    2.90
   5   7  -2   50.35    5.07
   5  -7  -2   50.38    4.71
   4   7  -1   85.58    6.42
   4  -7  -1   83.56    5.93
   3   7   0   29.87    3.17
   3   7   0   23.92    4.56
   3  -7   0   31.95    3.22
   2   7   1  198.83    7.81
  -2   7  -1  177.45   11.14
   2  -7   1  193.55    6.32
   1   7   2    5.61    2.36
  -1   7  -2    3.78    1.64
   1   7   2    2.51    0.78
   1  -7   2    3.80    0.93
   0   7   3  304.69   15.67
   0   7  -3  316.16   16.78
   0  -7   3  291.57    7.15
   1   7  -4   92.87    5.19
   1   7  -4   81.99    8.35
  -1   7   4   96.37    8.23
   1  -7  -4   88.05    4.56
   2   7  -5  215.96    9.45
   2   7  -5  193.83   13.21
  -2   7   5  219.64   12.90
   2  -7  -5  207.55    7.64
   3   7  -6  136.37   10.58
   3   7  -6  132.59    8.08
  -3   7   6  143.50   10.41
   3  -7  -6  133.96    6.43
   4   7  -7    3.46    1.44
   4  -7  -7    7.33    1.55
   5   7  -8   28.37    5.27
   5   8  -2   49.60    5.08
   5  -8  -2   43.44    4.39
   4   8  -1   13.82    2.95
   4  -8  -1   10.92    2.52
   3   8   0  322.21   12.22
   3   8   0  285.28   16.12
   3  -8   0  325.74   11.71
  -2   8  -1   15.11    3.67
   2   8   1   13.30    2.28
   2   8   1   14.55    4.09
   2  -8   1    8.68    1.71
   1   8   2  239.34    7.63
   1   8   2  211.68   14.11
  -1   8  -2  222.39   14.42
   1  -8   2  242.32    7.57
   0   8  -3   26.96    5.96
   0   8   3   12.38    3.76
   1   8  -4   88.16    5.15
   1   8  -4   88.48    9.10
  -1   8   4   87.07    8.49
   1  -8  -4   85.56    4.68
  -2   8   5   15.67    3.97
   2   8  -5   22.92    5.30
   2   8  -5   25.92    3.00
   2  -8  -5   21.59    2.87
   3   8  -6    2.13    1.09
   3   8  -6    3.03    1.75
   3  -8  -6    3.54    0.96
   4   8  -7  104.28    8.01
   4  -8  -7  122.70    6.69
   5   9  -2   69.32    6.38
   5  -9  -2   76.48    6.24
   4   9  -1   22.24    3.95
   4  -9  -1   24.89    3.96
   3   9   0   29.70    3.34
   3   9   0   28.80    5.99
   3  -9   0   26.52    3.05
  -2   9  -1   27.29    5.64
   2   9   1   14.18    4.07
   2   9   1   20.30    2.90
   2  -9   1   16.25    2.51
   1   9   2   22.35    5.38
  -1   9  -2   25.65    5.81
   1  -9   2   24.79    2.16
   0   9   3   35.37    6.79
   0   9  -3   30.75    6.70
   1   9  -4   69.28    4.55
  -1   9   4   66.74    7.83
   1   9  -4   72.11    8.58
   1  -9  -4   69.76    4.33
   2   9  -5    8.03    2.99
   2   9  -5    5.42    1.52
  -2   9   5    5.92    2.01
   2  -9  -5    5.83    1.48
   3   9  -6  115.64   10.57
   3   9  -6   98.56    7.08
   3  -9  -6  109.73    6.08
   4   9  -7    3.04    1.23
   4  -9  -7    3.27    0.99
   5  10  -2   56.67    5.70
   5 -10  -2   43.16    4.61
   4  10  -1   -1.11    0.65
   4 -10  -1    1.89    0.94
   3  10   0  108.96   10.57
   3 -10   0  119.96    7.02
  -2  10  -1    7.93    2.74
   2 -10   1    8.30    1.76
   1  10   2  143.11   12.42
  -1  10  -2  174.21   14.12
   1 -10   2  158.50    6.26
   0  10   3    0.38    1.09
   0  10  -3    3.18    2.12
   1  10  -4  134.25   12.66
  -1  10   4  123.02   11.52
   1 -10  -4  132.59    6.37
  -2  10   5    0.06    1.45
   2  10  -5   -1.15    1.20
   2 -10  -5    1.05    0.44
   3  10  -6   37.39    4.00
   3  10  -6   42.01    7.87
   3 -10  -6   38.46    3.48
   4  10  -7    3.03    1.10
   4 -10  -7    2.36    0.79
   4 -11  -1    4.30    1.28
   3  11   0   15.24    4.12
   3 -11   0   10.58    2.11
  -2  11  -1    0.10    1.68
   2  11   1    1.53    1.14
   2 -11   1    0.16    0.50
  -1  11  -2    4.09    2.31
   1  11   2    2.34    2.20
   0  11   3    0.70    1.26
   0  11  -3    2.35    1.83
  -1  11   4   61.55   10.18
   1  11  -4   81.77   12.89
   1 -11  -4   77.62    4.91
   2  11  -5    5.06    2.34
  -2  11   5    2.57    1.51
   2 -11  -5    2.62    0.99
   3  11  -6   81.89    9.44
   3 -11  -6   85.01    5.62
   4 -11  -7    1.35    0.65
   4 -12  -1   11.46    2.54
   3  12   0   77.07    9.30
   3 -12   0   67.21    5.36
  -2  12  -1    7.61    3.23
   2  12   1    9.26    3.34
   2 -12   1    7.82    1.81
   1  12   2  157.67   14.46
  -1  12  -2  174.23   15.49
   0  12   3   -0.28    1.33
   0  12  -3    1.35    1.74
   1  12  -4   85.34   13.56
  -1  12   4   92.09   10.33
   1 -12  -4   91.83    5.57
  -2  12   5    0.98    1.67
   2  12  -5    0.03    1.48
   2 -12  -5    4.48    1.31
   3  12  -6   45.52    8.62
   3 -12  -6   43.51    3.83
   4 -13  -1   37.27    4.16
   3  13   0   21.30    5.69
   3 -13   0   17.63    3.05
   2  13   1   31.38    7.17
  -2  13  -1   33.51    7.45
   2 -13   1   33.43    3.16
  -1  13  -2    1.92    1.66
   1  13   2    2.03    1.53
   0  13  -3   29.41    7.51
   0  13   3   38.72    8.70
  -1  13   4   33.70    7.38
   1  13  -4   33.34    8.35
   1 -13  -4   31.38    3.14
   2  13  -5   13.42    4.27
  -2  13   5   11.87    3.11
   2 -13  -5   16.28    2.79
   3  13  -6  122.76   12.71
   3  14   0   53.74   10.22
   3 -14   0   62.14    5.18
  -2  14  -1   -0.04    1.93
   2  14   1    3.49    2.03
   1  14   2  102.52   12.10
  -1  14  -2   97.09   11.93
   0  14   3   23.61    6.20
   0  14  -3   21.87    6.11
  -1  14   4   81.06    9.94
   1  14  -4   81.30   14.65
   2  14  -5   46.50    9.93
  -2  14   5   47.64    9.42
   2 -14  -5   40.04    3.88
   3 -15   0   18.72    3.20
   2  15   1  180.04   17.68
  -2  15  -1  186.14   16.68
  -1  15  -2   -2.09    2.05
   1  15   2    1.00    1.61
   0  15  -3  106.59   12.97
   0  15   3   96.80   12.06
  -1  15   4   15.08    4.26
   6   0  -2  146.82   10.03
   5   0  -1    0.10    0.60
   4   0   0  108.07    6.82
   3   0   1    0.69    0.49
   3   0   1    0.65    0.54
   2   0   2    0.11    0.34
   1   0   3    0.00    0.31
   0   0   4  214.57    8.43
  -1   0   5    0.07    0.32
   1   0  -5    0.09    0.34
  -2   0   6  520.21   15.83
   2   0  -6  536.68   16.57
   3   0  -7    0.21    0.42
  -3   0   7    0.24    0.47
   4   0  -8  378.08   16.28
   5   0  -9   -0.86    0.89
   6   1  -2    1.28    0.94
   6  -1  -2    0.08    0.75
   5   1  -1  147.08    8.98
   5  -1  -1  139.11    8.60
   4   1   0   58.05    4.90
   4  -1   0   50.26    4.48
   3   1   1  152.29    7.10
   3   1   1  142.18    6.95
   3  -1   1  143.23    6.06
   3  -1   1  139.11    6.84
   2   1   2  535.44   15.37
   2  -1   2  522.89   14.36
   1   1   3  168.57    7.72
   1  -1   3  170.97    7.45
   0   1   4  447.61   13.93
   0  -1   4  441.71   13.40
   1   1  -5   93.26    5.63
  -1   1   5   88.53    5.58
   1  -1  -5   90.26    5.46
  -1  -1   5   92.31    5.49
  -2   1   6  315.26   11.67
   2   1  -6  301.52   11.97
   2  -1  -6  314.68   11.92
  -2  -1   6  312.04   11.53
   2  -1  -6  313.23    7.79
   3   1  -7   -0.64    0.55
  -3   1   7    0.60    0.66
  -3  -1   7    0.56    0.41
   3  -1  -7    0.84    0.52
   4   1  -8   19.47    3.88
   4  -1  -8   14.24    3.04
   5   1  -9    1.45    1.58
   5  -1  -9    4.50    1.48
   6   2  -2  171.96   10.96
   6  -2  -2  165.05   10.39
   5   2  -1   15.75    3.25
   5  -2  -1   21.93    3.83
   4   2   0  315.41   12.52
   4  -2   0  293.00   11.82
   3   2   1  177.82    7.90
   3   2   1  182.45    8.39
   3  -2   1  173.25    7.66
   3  -2   1  168.70    6.61
   2   2   2  318.59   11.87
   2  -2   2  334.07   10.51
  -1   2   5   88.50    5.70
   1   2  -5   69.17    4.94
   1  -2  -5   92.97    5.38
   2   2  -6    0.51    0.55
  -2   2   6    3.38    1.33
   2  -2  -6    3.70    0.79
   2  -2  -6    0.03    0.39
  -2  -2   6    1.48    0.70
   3   2  -7   62.70    5.63
  -3   2   7   60.14    4.97
  -3  -2   7   59.61    4.70
   3  -2  -7   57.28    5.10
   4   2  -8   19.15    4.00
   4  -2  -8   12.35    2.85
   5   2  -9   -0.69    0.92
   5  -2  -9   -1.37    0.85
   6   3  -2    6.49    1.99
   6  -3  -2    5.52    1.52
   5   3  -1   26.28    4.40
   5  -3  -1   27.92    4.34
   4   3   0   97.67    6.64
   4  -3   0  100.12    6.40
   3   3   1    4.64    1.42
   3   3   1    6.25    1.72
   3  -3   1    5.64    1.47
   1   3   3   84.05    5.98
  -1   3  -3   86.15    6.32
   0   3  -4  107.71    7.48
   0   3   4  100.92    6.70
   1   3  -5  182.66   10.54
  -1   3   5  179.24    9.29
   1   3  -5  181.05    8.40
   1  -3  -5  220.52    8.53
   2   3  -6    2.68    1.09
  -2   3   6    5.10    1.68
   2  -3  -6    4.19    0.90
   2  -3  -6    6.15    1.62
   3   3  -7  235.02   11.63
  -3   3   7  254.16   11.78
   3  -3  -7  246.17   11.25
   4   3  -8   33.82    5.38
   4  -3  -8   42.62    4.60
   5   3  -9  177.58   12.07
   5  -3  -9  177.76   11.16
   6   4  -2    5.41    1.98
   6  -4  -2    5.60    1.39
   5   4  -1   34.88    5.36
   5  -4  -1   33.33    3.82
   4   4   0   31.22    3.58
   4  -4   0   34.50    3.45
   3   4   1   93.05    5.77
   3   4   1   95.95    7.06
   3  -4   1   94.18    5.36
   2   4   2  170.84    9.39
  -2   4  -2  173.29    8.95
   2   4   2  154.94    6.53
   1   4   3  238.96   11.47
  -1   4  -3  223.01   11.26
   0   4   4   54.33    5.03
   0   4  -4   58.02    5.66
   1   4  -5  253.59   13.11
   1   4  -5  253.73   10.21
  -1   4   5  268.78   12.12
   2   4  -6   10.72    2.54
  -2   4   6   11.18    2.78
   2   4  -6   12.99    3.27
   2  -4  -6   10.94    2.21
   2  -4  -6    7.52    1.54
   3   4  -7   96.97    7.21
  -3   4   7  106.14    7.62
   3  -4  -7   90.33    6.42
   3  -4  -7   92.69    4.63
   4   4  -8   68.71    6.52
   4  -4  -8   72.97    6.25
   5  -4  -9   13.94    3.02
   6   5  -2    2.03    0.92
   6  -5  -2    0.11    0.63
   5   5  -1  265.64   13.03
   5  -5  -1  250.01   11.71
   4   5   0    2.71    0.93
   4  -5   0    1.63    0.83
   3   5   1  199.04    8.91
   3   5   1  203.40   11.48
   3  -5   1  198.39    8.10
   2   5   2   10.46    1.83
   2   5   2    9.83    2.78
  -2   5  -2   11.94    2.72
   0   5   4    5.47    2.11
   0   5  -4    6.47    2.27
  -1   5   5   27.59    4.80
   1   5  -5   24.45    4.75
   1   5  -5   17.36    2.84
   2   5  -6    6.99    2.27
   2   5  -6    6.12    1.67
  -2   5   6    6.23    2.13
   2  -5  -6    5.14    1.18
   2  -5  -6    3.07    1.02
  -3   5   7    3.07    1.16
   3   5  -7    2.90    1.03
   3   5  -7    2.13    1.15
   3  -5  -7    2.52    0.76
   3  -5  -7    1.14    0.67
   4   5  -8    5.38    1.84
   4  -5  -8    6.05    1.67
   6   6  -2   18.50    3.92
   5   6  -1   30.91    4.75
   5  -6  -1   29.02    4.55
   4   6   0   28.33    4.20
   4  -6   0   32.16    3.34
   3   6   1  160.11    7.97
   3   6   1  166.21   11.15
   3  -6   1  175.61    7.42
  -2   6  -2   61.06    5.86
   2   6   2   48.42    5.76
  -1   6  -3  219.08   12.68
   1   6   3  211.23   12.39
   1  -6   3  209.51    6.94
   0   6  -4   35.55    6.17
  -1   6   5  158.52   10.33
   1   6  -5  154.10   11.20
   1   6  -5  167.05    8.10
  -2   6   6   40.67    5.04
   2   6  -6   31.80    5.82
   2   6  -6   34.61    3.77
   2  -6  -6   36.25    2.95
   3   6  -7   63.61    5.80
   3   6  -7   55.96    6.40
  -3   6   7   65.58    6.60
   3  -6  -7   66.90    4.23
   4   6  -8   70.09    6.74
   5   7  -1   23.38    4.23
   5  -7  -1   16.02    3.26
   4   7   0   38.91    4.13
   4  -7   0   41.79    4.05
   3   7   1   11.65    3.18
   3   7   1    9.70    2.01
   3  -7   1    9.09    1.77
   3  -7   1    9.67    2.12
  -2   7  -2   -0.01    0.74
   2   7   2    0.44    0.89
   2   7   2    1.63    0.49
   2  -7   2   -0.04    0.29
   1   7   3    2.99    1.46
  -1   7  -3    2.48    1.50
   1  -7   3    3.24    0.84
   0   7   4   38.11    6.43
   0   7  -4   40.63    7.08
   1   7  -5  196.44   13.58
   1   7  -5  199.08    9.00
  -1   7   5  197.88   12.57
   2   7  -6   18.50    4.63
   2   7  -6   22.13    3.67
  -2   7   6   17.44    4.18
   2  -7  -6   18.36    2.66
   3   7  -7  196.96   10.94
   3   7  -7  218.32   13.71
  -3   7   7  205.94   13.23
   3  -7  -7  220.34    8.52
   4   7  -8   36.14    5.86
   5   8  -1    1.87    1.22
   5  -8  -1    2.20    0.83
   4   8   0  128.88    8.19
   4  -8   0  127.67    7.59
   3   8   1   80.69    5.72
   3   8   1   91.04    8.80
   3  -8   1   82.98    5.48
   2   8   2   67.65    7.74
  -2   8  -2   64.45    6.84
   2  -8   2   68.61    4.37
   1   8   3  252.14    8.13
  -1   8  -3  239.53   15.00
   1   8   3  238.72   15.35
   1  -8   3  242.65    7.79
   0   8  -4   23.65    5.62
   0   8   4   28.00    6.11
   1   8  -5  134.75    7.32
   1   8  -5  168.49   13.00
  -1   8   5  135.55   10.94
  -2   8   6   13.14    3.63
   2   8  -6   14.13    2.86
   2   8  -6   11.56    3.45
   2  -8  -6   13.91    2.35
   3   8  -7   34.92    6.32
   3   8  -7   32.80    5.11
   3  -8  -7   32.75    3.11
   4   8  -8    3.82    1.22
   4  -8  -8    1.97    0.84
   5   9  -1  188.83   11.25
   5  -9  -1  196.61   10.57
   4   9   0   38.57    4.33
   4  -9   0   46.17    4.28
   3   9   1  165.36   12.64
   3   9   1  169.87    8.72
   3  -9   1  169.97    8.32
  -2   9  -2  185.73   12.80
   2   9   2  150.60   12.62
   2  -9   2  173.01    7.51
  -1   9  -3   41.03    7.92
   1   9   3   27.10    6.11
   0   9  -4  163.61   13.32
   0   9   4  180.41   13.84
   1   9  -5    4.54    1.42
   1   9  -5    8.63    3.56
  -1   9   5    6.32    2.53
  -2   9   6  128.63   11.37
   2   9  -6  124.40    7.70
   2   9  -6  123.87   11.47
   2  -9  -6  131.95    6.71
   3   9  -7    7.72    2.70
   3   9  -7    3.65    1.38
   3  -9  -7    5.74    1.36
   4   9  -8   25.34    4.99
   4  -9  -8   35.48    3.39
   5  10  -1    2.99    0.92
   5 -10  -1    3.79    1.38
   4 -10   0   32.47    3.58
   3  10   1    2.35    1.97
   3 -10   1    6.75    1.62
  -2  10  -2    1.02    1.23
   2  10   2    0.13    1.15
   2 -10   2    1.33    0.53
   1  10   3    5.17    2.77
  -1  10  -3    4.78    1.82
   0  10  -4   34.17    7.36
   0  10   4   33.22    7.15
  -1  10   5   10.21    3.50
   1  10  -5   16.24    4.73
   2  10  -6  237.48   17.14
  -2  10   6  217.88   15.85
   2 -10  -6  239.98    9.70
   3  10  -7   12.83    3.01
   3  10  -7    9.39    4.10
   3 -10  -7   11.20    2.16
   4  10  -8  239.14   13.75
   4 -10  -8  271.71   11.20
   4 -11   0   60.81    5.24
   3  11   1   42.54    8.17
   3 -11   1   54.22    4.52
   2  11   2  271.38   18.51
  -2  11  -2  289.69   18.38
   2 -11   2  280.40   10.32
  -1  11  -3   58.50   10.32
   1  11   3   44.66    9.06
   0  11  -4  207.41   16.70
   0  11   4  230.75   17.30
  -1  11   5   13.05    4.11
   1  11  -5   10.45    3.97
   2  11  -6  172.89   14.83
  -2  11   6  165.44   14.45
   2 -11  -6  170.48    8.30
   3  11  -7   14.35    4.59
   3 -11  -7    8.61    1.90
   4 -12   0  223.19   11.09
   3  12   1   20.84    5.68
   3 -12   1   22.71    3.50
   2  12   2  135.97   13.29
  -2  12  -2  129.52   12.31
  -1  12  -3   71.08   12.23
   1  12   3   76.94   12.49
   0  12   4   20.44    5.82
   0  12  -4   13.50    4.69
  -1  12   5   90.20   10.35
   1  12  -5   82.50   13.27
   2  12  -6   10.95    4.19
  -2  12   6    7.72    2.42
   2 -12  -6    5.82    1.39
   3  12  -7   32.44    7.04
   3  13   1   12.90    3.79
   3 -13   1   11.33    2.50
   2  13   2   43.87    9.24
  -2  13  -2   50.16    9.90
  -1  13  -3   23.31    5.93
   1  13   3   24.69    6.71
   0  13   4   95.21   11.25
   0  13  -4  102.22   12.14
  -1  13   5   70.30   12.05
   1  13  -5   58.84   11.21
  -2  13   6   36.06    7.64
   2  13  -6   47.20    9.84
   2 -13  -6   37.24    3.56
   3  14   1   38.70    8.86
  -2  14  -2   17.41    4.33
   2  14   2   17.63    5.07
   1  14   3  116.60   13.68
  -1  14  -3  118.58   13.22
   0  14   4   27.56    7.77
   0  14  -4   33.56    8.68
  -1  14   5   88.08   10.74
   1  14  -5   95.73   15.78
  -2  15  -2    1.29    2.07
  -1  15  -3   33.45    8.30
   6   0  -1   -0.10    0.67
   5   0   0    0.75    0.66
   4   0   1    0.70    0.78
   3   0   2  124.96    6.70
   3   0   2  125.51    6.85
   2   0   3    1.62    0.80
   1   0   4  290.59   11.41
   0   0   5    1.03    0.61
  -1   0   6  157.24    8.23
   1   0  -6  142.01    7.86
  -2   0   7    2.29    0.97
   2   0  -7   -0.05    0.49
  -3   0   8   80.41    6.01
   3   0  -8   74.52    6.48
   4   0  -9    0.84    0.79
   6   1  -1    3.70    1.35
   6  -1  -1    4.87    1.41
   5   1   0  175.85   10.19
   5  -1   0  167.04    9.90
   4   1   1    2.90    1.33
   4  -1   1    2.80    1.08
   3   1   2  210.77    9.61
   3   1   2  206.53    9.08
   3  -1   2  228.02    9.23
   3  -1   2  229.82    9.05
   2   1   3   -0.14    0.37
   2  -1   3    1.00    0.57
   1   1   4   38.70    3.96
   1  -1   4   57.25    4.36
   0   1   5   24.92    3.11
   0  -1   5   31.30    3.37
   1   1  -6    0.75    0.53
  -1   1   6    1.41    0.89
  -1  -1   6    0.60    0.51
   1  -1  -6    0.27    0.62
   2   1  -7    8.07    2.26
  -2   1   7    8.96    2.18
  -2  -1   7    6.99    1.82
   2  -1  -7    4.49    1.60
  -3   1   8   28.72    3.51
   3   1  -8   31.94    5.16
   3  -1  -8   33.94    5.17
  -3  -1   8   36.49    3.88
   4   1  -9   25.23    4.64
   4  -1  -9   23.68    4.58
   6   2  -1   12.05    3.07
   6  -2  -1   12.24    3.17
   5   2   0    1.70    0.63
   5  -2   0    1.10    0.78
   4   2   1   50.25    4.73
   4  -2   1   51.32    4.66
   3   2   2   44.02    3.89
   3   2   2   38.26    3.93
   3  -2   2   41.40    3.67
   3  -2   2   41.00    3.45
   2   2   3    1.29    0.69
   2  -2   3    1.54    0.77
   1   2   4  167.90    8.68
   1  -2   4  123.03    6.97
   0   2   5   33.45    3.76
   0  -2   5   34.87    3.56
   1   2  -6  367.51   13.52
  -1   2   6  353.35   13.83
  -1  -2   6  357.96   13.18
   2   2  -7    1.93    1.08
  -2   2   7    1.20    0.72
   2  -2  -7    1.86    1.00
  -2  -2   7    0.27    0.45
   3   2  -8  159.57   10.06
  -3   2   8  167.45    9.62
   3  -2  -8  162.71    9.71
  -3  -2   8  165.40    8.63
   4   2  -9    0.61    1.08
   4  -2  -9    2.84    1.28
   6   3  -1    2.77    1.08
   6  -3  -1    4.32    1.65
   5   3   0  136.75    8.98
   5  -3   0  131.75    8.47
   4   3   1   15.58    3.21
   4  -3   1   17.38    3.19
   3   3   2  192.69    8.65
   3   3   2  166.28    9.35
   3  -3   2  173.81    7.95
   2   3   3   37.87    4.23
   2  -3   3   34.88    3.34
   1   3  -6    1.91    0.99
  -1   3   6    0.93    0.81
  -1  -3   6    7.03    1.85
   2   3  -7  164.68    9.41
  -2   3   7  168.33    9.91
  -2  -3   7  170.10    8.59
   2  -3  -7  161.51    8.91
  -3   3   8   49.29    5.16
   3   3  -8   36.01    5.56
  -3  -3   8   51.63    4.75
   3  -3  -8   47.59    4.82
   4   3  -9   68.36    6.91
   4  -3  -9   63.46    6.12
   6   4  -1  122.88    9.74
   6  -4  -1  137.07    9.35
   5   4   0   11.69    2.96
   5  -4   0   12.96    2.80
   4   4   1  212.78   10.35
   4  -4   1  198.69    9.76
   3   4   2    4.93    1.39
   3   4   2    5.26    1.89
   3  -4   2    3.01    0.96
   2  -4   3  480.24   14.78
   1   4   4  130.59    8.68
   0   4  -5   61.60    6.40
   0   4   5   56.14    5.60
  -2   4   7   16.90    3.64
   2   4  -7   17.81    3.56
   2  -4  -7   14.93    2.84
   3   4  -8   64.08    6.20
  -3   4   8   53.90    5.55
  -3  -4   8   57.17    4.89
   3  -4  -8   55.18    5.33
   4   4  -9  138.25   10.35
   4  -4  -9  131.90    9.16
   5   5   0    2.83    1.24
   5  -5   0    0.27    0.66
   4   5   1    6.12    1.78
   4  -5   1    5.17    1.45
   3   5   2   13.35    2.62
   3   5   2   15.12    3.59
   3  -5   2   14.52    2.41
  -2   5  -3  330.51   14.66
   2   5   3  317.50   10.60
   2   5   3  323.36   15.25
   1   5   4   21.09    4.44
  -1   5  -4   19.93    4.19
   0   5  -5  431.44   18.91
   0   5   5  426.93   18.01
  -1   5   6    8.90    2.84
   1   5  -6    2.94    1.26
   1   5  -6    1.94    1.03
   2   5  -7  324.77   13.90
  -2   5   7  317.26   15.41
   2  -5  -7  311.74   12.65
  -3   5   8    7.27    1.95
   3   5  -8    8.98    2.53
   3  -5  -8   10.92    2.50
   4   5  -9   54.28    6.04
   5   6   0    4.60    1.64
   4   6   1  316.72   13.57
   4  -6   1  368.33   13.41
   3   6   2   10.85    2.84
   3   6   2    6.05    1.67
   3  -6   2    6.45    1.54
   2   6   3  299.81   15.82
   2   6   3  301.10   10.28
  -2   6  -3  294.69   14.46
  -1   6  -4   34.53    6.08
   1   6   4   36.39    6.23
   0   6   5    0.47    0.57
   0   6  -5    0.83    0.83
   1   6  -6   30.35    3.53
   1   6  -6   35.84    6.40
  -1   6   6   31.80    5.89
   2   6  -7   26.74    5.69
   2   6  -7   29.45    4.63
  -2   6   7   29.59    5.62
   4   6  -9   92.95    8.33
   5   7   0   49.55    5.21
   5  -7   0   47.87    4.67
   4   7   1    1.53    0.95
   3   7   2  124.21   10.32
   3   7   2  114.58    6.97
   3  -7   2  121.23    6.36
   2   7   3  103.89    5.78
  -2   7  -3  102.88    8.36
   2   7   3  105.72    9.56
   2  -7   3  107.16    5.60
   1   7   4   54.92    6.69
  -1   7  -4   46.87    7.41
   0   7  -5  237.84   14.92
   0   7   5  256.01   14.89
  -1   7   6   -0.13    0.96
   1   7  -6   -0.53    0.74
   1   7  -6    0.76    0.63
   2   7  -7  212.14   14.17
  -2   7   7  205.51   13.20
   2   7  -7  208.33   11.09
   3   7  -8   32.63    5.39
   3   7  -8   26.55    5.39
  -3   7   8   29.72    5.53
   3  -7  -8   30.80    3.29
   4   7  -9   59.74    9.24
   5   8   0    1.74    1.07
   5  -8   0    0.05    0.65
   4   8   1   84.60    6.50
   4  -8   1   78.88    5.94
   3   8   2   27.31    3.97
   3   8   2   32.62    6.62
   3  -8   2   29.64    3.21
   2   8   3   22.81    2.57
   2   8   3   20.39    5.10
  -2   8  -3   17.87    4.16
   2  -8   3   24.91    2.53
  -1   8  -4  131.38   10.97
   1   8   4  127.21   11.10
   0   8  -5   36.61    7.37
   0   8   5   29.06    6.27
  -1   8   6  147.41   11.89
   1   8  -6  158.15    8.73
   1   8  -6  168.42   13.09
   2   8  -7    5.39    1.74
  -2   8   7    5.59    2.20
   2   8  -7    5.38    1.91
   3   8  -8   99.21    9.58
   3   8  -8  115.45    8.58
   3  -8  -8  108.72    6.38
   5   9   0   93.14    7.44
   5  -9   0   81.26    6.41
   4   9   1    6.62    1.68
   4  -9   1    4.55    1.04
   3   9   2   82.26    8.93
   3   9   2   97.74    6.41
   3  -9   2   97.36    6.11
   2   9   3   10.58    3.45
  -2   9  -3   14.71    3.61
   1   9   4   78.58    9.21
  -1   9  -4   67.09    7.90
   0   9   5   28.99    6.65
   0   9  -5   17.89    5.10
   1   9  -6   15.92    4.65
  -1   9   6   13.90    3.79
   1   9  -6   12.86    2.59
   2   9  -7    5.81    1.51
  -2   9   7    2.49    1.71
   2   9  -7    8.95    3.16
   3   9  -8   43.63    7.82
   3   9  -8   43.95    4.98
   3  -9  -8   53.31    4.37
   4 -10   1    2.76    1.08
   3  10   2   20.07    5.17
   3 -10   2   16.92    2.92
   2  10   3    5.41    2.28
  -2  10  -3   12.91    3.76
  -1  10  -4   97.37   10.25
   1  10   4  110.45   11.45
   0  10  -5    4.28    2.60
   0  10   5    5.47    2.02
  -1  10   6  171.83   14.27
   1  10  -6  155.67   13.79
  -2  10   7    0.33    1.35
   2  10  -7    0.92    1.30
   3  10  -8  115.39    8.47
   3  10  -8  107.54   10.53
   3 -10  -8  109.03    6.72
   4 -11   1    2.38    0.84
   3  11   2   87.46    9.84
   3 -11   2   85.75    6.78
   2  11   3    9.49    3.43
   1  11   4   25.07    6.47
  -1  11  -4   24.80    6.55
   0  11   5    1.19    1.41
   0  11  -5    0.36    1.37
  -1  11   6    6.93    2.16
   1  11  -6   -1.08    1.54
   2  11  -7    3.80    2.24
  -2  11   7    2.49    1.59
   4 -12   1    7.76    2.06
   3  12   2   47.70    9.36
   2  12   3    1.83    1.45
  -2  12  -3   -0.59    1.62
   1  12   4   84.42   13.85
  -1  12  -4  104.27   11.43
   0  12   5    0.80    1.35
   0  12  -5    2.31    1.85
  -1  12   6  133.43   13.47
   1  12  -6  127.76   13.39
  -2  12   7    0.43    1.78
   3  13   2   92.62   10.93
   2  13   3   12.42    4.59
  -2  13  -3    5.74    2.53
  -1  13  -4   53.52   10.68
   1  13   4   62.74   11.81
   0  13  -5   21.75    5.92
   0  13   5   25.30    6.73
  -1  13   6    2.02    2.01
  -2  14  -3   36.50    7.28
  -1  14  -4   67.68   11.61
   5   0   1   -0.31    0.62
   4   0   2  474.48   16.87
   3   0   3    0.14    0.50
   3   0   3    0.10    0.30
   2   0   4  600.42   19.44
   1   0   5    5.06    1.75
   0   0   6  297.61   12.84
  -1   0   7    1.71    0.78
   2   0  -8  114.69    8.12
  -2   0   8  108.02    7.58
   3   0  -9   -0.03    0.84
  -3   0   9   -1.34    0.64
   4   0 -10    3.16    1.31
   6  -1   0   75.95    7.37
   5   1   1    6.02    1.88
   5  -1   1    6.97    2.27
   4   1   2    4.04    1.43
   4  -1   2    3.38    1.24
   3   1   3    4.51    1.52
   3   1   3    1.63    0.70
   3  -1   3    1.20    0.59
   3  -1   3    0.45    0.48
   2   1   4   10.31    2.54
   2  -1   4   14.56    2.92
   1   1   5   12.01    2.72
   1  -1   5    9.47    2.33
   0   1   6  185.67   10.04
   0  -1   6  194.59    9.78
  -1   1   7   13.99    3.09
  -1  -1   7   11.92    2.73
   2   1  -8  223.81   11.97
  -2   1   8  220.29   11.55
  -2  -1   8  230.33   11.41
   2  -1  -8  247.27   12.31
   3   1  -9   71.70    6.90
  -3   1   9   80.40    6.73
  -3  -1   9   78.49    6.43
   3  -1  -9   72.02    6.82
   4  -1 -10  146.74   10.76
   6  -2   0   -0.18    1.11
   5   2   1   29.94    5.01
   5  -2   1   20.47    3.71
   4   2   2   31.41    3.65
   4  -2   2   29.51    4.51
   3   2   3    0.62    0.60
   3   2   3    0.42    0.39
   3  -2   3   -0.08    0.44
   3  -2   3   -0.13    0.39
   2   2   4   21.26    4.06
   2  -2   4   29.55    3.40
   1   2   5   74.57    6.24
   1  -2   5   73.11    5.71
   0   2   6    5.21    1.86
   0  -2   6    7.17    2.08
  -1   2   7  153.43    9.37
  -1  -2   7  159.42    9.14
  -2   2   8    5.06    1.77
   2   2  -8    6.65    2.05
  -2  -2   8    7.79    2.07
   2  -2  -8    7.57    2.08
   3   2  -9   70.64    6.87
  -3   2   9   80.99    6.93
   3  -2  -9   79.76    6.96
  -3  -2   9   69.96    6.03
   4  -2 -10   36.11    5.98
   6  -3   0    1.28    1.12
   5   3   1  247.23   12.91
   5  -3   1  257.80   12.78
   4   3   2    5.11    1.69
   4  -3   2    4.53    1.28
   3   3   3  455.51   14.79
   3   3   3  432.30   17.51
   3  -3   3  424.56   14.51
   2   3   4   32.25    5.29
   2  -3   4   23.63    3.91
   1   3   5  367.85   16.15
   1  -3   5  380.60   14.43
   0   3   6    4.95    1.91
   0  -3   6    8.15    2.30
  -1   3   7  110.77    8.36
  -1  -3   7  122.41    7.86
  -2   3   8   35.68    5.82
   2   3  -8   37.89    5.92
  -2  -3   8   29.49    4.78
   2  -3  -8   36.60    4.16
   3   3  -9   20.89    4.29
  -3   3   9   17.81    3.68
   3  -3  -9   23.03    4.32
  -3  -3   9   21.57    3.78
   4  -3 -10   36.37    5.97
   6  -4   0   44.88    4.82
   5   4   1   23.61    4.55
   5  -4   1   21.05    3.84
   4   4   2   54.57    5.07
   4  -4   2   49.94    4.57
   3   4   3    0.60    0.74
   3   4   3    0.84    0.50
   3  -4   3   -0.33    0.41
   2   4   4   80.39    7.30
   2  -4   4   77.32    5.73
  -2   4   8   33.96    5.78
   2   4  -8   27.01    4.68
  -2  -4   8   31.62    3.76
  -3   4   9  163.66   10.75
   3   4  -9  154.32   10.72
   3  -4  -9  151.62    9.80
  -3  -4   9  154.99    9.67
   4  -4 -10   30.57    5.20
   5   5   1   11.72    2.67
   5  -5   1   13.44    2.79
   4   5   2    7.26    2.07
   4  -5   2   10.23    2.22
   3   5   3   12.90    2.57
   3   5   3   10.44    3.18
   3  -5   3    5.72    1.42
   2   5   4    8.29    2.76
   2  -5   4   22.06    3.59
   1  -5   5   30.41    3.67
   0   5   6    2.79    1.54
   0  -5   6    8.48    2.28
  -1   5   7    4.17    1.69
  -1  -5   7   16.66    3.35
  -2   5   8   11.66    3.40
   2   5  -8    7.09    2.04
   3   5  -9   14.21    3.25
  -3   5   9   14.42    3.62
  -3  -5   9   18.73    3.79
   3  -5  -9   14.46    3.21
   5   6   1    2.66    0.82
   4   6   2   46.03    4.68
   4  -6   2   41.22    4.05
   3   6   3    8.29    2.50
   3   6   3   13.01    2.62
   3  -6   3    8.14    1.86
   1   6   5   22.62    5.15
  -1   6  -5   18.56    4.32
   0   6   6   91.75    8.52
   0   6  -6  110.52    9.78
  -1   6   7   73.91    7.52
   2   6  -8   27.13    4.81
  -2   6   8   30.49    5.88
   5   7   1  169.30   10.53
   4   7   2    0.80    0.66
   3   7   3  313.13   17.92
   3   7   3  329.53   12.72
   3  -7   3  308.78   11.56
  -2   7  -4    2.99    1.09
   2   7   4    3.51    1.66
   2   7   4    3.43    1.08
   1   7   5  231.44   14.85
  -1   7  -5  216.45   13.98
   0   7  -6   11.83    3.67
   1   7  -7  146.18   11.79
  -1   7   7  148.74   11.42
   2   7  -8   26.21    4.50
  -2   7   8   34.07    6.61
   5   8   1   22.12    4.15
   5  -8   1   16.42    3.09
   4   8   2    9.25    2.12
   4  -8   2    6.44    1.66
   3   8   3    3.68    1.72
   3   8   3    4.57    1.42
   2   8   4    0.68    1.16
  -2   8  -4    0.09    0.89
   2   8   4    0.65    0.53
  -1   8  -5   43.96    7.56
   1   8   5   39.69    7.53
   0   8  -6    1.70    1.07
   0   8   6    1.07    1.30
  -1   8   7  101.05    9.77
   1   8  -7   99.07    9.90
  -2   8   8   10.80    3.18
   2   8  -8   10.77    3.27
   2   8  -8    9.40    2.33
   4   9   2    9.09    2.18
   4  -9   2    7.44    1.89
   3   9   3    8.15    2.62
   2   9   4   18.14    4.76
  -2   9  -4   22.70    5.01
   1   9   5   12.19    3.84
  -1   9  -5    6.83    2.31
   0   9  -6  121.02   11.11
   0   9   6  110.73   11.05
   1   9  -7   16.40    4.82
  -1   9   7    6.10    2.55
   2   9  -8  124.87    9.02
  -2   9   8  139.42   12.43
   2   9  -8  144.16   12.56
   4 -10   2  246.87   11.39
   3  10   3   14.09    4.66
   2  10   4  409.22   24.11
  -2  10  -4  417.61   21.40
   1  10   5    5.28    2.85
  -1  10  -5    5.64    1.99
   0  10   6  231.23   17.38
   0  10  -6  216.39   16.36
   1  10  -7   23.70    5.63
  -1  10   7   15.63    4.65
   2  10  -8   55.10   10.01
  -2  10   8   41.91    8.44
   3  11   3    4.81    2.03
   2  11   4   17.91    5.68
  -2  11  -4   11.50    3.26
  -1  11  -5   25.95    5.99
   1  11   5   29.06    7.17
   0  11  -6  151.60   13.86
   0  11   6  142.60   13.91
  -1  11   7   21.49    5.20
   1  11  -7   18.48    5.12
   3  12   3   -0.24    1.97
  -2  12  -4   26.69    5.38
   2  12   4   30.88    7.57
  -1  12  -5   17.85    4.73
   1  12   5   19.39    5.46
   0  12   6   11.10    4.32
   0  12  -6    5.41    2.35
  -2  13  -4    6.04    4.00
   5   0   2   16.73    3.40
   4   0   3    0.41    0.46
   3   0   4    0.53    0.73
   2   0   5    0.71    0.55
   1   0   6    7.49    2.24
   0   0   7    0.69    0.78
  -1   0   8   16.65    3.76
  -2   0   9   -0.58    0.64
   3   0 -10   87.72    8.22
  -3   0  10  107.90    8.30
   5   1   2   57.16    5.96
   5  -1   2   58.83    6.00
   4   1   3    6.95    2.07
   4  -1   3    6.29    1.90
   3   1   4  117.59    7.43
   3   1   4  132.73    8.90
   3  -1   4  129.70    8.39
   2   1   5   11.12    2.79
   2  -1   5    9.09    2.43
   1   1   6  159.52   10.08
   1  -1   6  160.71    9.75
   0   1   7    0.35    0.51
   0  -1   7    0.81    0.70
  -1   1   8   90.35    7.40
  -1  -1   8   81.76    6.93
  -2   1   9    6.21    2.04
   2   1  -9    3.82    1.39
  -2  -1   9    3.87    1.05
  -3   1  10   13.34    2.84
   3   1 -10    7.69    2.48
  -3  -1  10   15.09    3.29
   3  -1 -10   10.74    2.64
   5   2   2   55.03    5.82
   5  -2   2   65.41    6.28
   4   2   3   26.26    4.51
   4  -2   3   28.45    4.64
   3   2   4   28.85    5.00
   3   2   4   28.25    3.28
   2   2   5   36.96    5.96
   2  -2   5   37.00    4.33
   1   2   6   12.65    3.35
   1  -2   6   16.38    3.46
   0   2   7    4.92    1.88
   0  -2   7    4.39    1.61
  -1   2   8  125.73    9.04
  -1  -2   8  117.20    8.23
  -2   2   9   12.71    3.24
   2   2  -9   10.61    3.07
  -2  -2   9   10.92    2.54
   3   2 -10   96.74    8.51
  -3   2  10  100.14    8.46
   3  -2 -10   81.43    7.58
  -3  -2  10   96.99    7.78
   5   3   2   66.81    6.23
   5  -3   2   58.11    5.90
   4   3   3   24.36    4.27
   4  -3   3   19.77    3.60
   3   3   4  132.06    9.65
   3   3   4  133.53    7.82
   2   3   5    4.26    1.78
   2  -3   5    1.62    0.97
   1   3   6  116.72    9.22
   1  -3   6  124.90    8.31
   0   3   7   28.46    5.21
   0  -3   7   30.37    4.94
  -1   3   8   35.57    6.14
  -1  -3   8   33.25    4.13
  -2   3   9   59.74    6.33
   2   3  -9   48.38    5.56
  -2  -3   9   56.51    5.47
  -3   3  10   -0.47    1.08
   3  -3 -10    1.63    1.38
  -3  -3  10    1.24    0.97
   5   4   2   68.29    6.39
   5  -4   2   64.52    6.21
   4   4   3  150.85    9.23
   4  -4   3  149.11    8.92
   3   4   4    1.95    1.25
   3   4   4    1.57    0.69
   2   4   5  294.17   15.77
   2  -4   5  276.11   13.10
   1   4   6   23.25    5.08
   1  -4   6   20.43    4.01
   0   4   7  190.35   12.31
   0  -4   7  194.32   10.89
  -1   4   8   45.82    5.57
  -1  -4   8   45.84    4.96
  -2   4   9   26.59    5.08
   2   4  -9   20.55    4.39
  -2  -4   9   32.24    5.43
  -3   4  10   35.39    5.96
  -3  -4  10   25.77    4.55
   5   5   2    2.40    1.32
   5  -5   2    1.18    0.96
   4   5   3   53.04    5.17
   4  -5   3   50.15    4.80
   3   5   4   13.75    3.68
   3   5   4   15.66    3.06
   2   5   5    0.07    0.92
   2  -5   5    2.05    0.95
   1   5   6    9.04    2.86
   1  -5   6    9.65    2.38
  -1   5   8    1.23    0.91
  -1  -5   8   -0.42    0.61
  -2   5   9  126.19   10.34
   2   5  -9  135.05    9.98
  -2  -5   9  145.73    9.63
  -3   5  10    1.46    1.19
  -3  -5  10    0.01    0.93
   4   6   3  211.91   11.39
   4  -6   3  209.99   10.62
   3   6   4    4.63    1.61
   3   6   4    5.20    1.32
   1   6   6    0.00    0.97
   1  -6   6    6.37    2.12
  -1  -6   8   58.83    5.72
  -2   6   9   51.54    6.35
   2   6  -9   35.82    5.97
  -2  -6   9   48.11    5.09
   4   7   3   48.96    4.92
   3   7   4   83.74    8.78
   3   7   4   96.14    6.62
   3  -7   4   95.68    6.28
   2   7   5    2.40    0.97
   2   7   5    1.48    1.42
   2  -7   5   11.13    2.64
   4   8   3   21.65    3.96
   3   8   4    1.55    1.71
   3   8   4    1.30    0.86
   1   8   6   18.62    5.30
   0   8   7   49.83    8.85
  -2   8   9   15.82    4.39
   4   9   3    0.79    0.86
   3   9   4  101.13   10.82
   2   9   5   10.00    4.07
  -2   9  -5    5.66    2.51
  -1   9  -6  159.14   12.94
   1   9   6  149.88   13.65
   0   9  -7    0.69    1.04
   0   9   7    1.06    1.28
  -1   9   8   29.77    6.73
   1   9  -8   31.56    6.40
   3  10   4    2.48    1.85
  -2  10  -5    2.92    1.47
   2  10   5    5.13    1.89
   1  10   6   14.40    4.34
  -1  10  -6   15.29    3.71
   0  10  -7    0.14    1.14
   0  10   7    0.12    1.43
  -2  11  -5    2.34    1.56
  -1  11  -6   41.51    8.44
   4   0   4   11.47    2.65
   2   0   6   67.08    6.55
   1   0   7    0.72    0.78
   0   0   8  177.36   11.54
  -1   0   9    0.59    0.78
  -2   0  10   21.32    4.53
   4   1   4  170.13   10.31
   4  -1   4  174.73   10.41
   3   1   5  127.59    9.48
   2   1   6   67.19    6.87
   2  -1   6   53.81    5.80
   1   1   7  165.66   11.12
   1  -1   7  166.25   10.79
   0   1   8    5.18    1.78
   0  -1   8    9.02    2.57
  -1   1   9   97.99    8.36
  -1  -1   9   93.84    7.94
  -2   1  10   73.93    7.20
  -2  -1  10   78.48    7.21
   4   2   4  117.82    8.33
   4  -2   4  107.97    7.97
   3   2   5   26.56    4.25
   3   2   5   31.31    5.60
   2   2   6  223.26   13.61
   2  -2   6  225.57   12.58
   1   2   7    2.57    1.04
   1  -2   7    2.58    1.15
   0   2   8  246.35   14.32
   0  -2   8  244.94   13.53
  -1   2   9   12.43    3.26
  -1  -2   9   13.68    3.31
  -2   2  10  179.17   12.32
  -2  -2  10  185.31   11.83
   4   3   4    4.25    1.29
   4  -3   4    3.45    1.50
   3   3   5   14.05    3.49
   3   3   5   11.08    2.59
   2   3   6    3.37    1.10
   2  -3   6    3.24    1.47
   1   3   7   17.20    4.12
   1  -3   7   16.88    3.79
   0   3   8   10.24    2.87
   0  -3   8    4.06    1.47
  -1   3   9   26.76    5.56
  -1  -3   9   32.85    5.79
  -2   3  10    1.65    1.13
  -2  -3  10    4.27    1.14
   4   4   4   30.08    4.84
   4  -4   4   32.38    4.99
   3   4   5   45.08    4.38
   3   4   5   49.61    5.96
   2   4   6    2.27    1.45
   2  -4   6    5.23    1.69
   1   4   7    7.25    2.63
   1  -4   7    6.25    1.92
   0   4   8   22.22    5.16
   0  -4   8   16.37    3.61
  -1   4   9   18.82    4.50
  -1  -4   9   13.24    3.03
   4   5   4    4.68    1.80
   3   5   5  134.58   10.93
   3   5   5  138.92    8.25
   2   5   6    3.14    1.29
   2  -5   6    0.84    0.92
   1   5   7  283.38   17.16
   1  -5   7  268.43   14.27
   0   5   8    1.66    1.04
   0  -5   8    0.23    0.84
  -1   5   9  192.29   13.57
  -1  -5   9  200.11   12.39
   4  -6   4   28.26    4.48
   3   6   5   60.45    7.52
   3   6   5   54.17    4.91
   2   6   6    2.17    1.27
   2  -6   6    1.45    0.79
   1   6   7    7.55    2.97
   1  -6   7    6.52    1.76
   0   6   8   13.54    3.85
   0  -6   8   15.27    3.47
  -1   6   9    2.67    1.41
  -1  -6   9    7.59    2.22
   3   7   5    9.86    2.32
   3   7   5    7.24    2.32
   2   7   6    1.75    0.58
   2   7   6    1.31    1.38
   2  -7   6    1.91    0.76
   1   7   7   52.02    9.03
   1  -7   7   62.63    6.10
   0   7   8    0.91    1.14
   0  -7   8   -0.23    0.74
   3   8   5   51.67    4.80
   3   8   5   50.48    8.91
   1  -8   7   34.89    6.04
   2  -9   6   48.04    5.25
   2   0   7    1.29    1.09
   1   0   8   23.66    4.95
   0   0   9    1.09    0.92
   2   1   7    6.84    2.21
   2  -1   7    9.53    2.82
   1   1   8   76.38    7.93
   1  -1   8   75.57    7.72
   0   1   9    1.30    1.16
   0  -1   9    0.77    1.23
   3   2   6   88.36    7.28
   2   2   7    0.33    0.99
   2  -2   7    1.97    1.26
   1   2   8    9.01    2.95
   1  -2   8    9.73    3.10
   0   2   9    5.79    2.01
   0  -2   9    3.81    1.67
   2   3   7   30.00    6.18
   2  -3   7   31.16    5.56
   1   3   8   45.11    7.95
   1  -3   8   55.37    6.34
   3   4   6   24.82    5.24
   2   4   7   74.25    8.18
   2  -4   7   98.75    8.45
   1   4   8   13.83    3.55
   1  -4   8   14.05    3.74
   3   5   6    0.37    1.29
   2   5   7   44.79    7.88
   2  -5   7   51.73    5.87
   1  -5   8    2.52    1.30
   2  -6   7   59.92    6.16
   0   0   0    0.00    0.00
;
_shelx_hkl_checksum              70889
loop_
_space_group_symop_operation_xyz
'x, y, z'
'-x, y+1/2, -z+1/2'
'-x, -y, -z'
'x, -y-1/2, z-1/2'
loop_
_atom_site_label
_atom_site_type_symbol
_atom_site_fract_x
_atom_site_fract_y
_atom_site_fract_z
_atom_site_U_iso_or_equiv
_atom_site_adp_type
_atom_site_occupancy
_atom_site_site_symmetry_order
_atom_site_calc_flag
_atom_site_refinement_flags_posn
_atom_site_refinement_flags_adp
_atom_site_refinement_flags_occupancy
_atom_site_disorder_assembly
_atom_site_disorder_group
Ba1 Ba 0.14870(9) 0.20302(3) 0.18982(6) 0.0080(2) Uani 1 1 d . . . . .
Mn1 Mn 0.0000 0.5000 0.0000 0.0057(3) Uani 1 2 d S . P . .
Mn2 Mn 0.5000 0.5000 0.5000 0.0050(3) Uani 1 2 d S . P . .
P1 P 0.6313(4) 0.39031(15) 0.1972(2) 0.0056(4) Uani 1 1 d . . . . .
F1 F 0.3393(9) 0.3658(3) 0.4471(6) 0.0089(8) Uani 1 1 d . . . . .
F2 F 0.1689(9) 0.5619(3) 0.2641(6) 0.0082(8) Uani 1 1 d . U . . .
O1 O 0.7242(11) 0.2860(4) 0.2987(8) 0.0086(10) Uani 1 1 d . . . . .
O2 O 0.7886(11) 0.4057(4) 0.0729(8) 0.0100(10) Uani 1 1 d . . . . .
O3 O 0.6900(10) 0.4816(4) 0.3377(7) 0.0087(10) Uani 1 1 d . . . . .
O4 O 0.3013(11) 0.3864(4) 0.0605(7) 0.0087(10) Uani 1 1 d . . . . .
loop_
_atom_site_aniso_label
_atom_site_aniso_U_11
_atom_site_aniso_U_22
_atom_site_aniso_U_33
_atom_site_aniso_U_23
_atom_site_aniso_U_13
_atom_site_aniso_U_12
Ba1 0.0079(3) 0.0090(3) 0.0082(3) -0.00043(15) 0.0044(2) -0.00169(14)
Mn1 0.0033(6) 0.0074(8) 0.0068(7) 0.0008(6) 0.0027(6) 0.0002(5)
Mn2 0.0024(6) 0.0065(7) 0.0054(7) -0.0010(6) 0.0011(6) -0.0009(5)
P1 0.0028(8) 0.0078(9) 0.0057(8) 0.0000(7) 0.0013(7) -0.0013(6)
F1 0.0083(19) 0.010(2) 0.010(2) 0.0007(17) 0.0055(17) -0.0006(16)
F2 0.0043(17) 0.0122(19) 0.0055(18) 0.0003(15) -0.0003(14) 0.0035(14)
O1 0.004(2) 0.010(3) 0.010(3) -0.002(2) 0.001(2) -0.0015(18)
O2 0.009(2) 0.012(3) 0.010(3) -0.004(2) 0.006(2) -0.006(2)
O3 0.003(2) 0.015(3) 0.007(3) 0.000(2) 0.002(2) 0.0011(19)
O4 0.006(2) 0.009(2) 0.009(3) 0.002(2) 0.001(2) -0.0004(18)
loop_
_atom_type_symbol
_atom_type_description
_atom_type_scat_dispersion_real
_atom_type_scat_dispersion_imag
_atom_type_scat_source
O O 0.0106 0.0060 'International Tables Vol C Tables 4.2.6.8 and 6.1.1.4'
F F 0.0171 0.0103 'International Tables Vol C Tables 4.2.6.8 and 6.1.1.4'
P P 0.1023 0.0942 'International Tables Vol C Tables 4.2.6.8 and 6.1.1.4'
Mn Mn 0.3368 0.7283 'International Tables Vol C Tables 4.2.6.8 and 6.1.1.4'
Ba Ba -0.3244 2.2819 'International Tables Vol C Tables 4.2.6.8 and 6.1.1.4'
loop_
_geom_angle_atom_site_label_1
_geom_angle_atom_site_label_2
_geom_angle_atom_site_label_3
_geom_angle
_geom_angle_site_symmetry_1
_geom_angle_site_symmetry_3
F2 Ba1 F1 109.56(13) 2_545 4_565
F2 Ba1 F1 117.63(12) 2_545 .
F1 Ba1 F1 130.72(14) 4_565 .
F2 Ba1 O4 159.62(14) 2_545 .
F1 Ba1 O4 76.02(14) 4_565 .
F1 Ba1 O4 64.90(13) . .
F2 Ba1 O1 66.21(13) 2_545 1_455
F1 Ba1 O1 155.09(15) 4_565 1_455
F1 Ba1 O1 64.95(13) . 1_455
O4 Ba1 O1 100.18(14) . 1_455
F2 Ba1 O1 87.45(14) 2_545 4_465
F1 Ba1 O1 66.05(14) 4_565 4_465
F1 Ba1 O1 127.17(13) . 4_465
O4 Ba1 O1 76.85(14) . 4_465
O1 Ba1 O1 89.07(14) 1_455 4_465
F2 Ba1 O1 147.98(14) 2_545 .
F1 Ba1 O1 71.15(14) 4_565 .
F1 Ba1 O1 61.56(13) . .
O4 Ba1 O1 52.26(15) . .
O1 Ba1 O1 126.27(18) 1_455 .
O1 Ba1 O1 119.44(17) 4_465 .
F2 Ba1 O4 59.21(14) 2_545 4_566
F1 Ba1 O4 125.07(13) 4_565 4_566
F1 Ba1 O4 72.74(13) . 4_566
O4 Ba1 O4 134.43(17) . 4_566
O1 Ba1 O4 75.32(14) 1_455 4_566
O1 Ba1 O4 146.51(14) 4_465 4_566
O1 Ba1 O4 93.33(15) . 4_566
F2 Ba1 O3 64.12(13) 2_545 2_645
F1 Ba1 O3 55.28(13) 4_565 2_645
F1 Ba1 O3 138.15(13) . 2_645
O4 Ba1 O3 129.15(13) . 2_645
O1 Ba1 O3 129.99(13) 1_455 2_645
O1 Ba1 O3 94.15(14) 4_465 2_645
O1 Ba1 O3 94.79(13) . 2_645
O4 Ba1 O3 75.06(14) 4_566 2_645
F2 Ba1 O2 106.92(13) 2_545 1_455
F1 Ba1 O2 115.31(13) 4_565 1_455
F1 Ba1 O2 64.04(13) . 1_455
O4 Ba1 O2 54.57(13) . 1_455
O1 Ba1 O2 49.00(13) 1_455 1_455
O1 Ba1 O2 64.33(14) 4_465 1_455
O1 Ba1 O2 100.81(13) . 1_455
O4 Ba1 O2 119.34(13) 4_566 1_455
O3 Ba1 O2 157.72(14) 2_645 1_455
F2 Ba1 P1 171.77(10) 2_545 .
F1 Ba1 P1 75.16(9) 4_565 .
F1 Ba1 P1 56.35(8) . .
O4 Ba1 P1 26.68(11) . .
O1 Ba1 P1 112.47(10) 1_455 .
O1 Ba1 P1 100.72(10) 4_465 .
O1 Ba1 P1 26.02(10) . .
O4 Ba1 P1 112.58(11) 4_566 .
O3 Ba1 P1 115.81(9) 2_645 .
O2 Ba1 P1 76.11(9) 1_455 .
F2 Ba1 P1 86.35(10) 2_545 1_455
F1 Ba1 P1 138.01(10) 4_565 1_455
F1 Ba1 P1 61.09(9) . 1_455
O4 Ba1 P1 77.51(10) . 1_455
O1 Ba1 P1 23.94(10) 1_455 1_455
O1 Ba1 P1 76.58(10) 4_465 1_455
O1 Ba1 P1 115.08(10) . 1_455
O4 Ba1 P1 96.66(10) 4_566 1_455
O3 Ba1 P1 149.60(9) 2_645 1_455
O2 Ba1 P1 25.08(9) 1_455 1_455
P1 Ba1 P1 94.46(5) . 1_455
O2 Mn1 O2 180.0(3) 3_665 1_455
O2 Mn1 O4 87.8(2) 3_665 3_565
O2 Mn1 O4 92.2(2) 1_455 3_565
O2 Mn1 O4 92.2(2) 3_665 .
O2 Mn1 O4 87.8(2) 1_455 .
O4 Mn1 O4 180.0 3_565 .
O2 Mn1 F2 88.68(19) 3_665 3_565
O2 Mn1 F2 91.32(19) 1_455 3_565
O4 Mn1 F2 95.67(18) 3_565 3_565
O4 Mn1 F2 84.33(18) . 3_565
O2 Mn1 F2 91.32(19) 3_665 .
O2 Mn1 F2 88.68(19) 1_455 .
O4 Mn1 F2 84.33(18) 3_565 .
O4 Mn1 F2 95.67(18) . .
F2 Mn1 F2 180.0 3_565 .
O2 Mn1 Ba1 85.86(15) 3_665 4_565
O2 Mn1 Ba1 94.14(15) 1_455 4_565
O4 Mn1 Ba1 132.60(15) 3_565 4_565
O4 Mn1 Ba1 47.40(15) . 4_565
F2 Mn1 Ba1 37.33(11) 3_565 4_565
F2 Mn1 Ba1 142.67(11) . 4_565
O2 Mn1 Ba1 94.14(15) 3_665 2
O2 Mn1 Ba1 85.86(15) 1_455 2
O4 Mn1 Ba1 47.40(15) 3_565 2
O4 Mn1 Ba1 132.60(15) . 2
F2 Mn1 Ba1 142.67(11) 3_565 2
F2 Mn1 Ba1 37.33(11) . 2
Ba1 Mn1 Ba1 180.000(10) 4_565 2
O2 Mn1 Ba1 132.54(16) 3_665 .
O2 Mn1 Ba1 47.46(16) 1_455 .
O4 Mn1 Ba1 139.69(13) 3_565 .
O4 Mn1 Ba1 40.31(13) . .
F2 Mn1 Ba1 86.69(12) 3_565 .
F2 Mn1 Ba1 93.31(12) . .
Ba1 Mn1 Ba1 63.117(12) 4_565 .
Ba1 Mn1 Ba1 116.883(12) 2 .
O2 Mn1 Ba1 47.46(16) 3_665 3_565
O2 Mn1 Ba1 132.54(16) 1_455 3_565
O4 Mn1 Ba1 40.31(13) 3_565 3_565
O4 Mn1 Ba1 139.69(13) . 3_565
F2 Mn1 Ba1 93.31(12) 3_565 3_565
F2 Mn1 Ba1 86.69(12) . 3_565
Ba1 Mn1 Ba1 116.883(12) 4_565 3_565
Ba1 Mn1 Ba1 63.117(12) 2 3_565
Ba1 Mn1 Ba1 180.000(13) . 3_565
F1 Mn2 F1 180.0 3_666 .
F1 Mn2 O3 92.65(19) 3_666 3_666
F1 Mn2 O3 87.35(19) . 3_666
F1 Mn2 O3 87.35(19) 3_666 .
F1 Mn2 O3 92.65(19) . .
O3 Mn2 O3 180.00(15) 3_666 .
F1 Mn2 F2 92.24(18) 3_666 3_666
F1 Mn2 F2 87.76(18) . 3_666
O3 Mn2 F2 84.74(19) 3_666 3_666
O3 Mn2 F2 95.26(19) . 3_666
F1 Mn2 F2 87.76(18) 3_666 .
F1 Mn2 F2 92.24(18) . .
O3 Mn2 F2 95.26(19) 3_666 .
O3 Mn2 F2 84.74(19) . .
F2 Mn2 F2 180.0(2) 3_666 .
F1 Mn2 Ba1 39.38(12) 3_666 2_655
F1 Mn2 Ba1 140.62(12) . 2_655
O3 Mn2 Ba1 129.99(15) 3_666 2_655
O3 Mn2 Ba1 50.01(15) . 2_655
F2 Mn2 Ba1 105.47(11) 3_666 2_655
F2 Mn2 Ba1 74.53(11) . 2_655
F1 Mn2 Ba1 140.62(12) 3_666 4_566
F1 Mn2 Ba1 39.38(12) . 4_566
O3 Mn2 Ba1 50.01(15) 3_666 4_566
O3 Mn2 Ba1 129.99(15) . 4_566
F2 Mn2 Ba1 74.53(11) 3_666 4_566
F2 Mn2 Ba1 105.47(11) . 4_566
Ba1 Mn2 Ba1 180.0 2_655 4_566
F1 Mn2 Ba1 72.84(13) 3_666 2
F1 Mn2 Ba1 107.16(13) . 2
O3 Mn2 Ba1 65.28(15) 3_666 2
O3 Mn2 Ba1 114.72(15) . 2
F2 Mn2 Ba1 145.14(11) 3_666 2
F2 Mn2 Ba1 34.85(11) . 2
Ba1 Mn2 Ba1 83.042(16) 2_655 2
Ba1 Mn2 Ba1 96.958(16) 4_566 2
F1 Mn2 Ba1 107.16(13) 3_666 4_666
F1 Mn2 Ba1 72.84(13) . 4_666
O3 Mn2 Ba1 114.72(15) 3_666 4_666
O3 Mn2 Ba1 65.28(15) . 4_666
F2 Mn2 Ba1 34.86(11) 3_666 4_666
F2 Mn2 Ba1 145.15(11) . 4_666
Ba1 Mn2 Ba1 96.958(16) 2_655 4_666
Ba1 Mn2 Ba1 83.042(16) 4_566 4_666
Ba1 Mn2 Ba1 180.0 2 4_666
O1 P1 O2 108.4(3) . .
O1 P1 O3 111.4(3) . .
O2 P1 O3 111.8(3) . .
O1 P1 O4 109.3(3) . .
O2 P1 O4 106.6(3) . .
O3 P1 O4 109.2(3) . .
O1 P1 Ba1 57.1(2) . .
O2 P1 Ba1 131.5(2) . .
O3 P1 Ba1 116.51(19) . .
O4 P1 Ba1 53.46(19) . .
O1 P1 Ba1 50.5(2) . 1_655
O2 P1 Ba1 57.9(2) . 1_655
O3 P1 Ba1 126.9(2) . 1_655
O4 P1 Ba1 123.9(2) . 1_655
Ba1 P1 Ba1 94.46(5) . 1_655
Mn2 F1 Ba1 114.22(18) . 4_566
Mn2 F1 Ba1 146.23(19) . .
Ba1 F1 Ba1 99.08(13) 4_566 .
Mn1 F2 Mn2 126.3(2) . .
Mn1 F2 Ba1 113.99(18) . 2
Mn2 F2 Ba1 117.98(18) . 2
P1 O1 Ba1 105.5(3) . 1_655
P1 O1 Ba1 115.8(3) . 4_666
Ba1 O1 Ba1 91.10(15) 1_655 4_666
P1 O1 Ba1 96.8(2) . .
Ba1 O1 Ba1 126.27(18) 1_655 .
Ba1 O1 Ba1 121.79(19) 4_666 .
P1 O2 Mn1 145.1(3) . 1_655
P1 O2 Ba1 97.0(2) . 1_655
Mn1 O2 Ba1 105.8(2) 1_655 1_655
P1 O3 Mn2 124.8(3) . .
P1 O3 Ba1 129.4(3) . 2_655
Mn2 O3 Ba1 99.97(19) . 2_655
P1 O4 Mn1 129.1(3) . .
P1 O4 Ba1 99.9(2) . .
Mn1 O4 Ba1 111.85(19) . .
P1 O4 Ba1 115.8(2) . 4_565
Mn1 O4 Ba1 101.8(2) . 4_565
Ba1 O4 Ba1 92.63(15) . 4_565
loop_
_geom_bond_atom_site_label_1
_geom_bond_atom_site_label_2
_geom_bond_distance
_geom_bond_site_symmetry_2
Ba1 F2 2.556(4) 2_545
Ba1 F1 2.652(4) 4_565
Ba1 F1 2.752(4) .
Ba1 O4 2.789(5) .
Ba1 O1 2.876(5) 1_455
Ba1 O1 2.885(6) 4_465
Ba1 O1 2.893(5) .
Ba1 O4 2.897(5) 4_566
Ba1 O3 2.965(5) 2_645
Ba1 O2 3.064(5) 1_455
Ba1 P1 3.4198(18) .
Ba1 P1 3.5888(18) 1_455
Mn1 O2 1.870(5) 3_665
Mn1 O2 1.870(5) 1_455
Mn1 O4 2.014(5) 3_565
Mn1 O4 2.014(5) .
Mn1 F2 2.024(4) 3_565
Mn1 F2 2.024(4) .
Mn1 Ba1 3.8518(6) 4_565
Mn1 Ba1 3.8518(6) 2
Mn1 Ba1 4.0015(8) 3_565
Mn2 F1 1.858(4) 3_666
Mn2 F1 1.858(4) .
Mn2 O3 1.936(5) 3_666
Mn2 O3 1.936(5) .
Mn2 F2 2.042(4) 3_666
Mn2 F2 2.042(4) .
Mn2 Ba1 3.8115(7) 2_655
Mn2 Ba1 3.8115(7) 4_566
Mn2 Ba1 3.9503(9) 2
Mn2 Ba1 3.9503(9) 4_666
P1 O1 1.511(5) .
P1 O2 1.533(5) .
P1 O3 1.537(5) .
P1 O4 1.558(5) .
P1 Ba1 3.5888(18) 1_655
F1 Ba1 2.652(4) 4_566
F2 Ba1 2.556(4) 2
O1 Ba1 2.876(5) 1_655
O1 Ba1 2.885(6) 4_666
O2 Mn1 1.870(5) 1_655
O2 Ba1 3.064(5) 1_655
O3 Ba1 2.965(5) 2_655
O4 Ba1 2.897(5) 4_565
