#------------------------------------------------------------------------------
#$Date: 2021-04-02 12:20:39 +0300 (Fri, 02 Apr 2021) $
#$Revision: 263550 $
#$URL: file:///home/coder/svn-repositories/cod/cif/1/56/14/1561464.cif $
#------------------------------------------------------------------------------
#
# This file is available in the Crystallography Open Database (COD),
# http://www.crystallography.net/
#
# All data on this site have been placed in the public domain by the
# contributors.
#
data_1561464
loop_
_publ_author_name
'Latshaw, Allison M.'
'Wilkins, Branford O.'
'Morrison, Gregory'
'Smith, Mark D.'
'zur Loye, Hans-Conrad'
_publ_section_title
;
 A5RE4X[TO4]4 crystal growth: Fluoride flux synthesis of Na5Ln4F[GeO4]4
 (Ln=Pr, Nd), the first quaternary germanate oxyfluorides
;
_journal_name_full               'Journal of Solid State Chemistry'
_journal_page_first              200
_journal_page_last               203
_journal_paper_doi               10.1016/j.jssc.2016.04.038
_journal_volume                  239
_journal_year                    2016
_chemical_formula_moiety         '0.5(F2 Ge8 Na10 O32 Pr8)'
_chemical_formula_sum            'F Ge4 Na5 O16 Pr4'
_chemical_formula_weight         1243.95
_space_group_crystal_system      tetragonal
_space_group_IT_number           82
_space_group_name_Hall           'I -4'
_space_group_name_H-M_alt        'I -4'
_atom_sites_solution_hydrogens   .
_atom_sites_solution_primary     direct
_cell_angle_alpha                90
_cell_angle_beta                 90
_cell_angle_gamma                90
_cell_formula_units_Z            2
_cell_length_a                   12.1173(4)
_cell_length_b                   12.1173(4)
_cell_length_c                   5.6795(2)
_cell_measurement_reflns_used    9889
_cell_measurement_temperature    300(2)
_cell_measurement_theta_max      37.83
_cell_measurement_theta_min      2.375
_cell_volume                     833.92(5)
_computing_molecular_graphics    'Olex2 (Dolomanov et al., 2009)'
_computing_publication_material  'Olex2 (Dolomanov et al., 2009)'
_computing_structure_refinement  'ShelXL (Sheldrick, 2015)'
_computing_structure_solution    'ShelXT (Sheldrick, 2015)'
_diffrn_ambient_temperature      300(2)
_diffrn_measured_fraction_theta_full 1.000
_diffrn_measured_fraction_theta_max 1.000
_diffrn_measurement_device_type  'Bruker D8 QUEST'
_diffrn_measurement_method       '\w and \f scans'
_diffrn_radiation_type           MoK\a
_diffrn_radiation_wavelength     0.71073
_diffrn_reflns_av_R_equivalents  0.0339
_diffrn_reflns_av_unetI/netI     0.0177
_diffrn_reflns_Laue_measured_fraction_full 1.000
_diffrn_reflns_Laue_measured_fraction_max 1.000
_diffrn_reflns_limit_h_max       20
_diffrn_reflns_limit_h_min       -20
_diffrn_reflns_limit_k_max       20
_diffrn_reflns_limit_k_min       -20
_diffrn_reflns_limit_l_max       9
_diffrn_reflns_limit_l_min       -9
_diffrn_reflns_number            24672
_diffrn_reflns_point_group_measured_fraction_full 1.000
_diffrn_reflns_point_group_measured_fraction_max 1.000
_diffrn_reflns_theta_full        25.242
_diffrn_reflns_theta_max         37.828
_diffrn_reflns_theta_min         2.377
_diffrn_source                   'microfocus sealed X-ray tube'
_exptl_absorpt_coefficient_mu    18.772
_exptl_absorpt_correction_type   multi-scan
_exptl_crystal_colour            colorless
_exptl_crystal_density_diffrn    4.954
_exptl_crystal_description       prismatic
_exptl_crystal_F_000             1112
_exptl_crystal_size_max          0.1
_exptl_crystal_size_mid          0.04
_exptl_crystal_size_min          0.03
_exptl_transmission_factor_max   0.1688
_exptl_transmission_factor_min   0.1061
_refine_diff_density_max         0.476
_refine_diff_density_min         -0.472
_refine_diff_density_rms         0.137
_refine_ls_abs_structure_details
;
 Refined as an inversion twin.
;
_refine_ls_abs_structure_Flack   0.039(12)
_refine_ls_extinction_coef       0.00202(6)
_refine_ls_extinction_expression Fc^*^=kFc[1+0.001xFc^2^\l^3^/sin(2\q)]^-1/4^
_refine_ls_extinction_method     'SHELXL-2014/7 (Sheldrick 2014'
_refine_ls_goodness_of_fit_ref   1.070
_refine_ls_hydrogen_treatment    undef
_refine_ls_matrix_type           full
_refine_ls_number_parameters     70
_refine_ls_number_reflns         2244
_refine_ls_number_restraints     0
_refine_ls_restrained_S_all      1.070
_refine_ls_R_factor_all          0.0128
_refine_ls_R_factor_gt           0.0116
_refine_ls_shift/su_max          0.002
_refine_ls_shift/su_mean         0.000
_refine_ls_structure_factor_coef Fsqd
_refine_ls_weighting_details
'w=1/[\s^2^(Fo^2^)+(0.0072P)^2^] where P=(Fo^2^+2Fc^2^)/3'
_refine_ls_weighting_scheme      calc
_refine_ls_wR_factor_gt          0.0209
_refine_ls_wR_factor_ref         0.0210
_reflns_Friedel_coverage         0.856
_reflns_Friedel_fraction_full    1.000
_reflns_Friedel_fraction_max     1.000
_reflns_number_gt                2175
_reflns_number_total             2244
_reflns_threshold_expression     'I > 2\s(I)'
_cod_data_source_file            JSSC-2016-239-200.cif
_cod_data_source_block           Na5Pr4F[GeO4]4
_cod_original_cell_volume        833.92(6)
_cod_database_code               1561464
_shelx_space_group_comment
;
The symmetry employed for this shelxl refinement is uniquely defined
by the following loop, which should always be used as a source of
symmetry information in preference to the above space-group names.
They are only intended as comments.
;
_shelx_estimated_absorpt_t_max   0.603
_shelx_estimated_absorpt_t_min   0.255
_olex2_refinement_description
;
1. Twinned data refinement
 Scales: 0.961(12) 0.039(12)
;
_shelx_res_file
;
    bw1181c.res created by SHELXL-2014/7

TITL bw1181c_a.res in I-4
REM Old TITL BW1181C in I-4 #82
REM SHELXT solution in I-4
REM R1 0.066, Rweak 0.031, Alpha 0.007, Orientation as input
REM Flack x = 0.060 ( 0.011 ) from Parsons' quotients
REM Formula found by SHELXT: O16 F Na5 Ge4 Pr4
CELL 0.71073 12.1173 12.1173 5.6795 90 90 90
ZERR 2 0.0004 0.0004 0.0002 0 0 0
LATT -2
SYMM -X,-Y,+Z
SYMM +Y,-X,-Z
SYMM -Y,+X,-Z
SFAC F Ge Na O Pr
UNIT 2 8 10 32 8

L.S. 10
PLAN  20
SIZE 0.03 0.04 0.1
TEMP 27(2)
BOND $H
LIST 4
MORE -1
CONF
fmap 2
acta
TWIN -1 0 0 0 -1 0 0 0 -1 2
REM <olex2.extras>
REM <HklSrc "%.\\BW1181C.hkl">
REM </olex2.extras>

WGHT    0.007200
EXTI    0.002021
BASF   0.03924
FVAR       0.17756
PR1   5    0.384880    0.817328    0.773590    11.00000    0.00693    0.00778 =
         0.00909    0.00004    0.00028    0.00030
GE1   2    0.602548    0.752461    0.260119    11.00000    0.00777    0.00806 =
         0.00712   -0.00031   -0.00003    0.00044
NA2   3    0.604090    0.412422    0.231875    11.00000    0.01825    0.01582 =
         0.03209   -0.00147   -0.00216    0.00100
NA1   3    0.500000    1.000000    0.250000    10.25000    0.01957    0.01957 =
         0.05568    0.00000    0.00000    0.00000
F1    1    0.500000    1.000000    0.750000    10.25000    0.01214    0.01214 =
         0.02734    0.00000    0.00000    0.00000
O2    4    0.606427    0.609502    0.221106    11.00000    0.01423    0.00813 =
         0.02151   -0.00125    0.00088   -0.00098
O4    4    0.546356    0.822087    0.020694    11.00000    0.01108    0.01819 =
         0.01001    0.00480   -0.00129   -0.00146
O1    4    0.534500    0.788294    0.520493    11.00000    0.01141    0.02209 =
         0.01118   -0.00615    0.00241   -0.00169
O3    4    0.738759    0.796105    0.322952    11.00000    0.00872    0.01189 =
         0.01343   -0.00186   -0.00042   -0.00099
HKLF 4

REM  bw1181c_a.res in I-4
REM R1 =  0.0116 for    2175 Fo > 4sig(Fo)  and  0.0128 for all    2244 data
REM     70 parameters refined using      0 restraints

END

WGHT      0.0072      0.0000

REM Highest difference peak  0.476,  deepest hole -0.472,  1-sigma level  0.137
Q1    1   0.5767  0.7713 -0.2059  11.00000  0.05    0.48
Q2    1   0.5301  0.7990 -0.1510  11.00000  0.05    0.47
Q3    1   0.6869  0.8237  0.3059  11.00000  0.05    0.47
Q4    1   0.7066  0.8091  0.1829  11.00000  0.05    0.47
Q5    1   0.6008  0.6159  0.3505  11.00000  0.05    0.46
Q6    1   0.4717  0.7878  0.7756  11.00000  0.05    0.45
Q7    1   0.5106  0.8542  0.3026  11.00000  0.05    0.45
Q8    1   0.5777  0.7627  0.6470  11.00000  0.05    0.45
Q9    1   0.3636  0.9140  0.7995  11.00000  0.05    0.44
Q10   1   0.6968  0.7583  0.2562  11.00000  0.05    0.42
Q11   1   0.7258  0.7225  0.1668  11.00000  0.05    0.41
Q12   1   0.5988  0.3680  0.3302  11.00000  0.05    0.41
Q13   1   0.5440  0.3854  0.2841  11.00000  0.05    0.41
Q14   1   0.7205  0.8176  0.2544  11.00000  0.05    0.40
Q15   1   0.2685  0.8618  0.8041  11.00000  0.05    0.40
Q16   1   0.3789  0.7594  0.6951  11.00000  0.05    0.39
Q17   1   0.7559  0.7693  0.2018  11.00000  0.05    0.39
Q18   1   0.4236  0.7857  0.6851  11.00000  0.05    0.39
Q19   1   0.6276  0.5606  0.2480  11.00000  0.05    0.38
Q20   1   0.4894  0.8565 -0.1306  11.00000  0.05    0.38
;
_shelx_res_checksum              32056
_shelx_hkl_file
;
  -1   1   0  503.85   15.20
  -1   1   0  518.35   15.10
  -1   1   0  514.35   15.30
  -1   1   0  467.35   15.80
  -1   1   0  520.75   15.30
  -1   1   0  487.55   15.20
   1  -1   0  499.75   15.10
   1  -1   0  531.35   15.50
   1  -1   0  491.75   15.30
   1  -1   0  496.45   15.30
   1  -1   0  416.56   15.70
   1   1   0  512.75   15.40
   1   1   0  509.65   15.10
   1   1   0  486.05   15.10
  -1  -1   0  482.75   15.30
  -1  -1   0  502.45   15.40
  -1  -1   0  504.75   15.30
  -1  -1   0  514.25   15.10
  -1  -1   0  479.65   15.10
  -1  -1   0  517.65   15.10
  -1  -1   0  507.25   15.10
  -1  -1   0  502.75   15.20
   0   2   0  916.71   27.70
   0   2   0  912.31   27.60
   0   2   0  923.01   27.60
   0   2   0  908.01   27.60
   2   0   0  868.91   27.80
   2   0   0  924.91   27.70
   2   0   0  914.71   27.60
   2   0   0  921.21   27.70
  -2   0   0  923.41   27.60
  -2   0   0  923.81   27.60
   0  -2   0  897.11   27.60
   0  -2   0  961.20   27.60
   0  -2   0  900.81   27.70
   0  -2   0  919.91   27.70
   0  -2   0  922.41   27.70
  -2   0   0  933.71   27.70
  -2   0   0  914.51   27.70
   0  -2   0  907.41   27.60
   0  -2   0  911.61   27.60
   0  -2   0  904.81   27.50
   0  -2   0  925.21   27.90
   0   2   0  933.61   27.60
   0   2   0  903.41   27.60
   0   2   0  896.81   27.60
   0   2   0  894.11   27.70
  -2   0   0  792.92   27.90
  -2   0   0  910.31   27.70
  -2   0   0  894.91   27.60
  -2   0   0  953.30   27.80
  -2  -2   0  195.78    6.90
  -2  -2   0  194.78    7.20
  -2  -2   0  203.28    6.80
  -2  -2   0  213.88    6.70
  -2  -2   0  205.58    6.70
  -2  -2   0  192.78    6.60
  -2  -2   0  199.78    6.90
  -2  -2   0  197.68    7.10
   2  -2   0  204.88    6.90
   2  -2   0  207.58    6.70
  -2   2   0  213.18    7.00
   2   2   0  187.68    7.10
   2   2   0  203.48    6.70
   2   2   0  200.28    6.80
  -2   2   0  202.98    6.60
  -2   2   0  207.98    7.10
  -2   2   0  198.38    7.30
   2  -2   0  211.68    7.00
   2  -2   0  209.48    7.10
   2  -2   0  195.28    7.30
   2   2   0  202.88    6.90
   2   2   0  202.28    6.70
  -2   2   0  196.88    7.00
  -2   2   0  215.88    6.80
   1  -3   0  664.13   21.40
  -3  -1   0  697.53   21.70
  -3  -1   0  653.73   21.50
  -3  -1   0  673.23   21.20
  -3  -1   0  659.93   21.10
  -3  -1   0  684.23   21.00
   3   1   0  683.63   21.00
   3   1   0  679.03   21.40
   3   1   0  689.13   21.50
   3   1   0  663.23   21.10
   3   1   0  694.53   20.60
   1  -3   0  672.23   21.00
   1  -3   0  716.73   21.20
   1  -3   0  637.44   21.50
   1  -3   0  717.83   21.30
   1  -3   0  653.03   21.70
   3   1   0  684.13   21.40
  -1   3   0  676.13   21.20
  -1   3   0  662.53   21.20
  -1   3   0  674.23   21.10
   1  -3   0  692.23   21.20
   1  -3   0  687.53   21.30
   1  -3   0  689.43   21.20
  -3  -1   0  679.03   21.00
  -3  -1   0  698.93   21.40
  -1   3   0  713.53   21.20
  -1   3   0  674.63   21.50
  -1   3   0  690.73   21.20
  -3  -1   0  677.63   20.60
  -1   3   0  692.93   21.30
   3  -1   0  979.40   30.40
   3  -1   0  962.30   30.50
   3  -1   0 1016.20   30.30
  -1  -3   0  963.50   30.50
   3  -1   0  969.50   30.30
   3  -1   0 1035.10   30.40
   3  -1   0 1016.80   29.90
   1   3   0  953.20   30.30
   1   3   0 1009.90   30.10
  -1  -3   0  971.20   30.10
  -1  -3   0  947.81   30.10
  -1  -3   0 1020.80   30.10
  -3   1   0 1002.40   30.30
  -3   1   0  959.10   30.40
  -3   1   0 1001.40   30.50
  -3   1   0  957.30   30.00
  -3   1   0  981.40   30.40
  -3   1   0  974.00   30.40
  -3   1   0  985.60   30.30
  -3   1   0 1029.90   30.30
  -3   1   0  976.80   29.80
  -1  -3   0  974.90   30.20
   1   3   0 1048.90   30.20
   1   3   0  965.40   30.00
   1   3   0  985.60   30.50
  -1  -3   0 1006.60   30.20
   3  -1   0  972.30   30.40
   3  -1   0 1023.90   30.40
   1   3   0  987.20   30.50
   1   3   0  980.00   29.80
   3  -1   0  992.40   30.00
  -1  -3   0  996.20   30.10
  -1  -3   0  993.30   29.90
  -1  -3   0  997.50   30.60
   1   3   0  955.60   30.00
   3   3   0 1021.90   31.50
   3  -3   0 1003.30   31.10
   3  -3   0 1037.90   30.80
   3  -3   0 1020.90   31.30
   3   3   0 1030.00   30.80
  -3  -3   0  997.10   30.90
  -3  -3   0 1003.20   30.90
  -3  -3   0 1005.90   30.70
  -3  -3   0  991.00   30.90
   3   3   0  971.20   30.80
   3  -3   0 1004.80   31.30
   3   3   0 1007.30   31.10
  -3   3   0 1012.00   31.70
  -3   3   0  990.10   30.70
  -3   3   0 1043.80   31.50
  -3   3   0  992.10   31.20
   3  -3   0  997.50   30.90
  -3   3   0 1011.00   31.00
  -3   3   0 1032.40   31.20
   3  -3   0 1001.00   31.30
  -3   3   0  989.10   31.30
   3   3   0  991.60   31.00
   4   2   0   10.80    1.20
   4   2   0    7.00    1.80
  -2   4   0    6.60    1.50
  -2   4   0    6.40    2.10
  -2   4   0    8.00    2.10
  -2   4   0    6.40    1.60
   4   2   0    8.90    1.60
  -4  -2   0    8.60    2.10
   4   2   0    9.30    1.30
   4   2   0    9.40    1.90
   4   2   0   12.90    1.80
  -4  -2   0    6.10    1.60
   2  -4   0   11.60    2.00
   2  -4   0    9.10    2.00
   2  -4   0    6.90    1.50
  -4  -2   0    7.60    1.70
  -4  -2   0   12.90    1.70
  -4  -2   0   13.80    1.90
  -2   4   0    6.20    2.00
  -2   4   0   12.10    2.50
   2  -4   0    5.00    1.60
  -4  -2   0   16.10    1.90
   2  -4   0   11.10    1.50
   2  -4   0    7.00    2.30
  -2   4   0   11.20    2.20
  -4   0   0 1078.59   34.10
   0  -4   0 1095.49   34.10
   0  -4   0 1078.69   33.90
   0  -4   0 1137.19   34.00
   0  -4   0 1104.69   34.10
   4   0   0 1102.39   34.00
   4   0   0 1016.30   34.10
  -4   0   0 1135.29   33.90
   0   4   0 1141.19   34.10
   0   4   0 1099.49   33.90
   0   4   0 1114.59   34.50
   4   0   0 1097.49   34.20
   4   0   0 1092.49   34.20
   0   4   0 1064.19   34.00
   4   0   0 1122.39   33.90
   0   4   0 1140.19   34.10
   4   0   0 1161.58   34.10
   0  -4   0 1128.69   33.90
   0   4   0 1093.89   33.90
   0   4   0 1141.29   34.20
  -4   0   0 1144.59   34.20
  -4   0   0 1066.59   34.00
  -4   0   0 1119.59   33.90
  -4   2   0 3652.03  111.29
  -2  -4   0 3697.13  111.19
   4  -2   0 3884.41  111.39
   4  -2   0 3679.03  111.29
  -4   2   0 3719.43  110.79
   4  -2   0 3708.83  111.29
   2   4   0 3537.85  110.99
   2   4   0 3824.22  110.29
   2   4   0 3622.94  110.79
   2   4   0 3796.52  110.99
   4  -2   0 3580.04  111.09
   4  -2   0 3814.62  110.89
  -4   2   0 3626.44  111.39
  -2  -4   0 3720.03  110.89
   2   4   0 3726.83  111.49
  -2  -4   0 3639.54  110.99
  -2  -4   0 3762.02  110.39
  -2  -4   0 3782.42  110.89
  -4   2   0 3634.94  111.59
   4  -2   0 3598.24  111.29
   2   4   0 3746.83  111.39
  -4   2   0 3645.54  111.19
   4   4   0    4.30    2.00
  -4   4   0    0.60    2.00
   4  -4   0    1.70    2.00
  -4   4   0    0.90    2.40
  -4  -4   0    4.90    2.30
  -4  -4   0    2.50    1.90
   4   4   0    5.20    2.00
   4   4   0    3.60    1.60
   4   4   0    4.40    2.00
   4   4   0    0.80    2.20
  -4  -4   0    1.80    1.60
  -4   4   0    2.30    2.10
   4  -4   0    3.20    2.10
   4  -4   0   11.60    2.20
  -4   4   0    3.80    2.90
   4  -4   0    3.60    1.90
  -4   4   0    4.70    1.50
  -4  -4   0    3.20    1.90
   4  -4   0    2.00    2.30
   5   3   0  447.56   16.20
   3  -5   0  405.96   14.40
  -3   5   0  423.46   15.10
   5   3   0  439.26   14.50
   5   3   0  423.16   13.10
   5   3   0  429.46   14.80
   5   3   0  425.56   13.90
  -5  -3   0  423.06   13.10
  -5  -3   0  438.46   14.10
   5   3   0  418.76   13.90
   3  -5   0  422.06   13.80
  -5  -3   0  419.16   13.70
  -5  -3   0  411.66   13.50
  -3   5   0  433.86   14.00
  -5  -3   0  427.86   14.90
   3  -5   0  402.46   14.20
   5   3   0  425.96   13.50
  -3   5   0  416.66   14.90
  -3   5   0  403.86   14.70
   3  -5   0  416.96   14.60
  -5  -3   0  398.06   14.00
  -1   5   0 1522.95   46.50
   1  -5   0 1475.35   46.10
   5   1   0 1407.66   46.90
  -1   5   0 1554.54   46.30
   5   1   0 1446.16   46.00
  -1   5   0 1500.05   46.80
  -1   5   0 1414.86   46.40
  -1   5   0 1535.15   46.40
   1  -5   0 1485.75   46.50
   5   1   0 1569.04   46.40
   5   1   0 1492.75   46.50
  -5  -1   0 1494.45   46.30
  -5  -1   0 1548.45   46.20
   1  -5   0 1487.05   46.20
   5   1   0 1562.44   46.10
  -5  -1   0 1511.05   46.80
  -5  -1   0 1520.75   46.00
   5   1   0 1491.95   46.10
  -5  -1   0 1549.14   45.90
  -1   5   0 1484.25   46.10
   1  -5   0 1522.55   46.30
   1  -5   0 1569.84   46.00
  -1  -5   0 1076.09   34.60
  -5   1   0 1131.69   33.90
   1   5   0 1123.69   34.40
   5  -1   0 1124.09   34.90
   5  -1   0 1113.19   35.00
  -5   1   0 1109.09   35.10
  -1  -5   0 1134.09   34.70
  -5   1   0 1176.58   34.90
  -5   1   0 1136.29   35.30
   5  -1   0 1188.48   35.30
   1   5   0 1125.09   34.80
   1   5   0 1161.38   34.80
  -5   1   0 1113.69   35.10
   1   5   0 1116.89   35.40
   5  -1   0 1108.19   35.00
   1   5   0 1109.99   35.20
   5  -1   0 1090.29   34.90
   5  -1   0 1138.49   34.00
   1   5   0 1197.98   34.80
  -1  -5   0 1057.49   34.80
  -5   1   0 1163.48   34.60
  -1  -5   0 1129.39   34.80
   1   5   0 1089.69   34.60
   5  -1   0 1112.29   34.50
  -1  -5   0 1104.49   34.50
   5  -3   0 1809.22   55.89
  -3  -5   0 1882.81   55.99
  -5   3   0 1838.32   56.89
  -3  -5   0 1822.22   56.59
   3   5   0 1869.61   56.69
   5  -3   0 1756.22   56.59
   5  -3   0 1855.81   56.69
   3   5   0 1893.41   57.09
  -5   3   0 1833.82   57.19
  -3  -5   0 1880.91   56.19
   3   5   0 1903.61   56.19
  -5   3   0 1635.74   58.49
  -5   3   0 1870.51   56.09
   5  -3   0 1930.01   55.89
   3   5   0 1867.01   56.19
   3   5   0 1862.11   56.39
   5  -3   0 1877.01   56.89
  -5   3   0 1785.02   56.79
   5  -3   0 1871.91   56.39
  -3  -5   0 1857.11   56.29
   3   5   0 1865.41   56.09
   5  -5   0 2316.07   71.49
  -5   5   0 2386.76   71.39
   5   5   0 2361.26   71.39
  -5  -5   0 2323.07   71.79
   5  -5   0 2338.77   71.39
   5   5   0 2366.06   71.99
  -5  -5   0 2295.37   70.99
  -5  -5   0 2349.76   70.99
  -5   5   0 2287.27   72.19
  -5  -5   0 2320.57   70.59
  -5   5   0 2295.77   71.39
   5   5   0 2326.77   70.99
   5   5   0 2382.36   70.99
   5  -5   0 2324.37   70.69
   5  -5   0 2239.38   70.79
   5   5   0 2338.77   70.89
   5  -5   0 2369.56   71.49
  -5   5   0 2337.87   71.89
   5   5   0 2392.66   70.79
   6   4   0 1392.66   45.60
  -6  -4   0 1459.25   45.30
   4  -6   0 1498.65   45.50
  -6  -4   0 1472.45   45.20
  -6  -4   0 1348.47   46.00
  -4   6   0 1430.56   46.30
  -4   6   0 1524.95   45.10
   6   4   0 1518.15   45.00
   6   4   0 1526.05   45.20
  -4   6   0 1409.76   46.00
   6   4   0 1454.15   45.10
  -4   6   0 1489.65   45.70
  -4   6   0 1496.45   46.00
   6   4   0 1489.15   44.60
  -6  -4   0 1412.76   44.70
   4  -6   0 1442.26   45.80
   4  -6   0 1430.56   44.90
   6   4   0 1479.45   46.10
   4  -6   0 1519.75   45.70
  -6  -2   0 3033.40   90.19
   2  -6   0 3107.59   90.89
   2  -6   0 2966.50   90.69
   6   2   0 2813.72   90.09
   6   2   0 2921.41   90.99
  -2   6   0 3015.90   90.79
   2  -6   0 2943.61   90.99
  -2   6   0 2909.01   90.69
   6   2   0 3171.48   90.69
  -6  -2   0 3050.09   90.69
  -2   6   0 2970.70   91.29
   6   2   0 3069.49   90.49
  -6  -2   0 3116.19   90.29
   2  -6   0 3014.70   90.39
  -2   6   0 2963.00   91.09
   6   2   0 3013.50   91.09
  -2   6   0 3005.80   91.49
  -6  -2   0 2901.61   91.39
  -6   0   0  495.05   17.30
   0  -6   0  517.15   17.10
  -6   0   0  523.35   17.30
  -6   0   0  529.95   17.00
  -6   0   0  497.65   17.40
   6   0   0  513.45   17.40
   0   6   0  519.15   17.00
   0   6   0  513.75   17.20
   0  -6   0  528.25   17.10
   6   0   0  508.35   17.40
   0  -6   0  508.75   17.00
   6   0   0  549.45   17.40
   6   0   0  512.05   16.90
   0   6   0  503.55   17.30
   0  -6   0  510.65   16.80
   6   0   0  509.25   17.10
   0   6   0  520.45   17.30
   0  -6   0  502.45   17.30
   0   6   0  513.55   16.90
   0   6   0  524.35   17.90
   6  -2   0  174.58    7.70
  -6   2   0  154.58    8.60
  -2  -6   0  165.08    6.80
  -2  -6   0  170.78    7.60
  -6   2   0  159.08    7.20
   2   6   0  172.78    8.00
  -6   2   0  162.38    8.20
  -6   2   0  176.38    6.40
  -6   2   0  157.68    7.90
   6  -2   0  166.48    6.70
  -2  -6   0  175.78    6.90
   6  -2   0  179.48    7.90
   2   6   0  170.58    6.80
   6  -2   0  167.78    8.20
   2   6   0  162.98    7.30
  -2  -6   0  167.58    7.20
   2   6   0  176.48    7.20
   2   6   0  166.68    7.90
   6  -2   0  168.58    7.50
   2   6   0  169.38    6.30
   6  -2   0  174.68    6.60
  -6   2   0  167.38    7.50
   6  -2   0  178.68    7.50
  -2  -6   0  162.88    7.20
   6  -4   0  670.13   20.90
   6  -4   0  639.64   22.10
   6  -4   0  658.23   21.60
   4   6   0  654.33   21.30
  -4  -6   0  667.33   21.70
  -4  -6   0  633.94   21.40
  -6   4   0  678.83   22.20
  -4  -6   0  680.23   22.10
   6  -4   0  654.43   22.00
  -4  -6   0  654.53   21.30
   4   6   0  658.93   21.40
   6  -4   0  647.54   21.90
   4   6   0  689.03   21.60
   4   6   0  642.74   21.90
   4   6   0  647.14   22.50
  -6   4   0  648.14   21.40
   4   6   0  636.44   21.70
  -6   4   0  667.93   22.90
  -6   4   0  673.83   22.50
  -6   6   0  187.68    9.10
  -6  -6   0  168.98    8.10
   6   6   0  197.88    8.80
  -6   6   0  185.58    9.80
   6  -6   0  196.28    9.40
   6  -6   0  182.48    8.70
  -6   6   0  185.08    8.60
   6   6   0  178.98    8.60
  -6  -6   0  175.88    8.90
  -6  -6   0  198.08    9.40
   6  -6   0  178.98    8.10
   6   6   0  177.58    7.90
  -6   6   0  183.98   10.00
   6   6   0  194.18    9.00
   6   6   0  189.68    9.60
   6  -6   0  188.68    7.70
   6   6   0  192.98    8.30
  -6  -6   0  170.08    8.20
   5  -7   0  892.11   29.10
   7   5   0  886.61   29.30
   7   5   0  920.81   28.70
   5  -7   0  868.51   28.40
  -7  -5   0  910.21   29.00
   7   5   0  912.31   28.80
  -5   7   0  912.41   28.40
   7   5   0  900.71   28.00
  -5   7   0  895.21   29.30
  -5   7   0  865.11   29.80
   5  -7   0  887.71   29.50
   5  -7   0  918.61   29.40
   7   5   0  899.41   29.90
  -5   7   0  891.31   30.20
  -7  -5   0  883.61   29.80
  -7  -5   0  872.11   28.30
  -7  -5   0  835.92   28.70
  -5   7   0  929.21   29.60
   7   5   0  862.81   28.60
  -3   7   0 1441.76   48.20
  -3   7   0 1551.44   47.80
  -7  -3   0 1547.75   47.50
   7   3   0 1574.04   46.00
  -3   7   0 1510.45   48.20
  -7  -3   0 1489.65   46.80
  -7  -3   0 1495.95   46.00
   3  -7   0 1617.24   47.80
   3  -7   0 1548.55   47.90
  -7  -3   0 1524.65   46.40
   7   3   0 1571.94   47.40
  -7  -3   0 1487.95   47.80
   7   3   0 1525.85   47.40
  -3   7   0 1529.85   47.60
  -7  -3   0 1455.15   48.30
   7   3   0 1519.65   46.50
   7   3   0 1569.34   47.10
   7   3   0 1526.65   47.90
   3  -7   0 1556.44   47.50
   7   3   0 1614.74   48.20
   3  -7   0 1523.25   47.10
  -3   7   0 1462.15   48.20
  -1   7   0 1479.85   48.40
  -7  -1   0 1539.45   47.80
   1  -7   0 1598.94   47.70
   7   1   0 1601.64   47.70
  -1   7   0 1526.75   47.80
  -7  -1   0 1568.94   47.20
  -7  -1   0 1483.25   47.80
  -7  -1   0 1503.15   47.40
   7   1   0 1673.23   47.50
   7   1   0 1516.95   48.10
   1  -7   0 1500.15   47.20
  -1   7   0 1522.55   47.80
  -7  -1   0 1448.85   48.20
  -1   7   0 1591.04   47.60
   1  -7   0 1535.65   47.50
   7   1   0 1528.95   47.60
   7   1   0 1515.55   47.60
   7  -1   0 1185.38   38.10
  -1  -7   0 1242.68   37.90
   1   7   0 1187.88   38.40
   1   7   0 1167.38   37.70
  -7   1   0 1188.98   38.40
   1   7   0 1245.08   38.20
  -7   1   0 1222.88   38.40
   7  -1   0 1234.98   38.40
  -1  -7   0 1181.68   38.10
   7  -1   0 1200.98   38.50
  -1  -7   0 1173.18   37.80
   1   7   0 1219.38   38.90
   7  -1   0 1231.58   36.40
   1   7   0 1242.08   37.90
   7  -1   0 1204.38   37.50
   1   7   0 1198.18   37.40
  -1  -7   0 1209.58   37.90
  -7   1   0 1184.98   38.40
   7  -1   0 1256.57   38.40
  -7   1   0 1208.78   37.90
   7  -1   0 1237.18   38.10
   1   7   0 1251.77   38.10
  -7   3   0 1933.61   58.39
   3   7   0 1904.61   57.99
   7  -3   0 1865.91   58.49
   3   7   0 1893.91   58.09
  -7   3   0 1918.41   58.99
  -3  -7   0 1856.71   57.89
  -3  -7   0 1869.61   57.69
  -3  -7   0 1806.52   58.09
   3   7   0 1942.51   56.79
   3   7   0 1950.20   58.09
  -7   3   0 1907.51   57.39
   7  -3   0 1931.01   58.59
   3   7   0 1912.31   58.79
  -3  -7   0 1869.61   58.39
  -3  -7   0 1848.02   56.89
   7  -3   0 1868.21   58.19
   3   7   0 1858.61   58.89
   7  -3   0 1895.71   57.39
  -7   3   0 1906.21   58.89
   7  -3   0 1884.11   58.49
   3   7   0 1843.82   57.79
   7  -5   0 2326.67   71.39
   5   7   0 2264.57   70.99
  -5  -7   0 2370.26   70.79
   5   7   0 2375.86   70.79
   5   7   0 2267.87   71.89
   7  -5   0 2268.97   70.79
   7  -5   0 2370.76   70.09
  -7   5   0 2355.96   71.79
   7  -5   0 2334.07   71.39
   5   7   0 2321.97   70.59
   5   7   0 2351.66   70.59
  -5  -7   0 2284.67   70.79
   7  -5   0 2283.07   71.29
   5   7   0 2325.17   71.09
  -7   5   0 2322.07   72.09
  -7   5   0 2323.47   70.69
  -5  -7   0 2263.17   71.39
  -7   5   0 2310.87   71.29
  -5  -7   0 2196.68   70.19
   7  -7   0    1.70    2.80
  -7   7   0    2.70    3.90
  -7   7   0    0.00    3.40
   7   7   0    0.20    3.20
   7  -7   0   -0.80    3.10
   7  -7   0   -5.30    3.40
  -7  -7   0    7.20    5.00
  -7  -7   0    0.90    3.70
  -7   7   0    8.30    4.90
   7  -7   0    2.60    4.40
   7  -7   0    0.90    3.60
  -7  -7   0    1.50    4.40
   7   7   0   -1.80    4.20
  -7   7   0    4.90    4.40
  -8  -6   0  106.69    8.30
  -8  -6   0  109.89    9.60
   6  -8   0  105.79    6.80
  -6   8   0  112.69    8.20
   6  -8   0  104.29    8.70
   6  -8   0  120.99    8.00
   8   6   0  129.59    8.80
   8   6   0   99.79    8.00
   6  -8   0  125.59    8.70
  -6   8   0  119.29    8.60
  -6   8   0  100.09    9.90
   8   6   0  119.99    9.20
  -6   8   0  121.39    9.30
   8   6   0  117.79    6.50
  -6   8   0  110.89    6.70
   8   6   0  105.59    8.10
  -8  -4   0    5.80    3.80
   4  -8   0    9.60    3.70
  -4   8   0    5.80    3.40
  -4   8   0    8.70    4.40
  -4   8   0    7.80    2.90
  -8  -4   0    7.20    2.30
   8   4   0   11.60    3.60
   8   4   0    8.10    3.70
  -8  -4   0    9.90    5.40
  -8  -4   0    9.00    2.20
  -4   8   0   14.30    4.60
   4  -8   0    7.10    2.70
  -8  -4   0    6.70    3.70
  -8  -4   0    7.70    1.80
   4  -8   0    7.00    3.80
   8   4   0    3.30    4.00
   8   4   0    2.90    2.70
   8   4   0    2.40    2.90
   8   4   0    5.70    1.90
   4  -8   0   11.10    3.30
  -8  -4   0    5.10    3.00
  -4   8   0    6.50    3.80
   8   2   0    7.00    3.50
  -8  -2   0    7.70    3.60
   2  -8   0    6.20    2.40
  -2   8   0    9.30    4.00
  -2   8   0    7.00    3.60
  -2   8   0    9.80    2.90
  -2   8   0    5.70    3.40
   8   2   0    6.60    3.40
   8   2   0   12.40    3.30
  -8  -2   0   11.00    3.50
   8   2   0    7.80    3.40
   2  -8   0    7.40    3.10
  -8  -2   0    6.90    3.80
   2  -8   0   14.70    3.70
   2  -8   0    6.70    2.70
  -8  -2   0   11.90    3.10
  -2   8   0    8.90    2.90
  -8   0   0  448.06   16.60
   0   8   0  456.95   16.00
   0  -8   0  423.56   15.50
   0   8   0  427.46   15.20
  -8   0   0  434.56   15.80
  -8   0   0  423.86   15.10
   8   0   0  411.76   16.00
   8   0   0  432.76   16.00
   0  -8   0  434.76   14.90
  -8   0   0  412.76   15.30
   0  -8   0  429.76   15.30
   0   8   0  434.66   15.70
   0  -8   0  425.16   15.20
   8   0   0  457.55   16.00
   0   8   0  438.06   15.20
   0   8   0  414.96   16.30
  -8   0   0  422.76   16.10
   8   0   0  426.26   15.40
   8   0   0  414.16   15.80
   8   0   0  428.46   15.10
  -8   2   0 1293.97   40.70
  -2  -8   0 1295.67   39.80
   2   8   0 1274.07   38.90
   8  -2   0 1305.47   40.30
  -8   2   0 1253.47   40.50
   8  -2   0 1278.57   40.40
  -8   2   0 1316.87   38.50
   8  -2   0 1273.07   39.20
  -2  -8   0 1256.47   40.20
   2   8   0 1262.57   40.00
   8  -2   0 1255.27   40.20
  -8   2   0 1307.57   40.00
   2   8   0 1228.58   39.60
   2   8   0 1204.38   40.60
   8  -2   0 1306.87   40.20
   8  -2   0 1271.67   38.50
   2   8   0 1222.48   40.70
  -2  -8   0 1253.77   39.90
  -2  -8   0 1274.57   39.70
   2   8   0 1320.77   39.90
  -8   2   0 1149.29   40.60
   8  -4   0  595.44   20.80
   8  -4   0  648.04   21.60
   4   8   0  612.14   21.10
   4   8   0  610.84   21.40
   8  -4   0  633.74   21.30
  -8   4   0  631.74   21.90
  -8   4   0  609.44   22.00
  -4  -8   0  593.14   20.50
   4   8   0  598.04   21.90
   8  -4   0  600.64   21.20
   4   8   0  647.94   21.10
   4   8   0  613.14   20.50
  -8   4   0  617.84   20.00
  -4  -8   0  578.64   21.00
  -4  -8   0  618.14   20.60
   8  -4   0  604.54   19.60
   4   8   0  608.44   20.80
  -4  -8   0  588.84   21.20
  -8   4   0  590.64   21.20
  -8   6   0  123.09   10.20
  -8   6   0  122.19    9.00
   6   8   0  120.79    8.20
   8  -6   0  134.39    6.60
  -6  -8   0  105.89    9.80
  -6  -8   0  121.69    9.80
   8  -6   0  118.09    9.00
   6   8   0  130.89    9.00
   8  -6   0  127.69    8.20
   6   8   0  123.09    9.10
   6   8   0  119.39    9.20
  -8   6   0  132.49    7.70
  -8   6   0  131.59    9.40
   8  -6   0  119.59    8.80
   8  -6   0  136.39    7.60
  -8   8   0  576.34   21.70
   8   8   0  514.45   20.20
   8  -8   0  586.34   21.40
   8  -8   0  545.85   19.40
  -8  -8   0  536.35   21.10
   8  -8   0  535.35   20.60
   8   8   0  553.14   19.50
   8  -8   0  572.94   20.90
   8  -8   0  584.44   19.10
  -8   8   0  539.75   21.80
  -8  -8   0  524.65   19.80
  -8   8   0  591.64   21.20
   8   8   0  535.85   19.60
  -8   8   0  566.74   20.30
   8   8   0  525.35   21.70
  -7   9   0  577.24   22.30
   9   7   0  583.24   19.40
   7  -9   0  569.84   21.30
   7  -9   0  601.14   20.00
  -7   9   0  555.04   21.20
  -7   9   0  579.64   21.40
   9   7   0  557.94   22.20
   9   7   0  546.15   20.20
   9   7   0  533.35   20.80
  -7   9   0  569.84   22.50
   7  -9   0  574.54   19.90
  -9  -7   0  558.14   20.50
  -9  -7   0  559.24   21.80
   7  -9   0  557.64   21.00
   7  -9   0  625.44   21.80
   5  -9   0 2316.07   71.49
   9   5   0 2281.07   70.79
  -5   9   0 2340.97   72.39
  -5   9   0 2307.37   70.49
  -5   9   0 2312.87   71.29
   9   5   0 2423.96   69.19
   5  -9   0 2298.57   70.29
   9   5   0 2347.17   71.99
   9   5   0 2281.17   70.79
  -9  -5   0 2231.78   70.89
   5  -9   0 2287.47   71.29
  -9  -5   0 2234.88   72.09
   9   5   0 2221.88   71.49
  -9  -5   0 2174.08   73.79
  -5   9   0 2304.77   71.89
   5  -9   0 2331.17   71.09
  -9  -3   0  997.90   35.60
  -9  -3   0 1064.59   33.40
  -3   9   0 1093.09   34.60
   9   3   0 1050.79   35.10
   3  -9   0 1113.79   34.60
   3  -9   0 1090.99   34.80
  -3   9   0 1083.99   35.50
   3  -9   0 1089.09   34.00
   9   3   0 1129.39   34.40
  -9  -3   0 1067.09   34.80
   9   3   0 1042.80   35.20
   9   3   0 1076.59   34.70
  -3   9   0 1107.29   34.80
   3  -9   0 1070.49   35.10
  -9  -3   0 1066.69   35.00
  -3   9   0 1051.49   35.50
   9   3   0 1055.79   34.60
  -3   9   0 1055.39   35.80
   1  -9   0  928.91   28.70
   9   1   0  856.11   29.10
   1  -9   0  899.41   29.10
  -9  -1   0  861.11   29.90
   9   1   0  917.21   29.70
  -1   9   0  877.01   29.10
   9   1   0  897.31   29.80
   1  -9   0  959.80   29.10
  -9  -1   0  897.51   29.00
   9   1   0  933.61   29.20
  -9  -1   0  902.61   29.50
  -9  -1   0  902.51   29.00
  -1   9   0  849.41   29.30
   1  -9   0  802.22   30.50
  -1   9   0  865.41   29.40
  -1   9   0  885.41   30.40
  -9  -1   0  905.81   30.30
   9   1   0  914.21   29.20
  -9   1   0  494.25   17.80
   9  -1   0  510.85   18.40
   9  -1   0  501.45   18.40
   1   9   0  515.65   18.40
  -1  -9   0  495.55   17.50
   9  -1   0  494.35   17.90
  -9   1   0  504.85   18.10
  -9   1   0  478.85   18.40
  -9   1   0  503.85   19.10
   1   9   0  493.45   17.40
   9  -1   0  488.85   17.10
   1   9   0  508.75   17.10
  -1  -9   0  496.35   17.80
  -1  -9   0  499.55   17.40
   1   9   0  521.25   19.10
   1   9   0  497.65   18.40
   1   9   0  489.65   17.50
  -9   3   0  233.78   11.60
   9  -3   0  220.28   11.40
   9  -3   0  218.08   10.30
  -9   3   0  231.98    8.40
   3   9   0  225.48   11.40
   9  -3   0  231.98   11.00
   9  -3   0  217.68    9.00
   3   9   0  224.58   11.20
   9  -3   0  227.58   10.60
  -9   3   0  233.08   11.20
   3   9   0  218.88   11.30
   3   9   0  229.38   11.50
  -3  -9   0  225.38   10.10
   3   9   0  221.18    9.80
   3   9   0  224.18   10.10
   3   9   0  226.18    8.30
  -3  -9   0  213.78   11.80
  -3  -9   0  228.08   11.00
  -9   3   0  234.98   10.90
  -3  -9   0  241.08   10.10
   9  -5   0  821.12   25.50
  -5  -9   0  708.73   27.50
   9  -5   0  793.32   26.70
   5   9   0  826.72   27.30
  -9   5   0  826.42   28.10
   9  -5   0  843.62   27.90
   5   9   0  804.42   26.60
   9  -5   0  786.72   27.30
  -9   5   0  811.62   27.50
   9  -5   0  825.02   27.50
  -9   5   0  782.52   28.30
   5   9   0  789.22   27.30
  -5  -9   0  797.72   27.70
   5   9   0  811.52   27.20
   5   9   0  815.02   28.30
   5   9   0  752.82   28.10
  -9   5   0  852.61   26.10
  -5  -9   0  720.73   28.40
  -9   7   0 1226.68   38.10
   9  -7   0 1204.08   36.90
   9  -7   0 1220.98   39.50
  -9   7   0 1151.28   40.00
   9  -7   0 1220.18   39.10
  -9   7   0 1222.18   39.90
   9  -7   0 1131.59   38.80
   7   9   0 1157.48   37.90
  -7  -9   0 1126.29   38.10
  -7  -9   0 1146.59   39.10
   7   9   0 1158.28   39.80
   9  -7   0 1200.78   38.20
   7   9   0 1191.18   38.30
   7   9   0 1134.79   38.50
  -9   7   0 1205.38   39.20
  -9   9   0  417.76   18.90
  -9  -9   0  384.36   16.30
   9   9   0  412.26   16.00
   9  -9   0  445.06   18.70
  -9   9   0  412.16   18.90
   9   9   0  391.46   15.90
  -9   9   0  418.86   17.00
   9  -9   0  389.86   15.80
   9  -9   0  407.16   17.20
   9  -9   0  407.06   17.60
  -9  -9   0  384.86   17.80
   9   9   0  375.46   17.00
  -9   9   0  378.16   18.70
   9   9   0  393.36   18.60
   9  -9   0  398.56   14.90
   8 -10   0  107.39   10.30
  -8  10   0  117.59   10.30
  -8  10   0  124.79   12.30
  10   8   0   95.79   11.90
  10   8   0  104.19    8.70
   8 -10   0  108.99    8.60
   8 -10   0  121.89   11.60
  -8  10   0  107.59   11.50
   8 -10   0  101.59    8.20
  -8  10   0  125.39   13.10
 -10  -8   0  111.29   11.10
  10   8   0  114.29    8.30
   8 -10   0  109.49   10.80
 -10  -8   0  114.49    9.50
  10   8   0  101.69    9.70
  -6  10   0   71.09    8.50
  10   6   0   79.59    9.30
   6 -10   0   70.99    7.00
  -6  10   0   68.39    9.00
  10   6   0   63.49    8.60
 -10  -6   0   67.69    8.40
  10   6   0   73.79    7.10
 -10  -6   0   57.39    7.60
   6 -10   0   63.89    6.60
  10   6   0   77.29    5.40
  -6  10   0   79.89    8.20
   6 -10   0   70.99    8.50
   6 -10   0   83.09    9.20
  -6  10   0   65.49    7.60
  -6  10   0   67.89    6.80
   4 -10   0  381.76   15.00
  -4  10   0  330.07   15.90
 -10  -4   0  343.67   14.80
  -4  10   0  379.06   16.20
 -10  -4   0  363.16   17.00
 -10  -4   0  342.37   15.80
  10   4   0  347.47   14.50
  -4  10   0  363.56   14.30
 -10  -4   0  374.16   12.50
  10   4   0  364.36   16.40
   4 -10   0  379.56   14.70
  10   4   0  374.96   15.40
   4 -10   0  370.76   13.60
  -4  10   0  379.56   16.90
   4 -10   0  368.76   15.20
  -4  10   0  363.66   15.00
  10   4   0  329.57   15.00
   2 -10   0 2065.29   60.99
 -10  -2   0 1896.31   61.79
  -2  10   0 1941.21   62.09
   2 -10   0 2014.00   60.19
  -2  10   0 1977.80   61.59
  10   2   0 1949.70   60.99
   2 -10   0 1998.00   60.69
  10   2   0 1983.90   60.49
  -2  10   0 1842.22   61.09
  10   2   0 1818.92   61.99
   2 -10   0 1964.30   61.09
  10   2   0 2005.20   61.29
 -10  -2   0 1922.91   59.99
 -10  -2   0 1895.01   61.19
  -2  10   0 1982.80   60.89
  -2  10   0 1945.81   60.89
  10   2   0 1938.31   61.49
   0  10   0 1084.99   35.90
 -10   0   0 1074.89   35.00
   0  10   0 1059.29   34.80
 -10   0   0 1080.99   35.90
   0  10   0 1095.79   36.60
   0 -10   0 1085.69   35.00
  10   0   0 1121.29   36.30
   0  10   0 1083.79   34.80
   0  10   0 1110.09   35.70
  10   0   0 1166.28   35.30
 -10   0   0 1055.19   35.10
   0 -10   0 1067.99   35.40
 -10   0   0 1008.70   36.20
  10   0   0 1049.00   35.20
   0 -10   0 1087.69   35.00
 -10   0   0 1074.39   36.30
   0 -10   0 1106.89   34.70
  10   0   0 1093.59   34.80
   2  10   0  224.78   10.40
  10  -2   0  225.28    9.40
   2  10   0  224.98   10.10
   2  10   0  231.28    9.10
  -2 -10   0  235.18   10.60
  10  -2   0  188.58   11.40
 -10   2   0  209.98   11.20
  10  -2   0  215.48   11.20
 -10   2   0  227.48   11.60
  10  -2   0  206.38   10.80
  -2 -10   0  213.88   12.10
  -2 -10   0  225.28   10.20
   2  10   0  218.58   12.20
 -10   2   0  234.98   12.00
   2  10   0  225.78   14.80
   2  10   0  228.68   11.70
   4  10   0   16.30    7.60
  10  -4   0   16.80    4.10
   4  10   0   22.60    2.30
  10  -4   0   23.40    5.00
 -10   4   0   20.50    5.40
 -10   4   0   29.70    5.90
  10  -4   0   24.50    6.10
  -4 -10   0   16.30    4.10
  10  -4   0   17.20    4.40
   4  10   0   23.60    4.50
  10  -4   0   21.90    3.50
 -10   4   0   17.40    3.10
   4  10   0   17.80    3.60
   4  10   0   20.30    5.20
  -4 -10   0   22.60    4.30
 -10   4   0   13.30    5.50
 -10   6   0  117.19    7.50
 -10   6   0  110.89   11.80
  10  -6   0  119.09    9.00
  10  -6   0  116.99   11.80
 -10   6   0  102.09   10.60
  10  -6   0  124.49   10.30
   6  10   0  116.09    8.80
 -10   6   0  138.49   10.80
   6  10   0  112.39    8.00
  -6 -10   0  113.49    8.00
  10  -6   0  108.39    9.30
   6  10   0   97.49    9.70
  10  -6   0  123.19    6.90
  -6 -10   0  117.29    9.10
   8  10   0   33.20    5.90
  -8 -10   0   36.20    5.50
  10  -8   0   46.40    8.00
   8  10   0   34.10    5.00
  -8 -10   0   24.10    5.90
   8  10   0   35.60    7.30
   8  10   0   30.90    5.90
 -10   8   0   36.80    8.40
 -10   8   0   28.70    7.40
  10  -8   0   34.60    5.70
  10  -8   0   44.30    6.30
 -10   8   0   26.20    7.80
  10  -8   0   34.30    6.10
  10  -8   0   40.60    6.50
 -10   8   0   28.50    5.20
  10  10   0   31.50    6.50
 -10  10   0   32.10    8.30
  10 -10   0   32.70   12.60
  10 -10   0   14.70    7.50
 -10  10   0   19.00    5.80
  10  10   0   21.90    5.30
  10  10   0   27.20    8.20
 -10 -10   0   19.40    6.00
  10 -10   0   24.90    5.90
  10  10   0   31.20    6.10
 -10 -10   0   22.20    6.80
  -9  11   0  990.00   35.30
  11   9   0  889.81   31.80
   9 -11   0  975.60   34.10
  11   9   0  923.01   33.40
  -9  11   0  939.11   32.90
   9 -11   0  952.50   32.90
  -9  11   0  911.91   34.50
   9 -11   0  949.40   31.30
 -11  -9   0  915.71   34.10
 -11  -9   0  933.61   32.50
  11   9   0  867.01   34.40
  -7  11   0  508.45   20.90
  -7  11   0  525.95   22.20
  11   7   0  512.55   19.50
   7 -11   0  548.05   21.50
  11   7   0  503.35   20.70
 -11  -7   0  486.95   21.50
   7 -11   0  537.05   21.80
  11   7   0  535.65   21.80
  -7  11   0  541.95   22.50
   7 -11   0  498.35   20.20
  -7  11   0  513.75   20.70
   7 -11   0  528.15   19.20
 -11  -7   0  490.75   19.90
 -11  -5   0   -6.30    5.20
  11   5   0   -1.00    4.20
  -5  11   0    4.10    7.00
  -5  11   0    3.90    5.70
  -5  11   0   -3.50    4.20
   5 -11   0    1.30    3.80
  11   5   0   -0.80    4.70
   5 -11   0    4.30    5.50
  11   5   0    2.70    5.50
  -5  11   0   -6.10    4.80
 -11  -5   0    4.10    4.70
   5 -11   0    6.20    4.90
  -5  11   0   -0.30    4.50
   5 -11   0   -0.90    5.60
   3 -11   0   24.20    6.30
  -3  11   0   23.60    6.00
 -11  -3   0   22.80    5.20
  -3  11   0   36.10    7.20
  11   3   0   32.30    5.40
   3 -11   0   28.00    4.20
   3 -11   0   21.70    5.00
  -3  11   0   19.70    4.70
  -3  11   0   22.20    5.10
 -11  -3   0   30.30    4.10
 -11  -3   0   24.30    6.10
  -3  11   0   33.70    6.40
  11   3   0   27.40    4.70
   3 -11   0   29.50    5.10
   1 -11   0    7.90    4.30
  -1  11   0   12.50   10.90
  -1  11   0   16.80    5.60
 -11  -1   0   12.70    4.50
 -11  -1   0   12.50    5.00
   1 -11   0    6.40    3.50
  -1  11   0   15.10    4.90
  11   1   0   12.50    4.20
  -1  11   0    9.50    4.10
 -11  -1   0   11.20    5.20
  11   1   0    9.70    4.50
   1 -11   0   13.70    6.00
 -11   1   0  304.87   14.90
  11  -1   0  344.67   18.30
  11  -1   0  310.07   13.50
  -1 -11   0  312.87   13.00
   1  11   0  315.87   12.50
  11  -1   0  305.37   12.60
   1  11   0  327.57   13.40
 -11   1   0  299.17   14.00
  -1 -11   0  327.47   13.90
  -1 -11   0  306.67   15.40
   1  11   0  317.67   14.30
  11  -1   0  302.67   14.00
   1  11   0  302.57   15.10
 -11   1   0  324.67   15.40
 -11   3   0   96.79    5.20
  -3 -11   0   95.49    8.50
  -3 -11   0   97.49    8.00
   3  11   0   93.09   10.20
  11  -3   0  103.79    9.00
   3  11   0   93.59    9.10
 -11   3   0  108.19   10.30
  11  -3   0   95.99    9.00
   3  11   0   92.59    7.50
  11  -3   0   93.79   11.60
 -11   3   0  103.09    9.20
  11  -3   0   93.99    7.10
   3  11   0  111.79    8.30
   3  11   0  103.19    6.10
  11  -3   0  104.79    8.80
   5  11   0  716.83   25.70
 -11   5   0  718.53   26.90
  -5 -11   0  699.23   25.80
   5  11   0  746.03   26.80
  11  -5   0  748.43   23.70
 -11   5   0  748.33   23.90
   5  11   0  735.63   25.10
  -5 -11   0  698.03   25.40
 -11   5   0  753.12   27.50
  11  -5   0  745.73   25.80
   5  11   0  708.63   27.10
  11  -5   0  740.73   26.30
  11  -5   0  748.23   26.40
   7  11   0 1735.93   57.99
 -11   7   0 1770.92   57.89
 -11   7   0 1802.82   55.09
  11  -7   0 1729.13   56.49
  -7 -11   0 1762.32   56.89
 -11   7   0 1860.31   58.19
  11  -7   0 1784.02   55.89
  11  -7   0 1787.62   56.99
   7  11   0 1701.73   56.49
   7  11   0 1737.33   55.79
  -7 -11   0 1741.43   55.99
   7  11   0 1742.23   56.39
 -11   9   0   -2.70    5.00
  -9 -11   0   -0.20    5.40
  11  -9   0    2.20    6.70
   9  11   0    1.10    7.10
   9  11   0    1.40    4.60
   9  11   0    0.50    5.70
 -11   9   0    7.10    7.60
 -11   9   0    6.90    8.60
  11  -9   0    0.30    5.00
   9  11   0    0.30    6.10
  -9 -11   0   -6.30    6.10
  11  -9   0    6.50    6.50
 -11  11   0   45.50    7.40
  11  11   0   41.40    9.80
  11 -11   0   38.50    6.60
 -11 -11   0   35.60    7.80
  11  11   0   39.60    6.70
 -11 -11   0   51.79    9.50
 -11  11   0   49.50   10.20
  11  11   0   26.90    7.80
  11 -11   0   47.20    8.80
 -11  11   0   30.90   11.10
  10 -12   0  731.53   25.90
  12  10   0  723.43   28.60
  10 -12   0  793.92   28.90
 -12 -10   0  711.63   27.70
  12  10   0  729.83   30.30
 -10  12   0  713.23   30.10
 -12 -10   0  697.63   29.20
  12  10   0  715.83   26.90
 -10  12   0  747.33   28.00
   8 -12   0   84.99    8.70
  12   8   0   76.09    9.70
  12   8   0   63.69    7.20
  -8  12   0   95.79   10.90
  12   8   0   65.09    8.00
 -12  -8   0   87.59    9.90
   8 -12   0   75.89    9.90
  -8  12   0   70.79    9.50
 -12  -8   0   81.89   10.70
   8 -12   0   97.19   10.20
   8 -12   0   86.39   10.00
  -8  12   0   73.29    8.50
 -12  -6   0 1724.73   59.39
  -6  12   0 1867.91   59.69
   6 -12   0 1907.41   59.09
  -6  12   0 1790.52   59.19
  -6  12   0 1914.61   57.39
   6 -12   0 1826.02   58.09
  12   6   0 1795.92   57.89
  12   6   0 1833.52   59.29
 -12  -6   0 1783.82   58.19
  -6  12   0 1914.21   59.99
   6 -12   0 1808.22   63.79
  12   6   0 1769.32   58.89
   6 -12   0 1717.23   58.09
  -6  12   0 1822.52   58.49
 -12  -4   0   42.20    6.50
 -12  -4   0   50.39    5.00
  -4  12   0   45.20    6.00
  12   4   0   47.30    6.10
   4 -12   0   40.40    5.90
  12   4   0   48.40    7.00
  -4  12   0   35.00    6.30
   4 -12   0   42.50    7.00
   4 -12   0   48.40    9.50
  -4  12   0   37.30    6.70
  -4  12   0   48.20    7.40
   4 -12   0   45.60    5.20
 -12  -4   0   42.50    7.20
  12   4   0   50.59    6.80
  -4  12   0   55.59    8.80
  -2  12   0  636.64   25.60
 -12  -2   0  685.33   23.00
   2 -12   0  673.83   23.80
 -12  -2   0  670.43   24.90
 -12  -2   0  627.94   25.30
  -2  12   0  693.53   25.10
  12   2   0  656.13   24.10
  -2  12   0  693.83   24.40
   2 -12   0  657.93   24.80
  12   2   0  672.93   24.90
   2 -12   0  698.53   23.10
  -2  12   0  687.23   24.80
  12   2   0  659.73   24.10
  12   0   0   13.30    4.80
  12   0   0   25.20    5.90
 -12   0   0    8.30    5.60
  12   0   0    9.40    4.40
   0 -12   0   19.40    4.70
   0  12   0   15.60    4.70
 -12   0   0   14.60    5.10
   0  12   0   14.30    5.20
   0  12   0   14.60    5.00
   0 -12   0   13.10    4.30
 -12   0   0   11.10    5.20
   0 -12   0   16.50    5.40
   0  12   0   24.70    6.50
 -12   2   0   27.20    6.50
   2  12   0   39.20    4.90
  12  -2   0   30.70    5.40
  -2 -12   0   28.30    5.50
  12  -2   0   31.90    6.10
   2  12   0   30.90    5.00
   2  12   0   34.90    7.10
  -2 -12   0   37.40    5.70
 -12   2   0   33.60    6.80
  12  -2   0   36.50    5.00
   2  12   0   41.00    6.60
 -12   2   0   46.50    6.40
  -2 -12   0   34.00    5.40
  12  -4   0  975.40   33.60
  -4 -12   0  984.80   32.80
 -12   4   0  954.00   33.90
  12  -4   0  976.50   31.00
  12  -4   0  978.70   33.20
  12  -4   0  991.10   33.50
  -4 -12   0 1000.70   33.10
   4  12   0  941.31   34.30
   4  12   0  961.30   32.70
   4  12   0  992.10   33.00
   4  12   0  945.01   34.00
 -12   4   0  968.00   34.50
  12  -6   0   10.10    5.90
   6  12   0   13.30    5.40
   6  12   0   10.60    6.60
  12  -6   0   10.20    5.80
   6  12   0   13.20    6.50
  -6 -12   0   14.10    5.20
 -12   6   0    9.50    7.60
 -12   6   0    7.60    4.60
  -6 -12   0   12.60    5.80
 -12   6   0   19.40    7.10
   6  12   0   12.30    4.50
  12  -6   0   11.40    5.40
 -12   8   0 1343.67   43.20
   8  12   0 1243.58   44.50
   8  12   0 1274.77   42.70
  12  -8   0 1357.06   43.30
   8  12   0 1237.88   42.70
  -8 -12   0 1207.78   43.20
 -12   8   0 1280.17   44.70
 -12   8   0 1200.28   44.00
   8  12   0 1267.27   42.00
  12  -8   0 1287.17   41.90
  12  -8   0 1320.07   43.10
  -8 -12   0 1259.37   42.20
  12 -10   0  222.08   15.90
  10  12   0  215.38   15.10
 -12  10   0  257.97   20.00
  12 -10   0  228.58   13.00
  10  12   0  200.88   14.70
  10  12   0  214.48   13.40
 -10 -12   0  215.88   14.30
 -10 -12   0  202.98   16.20
 -12  10   0  204.48   17.60
  10  12   0  199.48   16.90
 -12 -12   0   20.30   16.60
  12 -12   0   21.40   11.70
 -12 -12   0   23.40    8.70
 -12  12   0   21.30   10.70
  12  12   0   37.60    8.00
  12  12   0   12.80   15.30
 -11  13   0   62.09    9.30
  11 -13   0   51.69   10.50
  13  11   0   57.39   10.20
  13  11   0   59.09   12.60
  13  11   0   61.69   12.30
 -13 -11   0   52.79   11.50
 -13 -11   0   50.49   10.20
 -11  13   0   44.70   11.60
  13   9   0  215.78   16.10
  -9  13   0  222.78   17.60
   9 -13   0  212.68   12.50
  -9  13   0  183.18   15.90
 -13  -9   0  205.48   16.80
   9 -13   0  236.78   16.70
  13   9   0  210.08   17.90
  13   9   0  209.88   13.80
 -13  -9   0  211.08   14.80
   7 -13   0  127.79   10.10
  -7  13   0  140.49   13.10
  13   7   0  135.89   14.80
   7 -13   0  127.19   12.70
   7 -13   0  135.29   15.70
  -7  13   0  125.29   11.80
  13   7   0  124.29   11.60
  -7  13   0  155.18   15.20
 -13  -7   0  121.59   12.40
 -13  -7   0  114.29   13.50
  -7  13   0  126.09   15.20
  13   7   0  131.49   13.20
  -5  13   0   10.90    7.30
  -5  13   0   17.60    7.60
 -13  -5   0   13.80    6.60
   5 -13   0   17.00    8.00
  -5  13   0   15.80    5.70
   5 -13   0   12.30    6.20
  -5  13   0   12.50    6.70
  13   5   0   19.50    5.70
  13   5   0    9.40    7.10
   5 -13   0   18.70    5.40
  13   5   0   26.50    7.20
 -13  -5   0   18.50    7.60
  -3  13   0  339.77   16.30
  13   3   0  345.97   16.80
   3 -13   0  335.27   14.40
  -3  13   0  365.76   18.20
 -13  -3   0  333.67   16.80
   3 -13   0  337.67   15.60
  13   3   0  348.57   16.80
   3 -13   0  345.77   17.00
  -3  13   0  341.97   15.80
 -13  -3   0  361.36   18.00
 -13  -3   0  353.46   14.30
  13   3   0  349.77   15.90
  -3  13   0  336.87   17.00
  -1  13   0    0.20    6.50
  -1  13   0    0.60    4.80
  -1  13   0   -1.90    5.10
  -1  13   0    1.20    7.80
  13   1   0    8.10    6.00
 -13  -1   0   12.10    6.20
  13   1   0    0.40    5.00
   1 -13   0    2.30    4.10
 -13  -1   0    5.90    5.00
  13   1   0    7.00    5.20
 -13  -1   0   -2.10    6.10
   1 -13   0    9.40    5.10
   1 -13   0    7.70    5.80
   1  13   0  662.13   23.90
  13  -1   0  652.43   22.90
  -1 -13   0  645.04   23.50
  13  -1   0  663.73   25.10
   1  13   0  657.23   22.90
  13  -1   0  665.43   24.40
   1  13   0  654.33   25.90
 -13   1   0  627.94   25.10
  -1 -13   0  664.63   24.00
  -1 -13   0  651.63   24.00
 -13   1   0  656.03   25.70
 -13   1   0  647.64   24.30
   1  13   0  641.44   24.80
   3  13   0 1047.80   37.60
   3  13   0 1075.59   35.80
  13  -3   0 1088.79   36.80
   3  13   0 1050.29   37.60
  13  -3   0 1087.69   36.60
  -3 -13   0 1036.30   35.80
   3  13   0 1126.89   36.10
 -13   3   0 1057.79   37.70
  -3 -13   0 1030.10   36.30
  13  -3   0 1063.29   34.30
 -13   3   0 1073.29   37.70
  -3 -13   0 1092.09   36.30
 -13   3   0 1051.19   36.70
   5  13   0  117.69   10.30
   5  13   0  111.19   10.90
  13  -5   0  125.59   11.30
   5  13   0   96.29   12.00
 -13   5   0  123.49   14.00
  -5 -13   0  101.99   10.50
  -5 -13   0  118.79   11.00
  13  -5   0   95.49   11.30
  13  -5   0  120.59   11.60
 -13   5   0  122.09   12.80
   5  13   0  109.59   13.40
   7  13   0  140.59   12.30
 -13   7   0  132.59   15.80
   7  13   0  145.19   11.50
  13  -7   0  160.98   13.30
  13  -7   0  122.79   13.00
  13  -7   0  148.59   12.10
  -7 -13   0  125.69   12.20
   7  13   0  117.49   13.90
   7  13   0  142.69   14.40
 -13   7   0  154.88   14.30
  -7 -13   0  145.79   12.00
   9  13   0   88.99   11.30
   9  13   0  123.69   14.20
 -13   9   0  116.69   13.10
  -9 -13   0  129.99   13.90
  13  -9   0  136.99   11.90
 -13   9   0  133.59   16.00
  13  -9   0  120.69   14.30
   9  13   0  105.29   11.70
   9  13   0  117.79   13.20
  -9 -13   0  110.19   12.70
  13 -11   0  119.59   16.40
 -13  11   0   99.09   13.00
  11  13   0   90.19   16.40
  11  13   0  104.29   13.40
 -11 -13   0  105.89   10.80
  13 -13   0  277.27   21.00
  13  13   0  231.68   23.10
 -13 -13   0  245.08   19.80
  13  13   0  228.08   18.20
 -13  13   0  253.87   22.70
 -13 -13   0  267.97   22.20
  13  13   0  253.47   21.00
  14  12   0   14.40   13.00
  14  12   0    0.20    8.50
  14  12   0    4.20   11.00
 -14 -12   0   18.20   12.30
 -14 -12   0   11.10   10.10
  12 -14   0    9.40   11.80
 -12  14   0    2.20   13.00
  14  10   0  592.74   29.60
  14  10   0  639.14   28.20
 -14 -10   0  651.53   28.80
  14  10   0  506.35   34.40
 -10  14   0  619.64   29.40
  10 -14   0  655.23   30.00
 -10  14   0  616.04   26.70
  14   8   0   14.10    6.90
  -8  14   0    5.40    8.20
 -14  -8   0   10.40    7.70
   8 -14   0    8.50    7.90
  14   8   0    5.40    9.30
 -14  -8   0    3.50    9.30
  14   8   0    1.90    8.50
  -8  14   0   12.90    9.90
   8 -14   0    8.90    8.50
 -14  -6   0  610.64   26.10
 -14  -6   0  625.74   24.80
  14   6   0  586.84   25.20
   6 -14   0  599.94   24.30
  14   6   0  585.84   23.70
  -6  14   0  621.34   26.50
  14   6   0  586.14   25.70
  -6  14   0  582.54   25.20
   6 -14   0  592.44   25.50
   6 -14   0  592.24   22.30
  -4  14   0   35.30    8.80
  -4  14   0   38.80    7.50
 -14  -4   0   14.70    7.90
   4 -14   0   16.90    8.10
  -4  14   0   32.80    8.60
  14   4   0   22.50    6.70
 -14  -4   0   24.70    7.70
   4 -14   0   29.60    7.10
  14   4   0   32.30    7.80
   4 -14   0   41.00    5.80
  -4  14   0   27.80    6.60
  14   4   0   29.30    7.60
  -2  14   0  157.58   13.50
 -14  -2   0  183.68   13.40
   2 -14   0  163.78   10.50
 -14  -2   0  163.98   14.20
   2 -14   0  171.18   12.10
  -2  14   0  178.78   12.30
  -2  14   0  158.48   12.30
  -2  14   0  161.08   14.60
   2 -14   0  167.68   13.60
 -14  -2   0  159.98   11.60
  14   2   0  150.28   13.10
  14   2   0  168.48   12.90
  14   2   0  158.58   12.80
   0  14   0 2179.58   71.59
   0 -14   0 2233.08   70.29
  14   0   0 2123.29   71.79
   0 -14   0 2261.77   71.29
 -14   0   0 2308.17   70.69
   0  14   0 2207.38   72.79
   0  14   0 2350.76   71.29
 -14   0   0 2250.87   72.59
  14   0   0 2307.17   70.09
   0 -14   0 2257.17   70.89
   0  14   0 2260.07   71.99
 -14   2   0  186.78   14.30
  -2 -14   0  194.28   12.20
   2  14   0  201.38   15.30
   2  14   0  186.58   14.00
 -14   2   0  204.18   14.80
 -14   2   0  207.18   13.70
  14  -2   0  202.58   12.80
  14  -2   0  208.68   14.30
   2  14   0  185.18   12.10
  -2 -14   0  203.48   13.50
   2  14   0  203.38   11.00
  -2 -14   0  187.48   13.40
 -14   4   0 1093.09   41.70
  14  -4   0 1081.99   37.50
   4  14   0 1062.99   36.40
 -14   4   0 1108.59   42.10
  -4 -14   0 1110.39   37.20
  -4 -14   0 1086.39   37.30
 -14   4   0 1029.30   37.60
   4  14   0 1060.19   38.70
  14  -4   0 1032.60   37.30
  -4 -14   0 1081.39   36.70
   4  14   0 1017.60   38.20
 -14   6   0    6.40    9.80
   6  14   0   15.40    8.70
   6  14   0   13.90    6.30
   6  14   0   17.20    8.60
 -14   6   0   20.30    8.40
  14  -6   0   19.70    7.50
  -6 -14   0   17.30    7.00
  -6 -14   0   15.70    6.90
   6  14   0   18.60    7.20
  14  -6   0   10.20    7.80
  14  -6   0   23.30    7.50
  -8 -14   0  194.98   14.50
   8  14   0  141.89   16.30
   8  14   0  181.88   17.20
 -14   8   0  146.49   16.10
   8  14   0  175.88   14.80
  14  -8   0  174.28   15.70
  14  -8   0  164.08   13.20
 -14   8   0  182.58   20.00
   8  14   0  168.28   13.50
  14  -8   0  205.48   15.60
  -8 -14   0  173.78   15.20
  10  14   0   21.80   11.90
  14 -10   0   10.90   12.20
  10  14   0   22.10   11.10
 -14  10   0   10.80   11.00
 -10 -14   0    5.50   12.10
  14 -10   0   12.50    9.80
 -10 -14   0   12.60   17.30
  10  14   0    6.40   15.20
  12  14   0    9.20   12.60
  12  14   0   -0.30   10.40
 -12 -14   0    0.80   11.40
 -14  12   0    8.40   13.00
 -12 -14   0   -2.20    9.60
  14 -12   0    8.90   11.20
  12  14   0    4.50    8.90
 -14  14   0  638.94   33.60
  14  14   0  693.83   34.80
 -14 -14   0  652.03   30.90
  14  14   0  615.54   29.90
 -14 -14   0  626.34   33.30
  14 -14   0  672.63   31.70
  14  14   0  580.24   32.60
  15  13   0  177.68   23.00
 -13  15   0  203.68   25.90
  15  13   0  164.08   20.00
  13 -15   0  215.68   22.90
 -15 -13   0  163.78   21.70
 -15 -13   0  177.98   24.50
  15  13   0  134.09   18.30
 -11  15   0   35.50   11.20
  15  11   0   18.80   13.50
 -11  15   0   31.00   13.10
  15  11   0   32.40   10.00
 -15 -11   0   33.20   11.50
  11 -15   0   18.10   12.10
  15  11   0   36.30   11.80
 -15 -11   0   36.40   13.60
  15   9   0  280.07   22.60
 -15  -9   0  291.87   21.60
  -9  15   0  299.07   23.00
  15   9   0  294.07   20.70
   9 -15   0  283.47   20.70
  15   9   0  295.27   18.50
  -9  15   0  294.07   22.80
 -15  -9   0  285.67   19.40
  15   7   0  475.95   21.90
  15   7   0  526.15   24.70
 -15  -7   0  457.35   22.90
  15   7   0  450.45   23.30
 -15  -7   0  464.15   24.60
   7 -15   0  480.95   22.50
  -7  15   0  497.55   24.40
  -7  15   0  475.65   25.30
 -15  -5   0   37.80    8.90
  15   5   0   36.30    7.80
  -5  15   0   27.80    9.90
  15   5   0   32.20    8.30
 -15  -5   0   39.30    9.70
  -5  15   0   33.70    9.20
   5 -15   0   32.20    6.50
   5 -15   0   32.50    9.90
  15   5   0   47.50    9.50
   5 -15   0   36.10    8.30
   3 -15   0   -3.50    6.90
  -3  15   0   -5.80    6.70
  -3  15   0    1.60    6.90
  15   3   0   -2.10    6.50
 -15  -3   0    4.90    7.70
  15   3   0   -4.50    7.40
  15   3   0   -6.70    7.80
   3 -15   0   11.00    8.30
  -3  15   0   -0.10    8.50
  -3  15   0   -5.40    8.10
 -15  -3   0    6.10    7.90
   3 -15   0    8.50    5.30
  -1  15   0   43.90    8.10
   1 -15   0   45.30    7.70
 -15  -1   0   36.00    9.30
  15   1   0   38.70    8.20
  -1  15   0   47.70    8.10
   1 -15   0   45.10    8.70
 -15  -1   0   47.90    9.30
  15   1   0   47.60    7.90
   1 -15   0   36.90    6.20
  -1  15   0   34.00    7.30
  15   1   0   30.40    7.60
  -1  15   0   46.20    9.30
 -15   1   0   43.70    7.50
  -1 -15   0   47.70    6.90
  15  -1   0   33.70    7.80
 -15   1   0   31.70    9.10
   1  15   0   41.20    9.50
 -15   1   0   39.90    9.40
  -1 -15   0   34.90    7.70
  -1 -15   0   32.40    8.00
   1  15   0   38.90    7.60
   1  15   0   42.30    8.40
  -3 -15   0  116.39   12.00
  -3 -15   0  136.59   12.80
  15  -3   0  115.39   12.90
  15  -3   0  104.79   13.80
 -15   3   0  112.29   15.50
  -3 -15   0  125.59   13.40
 -15   3   0   98.89   11.30
 -15   3   0  108.59   13.40
   3  15   0  113.69   13.70
   3  15   0  104.09   11.80
   3  15   0  124.69   11.90
   5  15   0   -5.70    6.30
  15  -5   0    9.50    7.60
   5  15   0   -8.00    8.30
 -15   5   0  -10.80    9.60
 -15   5   0    8.40    8.30
  -5 -15   0    1.60    7.30
  -5 -15   0   -2.70    7.50
  15  -5   0   -1.00    7.00
   5  15   0   -1.50    6.90
   5  15   0   10.30    9.10
 -15   5   0   -0.80    9.40
  -7 -15   0  301.47   17.80
   7  15   0  315.67   17.20
   7  15   0  296.77   20.40
  15  -7   0  306.87   17.40
  -7 -15   0  311.57   18.40
 -15   7   0  353.06   23.00
  15  -7   0  299.17   18.10
  15  -7   0  314.17   19.40
   7  15   0  292.87   20.90
 -15   7   0  296.37   19.70
   7  15   0  301.97   18.40
   9  15   0  338.17   19.40
 -15   9   0  288.07   24.70
  -9 -15   0  370.86   21.40
   9  15   0  350.26   23.60
   9  15   0  345.37   22.20
 -15   9   0  403.56   22.40
  -9 -15   0  304.07   23.70
  15  -9   0  337.37   21.20
  15  -9   0  374.46   19.20
   9  15   0  326.47   19.70
  11  15   0   42.30   14.70
 -11 -15   0   17.80   11.70
 -15  11   0   33.20   13.70
  11  15   0   47.30   10.10
 -11 -15   0   46.90   11.20
  15 -11   0   28.90   11.80
  11  15   0   35.10   10.90
  13  15   0   40.80   13.10
 -13 -15   0   54.29   15.20
  13  15   0   66.19   17.50
  13  15   0   63.79   12.80
 -13 -15   0   76.39   14.00
  15 -13   0   77.49   14.10
 -15  13   0   73.79   16.80
 -12  16   0   16.70   15.10
  16  12   0   -3.60   15.80
  16  12   0   -0.30   10.60
 -16 -12   0    4.90   15.30
 -12  16   0    4.00   12.60
 -16 -12   0    5.30   12.80
  16  12   0  -13.40   13.60
 -10  16   0   18.90   13.50
  10 -16   0    6.80   12.10
  16  10   0   -0.90   13.70
  16  10   0   10.80   12.10
 -10  16   0   11.80   12.20
 -16 -10   0    9.80   13.60
 -16 -10   0   12.80   11.10
  16  10   0    8.60    9.70
  16   8   0   57.99   11.80
  -8  16   0   88.49   12.90
 -16  -8   0   89.79   13.00
  16   8   0   79.09   13.30
  -8  16   0   91.19   14.20
  16   8   0   77.39   11.00
   8 -16   0   85.19   11.60
 -16  -8   0   83.89   11.90
 -16  -6   0  178.48   19.30
 -16  -6   0  151.58   17.90
   6 -16   0  182.78   16.70
  16   6   0  156.18   19.90
  -6  16   0  183.58   20.20
  16   6   0  142.49   18.10
  16   6   0  159.18   17.70
  16   4   0  962.20   37.40
   4 -16   0 1049.00   37.80
   4 -16   0 1044.70   36.50
  16   4   0  993.20   36.50
 -16  -4   0  956.20   38.20
  -4  16   0 1024.10   39.00
   4 -16   0 1014.00   34.30
  -4  16   0  977.50   37.60
  16   4   0  999.90   36.60
 -16  -4   0  990.70   37.40
  -2  16   0   20.20    9.80
 -16  -2   0    8.50    9.40
  -2  16   0   16.90    7.70
   2 -16   0   14.70    7.90
  16   2   0   14.90    7.80
  16   2   0   17.60    8.90
  -2  16   0   13.30    9.10
 -16  -2   0   23.00    9.90
  -2  16   0   12.10    8.10
   2 -16   0   22.20    9.50
   2 -16   0    7.20    6.20
  16   2   0    7.50    9.10
  16   0   0  438.86   22.00
 -16   0   0  463.95   23.60
   0  16   0  467.05   21.50
   0 -16   0  456.35   21.40
 -16   0   0  487.55   23.70
  16   0   0  465.55   22.10
   0  16   0  457.65   21.70
   0 -16   0  458.35   19.50
   0 -16   0  468.35   22.20
   0  16   0  452.05   23.90
  -2 -16   0    4.20    7.20
   2  16   0   15.40    8.70
  -2 -16   0    5.50    7.90
 -16   2   0   12.20    8.00
  16  -2   0    3.40    8.30
   2  16   0   14.90    7.50
 -16   2   0   24.30   10.10
  -2 -16   0   -1.20    8.10
 -16   2   0    5.10    9.70
   2  16   0    7.80    9.70
 -16   4   0   80.19   11.90
 -16   4   0   88.99   10.90
   4  16   0   75.19   12.00
   4  16   0   73.89   10.70
  16  -4   0   66.19    9.80
   4  16   0   85.19    9.50
 -16   4   0   84.19   12.20
  -4 -16   0   83.79   10.00
  16  -4   0   95.69   11.50
  -4 -16   0   78.69   10.90
  -4 -16   0   95.29   10.80
   6  16   0   38.30   11.00
  -6 -16   0   53.79    9.90
 -16   6   0   43.80   15.50
  -6 -16   0   38.90   10.10
 -16   6   0   61.99   11.00
   6  16   0   59.89    9.40
  16  -6   0   33.80    9.50
  16  -6   0   34.70   10.10
  -6 -16   0   36.90   10.10
 -16   6   0   47.30   12.60
   6  16   0   42.00   11.80
  -8 -16   0   19.70   10.60
   8  16   0   36.00   10.50
  16  -8   0   29.50   11.00
   8  16   0   34.50   11.90
   8  16   0   36.90   12.80
 -16   8   0   35.60   12.30
 -16   8   0   39.00   14.10
   8  16   0   22.80    9.50
  -8 -16   0   23.50   10.50
 -16   8   0   42.00   12.20
  10  16   0  919.01   39.90
  16 -10   0  913.71   36.80
 -16  10   0  921.81   38.50
 -10 -16   0  883.41   37.20
  10  16   0  918.91   35.60
 -10 -16   0  882.91   35.70
  10  16   0  860.31   36.20
  16 -12   0  186.28   23.10
 -12 -16   0  150.58   15.80
 -12 -16   0  191.58   24.20
  12  16   0  167.68   22.70
  12  16   0  152.58   19.00
  12  16   0  156.18   21.00
 -16  12   0  200.88   26.40
 -11  17   0  363.46   28.80
 -11  17   0  358.26   27.70
  17  11   0  372.76   30.70
  17  11   0  383.16   27.00
 -17 -11   0  306.07   30.30
 -17 -11   0  348.27   26.80
  17  11   0  372.86   25.30
  17   9   0   -3.30   12.70
 -17  -9   0   13.20   12.00
  -9  17   0    6.50   14.20
 -17  -9   0    8.50   13.10
  -9  17   0   -9.30   12.40
  17   9   0    7.20   10.50
  17   9   0   -1.70   13.50
   9 -17   0   12.10   12.30
  17   7   0   54.29   14.80
  17   7   0   58.19   10.90
  17   7   0   70.79   12.50
 -17  -7   0   48.80   11.90
 -17  -7   0   67.59   14.60
  -7  17   0   69.39   14.40
  -7  17   0   43.40   12.80
  17   5   0   73.39   11.60
  17   5   0   84.39   15.80
   5 -17   0   61.19   11.00
  17   5   0   77.39   11.20
 -17  -5   0   91.99   12.70
  -5  17   0   92.19   13.70
  -5  17   0   84.69   13.40
 -17  -5   0   72.49   13.50
   3 -17   0  119.89   15.90
  -3  17   0  106.49   12.30
 -17  -3   0  111.39   13.70
 -17  -3   0  101.99   16.20
  -3  17   0   98.89   13.50
  17   3   0  111.89   12.40
  17   3   0  100.59   12.70
   3 -17   0  105.29   13.20
 -17  -1   0  210.88   21.00
 -17  -1   0  215.18   20.10
  -1  17   0  191.98   17.60
   1 -17   0  190.38   25.70
  -1  17   0  211.48   20.10
  17   1   0  176.78   21.70
   1 -17   0  206.68   14.00
   1 -17   0  227.98   17.00
  17   1   0  237.88   18.10
  -1 -17   0  303.47   20.70
 -17   1   0  324.67   22.30
  -1 -17   0  296.57   21.70
  17  -1   0  276.87   20.10
   1  17   0  292.77   19.90
   1  17   0  247.88   23.80
 -17   1   0  295.67   22.10
  -1 -17   0  296.07   16.40
   1  17   0  296.57   18.80
 -17   3   0  666.73   31.60
   3  17   0  662.33   27.50
 -17   3   0  661.33   30.10
  -3 -17   0  642.04   28.70
   3  17   0  675.43   40.30
  17  -3   0  550.34   38.10
   3  17   0  588.54   33.90
 -17   3   0  707.13   28.70
  -3 -17   0  653.23   26.60
  -3 -17   0  650.13   28.00
   5  17   0  123.89   14.60
 -17   5   0  137.89   15.30
   5  17   0  139.59   19.30
  -5 -17   0  123.09   16.70
 -17   5   0  121.89   14.10
  17  -5   0  130.69   18.00
  -7 -17   0   16.80   11.20
   7  17   0   18.80   13.20
   7  17   0   31.60   13.20
 -17   7   0   46.50   12.70
  -7 -17   0   30.10   10.80
   7  17   0   20.20    9.90
 -17   7   0   21.50   14.10
 -17   7   0   32.00   12.50
  -7 -17   0   14.70   11.80
  17  -7   0   30.40   11.40
  -9 -17   0   36.70   13.00
 -17   9   0   40.90   14.40
   9  17   0   58.39   11.60
   9  17   0   47.70   12.60
  17  -9   0   57.99   13.40
  -9 -17   0   47.20   12.60
   9  17   0   36.30   14.70
   9  17   0   43.70   17.70
  11  17   0   13.40   14.20
 -17  11   0   15.00   15.20
 -11 -17   0   -3.50   13.30
  11  17   0    4.30   12.40
 -11 -17   0   19.50   14.70
  11  17   0   10.50   15.60
  17 -11   0   13.50   14.40
 -18 -10   0   92.19   18.00
 -18 -10   0   87.89   16.10
 -10  18   0   73.69   18.30
  18  10   0   90.39   14.70
 -10  18   0  123.69   17.40
  18  10   0   68.99   17.60
  18  10   0   61.19   16.00
  -8  18   0  233.98   25.00
  -8  18   0  256.27   27.20
  18   8   0  218.88   23.90
  18   8   0  246.08   30.20
 -18  -8   0  237.08   24.60
  18   8   0  242.08   22.90
 -18  -8   0  240.78   27.20
  18   6   0   -0.20   10.90
  -6  18   0  -21.40   12.60
   6 -18   0  -20.50   11.00
 -18  -6   0   16.50   14.00
  -6  18   0  -10.40   13.30
  18   6   0   14.50   12.20
 -18  -6   0   13.10   12.20
 -18  -4   0  245.48   23.30
  18   4   0  239.08   21.00
  18   4   0  224.38   20.60
  -4  18   0  281.47   23.80
 -18  -4   0  221.58   22.90
  -4  18   0  254.07   25.40
  -2  18   0   26.30   10.50
  -2  18   0   18.30   12.40
   2 -18   0   18.00   12.30
 -18  -2   0   11.50   12.40
   2 -18   0   14.60   10.50
 -18  -2   0   19.70   13.00
  18   2   0   42.90   11.40
  18   2   0   25.10   11.10
  18   0   0   66.39   11.90
   0  18   0   82.49   13.90
 -18   0   0   60.19   14.00
   0 -18   0   71.69    9.90
 -18   0   0   58.29   13.90
   0 -18   0   52.19   11.10
  18   0   0   47.40   11.60
   0 -18   0   38.40   11.90
   0  18   0   62.59   12.20
   2  18   0  236.18   23.80
  -2 -18   0  228.68   26.80
 -18   2   0  273.07   23.40
  18  -2   0  281.07   21.20
  -2 -18   0  276.77   22.90
   2  18   0  203.38   25.60
 -18   2   0  255.07   24.90
  18  -2   0  272.07   22.10
   2  18   0  242.78   21.50
 -18   4   0   -8.50   13.70
  18  -4   0    3.20   10.10
   4  18   0    6.30   13.00
  -4 -18   0  -10.20   11.60
  -4 -18   0  -10.20    8.80
 -18   4   0   20.50   13.10
   4  18   0    2.80   10.00
  -4 -18   0    7.50   11.20
   4  18   0  -16.10   11.90
 -18   4   0   14.30   12.90
   6  18   0  563.74   27.10
  18  -6   0  566.04   29.20
   6  18   0  568.64   31.30
 -18   6   0  569.44   29.80
   6  18   0  554.24   32.60
  -6 -18   0  654.33   28.00
  -6 -18   0  575.44   30.00
 -18   6   0  571.64   30.80
 -18   6   0  501.55   32.10
  -6 -18   0  602.64   29.50
  18  -8   0   31.60   13.90
 -18   8   0   50.99   15.10
   8  18   0   12.30   11.70
   8  18   0    7.00   14.50
  -8 -18   0   33.90   14.00
  -8 -18   0   28.10   13.80
   8  18   0   27.10   15.60
  -8 -18   0   28.60   13.40
 -18  10   0  230.08   26.50
 -10 -18   0  239.98   26.20
  10  18   0  289.77   30.10
 -10 -18   0  197.38   25.50
  10  18   0  218.68   24.00
  18 -10   0  248.38   29.00
  10  18   0  234.58   25.50
 -19  -7   0  305.67   27.60
  19   7   0  305.67   26.40
  -7  19   0  311.27   28.10
 -19  -7   0  242.58   28.00
  -7  19   0  298.47   27.90
  19   7   0  281.47   25.90
  -5  19   0  382.36   27.60
  19   5   0  363.66   26.70
  -5  19   0  368.56   28.90
  19   5   0  343.07   26.00
 -19  -5   0  362.86   27.90
 -19  -5   0  356.46   29.40
  19   3   0  161.58   22.40
 -19  -3   0  247.28   26.10
  -3  19   0  212.78   25.40
   3 -19   0  177.48   21.40
  19   3   0  196.38   22.50
 -19  -3   0  206.48   25.70
   1 -19   0  234.78   25.90
 -19  -1   0  302.97   26.00
 -19  -1   0  288.57   26.90
  -1  19   0  252.67   24.60
  -1  19   0  271.47   22.40
  19   1   0  270.47   23.10
  -1  19   0  283.67   28.70
   1 -19   0  250.87   21.30
  19   1   0  245.88   23.30
  19  -1   0   -1.90   11.70
 -19   1   0   -5.70   14.40
  -1 -19   0   -5.00   11.10
   1  19   0   -9.10   11.80
 -19   1   0   -4.20   14.60
   1  19   0   11.30   14.40
  -1 -19   0   -1.50   12.20
  19  -1   0    5.10   11.20
  -3 -19   0   39.90   12.70
 -19   3   0   40.10   14.90
 -19   3   0   42.80   15.20
  19  -3   0   21.10   12.60
   3  19   0   38.00   13.50
   3  19   0   43.10   11.70
  -3 -19   0   42.90   10.80
  -3 -19   0   19.50   12.70
   3  19   0   62.19   15.60
  19  -3   0   32.00   12.70
  19  -5   0  158.68   19.10
  -5 -19   0  170.38   22.90
 -19   5   0  175.38   21.80
   5  19   0  167.38   20.80
   5  19   0  172.38   19.40
  -5 -19   0  172.48   23.10
  19  -5   0  164.88   21.80
 -19   5   0  228.98   26.00
   5  19   0  123.49   16.70
  -5 -19   0  191.28   20.30
 -19   7   0  157.78   17.60
   7  19   0  123.99   18.70
  -7 -19   0  135.79   17.30
  -7 -19   0  148.79   16.70
  19  -7   0  195.88   24.10
   7  19   0  152.48   15.20
  -7 -19   0  163.88   16.30
   7  19   0  101.89   17.80
  -6  20   0   38.80   17.70
 -20  -6   0   80.59   19.10
  20   6   0   77.79   19.50
  20   6   0   54.99   15.20
  20   4   0  255.37   26.40
  20   4   0  199.38   25.50
  -4  20   0  280.47   30.00
 -20  -4   0  288.97   30.50
 -20  -4   0  315.47   29.70
  20   2   0  272.87   26.60
 -20  -2   0  232.98   29.70
 -20  -2   0  278.87   29.80
  20   2   0  280.87   24.80
  -2  20   0  246.38   28.90
  -2  20   0  272.27   28.90
  20   0   0   -3.00   13.00
 -20   0   0   22.70   16.60
   0  20   0   17.10   15.90
   0 -20   0  -11.70   12.20
 -20   0   0   10.80   15.70
  20   0   0   -7.00   13.10
   0  20   0   -8.60   12.80
   2  20   0  137.39   17.80
   2  20   0  143.39   19.20
  20  -2   0  151.58   16.40
  -2 -20   0  171.98   23.10
   2  20   0  134.79   16.20
  20  -2   0  167.98   17.10
 -20   2   0  147.19   18.90
 -20   2   0  171.08   19.20
  -2 -20   0  186.48   24.00
  20  -4   0   16.30   13.50
  -4 -20   0    8.70   14.20
  -4 -20   0   19.70   14.10
   4  20   0   25.50   12.90
   4  20   0   24.80   17.50
 -20   4   0   20.70   18.10
 -20   4   0   26.90   16.60
   4  20   0    9.30   15.30
  20  -4   0    3.70   14.80
  20  -6   0   37.40   15.10
  -6 -20   0   79.89   16.10
   6  20   0   32.00   17.50
  -6 -20   0   29.60   15.20
 -20   6   0   54.59   14.80
   6  20   0   46.00   18.60
   0  -1  -1  637.44   19.00
   0   1  -1  631.64   18.90
   1   0  -1  617.54   19.10
  -1   0  -1  603.94   19.10
  -1   0  -1  609.84   19.10
   0   1  -1  634.74   19.10
   0  -1  -1  614.14   18.70
   0  -1  -1  601.04   19.30
   0   1  -1  619.94   18.60
   0   1  -1  638.34   18.70
   1   0  -1  626.94   18.80
   0  -1  -1  609.24   19.00
   0   1  -1  598.24   18.60
  -1   0  -1  590.54   19.10
   1   0  -1  621.34   19.20
  -1   0  -1  620.04   19.50
   1   0  -1  610.94   19.20
  -1   0  -1  631.24   19.10
   0  -1  -1  635.64   19.10
   0   1  -1  626.24   18.70
   0   1  -1  635.94   19.30
   0   1  -1  629.24   19.40
  -1   0  -1  627.14   18.90
  -1   0  -1  625.24   19.20
   0  -1  -1  634.84   19.10
  -1   0   1  662.03   19.20
   1   0   1  619.24   18.90
   1   0   1  632.54   19.20
   1   0   1  607.74   19.10
   1   0   1  622.34   19.10
   0   1   1  618.24   19.00
   0   1   1  634.14   19.00
  -1   0   1  635.04   19.20
  -1   0   1  633.04   19.10
   0  -1   1  635.24   19.10
   0  -1   1  635.14   19.40
   1   0   1  619.34   19.00
   1   0   1  616.14   19.10
   1   0   1  611.04   19.10
   0  -1   1  599.84   18.80
  -1   0   1  601.74   18.60
   0  -1   1  602.24   18.80
   1   0   1  605.04   19.40
   0   1   1  617.54   19.00
   0   1   1  614.84   18.70
   0  -1   1  637.74   19.10
   0   1   1  557.84   19.70
   0   1   1  622.94   19.10
  -1   0   1  639.44   19.20
   0   1   1  622.04   18.90
   0   1   1  625.44   19.30
   0   1   1  628.34   19.20
   0  -1   1  635.84   19.30
   0  -1   1  617.94   18.80
   1   0   1  641.64   19.10
  -1   0   1  611.14   18.60
  -1   0   1  634.64   18.80
  -2  -1  -1 1007.50   30.40
  -2  -1  -1  958.90   30.40
   1  -2  -1  955.00   30.20
   1  -2  -1  970.90   29.80
  -1   2  -1  995.00   30.80
   2   1  -1 1015.20   30.30
  -1   2  -1  989.40   30.30
  -2  -1  -1  945.71   30.50
  -2  -1  -1  999.70   30.40
   2   1  -1 1009.70   30.40
   1  -2  -1 1039.80   30.40
  -1   2  -1 1029.00   30.70
  -2  -1  -1 1000.80   30.50
   1  -2  -1  982.20   30.60
   2   1  -1 1022.80   30.30
  -1   2  -1  979.20   30.50
   2   1  -1  989.90   30.60
  -2  -1  -1 1001.90   31.00
  -2  -1  -1 1031.20   30.50
  -1   2  -1 1006.10   30.30
  -2  -1  -1 1033.70   30.50
   2   1  -1 1018.50   30.30
  -1   2  -1  946.61   30.70
  -1   2  -1  957.10   30.50
   1  -2  -1  923.21   30.30
  -2  -1  -1 1030.90   30.20
   1  -2  -1 1032.90   30.30
   1  -2  -1 1025.20   30.50
   1  -2   1 1010.20   30.50
   2   1   1  998.30   30.60
   1  -2   1 1003.80   30.70
   2   1   1 1043.70   30.30
   2   1   1  978.00   30.60
   2   1   1  998.00   30.50
  -2  -1   1 1000.80   30.40
   1  -2   1 1030.40   30.90
  -1   2   1 1005.30   30.50
  -1   2   1  990.60   30.40
   1  -2   1  975.70   30.60
   2   1   1  993.40   30.50
  -1   2   1  984.10   30.40
  -1   2   1  988.70   30.70
   1  -2   1 1002.30   30.40
   2   1   1  989.60   30.90
  -1   2   1  955.60   29.90
   2   1   1 1000.20   30.60
   1  -2   1  976.40   30.30
  -1   2   1  995.90   30.60
  -1   2   1  961.60   30.30
   1  -2   1 1006.30   30.80
  -2  -1   1 1051.29   30.50
  -2  -1   1 1011.40   30.70
  -1   2   1  986.30   30.70
   2   1   1  980.90   30.50
  -1   2   1 1018.10   30.40
   2   1   1 1007.00   30.60
  -2  -1   1 1057.79   30.60
  -2  -1   1  994.60   30.40
   2  -1  -1 1062.29   30.80
  -1  -2  -1  956.20   31.30
  -2   1  -1  968.10   31.30
  -1  -2  -1 1044.70   31.20
   1   2  -1 1053.59   31.10
   2  -1  -1 1004.70   31.30
  -1  -2  -1 1022.40   31.20
  -1  -2  -1 1023.90   31.50
   1   2  -1 1039.80   31.30
  -2   1  -1 1036.70   30.70
  -1  -2  -1  996.10   31.10
   2  -1  -1 1038.20   30.90
  -2   1  -1  985.50   31.50
   2  -1  -1 1001.00   30.80
  -1  -2  -1 1025.00   30.80
   2  -1  -1  991.40   30.80
   2  -1  -1  953.50   30.70
  -2   1  -1 1032.10   31.20
   1   2  -1  980.60   31.20
   2  -1  -1 1003.30   31.10
  -2   1  -1 1038.60   31.10
  -1  -2  -1 1030.40   31.10
   1   2  -1 1033.40   30.90
  -2   1  -1 1003.90   31.30
  -1  -2  -1  973.90   31.20
   1   2  -1 1053.09   31.40
  -2   1  -1 1003.50   31.10
  -1  -2  -1 1006.40   30.90
  -2   1  -1 1005.40   31.30
   1   2   1 1000.50   30.80
  -2   1   1  958.60   30.80
   2  -1   1  986.90   31.20
   2  -1   1 1016.10   31.00
   2  -1   1 1036.90   30.80
   1   2   1  984.30   30.50
   2  -1   1 1034.30   31.00
  -2   1   1  980.80   30.90
   1   2   1 1005.40   30.90
  -2   1   1 1013.80   30.40
  -2   1   1 1038.10   30.50
   2  -1   1 1037.80   30.90
  -1  -2   1  950.00   31.00
   2  -1   1 1023.30   31.00
  -2   1   1  990.90   30.60
  -2   1   1  964.40   30.40
   1   2   1 1039.10   30.60
  -2   1   1  975.40   31.00
  -2   1   1  979.20   30.30
  -2   1   1 1021.90   31.00
  -1  -2   1  989.20   30.60
   1   2   1 1000.00   30.90
   1   2   1  950.90   31.00
  -2   1   1 1017.20   30.60
   2  -1   1  995.10   30.90
   1   2   1  998.20   31.10
  -1  -2   1 1060.89   31.00
   2  -1   1  996.30   31.00
  -1  -2   1 1024.90   30.70
  -2   1   1  977.90   30.40
   2  -1   1 1023.10   30.40
  -2   3  -1 2380.66   73.49
  -2   3  -1 2372.96   73.19
   2  -3  -1 2381.56   72.69
  -3  -2  -1 2484.05   73.39
  -2   3  -1 2403.96   73.49
  -3  -2  -1 2422.56   73.09
   3   2  -1 2465.55   73.39
   3   2  -1 2503.05   72.99
   2  -3  -1 2352.66   73.09
   3   2  -1 2410.86   73.19
  -3  -2  -1 2300.97   73.69
   3   2  -1 2487.55   73.49
  -3  -2  -1 2482.05   72.69
  -2   3  -1 2422.86   73.39
  -2   3  -1 2489.05   72.39
  -3  -2  -1 2453.15   73.29
   3   2  -1 2551.84   72.79
  -2   3  -1 2379.76   73.49
   2  -3  -1 2484.55   73.19
   2  -3  -1 2385.86   73.19
  -3  -2  -1 2460.95   73.39
   2  -3  -1 2370.26   73.29
  -2   3  -1 2382.46   73.29
  -3  -2   1 2286.57   71.99
   2  -3   1 2372.16   72.79
  -3  -2   1 2468.95   72.49
  -2   3   1 2355.06   72.89
  -2   3   1 2476.05   72.19
   3   2   1 2399.46   72.59
  -3  -2   1 2481.85   72.29
   2  -3   1 2352.66   72.69
   2  -3   1 2448.26   71.89
   3   2   1 2379.66   73.29
  -2   3   1 2418.56   73.09
  -2   3   1 2405.36   72.59
   3   2   1 2492.65   72.29
  -2   3   1 2426.16   72.69
   3   2   1 2404.86   72.79
   3   2   1 2379.96   72.69
   3   2   1 2344.07   72.79
   2  -3   1 2486.55   72.99
  -2   3   1 2412.26   72.19
  -2   3   1 2416.66   72.79
  -3  -2   1 2397.86   71.89
   2  -3   1 2439.06   72.99
   0   3  -1 1513.25   45.60
  -3   0  -1 1462.75   45.50
   0  -3  -1 1488.55   44.80
   0  -3  -1 1553.04   45.30
   3   0  -1 1484.95   45.20
  -3   0  -1 1526.05   45.30
   0   3  -1 1554.44   45.80
  -3   0  -1 1501.05   45.30
   3   0  -1 1510.85   45.60
   0   3  -1 1518.95   45.00
   0   3  -1 1452.45   44.90
   0   3  -1 1532.25   44.90
   0  -3  -1 1482.85   45.40
  -3   0  -1 1494.45   45.10
   3   0  -1 1476.85   44.80
   0   3  -1 1549.84   45.20
  -3   0  -1 1471.55   45.20
   0  -3  -1 1470.25   45.30
   0   3  -1 1571.04   45.10
   3   0  -1 1416.06   44.70
   0  -3  -1 1508.75   45.40
   3   0  -1 1503.95   44.90
   0  -3  -1 1478.85   45.20
   0  -3  -1 1375.86   45.40
  -3   0  -1 1382.66   45.80
   0   3   1 1482.25   45.10
  -3   0   1 1483.25   44.60
  -3   0   1 1454.75   44.50
  -3   0   1 1463.25   45.00
   0  -3   1 1427.46   44.40
   0  -3   1 1485.45   44.50
   3   0   1 1481.75   45.50
   0   3   1 1469.15   45.30
  -3   0   1 1552.94   44.90
   0   3   1 1461.45   45.00
   0  -3   1 1491.45   44.90
   3   0   1 1562.14   45.00
   0  -3   1 1462.35   44.60
   0   3   1 1478.25   45.10
   0  -3   1 1501.55   45.00
   0   3   1 1485.85   44.90
   0  -3   1 1480.85   45.10
   3   0   1 1477.75   45.20
   3   0   1 1446.86   45.20
   3   0   1 1499.75   45.20
   0   3   1 1439.76   44.80
   3   0   1 1438.56   45.20
   0   3   1 1441.16   44.40
   3   0   1 1492.55   44.80
   3   0   1 1499.25   44.90
  -3   0   1 1587.64   45.30
  -3   0   1 1455.95   44.60
   0   3   1 1449.26   45.00
  -3   0   1 1506.65   44.70
  -3   2  -1 2219.68   66.39
   2   3  -1 2242.08   66.19
   2   3  -1 2200.78   66.89
  -3   2  -1 2209.48   67.19
  -2  -3  -1 2181.38   66.99
  -2  -3  -1 2209.38   66.69
   2   3  -1 2311.17   66.99
  -3   2  -1 2091.29   67.09
  -2  -3  -1 2216.38   66.99
  -2  -3  -1 2241.48   67.09
  -3   2  -1 2193.98   67.09
   3  -2  -1 2232.88   66.69
   2   3  -1 2233.68   67.29
  -3   2  -1 2221.98   66.89
   3  -2  -1 2269.17   66.89
  -3   2  -1 2243.58   67.09
   3  -2  -1 2210.58   66.79
   2   3  -1 2177.68   66.09
   3  -2  -1 2333.57   67.19
   2   3  -1 2189.68   66.39
   3  -2  -1 2182.08   67.09
  -2  -3  -1 2150.48   66.39
  -2  -3  -1 2205.68   66.89
  -3   2   1 2206.78   66.39
   2   3   1 2227.78   67.19
  -2  -3   1 2259.67   66.19
   2   3   1 2214.18   66.79
   3  -2   1 2193.48   66.89
   2   3   1 2498.75   67.89
  -3   2   1 2235.88   66.59
   2   3   1 2193.48   66.59
   3  -2   1 2241.08   66.99
   2   3   1 2162.58   66.39
   3  -2   1 2129.19   66.89
   2   3   1 2192.28   66.79
  -2  -3   1 2211.08   66.09
  -2  -3   1 2175.38   66.69
  -3   2   1 2095.39   66.49
   2   3   1 2237.58   66.69
   2   3   1 2241.88   66.09
  -2  -3   1 2107.89   65.89
  -3   2   1 2230.88   66.59
   3  -2   1 2173.58   66.89
   3  -2   1 2176.48   66.69
  -3   2   1 2171.58   66.99
  -3   2   1 2187.48   66.39
  -4  -3  -1  940.31   29.20
  -3   4  -1  930.11   29.40
   3  -4  -1  934.51   28.50
   4   3  -1  929.51   28.40
   4   3  -1  965.40   28.80
  -4  -3  -1  921.01   29.30
   3  -4  -1  940.61   29.20
   3  -4  -1  927.71   29.30
   3  -4  -1  944.11   29.30
  -3   4  -1  975.80   28.30
  -4  -3  -1  913.41   28.50
  -4  -3  -1  945.11   29.40
  -3   4  -1  927.31   29.50
   3  -4  -1  890.01   28.70
   3  -4  -1  935.51   29.30
   4   3  -1  907.11   29.20
  -4  -3  -1  949.31   29.60
  -3   4  -1  930.51   29.60
   4   3  -1  950.70   29.50
  -3   4  -1  897.91   29.40
  -3   4  -1  905.61   29.30
   4   3  -1  955.50   28.30
  -4  -3   1  937.41   29.40
   3  -4   1  813.52   28.00
   4   3   1  881.11   28.60
  -4  -3   1  911.81   28.10
  -4  -3   1  954.40   28.00
  -3   4   1  923.61   29.00
  -3   4   1  927.91   28.90
   4   3   1  929.01   28.90
  -3   4   1  913.61   29.40
  -3   4   1  802.22   28.20
   3  -4   1  944.91   29.00
  -4  -3   1  943.31   28.00
  -3   4   1  910.61   29.00
   4   3   1  935.91   28.60
   4   3   1  905.31   29.40
   4   3   1  963.00   28.00
   4   3   1  952.30   28.90
   4   3   1  926.41   28.90
   3  -4   1  921.11   28.90
  -3   4   1  923.61   28.70
   3  -4   1  946.71   29.10
   3  -4   1  905.51   29.40
  -4  -3   1  953.90   28.10
   4   1  -1 4176.88  129.29
   1  -4  -1 3753.52  130.09
   1  -4  -1 4206.18  129.99
   4   1  -1 4367.36  129.99
   1  -4  -1 4117.59  129.39
  -1   4  -1 4258.07  129.99
  -1   4  -1 4099.59  130.29
  -1   4  -1 4421.56  130.39
  -1   4  -1 4250.07  129.29
  -4  -1  -1 4492.15  130.09
   4   1  -1 4490.25  130.29
  -4  -1  -1 4491.75  130.19
   1  -4  -1 4154.98  129.89
  -4  -1  -1 4470.85  130.09
   1  -4  -1 4345.67  129.99
  -4  -1  -1 4172.18  129.99
   1  -4  -1 4327.37  129.29
  -1   4  -1 4504.95  129.99
  -4  -1  -1 4595.94  129.69
   1  -4  -1 4409.36  129.89
   4   1  -1 4569.04  129.79
  -1   4  -1 4349.76  129.69
   4   1  -1 4647.53  129.59
   4   1   1 4160.38  130.69
  -4  -1   1 4198.38  130.29
   4   1   1 4231.38  130.59
  -4  -1   1 4532.35  129.99
  -1   4   1 4309.87  130.79
  -4  -1   1 4349.16  130.09
   4   1   1 4304.67  129.99
  -1   4   1 4314.97  130.49
  -1   4   1 4302.07  130.99
   1  -4   1 4389.06  130.69
   4   1   1 4574.74  130.59
  -1   4   1 4312.17  130.39
  -1   4   1 4219.38  130.59
   1  -4   1 4701.23  130.19
  -1   4   1 4265.37  130.49
   1  -4   1 4432.06  130.29
  -4  -1   1 4394.96  130.29
   4   1   1 4231.78  130.99
   1  -4   1 4483.55  130.69
   4   1   1 4209.78  130.69
   4   1   1 4494.35  130.29
   1  -4   1 4464.35  130.39
   4   1   1 4247.77  130.09
   1   4  -1   54.79    3.00
   1   4  -1   47.90    3.80
  -4   1  -1   45.40    3.50
  -1  -4  -1   53.59    3.10
   1   4  -1   51.29    3.90
  -4   1  -1   51.59    3.70
  -1  -4  -1   51.69    3.40
   1   4  -1   54.09    3.00
   4  -1  -1   49.50    3.20
   1   4  -1   55.49    3.10
   4  -1  -1   47.70    2.90
   4  -1  -1   50.89    2.20
  -4   1  -1   49.20    3.10
   4  -1  -1   51.69    3.30
   4  -1  -1   47.30    3.70
   1   4  -1   56.99    3.60
  -4   1  -1   47.00    3.80
   1   4  -1   51.19    3.80
   1   4  -1   47.70    2.50
  -1  -4  -1   49.30    3.60
  -4   1  -1   46.70    3.30
  -4   1  -1   44.80    3.80
  -1  -4  -1   52.29    3.50
   4  -1  -1   49.80    3.30
   4  -1  -1   47.10    3.20
   1   4   1   52.89    4.00
   4  -1   1   55.79    3.80
  -1  -4   1   43.70    3.70
  -4   1   1   50.29    3.20
   1   4   1   41.80    3.30
  -4   1   1   52.39    2.20
   1   4   1   52.89    2.80
   1   4   1   49.90    4.30
   4  -1   1   50.39    4.80
   1   4   1   47.00    3.20
  -1  -4   1   46.10    3.10
  -1  -4   1   49.00    2.60
  -1  -4   1   46.70    2.30
   4  -1   1   49.70    3.60
   4  -1   1   47.70    3.90
  -4   1   1   50.99    2.90
  -1  -4   1   46.30    3.10
  -4   1   1   51.59    2.90
   4  -1   1   53.19    3.40
  -4   1   1   50.19    3.80
   1   4   1   47.90    3.20
  -4   1   1   54.39    3.40
   1   4   1   46.00    3.80
   3   4  -1 2160.98   63.69
   3   4  -1 2189.88   64.19
  -4   3  -1 1998.70   63.59
  -4   3  -1 2117.19   63.09
   4  -3  -1 2066.49   63.49
  -4   3  -1 2049.59   63.89
   3   4  -1 2027.30   63.69
   4  -3  -1 2129.19   63.89
   4  -3  -1 2176.68   63.79
   4  -3  -1 2064.49   63.59
  -4   3  -1 1983.00   63.99
  -3  -4  -1 2123.79   63.79
  -4   3  -1 2045.40   64.09
  -3  -4  -1 2094.89   63.59
   3   4  -1 2132.19   62.99
   3   4  -1 2085.89   62.79
  -3  -4  -1 2186.88   63.99
   3   4  -1 2065.89   62.79
  -3  -4   1 2123.39   64.19
   3   4   1 2127.49   64.09
  -4   3   1 2050.69   64.49
  -4   3   1 2175.68   63.89
   4  -3   1 2225.38   65.39
   3   4   1 2102.19   63.69
   3   4   1 2089.69   64.59
   4  -3   1 2021.50   63.29
   3   4   1 2112.59   62.99
  -3  -4   1 1983.30   63.19
   4  -3   1 2083.79   64.09
  -3  -4   1 2113.19   63.19
   4  -3   1 2143.29   64.29
   3   4   1 2055.69   63.79
   3   4   1 2150.28   63.99
  -4   3   1 2145.59   64.09
  -4   3   1 2174.68   63.79
  -3  -4   1 1893.71   63.49
   4  -3   1 2085.39   64.09
   4  -3   1 2117.99   64.29
  -4   3   1 2196.78   64.09
  -5  -4  -1  197.38    6.60
  -5  -4  -1  193.78    8.50
  -4   5  -1  193.88    8.60
  -4   5  -1  201.58    8.30
   4  -5  -1  202.78    7.40
   4  -5  -1  205.48    8.40
  -5  -4  -1  194.48    8.30
   5   4  -1  195.38    8.80
   5   4  -1  200.38    8.30
  -5  -4  -1  202.58    8.40
   5   4  -1  204.68    7.20
   4  -5  -1  185.88    7.70
   4  -5  -1  198.58    8.30
   5   4  -1  191.78    7.60
  -4   5  -1  208.68    9.30
  -5  -4  -1  196.58    9.00
  -4   5  -1  203.68    8.50
   5   4  -1  203.18    7.30
  -4   5  -1  185.28    8.90
  -4   5  -1  201.38    7.30
  -4   5   1  216.68   12.70
   4  -5   1  195.28    8.60
   5   4   1  183.68    8.10
   4  -5   1  198.28    8.70
   4  -5   1  195.18    7.10
   5   4   1  200.48    8.10
  -5  -4   1  191.48    8.80
  -5  -4   1  202.38    6.90
  -4   5   1  213.18    8.70
   5   4   1  194.68    6.80
   5   4   1  190.48    8.00
   5   4   1  188.98    8.80
   5   4   1  194.48    8.50
   4  -5   1  188.58    8.50
  -5  -4   1  200.68    7.00
  -5  -4   1  195.48    7.30
  -4   5   1  200.18    6.90
  -5  -4   1  196.38    7.30
  -4   5   1  193.98    8.60
   5   4   1  213.88    9.20
  -4   5   1  201.18    9.40
  -5  -2  -1  226.28    7.60
  -2   5  -1  205.28    8.70
  -5  -2  -1  215.38    8.50
  -2   5  -1  214.58    8.60
   5   2  -1  213.38    7.40
   5   2  -1  200.68    8.30
   2  -5  -1  219.68    8.40
  -2   5  -1  203.98    8.80
  -5  -2  -1  203.18    8.50
  -5  -2  -1  208.68    8.90
   2  -5  -1  217.08    8.20
   2  -5  -1  212.78    8.30
  -5  -2  -1  198.78    8.80
   2  -5  -1  223.58    7.70
  -2   5  -1  219.78    8.80
  -2   5  -1  220.88    7.40
   5   2  -1  223.38    7.30
  -2   5  -1  218.38    8.60
  -2   5  -1  220.18    8.20
   5   2  -1  211.78    8.80
   5   2  -1  220.98    8.40
   5   2  -1  214.48    7.50
  -2   5   1  214.08    7.70
  -2   5   1  218.18    8.20
   2  -5   1  224.28    7.10
  -5  -2   1  202.08    7.60
  -2   5   1  210.38    8.80
   5   2   1  208.48    8.60
  -5  -2   1  207.98    7.40
   2  -5   1  215.88    8.40
   5   2   1  216.08    7.60
   5   2   1  207.98    7.90
   5   2   1  205.08    8.60
  -2   5   1  204.58    8.50
  -5  -2   1  211.18    7.60
  -5  -2   1  204.18    7.70
   5   2   1  214.98    8.80
   5   2   1  216.98    8.30
   2  -5   1  210.38    8.30
  -2   5   1  227.48    9.00
   2  -5   1  205.38    8.10
   5   0  -1  196.18    6.90
  -5   0  -1  201.38    7.80
   5   0  -1  189.88    6.70
  -5   0  -1  197.48    6.70
  -5   0  -1  200.88    7.40
   0   5  -1  163.48    7.80
   0   5  -1  180.68    6.80
  -5   0  -1  198.78    9.00
   0  -5  -1  182.78    7.50
   5   0  -1  191.88    7.90
   0  -5  -1  176.48    7.40
   5   0  -1  194.68    7.40
   5   0  -1  199.98    7.00
   0  -5  -1  176.98    7.30
   5   0  -1  200.18    6.80
   0   5  -1  172.48    7.70
   0   5  -1  170.58    7.40
   0   5  -1  177.18    7.20
  -5   0  -1  195.28    7.60
   0   5  -1  173.28    7.10
  -5   0   1  174.48    7.10
   0   5   1  189.08    7.60
   0  -5   1  200.38    7.10
   5   0   1  172.08    7.80
   0   5   1  207.28    7.70
   0   5   1  193.48    8.10
   0   5   1  201.38    6.80
  -5   0   1  181.18    6.90
   0  -5   1  199.18    7.60
   0   5   1  195.58    7.30
  -5   0   1  180.78    6.30
   0  -5   1  196.58    7.00
  -5   0   1  171.28    7.40
   0  -5   1  190.88    6.70
   5   0   1  183.78    6.70
   5   0   1  182.28    7.60
   5   0   1  175.78    7.70
   0   5   1  203.88    7.60
  -5   0   1  176.58    7.10
  -5   0   1  166.08    6.40
   5   0   1  188.38    7.90
   0  -5   1  193.18    7.60
   2   5  -1    7.80    2.40
  -2  -5  -1   10.10    2.90
   2   5  -1    7.30    2.30
  -5   2  -1   12.60    2.40
   2   5  -1    7.40    2.00
   5  -2  -1    6.10    1.80
   2   5  -1   11.30    2.20
   5  -2  -1    5.20    2.40
   2   5  -1   12.80    1.90
  -2  -5  -1    9.30    2.20
  -5   2  -1    8.00    1.90
  -2  -5  -1    7.90    2.10
  -5   2  -1    9.80    2.70
   5  -2  -1   16.20    2.40
  -5   2  -1    8.60    2.60
   2   5  -1    8.40    1.50
  -2  -5  -1   11.50    2.40
   5  -2  -1   10.40    2.40
   5  -2  -1   11.50    2.70
   5  -2  -1   12.10    2.70
  -5   2  -1    8.30    2.50
   2   5  -1    9.70    1.50
   2   5   1    7.40    2.30
  -5   2   1   10.80    2.40
   2   5   1    7.80    2.00
  -5   2   1   11.70    2.90
   2   5   1    9.50    1.80
   2   5   1   11.70    2.00
  -5   2   1   12.20    2.20
   5  -2   1   12.20    2.80
   5  -2   1    6.60    2.30
  -2  -5   1    6.70    1.90
   5  -2   1    8.90    2.40
  -2  -5   1    7.00    2.20
  -5   2   1    9.00    2.60
   2   5   1    7.20    2.30
  -5   2   1    9.20    1.80
  -2  -5   1   11.30    1.60
  -2  -5   1   16.80    2.40
   5  -2   1    8.10    2.30
   2   5   1    8.10    1.80
   2   5   1    6.80    2.50
  -4  -5  -1  140.29    7.60
   4   5  -1  120.99    6.40
   5  -4  -1  142.39    7.50
   4   5  -1  140.89    6.50
   4   5  -1  145.49    4.90
   5  -4  -1  130.49    6.90
  -4  -5  -1  138.29    6.80
  -5   4  -1  127.89    7.70
   4   5  -1  146.69    5.40
  -5   4  -1  133.09    7.40
   5  -4  -1  127.49    6.30
   5  -4  -1  126.49    6.80
  -5   4  -1  130.79    6.60
   4   5  -1  147.19    7.20
   5  -4  -1  124.39    6.50
  -4  -5  -1  137.79    6.50
   4   5  -1  140.49    6.50
  -4  -5  -1  150.48    6.70
  -5   4  -1  140.89    7.10
  -5   4   1  164.28    7.30
   5  -4   1  152.38    7.10
  -5   4   1  147.79    6.80
   4   5   1  134.19    6.30
  -5   4   1  151.18    6.90
   5  -4   1  132.59    7.00
  -5   4   1  142.79    7.60
   4   5   1  131.69    5.00
  -5   4   1  154.18    8.00
   5  -4   1  142.79    7.30
  -4  -5   1  131.49    5.60
   5  -4   1  144.69    5.80
   4   5   1  131.39    6.90
  -4  -5   1  132.19    5.40
   4   5   1  139.59    7.00
   4   5   1  127.19    6.30
   4   5   1  121.29    7.30
   4   5   1  133.09    8.60
   4   5   1  134.39    4.80
  -4  -5   1  132.49    6.90
   5  -4   1  148.19    6.80
  -6  -5  -1 2335.97   71.39
  -5   6  -1 2206.38   70.99
   5  -6  -1 2422.16   71.19
   5  -6  -1 2404.36   70.49
   6   5  -1 2360.86   70.99
   6   5  -1 2087.29   70.89
   6   5  -1 2311.87   71.39
  -6  -5  -1 2240.88   70.69
  -5   6  -1 2343.17   71.09
  -5   6  -1 2274.57   71.49
  -6  -5  -1 2203.98   70.89
  -5   6  -1 2305.27   71.59
   5  -6  -1 2364.16   70.79
   5  -6  -1 2302.77   69.59
  -6  -5  -1 2306.67   70.49
   6   5  -1 2367.66   70.09
   6   5  -1 2273.27   69.89
   5  -6  -1 2423.16   70.99
   6   5   1 2434.86   71.09
   5  -6   1 2373.26   71.39
  -5   6   1 2361.06   72.29
  -5   6   1 2298.87   70.99
   6   5   1 2360.76   71.09
  -6  -5   1 2295.87   70.29
  -6  -5   1 2364.76   69.39
   6   5   1 2315.47   70.89
  -5   6   1 2363.46   71.39
  -6  -5   1 2125.39   71.09
  -6  -5   1 2273.17   71.69
   6   5   1 2310.37   70.69
   5  -6   1 2321.97   71.09
   5  -6   1 2333.37   71.39
  -5   6   1 2278.67   71.39
  -5   6   1 2260.37   69.59
   6   5   1 2393.76   72.09
   5  -6   1 2289.07   69.99
   5  -6   1 2232.98   71.29
  -6  -3  -1  333.87   12.40
  -3   6  -1  325.77   12.90
  -3   6  -1  312.47   12.50
   3  -6  -1  332.77   11.50
  -3   6  -1  334.17   11.10
  -3   6  -1  341.77   12.30
   3  -6  -1  324.17   12.20
   6   3  -1  322.07   11.10
   6   3  -1  340.27   12.40
  -3   6  -1  328.77   12.70
   6   3  -1  326.47   10.90
  -3   6  -1  329.17   12.10
   3  -6  -1  323.37   12.20
   3  -6  -1  325.87   12.00
  -6  -3  -1  336.67   12.60
   6   3  -1  323.77   12.10
  -6  -3  -1  331.77   10.80
  -6  -3  -1  304.17   12.70
  -6  -3  -1  332.47   12.20
   3  -6   1  337.47   10.90
  -6  -3   1  325.27   11.20
  -6  -3   1  325.07   12.90
   3  -6   1  312.37   12.30
   6   3   1  327.37   12.20
   3  -6   1  327.77   12.20
  -3   6   1  316.87   12.70
  -6  -3   1  317.87   11.40
   3  -6   1  340.97   12.30
   6   3   1  319.87   11.30
   3  -6   1  308.77   13.50
   6   3   1  316.57   12.70
   6   3   1  321.57   12.00
  -3   6   1  319.77   12.60
  -6  -3   1  296.37   11.70
   6   3   1  364.76   13.60
  -6  -3   1  322.67   11.40
   6   3   1  333.17   11.30
  -3   6   1  337.67   11.30
  -3   6   1  336.17   12.20
  -3   6   1  341.97   13.00
   6   3   1  333.87   12.20
   6   1  -1 4969.20  149.39
   1  -6  -1 4854.31  149.29
   6   1  -1 5121.09  150.48
  -1   6  -1 4914.01  149.69
  -1   6  -1 4912.91  150.28
  -6  -1  -1 5136.09  149.59
  -1   6  -1 5217.48  149.99
  -1   6  -1 4739.53  149.79
   1  -6  -1 4845.62  149.79
  -1   6  -1 4994.50  150.58
  -6  -1  -1 5031.60  150.38
   6   1  -1 4912.41  149.29
   6   1  -1 5120.19  150.08
  -6  -1  -1 5036.70  150.28
   6   1  -1 5111.49  149.59
   1  -6  -1 4957.50  149.88
   1  -6  -1 4830.02  149.99
  -6  -1  -1 5081.59  150.18
  -1   6   1 4915.41  149.19
   6   1   1 4927.51  147.49
   1  -6   1 5094.69  148.69
   1  -6   1 5032.50  147.69
  -1   6   1 4942.11  148.79
  -6  -1   1 4673.83  147.29
   1  -6   1 5037.90  148.69
  -6  -1   1 4827.72  148.39
  -6  -1   1 4748.52  148.19
   1  -6   1 4946.90  148.29
  -6  -1   1 5102.59  147.29
   6   1   1 4876.81  148.89
   6   1   1 5123.29  147.59
  -1   6   1 4976.20  148.69
  -1   6   1 5010.40  148.39
  -6  -1   1 4890.61  148.19
   6   1   1 5074.49  148.59
   6   1   1 4779.32  148.89
   1  -6   1 4878.51  148.19
  -1   6   1 4939.41  148.39
   1   6  -1  541.35   19.00
  -1  -6  -1  556.74   18.50
   6  -1  -1  550.44   18.10
   1   6  -1  563.64   19.10
  -6   1  -1  552.24   18.80
   6  -1  -1  551.64   18.40
   1   6  -1  550.54   17.80
  -6   1  -1  552.84   18.60
  -6   1  -1  577.14   19.00
   6  -1  -1  559.24   18.90
  -1  -6  -1  528.55   18.40
   1   6  -1  551.44   18.20
  -6   1  -1  572.44   17.60
   6  -1  -1  574.34   17.40
  -6   1  -1  562.74   18.50
   6  -1  -1  567.94   18.00
   1   6  -1  542.35   17.80
  -1  -6  -1  536.55   18.30
   1   6  -1  546.25   18.40
  -6   1   1  524.65   17.50
  -6   1   1  551.94   17.10
   1   6   1  558.94   18.00
  -6   1   1  563.94   17.20
   6  -1   1  532.35   18.40
   6  -1   1  530.25   18.40
   1   6   1  566.54   17.70
  -6   1   1  530.85   18.10
   6  -1   1  535.85   18.60
   1   6   1  539.75   18.60
  -1  -6   1  526.95   17.50
  -6   1   1  552.44   18.70
  -1  -6   1  525.55   17.60
  -1  -6   1  554.54   17.70
   6  -1   1  548.85   17.40
   1   6   1  560.64   18.40
   1   6   1  548.05   18.00
  -6   1   1  578.24   18.30
   1   6   1  565.34   18.90
   6  -1   1  553.04   18.70
  -1  -6   1  544.35   18.10
   3   6  -1   67.49    5.60
   6  -3  -1   50.99    5.80
  -6   3  -1   59.49    5.40
  -3  -6  -1   67.09    4.90
   3   6  -1   59.09    4.70
  -6   3  -1   65.19    6.20
  -6   3  -1   62.29    4.50
   6  -3  -1   62.59    4.90
   3   6  -1   68.49    3.40
   3   6  -1   70.19    4.20
  -6   3  -1   50.89    5.70
   3   6  -1   62.79    3.60
   6  -3  -1   63.99    5.20
   3   6  -1   72.39    5.40
   6  -3  -1   58.49    4.60
  -6   3   1   69.49    5.30
   6  -3   1   69.59    5.90
  -3  -6   1   56.29    4.30
  -3  -6   1   62.49    3.80
   6  -3   1   74.59    5.40
   3   6   1   53.99    4.50
   3   6   1   53.69    5.50
  -3  -6   1   51.59    4.60
   3   6   1   57.39    5.70
   3   6   1   58.99    4.60
  -6   3   1   76.99    5.30
  -3  -6   1   55.89    4.80
  -6   3   1   65.79    6.10
   3   6   1   55.89    3.80
   3   6   1   59.39    3.40
   6  -3   1   68.09    4.40
  -6   3   1   71.49    4.50
   6  -3   1   59.99    5.40
   6  -3   1   68.09    5.10
  -6   3   1   56.79    6.00
   6  -5  -1  918.71   28.70
  -6   5  -1  943.01   28.90
   5   6  -1  905.31   28.00
   5   6  -1  901.01   28.70
   6  -5  -1  917.11   29.00
   6  -5  -1  919.31   29.10
  -5  -6  -1  863.91   29.30
   5   6  -1  863.51   29.50
  -5  -6  -1  859.41   28.80
  -6   5  -1  843.52   29.60
   6  -5  -1  900.81   29.10
  -6   5  -1  909.61   29.80
   5   6  -1  880.51   27.90
  -6   5  -1  898.11   29.40
  -5  -6  -1  860.41   28.60
  -5  -6   1  914.11   29.50
   5   6   1  901.01   28.80
  -5  -6   1  917.51   28.20
  -5  -6   1  891.61   27.30
   6  -5   1  902.61   29.50
   6  -5   1  874.61   29.30
  -6   5   1  843.22   30.00
  -6   5   1  887.71   29.00
   6  -5   1  866.11   28.10
   5   6   1  954.10   29.10
   6  -5   1  899.41   28.90
   5   6   1  893.01   29.00
  -5  -6   1  899.11   28.30
   5   6   1  908.11   28.80
   6  -5   1  896.61   29.40
   5   6   1  872.71   29.90
  -6   5   1  909.11   29.00
  -6   5   1  889.81   29.50
  -7  -6  -1   97.69    7.00
   6  -7  -1   96.29    6.80
   7   6  -1   95.29    6.20
   6  -7  -1   80.19    7.30
  -6   7  -1   85.99    8.90
   7   6  -1   98.29    6.10
   6  -7  -1   98.09    8.50
   7   6  -1   94.79    8.50
  -7  -6  -1   77.39    7.40
  -6   7  -1   94.99    7.60
  -6   7  -1   91.19    7.30
   7   6  -1   99.79    5.60
   6  -7  -1  100.19    6.60
   6  -7  -1  100.79    6.20
  -7  -6  -1   96.79    7.20
   7   6  -1   96.79    7.10
  -6   7  -1  105.39    9.00
  -6   7   1   96.39    4.80
   7   6   1   87.79    6.60
   6  -7   1   97.89    8.20
   7   6   1  100.19    8.30
  -6   7   1   92.39    8.00
  -7  -6   1   83.19    7.10
  -6   7   1   97.49    7.50
   7   6   1  100.19    8.20
  -7  -6   1   86.89    7.70
   6  -7   1  103.69    7.60
   7   6   1   84.49    6.70
   6  -7   1   97.49    7.70
  -7  -6   1   89.09    5.60
   6  -7   1   91.49    5.70
  -6   7   1   91.29    9.20
   7   6   1   94.29    6.90
  -6   7   1   93.99    7.30
   6  -7   1   96.99    7.00
  -7  -4  -1  310.77   12.10
  -4   7  -1  310.57   12.70
   7   4  -1  295.97   11.00
   7   4  -1  305.87   11.00
   7   4  -1  296.17   12.30
  -4   7  -1  319.37   13.00
  -7  -4  -1  306.67   10.00
   4  -7  -1  312.07   12.30
  -4   7  -1  303.07   12.00
   7   4  -1  301.87   10.50
  -7  -4  -1  288.87   12.40
  -7  -4  -1  304.87   12.20
  -4   7  -1  309.67   11.90
  -7  -4  -1  318.47   13.50
   4  -7  -1  316.37   12.30
   4  -7  -1  303.37   11.70
   4  -7  -1  311.07   11.40
   7   4  -1  297.77   12.10
  -4   7  -1  310.77   12.80
  -7  -4   1  291.97   12.90
   4  -7   1  298.77   10.50
   7   4   1  303.67   12.00
  -4   7   1  319.87   12.90
  -7  -4   1  305.87   10.60
  -7  -4   1  298.87   10.30
  -4   7   1  312.07   10.80
   7   4   1  310.87   12.20
   4  -7   1  296.47   12.40
   7   4   1  307.07   11.70
  -4   7   1  301.77   12.00
  -4   7   1  303.87   12.60
   4  -7   1  296.87   12.00
  -4   7   1  272.57   12.90
   7   4   1  301.87   10.90
  -7  -4   1  300.97   11.10
   7   4   1  300.47   10.60
   7   4   1  314.57   12.80
   4  -7   1  298.87   12.00
  -7  -2  -1  413.66   14.00
   7   2  -1  412.46   14.80
   7   2  -1  406.96   14.10
   2  -7  -1  424.76   15.10
   7   2  -1  403.26   15.50
  -7  -2  -1  411.16   15.20
  -2   7  -1  405.36   15.70
   2  -7  -1  433.56   14.20
  -2   7  -1  425.76   14.70
   7   2  -1  408.16   15.00
  -2   7  -1  416.56   15.20
   2  -7  -1  426.66   14.60
  -2   7  -1  428.06   15.50
  -7  -2  -1  408.66   14.90
   7   2  -1  429.66   14.20
   2  -7  -1  421.36   14.90
  -2   7  -1  431.16   15.50
  -7  -2  -1  401.36   15.30
  -2   7  -1  424.36   15.10
  -2   7   1  415.36   14.20
   7   2   1  389.26   15.10
   7   2   1  414.06   14.80
   2  -7   1  411.66   14.50
  -7  -2   1  399.56   14.20
   7   2   1  418.66   15.10
   2  -7   1  411.36   15.90
  -2   7   1  429.86   15.40
  -7  -2   1  411.56   14.30
  -7  -2   1  407.96   13.00
  -7  -2   1  426.86   12.80
   2  -7   1  422.56   13.50
   2  -7   1  398.46   14.80
   7   2   1  407.76   13.30
  -2   7   1  404.76   15.40
  -2   7   1  383.96   15.50
  -2   7   1  408.66   14.70
  -7  -2   1  421.76   14.10
   7   2   1  422.16   13.30
   7   2   1  432.16   15.60
   2  -7   1  413.96   14.70
  -7   0  -1   98.59    5.90
  -7   0  -1   98.89    6.20
  -7   0  -1   95.39    6.40
   0   7  -1   88.99    5.50
   7   0  -1   99.39    5.90
   0  -7  -1   92.89    5.90
   7   0  -1  103.29    5.90
  -7   0  -1   98.49    6.80
   0   7  -1   87.39    6.00
   7   0  -1   97.19    5.30
   7   0  -1  106.09    6.00
   0   7  -1   89.69    6.80
   0   7  -1   89.09    5.10
   0  -7  -1   88.69    5.80
   0   7  -1   91.89    6.70
   0  -7  -1   95.29    6.30
   7   0  -1   97.49    5.20
   0  -7  -1   84.39    5.10
   0  -7   1  100.99    4.90
  -7   0   1   86.39    6.00
   7   0   1   86.69    6.30
  -7   0   1   87.79    3.60
   0   7   1  105.89    6.30
   0   7   1   94.39    6.70
   0   7   1   97.99    6.50
   7   0   1   86.59    5.90
   0   7   1  102.39    6.10
   7   0   1   94.39    4.50
   0  -7   1   93.89    5.20
   7   0   1   88.19    4.30
  -7   0   1   86.59    6.30
  -7   0   1   86.29    5.70
   0   7   1  102.49    5.70
   0  -7   1   96.69    6.00
   7   0   1   87.59    6.80
   0  -7   1   97.09    6.10
   7   0   1   94.19    6.10
   0  -7   1   97.29    6.90
   7  -2  -1 2168.68   65.19
   7  -2  -1 2180.48   67.19
   2   7  -1 2176.18   65.79
  -7   2  -1 2141.19   67.09
  -7   2  -1 2107.49   65.89
  -7   2  -1 2174.48   67.19
   2   7  -1 2183.08   67.39
  -2  -7  -1 2229.78   66.99
   2   7  -1 2225.98   66.89
   2   7  -1 2197.98   66.19
   7  -2  -1 2229.18   66.89
  -2  -7  -1 2158.18   66.69
  -7   2  -1 2128.69   67.39
   2   7  -1 2125.39   67.39
   7  -2  -1 2146.29   66.69
  -7   2  -1 2143.59   66.79
   7  -2  -1 2179.08   66.79
   2   7  -1 2186.28   66.19
  -2  -7  -1 2158.78   66.69
   7  -2  -1 2202.58   65.79
   7  -2  -1 2242.38   66.49
   2   7   1 2134.89   65.19
   7  -2   1 2116.59   65.99
  -7   2   1 2171.68   65.89
   7  -2   1 2214.68   66.19
  -7   2   1 2123.89   65.09
  -2  -7   1 2120.99   65.39
   2   7   1 2142.99   65.79
   2   7   1 2146.19   66.39
   2   7   1 2081.09   66.19
   2   7   1 2152.78   65.09
  -7   2   1 2162.58   66.29
  -2  -7   1 2096.99   65.39
  -7   2   1 2162.38   64.69
   7  -2   1 2135.79   65.69
  -7   2   1 2204.58   65.99
   2   7   1 2118.59   65.49
  -7   2   1 2128.59   64.19
  -2  -7   1 2126.09   65.09
   7  -2   1 2103.39   66.29
  -4  -7  -1 1045.90   33.90
   7  -4  -1 1065.19   33.90
  -7   4  -1 1049.49   34.60
  -4  -7  -1 1063.79   33.90
   4   7  -1 1055.99   33.20
   4   7  -1 1081.39   32.30
  -7   4  -1 1068.49   33.50
  -7   4  -1 1088.19   35.00
  -7   4  -1 1014.80   34.70
   7  -4  -1 1055.39   34.20
   4   7  -1 1039.50   34.80
   4   7  -1 1056.79   34.20
   7  -4  -1 1115.59   34.90
   4   7  -1 1118.99   33.40
   7  -4  -1 1052.19   34.20
   4   7  -1 1058.99   34.20
  -7   4   1 1071.49   35.40
  -7   4   1 1058.99   34.10
   7  -4   1 1063.99   34.10
  -7   4   1 1049.20   34.80
  -4  -7   1 1066.69   33.50
   4   7   1 1070.09   34.70
  -7   4   1 1067.99   34.80
  -7   4   1 1099.79   33.70
  -4  -7   1 1058.79   33.60
   4   7   1 1098.49   32.40
  -4  -7   1 1064.09   33.00
   7  -4   1 1099.19   35.00
   4   7   1 1098.99   34.40
   7  -4   1 1070.49   34.70
   4   7   1 1103.99   34.10
  -4  -7   1 1030.80   34.40
   7  -4   1 1069.09   34.70
   4   7   1 1073.99   34.00
   7  -4   1 1060.49   33.70
   4   7   1 1035.60   35.10
  -7   6  -1   26.20    5.60
   6   7  -1   19.90    3.40
  -6  -7  -1   30.30    4.30
  -7   6  -1   39.50    5.70
  -7   6  -1   27.10    3.90
   6   7  -1   31.00    4.00
   6   7  -1   22.70    3.00
   7  -6  -1   23.60    4.00
   7  -6  -1   43.20    4.80
   6   7  -1   25.30    4.20
  -7   6  -1   31.70    4.90
   7  -6  -1   24.90    3.90
  -6  -7  -1   19.10    4.50
  -6  -7  -1   23.00    4.00
   7  -6  -1   18.80    5.20
   6   7  -1   23.10    4.60
   6   7   1   33.70    4.20
  -7   6   1   26.30    5.70
   6   7   1   28.50    5.20
  -7   6   1   21.10    4.40
  -6  -7   1   30.20    3.50
   6   7   1   24.60    3.80
  -7   6   1   31.10    4.80
   6   7   1   29.60    4.40
   6   7   1   30.80    4.90
   7  -6   1   43.40    5.10
   7  -6   1   28.00    3.20
  -6  -7   1   31.20    3.70
   7  -6   1   25.80    3.90
   7  -6   1   23.00    4.70
   7  -6   1   26.70    4.50
  -7   6   1   20.90    3.90
  -6  -7   1   21.90    4.20
  -7   8  -1   97.89    7.90
   8   7  -1  103.19    7.00
  -7   8  -1   87.09    8.60
  -8  -7  -1   95.39    9.20
  -7   8  -1   96.19   10.70
   8   7  -1  104.89    9.50
   8   7  -1  107.59    8.20
   8   7  -1  107.99    7.60
  -8  -7  -1   91.69    8.40
   7  -8  -1   91.89    7.80
   7  -8  -1   89.39    5.60
  -7   8  -1   84.59    9.60
   7  -8  -1   91.19    9.80
   8   7  -1   89.89    6.10
  -8  -7  -1  100.29   12.20
   7  -8  -1  103.09    7.60
   7  -8  -1  102.19    8.40
  -7   8   1  106.39    9.30
   7  -8   1  103.59    6.30
   7  -8   1  102.39    9.00
   8   7   1   94.09    7.50
  -7   8   1   82.09    9.40
   8   7   1   90.59    7.60
   7  -8   1  102.69    8.60
  -7   8   1  110.49    8.30
   8   7   1  101.99   10.40
   7  -8   1  105.99    9.20
   8   7   1   93.99    8.00
   7  -8   1  110.39    7.80
  -7   8   1  115.89    9.20
  -8  -7   1   82.99    8.80
  -8  -7   1   92.49    6.70
  -8  -7   1   87.89    8.20
   8   7   1   97.59    9.20
  -5   8  -1 2108.19   65.49
   8   5  -1 2141.89   64.79
   8   5  -1 2181.48   66.39
  -8  -5  -1 2019.80   67.99
  -5   8  -1 2160.08   65.89
   5  -8  -1 2127.89   65.39
   8   5  -1 2169.28   64.09
   5  -8  -1 2153.88   65.89
  -5   8  -1 2114.99   66.49
   5  -8  -1 2120.79   65.09
  -5   8  -1 2086.89   66.19
  -5   8  -1 2205.78   66.69
  -8  -5  -1 2056.09   65.59
  -8  -5  -1 1999.20   65.09
   5  -8  -1 2123.29   65.99
  -8  -5   1 2076.89   63.49
   5  -8   1 2137.89   64.09
  -8  -5   1 1906.81   67.59
  -5   8   1 2161.28   65.49
  -5   8   1 2159.28   66.69
   8   5   1 2095.69   64.19
   5  -8   1 2174.48   65.69
  -8  -5   1 2045.10   63.29
   5  -8   1 2080.39   65.49
  -5   8   1 2089.79   65.89
   8   5   1 2186.98   66.59
  -8  -5   1 2048.00   64.79
   8   5   1 2117.99   65.19
   5  -8   1 2135.69   65.59
   8   5   1 2075.89   65.59
   8   5   1 2173.98   63.19
  -5   8   1 2136.49   64.09
  -5   8   1 2099.99   66.09
   3  -8  -1  283.47   12.20
  -3   8  -1  285.07   12.00
  -3   8  -1  290.17   14.30
   8   3  -1  309.77   12.20
   3  -8  -1  280.17   11.90
  -8  -3  -1  304.77   12.00
  -8  -3  -1  305.57   12.60
   8   3  -1  306.17    9.50
  -3   8  -1  280.57   13.10
   3  -8  -1  287.07   11.20
  -8  -3  -1  315.87   10.40
   8   3  -1  324.27   11.20
  -3   8  -1  288.47   13.00
   8   3  -1  297.77   11.00
   8   3  -1  293.97   12.10
   3  -8  -1  298.57   11.60
  -8  -3  -1  294.07   12.20
  -3   8  -1  257.97   12.30
   3  -8   1  301.17   11.70
  -3   8   1  316.47   13.00
  -8  -3   1  294.77   11.20
   3  -8   1  311.07   12.30
  -8  -3   1  280.17   11.10
  -3   8   1  290.37   12.90
   8   3   1  289.77   12.60
   3  -8   1  311.67   10.30
  -3   8   1  298.27   12.60
  -3   8   1  306.77   11.20
  -8  -3   1  261.57   11.20
  -8  -3   1  275.87    9.50
  -8  -3   1  270.67   12.90
   8   3   1  284.47   12.10
   8   3   1  271.67   11.80
  -3   8   1  307.17   11.90
   3  -8   1  298.87   11.70
   8   3   1  277.17   10.00
   8   3   1  269.17   12.00
   8   3   1  285.47   10.10
  -8  -1  -1   86.89    6.90
  -1   8  -1   84.79    5.80
  -8  -1  -1   94.49    6.90
  -1   8  -1  105.29    7.50
  -8  -1  -1   94.99    7.50
   8   1  -1   91.29    6.40
   8   1  -1   90.39    7.20
  -1   8  -1   96.19    8.50
  -1   8  -1  107.39    7.80
   1  -8  -1   98.39    6.90
   1  -8  -1   91.29    6.30
   1  -8  -1   90.79    5.60
   8   1  -1  101.99    6.20
   1  -8  -1   97.49    6.00
  -8  -1  -1   95.09    6.00
   8   1  -1   91.19    6.10
  -1   8  -1   96.29    6.40
   8   1  -1   76.39    5.30
  -1   8  -1   94.99    6.80
  -1   8   1   88.09    6.90
  -8  -1   1   81.79    5.90
  -1   8   1   89.49    5.90
   8   1   1   92.69    6.90
   1  -8   1   81.59    6.80
  -1   8   1   93.79    6.30
   8   1   1   88.89    7.10
  -1   8   1  101.69    7.40
   1  -8   1   92.69    5.10
   1  -8   1   93.49    8.30
  -8  -1   1  103.69    6.50
   8   1   1   84.29    4.80
   1  -8   1   86.49    6.20
   8   1   1   89.89    4.70
   8   1   1   87.99    6.80
  -1   8   1   99.59    7.90
   1  -8   1   88.59    5.60
  -8  -1   1  102.69    6.60
   8   1   1  105.79    6.90
  -8   1  -1 1773.22   55.89
   8  -1  -1 1752.42   56.19
   8  -1  -1 1838.32   55.09
   8  -1  -1 1812.42   54.49
   8  -1  -1 1825.22   55.99
   1   8  -1 1773.02   55.09
   1   8  -1 1819.42   55.59
  -8   1  -1 1850.11   55.99
   1   8  -1 1846.52   54.99
  -8   1  -1 1766.42   55.79
   8  -1  -1 1749.12   55.49
   8  -1  -1 1841.42   55.69
  -1  -8  -1 1830.52   55.79
   1   8  -1 1730.43   56.39
  -8   1  -1 1788.12   56.29
  -1  -8  -1 1825.62   55.69
   1   8  -1 1816.52   55.49
  -1  -8  -1 1734.23   55.59
  -8   1  -1 1780.22   54.19
   1   8  -1 1750.32   56.29
   1   8   1 1725.63   54.79
  -8   1   1 1876.21   55.19
  -1  -8   1 1745.63   54.99
  -8   1   1 1772.22   55.19
   8  -1   1 1752.52   55.09
  -1  -8   1 1749.32   54.39
   8  -1   1 1847.52   53.69
  -1  -8   1 1737.93   55.19
   1   8   1 1825.92   55.39
   1   8   1 1740.53   55.99
  -8   1   1 1740.33   53.19
   1   8   1 1750.22   54.69
  -8   1   1 1779.72   53.99
   8  -1   1 1816.32   55.39
  -1  -8   1 1695.83   54.29
  -1  -8   1 1794.12   54.69
  -8   1   1 1827.62   53.29
  -8   1   1 1714.73   55.39
   8  -1   1 1857.91   55.59
   1   8   1 1797.52   54.49
   8  -1   1 1727.43   55.59
   1   8   1 1765.72   55.49
  -3  -8  -1  162.98    8.40
   8  -3  -1  168.48    9.20
   3   8  -1  159.58    9.10
   8  -3  -1  149.59    8.50
  -8   3  -1  160.78    7.10
   3   8  -1  167.98    6.50
  -3  -8  -1  143.39    8.50
   3   8  -1  158.58    7.20
  -8   3  -1  153.88    9.40
   3   8  -1  163.78    9.30
   3   8  -1  159.28    8.30
  -8   3  -1  172.48    9.40
  -8   3  -1  182.28    9.50
   8  -3  -1  153.78    8.20
   8  -3  -1  174.08   10.00
  -3  -8  -1  166.98    8.10
   8  -3  -1  166.58    8.30
  -3  -8   1  164.88    8.10
   8  -3   1  171.98    8.30
  -8   3   1  163.48   10.00
  -3  -8   1  155.88    7.40
  -8   3   1  155.78    8.70
   8  -3   1  168.98    8.90
   3   8   1  165.18    7.50
   8  -3   1  161.28    9.00
   3   8   1  156.38    7.90
  -8   3   1  160.88    9.30
   8  -3   1  169.48    8.00
  -8   3   1  158.38    8.50
   3   8   1  159.98    9.20
  -8   3   1  162.28    7.00
   3   8   1  161.58    7.10
   3   8   1  167.58    9.50
   8  -3   1  158.48    9.50
  -3  -8   1  169.88    7.80
   5   8  -1 1858.91   61.29
   8  -5  -1 1869.31   57.79
   8  -5  -1 1860.21   57.99
  -8   5  -1 1856.51   58.79
   5   8  -1 1822.22   60.79
  -5  -8  -1 1777.62   59.79
  -8   5  -1 1879.41   59.19
  -8   5  -1 1832.42   58.39
   8  -5  -1 1974.30   58.19
   8  -5  -1 1800.22   57.99
  -8   5  -1 1836.72   57.29
  -5  -8  -1 1839.22   57.59
  -5  -8  -1 1871.61   57.79
   5   8  -1 1840.42   57.89
   5   8  -1 1896.01   57.19
   8  -5   1 1861.41   59.29
   8  -5   1 1844.22   58.09
  -8   5   1 1934.71   59.59
   8  -5   1 1958.20   59.59
   5   8   1 1884.11   59.29
   8  -5   1 1935.71   59.59
  -8   5   1 1832.52   58.79
   8  -5   1 1951.60   58.59
   5   8   1 1899.41   58.59
  -5  -8   1 1838.62   59.09
  -8   5   1 1762.92   60.99
  -5  -8   1 1892.21   58.29
   5   8   1 1938.21   58.99
   5   8   1 1885.81   58.69
  -8   5   1 1899.41   58.29
   7   8  -1   82.89    7.30
   8  -7  -1   75.49    7.40
   8  -7  -1   66.69    7.20
  -8   7  -1   81.09    7.60
  -7  -8  -1   79.39    9.70
   7   8  -1   90.59    7.40
  -8   7  -1   78.09    8.90
   7   8  -1   76.19    7.70
   8  -7  -1   60.69    6.90
  -8   7  -1   71.09    7.80
   7   8  -1   60.99    8.30
   7   8  -1   77.99    5.90
  -8   7  -1   68.49    9.00
  -7  -8  -1   69.29    7.90
   8  -7  -1   73.99    7.60
  -7  -8   1   68.59    7.90
   7   8   1   68.79    7.00
   7   8   1   77.89    7.60
   8  -7   1   81.29    6.10
   7   8   1   66.69    7.00
  -7  -8   1   68.49    6.00
   8  -7   1   78.19    8.20
   8  -7   1   94.89    7.20
  -8   7   1   71.99    9.50
  -8   7   1   86.09    7.50
  -8   7   1   75.49    8.80
   8  -7   1   85.49    8.50
  -8   7   1   76.89    9.40
   8  -7   1   77.59    9.10
   7   8   1   73.59    8.70
  -7  -8   1   63.89    7.90
  -9  -8  -1 1693.23   54.19
   8  -9  -1 1773.12   54.89
   8  -9  -1 1712.93   53.79
   9   8  -1 1738.93   54.69
  -8   9  -1 1709.73   54.79
  -8   9  -1 1603.44   54.09
  -8   9  -1 1689.63   55.49
  -8   9  -1 1723.43   55.59
   9   8  -1 1684.23   55.39
   8  -9  -1 1735.23   54.79
   9   8  -1 1636.84   53.09
   8  -9  -1 1735.53   51.89
  -9  -8  -1 1600.94   55.09
   9   8  -1 1764.02   52.89
  -9  -8   1 1616.44   54.79
   8  -9   1 1760.32   52.39
  -8   9   1 1735.53   54.49
   8  -9   1 1734.63   54.59
   9   8   1 1625.64   53.49
  -9  -8   1 1591.14   52.89
   9   8   1 1601.34   53.79
  -8   9   1 1710.73   55.69
   8  -9   1 1666.13   54.49
   9   8   1 1625.04   55.19
   9   8   1 1699.23   52.89
   8  -9   1 1708.53   54.39
   8  -9   1 1757.32   53.39
  -8   9   1 1747.33   55.19
  -8   9   1 1756.02   54.09
   6  -9  -1 1341.97   43.30
  -6   9  -1 1316.27   43.90
  -9  -6  -1 1380.86   44.80
   6  -9  -1 1348.17   44.10
  -9  -6  -1 1420.76   46.00
   9   6  -1 1333.97   42.80
   9   6  -1 1392.46   41.90
  -6   9  -1 1321.07   43.40
   6  -9  -1 1388.46   43.30
   9   6  -1 1386.76   44.10
   9   6  -1 1391.56   43.00
   6  -9  -1 1348.57   44.10
  -6   9  -1 1318.47   44.90
  -6   9  -1 1419.26   45.20
  -6   9  -1 1313.47   44.20
   9   6  -1 1358.16   44.60
   9   6   1 1349.86   42.00
   9   6   1 1312.37   43.20
   6  -9   1 1336.17   43.60
  -9  -6   1 1254.47   42.40
  -9  -6   1 1316.47   42.70
   9   6   1 1358.86   43.80
  -6   9   1 1406.46   43.60
  -6   9   1 1311.27   44.00
   6  -9   1 1420.26   43.80
  -6   9   1 1365.36   44.30
   9   6   1 1322.67   44.60
  -6   9   1 1392.86   41.80
  -9  -6   1 1276.27   44.30
   6  -9   1 1371.16   41.90
  -6   9   1 1390.46   45.00
   9   6   1 1339.57   43.70
   6  -9   1 1366.26   43.80
   9   4  -1  141.59    8.70
   9   4  -1  132.79    9.00
   4  -9  -1  130.29    8.70
  -4   9  -1  133.29    8.10
   4  -9  -1  136.69    7.70
  -9  -4  -1  121.29   10.10
  -9  -4  -1  119.09    9.10
  -9  -4  -1  115.39    9.00
   4  -9  -1  139.79    9.10
  -4   9  -1  124.29   10.80
  -4   9  -1  127.39    8.30
  -9  -4  -1  127.39    5.90
   9   4  -1  125.29    7.50
  -4   9  -1  148.89    9.80
   4  -9  -1  154.98    7.70
   9   4  -1  123.49    7.70
   4  -9   1  121.29    6.50
  -9  -4   1  130.89    5.80
   9   4   1  129.09    9.70
  -9  -4   1  144.79    9.80
   4  -9   1  129.89    9.00
   9   4   1  127.49    8.30
  -4   9   1  121.79    8.50
   9   4   1  143.89    9.00
  -9  -4   1  113.49    7.50
  -9  -4   1  141.89    8.00
  -4   9   1  123.49   10.20
   4  -9   1  130.69    8.50
  -9  -4   1  125.19    6.90
   9   4   1  125.89    6.10
  -4   9   1  129.59    7.10
  -4   9   1  131.09    9.60
   9   2  -1  167.28    9.50
   9   2  -1  187.38    9.10
  -9  -2  -1  179.48    8.10
   2  -9  -1  175.58    8.30
   2  -9  -1  188.58    9.20
  -9  -2  -1  194.38    9.70
  -2   9  -1  183.68    9.00
   2  -9  -1  172.88    9.60
   9   2  -1  179.28    8.30
   9   2  -1  180.38    8.90
   2  -9  -1  170.68    8.50
  -2   9  -1  165.88    9.00
  -9  -2  -1  172.68   10.10
  -2   9  -1  176.58   10.80
  -2   9  -1  172.78   10.80
  -2   9  -1  170.38    9.20
  -9  -2  -1  192.58    9.70
   9   2   1  174.18    9.90
   2  -9   1  184.58    9.20
   2  -9   1  192.38    7.50
   2  -9   1  188.98    8.80
   9   2   1  167.38    9.50
  -9  -2   1  172.48    8.80
  -9  -2   1  166.48    8.90
  -2   9   1  192.18   10.20
  -2   9   1  186.48   10.10
  -9  -2   1  164.78   10.80
   9   2   1  174.98   10.20
   2  -9   1  186.08    9.70
  -2   9   1  190.18    9.40
  -2   9   1  172.78   10.80
  -9  -2   1  171.78    9.10
  -2   9   1  177.18    8.70
   9   2   1  166.68    9.40
  -9   0  -1  148.49    7.90
   0   9  -1  132.69    9.50
   0   9  -1  130.59    7.30
   0  -9  -1  138.09    7.90
   0   9  -1  130.19    9.10
   9   0  -1  136.89    8.20
   0  -9  -1  116.49    8.30
   0  -9  -1  124.49    7.40
   9   0  -1  126.49    7.40
   0   9  -1  139.09    7.50
   0   9  -1  134.69    8.20
   0   9  -1  143.89   10.40
  -9   0  -1  137.69    8.40
   0  -9  -1  132.59    7.20
   9   0  -1  135.09    8.80
   9   0  -1  138.49    6.90
   0  -9   1  139.39    6.70
   9   0   1  138.89    5.30
   0   9   1  135.69    7.80
   0  -9   1  140.59   11.10
  -9   0   1  126.69    7.90
   0   9   1  134.29    7.70
   0  -9   1  131.69    7.90
  -9   0   1  130.89    7.90
   0   9   1  147.99    8.40
   0  -9   1  137.29    9.50
   0   9   1  129.59    8.90
   0   9   1  134.89    9.40
   9   0   1  129.09    5.00
   9   0   1  121.69    8.00
  -9   0   1  134.39    8.40
   9   0   1  120.89    8.50
   0  -9   1  128.99    7.30
   2   9  -1    3.60    2.60
   2   9  -1    2.70    4.00
   9  -2  -1   -1.60    3.70
  -9   2  -1   -0.30    3.90
   9  -2  -1    0.60    3.20
   2   9  -1    2.10    3.30
   9  -2  -1    3.70    4.80
  -9   2  -1    1.10    4.10
   2   9  -1   10.40    4.20
  -2  -9  -1    7.00    3.30
   9  -2  -1   11.50    4.80
   9  -2  -1    4.60    3.20
  -9   2  -1    2.60    3.80
  -2  -9  -1   11.90    3.80
   9  -2  -1    1.70    2.10
  -9   2  -1    3.70    2.00
  -2  -9  -1    9.20    3.50
  -9   2  -1    3.20    3.80
   2   9  -1    5.00    4.20
   2   9  -1    3.70    2.50
   2   9   1    1.00    2.50
   9  -2   1    5.20    3.40
  -9   2   1   10.40    4.30
   2   9   1    2.10    3.10
   9  -2   1    8.30    3.40
  -9   2   1    8.20    5.40
   2   9   1    5.10    3.10
  -2  -9   1    4.80    2.80
  -9   2   1    5.20    4.40
  -9   2   1    5.80    2.10
   9  -2   1    5.30    4.50
  -9   2   1    4.70    3.70
  -2  -9   1    5.00    4.30
   9  -2   1    9.10    3.80
   2   9   1    9.70    4.20
  -2  -9   1    3.90    2.90
  -9   2   1    8.70    3.10
   2   9   1    2.30    4.00
   2   9   1    3.30    4.30
   4   9  -1   94.99    6.10
  -9   4  -1   99.09    9.20
   4   9  -1  100.29    7.80
  -9   4  -1   90.19    6.30
   4   9  -1   95.39    4.70
  -4  -9  -1   96.89    7.60
   9  -4  -1   93.69    7.90
   9  -4  -1   99.79    8.00
  -4  -9  -1  103.19    7.80
  -9   4  -1   99.29    8.30
   9  -4  -1   97.29    7.50
   4   9  -1  100.59    9.10
   4   9  -1  101.59    8.50
  -4  -9  -1   99.49    8.30
   9  -4  -1  118.19    9.70
   9  -4   1   94.09    7.10
   4   9   1   92.79    6.90
   4   9   1   90.59    9.00
   9  -4   1   98.09    8.50
  -4  -9   1  112.79    8.10
   9  -4   1   94.09    8.20
  -9   4   1  106.99   14.10
   4   9   1  101.29    5.20
  -4  -9   1  102.79    6.70
  -4  -9   1  106.79    7.20
   4   9   1   99.89    6.90
   9  -4   1   91.19    7.10
  -9   4   1   97.89    8.10
   4   9   1   95.29    8.50
  -9   4   1   89.89    9.50
   9  -4   1   95.69    9.20
   4   9   1  107.79    8.80
   4   9   1   98.99    5.00
  -9   4   1   93.39    6.20
  -9   6  -1 1031.10   33.30
  -6  -9  -1  985.20   33.30
   6   9  -1  952.50   32.70
   9  -6  -1  971.60   32.50
   6   9  -1 1001.50   32.00
   6   9  -1 1007.60   32.60
   9  -6  -1 1050.99   33.30
  -9   6  -1  973.70   33.80
   6   9  -1  946.51   31.50
  -9   6  -1 1045.80   34.00
  -6  -9  -1  919.51   32.60
   9  -6  -1  903.21   34.20
  -9   6  -1  967.40   31.80
   6   9  -1 1019.30   34.10
  -6  -9  -1  941.81   34.10
  -9   6   1 1012.40   32.50
  -9   6   1 1001.70   34.60
   9  -6   1 1037.70   34.20
  -9   6   1  973.20   33.60
  -9   6   1  996.70   34.10
   6   9   1  981.40   32.80
  -6  -9   1  941.81   32.20
   9  -6   1 1003.50   32.30
   9  -6   1 1041.70   32.60
  -6  -9   1  986.70   32.90
  -6  -9   1  982.50   33.50
   9  -6   1 1032.20   33.90
   6   9   1 1010.00   33.00
   6   9   1 1018.30   33.70
   9  -6   1 1003.00   33.80
  -9   8  -1 1161.98   38.10
  -9   8  -1 1058.69   37.30
   8   9  -1 1092.69   37.40
   8   9  -1 1136.89   35.40
  -9   8  -1 1094.99   36.50
   8   9  -1 1071.79   36.20
   8   9  -1 1041.50   34.70
   9  -8  -1 1078.59   36.80
   9  -8  -1 1076.99   35.90
  -8  -9  -1 1035.70   35.80
   9  -8  -1 1041.60   35.50
  -8  -9  -1 1045.70   36.80
   8   9   1 1086.69   37.50
   9  -8   1 1085.59   34.30
  -9   8   1 1036.30   37.20
  -8  -9   1 1033.00   36.40
   9  -8   1 1126.89   35.00
   8   9   1 1037.90   35.30
  -9   8   1 1076.29   35.40
   9  -8   1 1103.79   37.00
   9  -8   1 1129.79   36.30
   8   9   1 1039.00   35.30
  -8  -9   1 1079.69   34.90
   9  -8   1 1049.20   36.30
   8   9   1 1040.50   35.60
  -9   8   1 1062.59   37.40
   9 -10  -1  209.18   15.30
  10   9  -1  169.78   10.00
  10   9  -1  188.48   10.60
  -9  10  -1  197.88   14.00
 -10  -9  -1  184.88   12.70
  -9  10  -1  171.68   16.50
   9 -10  -1  183.68   12.50
  10   9  -1  182.08   13.90
   9 -10  -1  178.88   11.20
  -9  10  -1  188.68   14.10
  10   9  -1  178.48   12.00
 -10  -9  -1  166.68   13.30
  -9  10  -1  191.98   12.20
  10   9   1  177.68   11.80
   9 -10   1  175.68   11.70
   9 -10   1  190.38   10.20
  10   9   1  191.58   11.60
 -10  -9   1  169.38   13.10
  10   9   1  181.28   11.00
  -9  10   1  191.28   12.20
 -10  -9   1  167.28   10.60
  -9  10   1  181.48   14.30
  -9  10   1  175.18   15.40
   9 -10   1  162.68   12.70
   9 -10   1  164.98   14.60
   9 -10   1  189.58   14.50
  10   9   1  182.08   14.00
  10   7  -1   52.49    6.70
   7 -10  -1   60.59    8.10
  -7  10  -1   73.99    9.10
  10   7  -1   47.30    7.00
  -7  10  -1   54.69    6.50
   7 -10  -1   52.49    7.80
   7 -10  -1   52.79    7.00
  -7  10  -1   61.69    8.00
  10   7  -1   57.99    6.40
 -10  -7  -1   48.10    7.10
  10   7  -1   43.40    5.80
 -10  -7  -1   49.30    6.30
  -7  10  -1   59.99    6.80
   7 -10  -1   45.80    6.40
  10   7   1   46.30    6.10
   7 -10   1   60.89    8.50
  -7  10   1   43.60    7.60
  -7  10   1   76.79    8.80
  -7  10   1   40.20    6.20
   7 -10   1   46.20    6.00
  10   7   1   55.09    6.10
 -10  -7   1   43.40    6.80
   7 -10   1   57.09    7.30
   7 -10   1   43.10    6.20
  -7  10   1   48.70    7.30
   7 -10   1   72.79    8.20
 -10  -7   1   45.70    5.20
  10   7   1   55.19    7.40
  10   7   1   47.20    5.00
  10   5  -1   43.30    5.50
  -5  10  -1   34.70    6.10
  -5  10  -1   33.40    5.70
  10   5  -1   51.49    7.80
 -10  -5  -1   26.70    5.60
   5 -10  -1   44.40    5.10
   5 -10  -1   47.30    5.80
 -10  -5  -1   48.80    4.10
  10   5  -1   39.90    3.70
  -5  10  -1   44.30    6.40
  -5  10  -1   39.90    5.40
  10   5  -1   52.49    6.10
  -5  10  -1   42.80    7.50
 -10  -5  -1   45.20    6.10
  10   5  -1   42.00    4.60
   5 -10  -1   36.10    6.30
 -10  -5   1   32.30    4.50
 -10  -5   1   35.00    6.00
  10   5   1   45.70    5.10
  10   5   1   34.00    5.30
  -5  10   1   46.50    6.90
 -10  -5   1   38.20    5.90
  10   5   1   38.20    5.70
  -5  10   1   32.70    5.70
   5 -10   1   41.60    4.00
   5 -10   1   39.90    6.00
 -10  -5   1   40.80    4.00
  10   5   1   52.89    6.90
  -5  10   1   42.20    7.20
   5 -10   1   40.60    5.50
  -5  10   1   40.80    5.80
  -5  10   1   43.30    5.90
   5 -10   1   52.99    6.90
  -3  10  -1  967.40   31.60
 -10  -3  -1  967.90   30.00
  -3  10  -1  955.10   31.80
  -3  10  -1  941.91   32.80
 -10  -3  -1  917.51   31.70
 -10  -3  -1  917.61   31.80
  -3  10  -1  994.40   32.80
   3 -10  -1  933.11   30.70
 -10  -3  -1  946.01   32.40
   3 -10  -1  961.80   32.00
  10   3  -1  997.30   31.20
   3 -10  -1  944.21   31.60
  -3  10  -1  881.71   32.00
  10   3  -1  910.11   31.90
  10   3  -1  994.60   31.70
   3 -10  -1  960.50   31.20
   3 -10   1  932.31   29.90
 -10  -3   1  869.61   32.80
  10   3   1  951.70   31.90
 -10  -3   1  953.30   31.30
  -3  10   1  946.01   31.40
  -3  10   1  923.61   32.70
  -3  10   1 1002.40   31.00
 -10  -3   1  950.10   30.40
  10   3   1  957.90   32.20
   3 -10   1  922.01   31.90
  -3  10   1 1017.60   33.00
  -3  10   1  949.71   32.60
   3 -10   1  958.10   31.60
  10   3   1  906.11   32.10
   3 -10   1  949.80   31.40
  -1  10  -1  127.29    9.90
  10   1  -1  115.39    9.20
   1 -10  -1  101.29    7.50
  -1  10  -1  123.59    7.90
 -10  -1  -1  115.59    8.90
 -10  -1  -1  123.09    7.70
 -10  -1  -1  114.19    9.70
  10   1  -1  118.89    7.70
  -1  10  -1  128.59   10.90
   1 -10  -1  124.09    7.10
  -1  10  -1  123.29    9.00
 -10  -1  -1  106.29    9.00
  10   1  -1   98.39    7.10
   1 -10  -1  109.29    8.20
  10   1  -1  104.69    8.80
   1 -10  -1  128.79    9.30
  -1  10  -1  112.29    7.70
  -1  10   1  127.69    8.50
  -1  10   1  112.69   10.30
   1 -10   1  116.49    6.30
  -1  10   1  102.69    9.70
  10   1   1  118.29    8.90
 -10  -1   1  113.69    9.80
   1 -10   1  115.99   10.10
  10   1   1  110.09    8.50
   1 -10   1  110.39    7.80
 -10  -1   1  111.19    7.90
  -1  10   1  116.39    7.90
  10   1   1  109.09   10.00
   1 -10   1  113.09   11.70
  -1  10   1  115.59    9.10
  10   1   1  122.69    8.70
 -10  -1   1  129.49   12.70
  10  -1  -1 2982.60   88.19
 -10   1  -1 2864.61   89.69
   1  10  -1 2900.81   90.49
   1  10  -1 2976.80   88.69
  10  -1  -1 3065.99   89.89
 -10   1  -1 2936.71   90.09
  -1 -10  -1 2840.52   89.79
  10  -1  -1 2844.02   89.49
  -1 -10  -1 2929.21   89.69
  -1 -10  -1 2944.21   89.19
 -10   1  -1 2905.51   89.69
   1  10  -1 2898.61   90.69
  10  -1  -1 2878.21   89.89
   1  10  -1 2939.91   89.59
   1  10  -1 2953.60   89.59
 -10   1  -1 2917.41   90.39
   1  10  -1 2871.11   89.19
  -1 -10  -1 2877.51   89.59
  10  -1  -1 2937.31   90.39
 -10   1   1 3001.40   89.19
  -1 -10   1 2943.31   89.29
  10  -1   1 2952.00   89.59
  -1 -10   1 2618.24   89.39
   1  10   1 2871.81   89.99
  10  -1   1 2964.10   86.49
  -1 -10   1 2944.01   88.19
   1  10   1 2934.11   89.29
  -1 -10   1 2869.01   89.09
  10  -1   1 2859.31   88.69
   1  10   1 2819.82   88.59
   1  10   1 2754.82   89.19
 -10   1   1 3048.50   91.69
  10  -1   1 2947.31   89.19
   1  10   1 2937.91   88.49
 -10   1   1 2812.92   88.99
  10  -3  -1  160.68    9.30
   3  10  -1  138.69    7.90
 -10   3  -1  173.88   10.90
   3  10  -1  137.99   10.30
  10  -3  -1  140.79    8.60
   3  10  -1  141.59    8.90
 -10   3  -1  152.48   10.00
 -10   3  -1  137.29   15.40
  -3 -10  -1  150.18   10.50
   3  10  -1  136.59   10.30
 -10   3  -1  148.79    9.50
  10  -3  -1  151.98   10.90
 -10   3  -1  153.98    7.00
   3  10  -1  139.09    9.70
  -3 -10  -1  140.49    9.00
   3  10  -1  153.88    6.90
  10  -3  -1  147.69    9.40
  -3 -10  -1  135.79    9.00
  -3 -10   1  152.68   11.00
   3  10   1  157.68   10.80
  -3 -10   1  159.08    8.60
 -10   3   1  142.79    9.90
   3  10   1  147.89    8.70
 -10   3   1  152.08    6.70
   3  10   1  158.78    8.30
  10  -3   1  149.19    9.70
  -3 -10   1  155.98    8.30
  10  -3   1  142.09    9.40
  10  -3   1  157.28    8.60
 -10   3   1  127.89   15.20
   3  10   1  146.69   10.80
   3  10   1  161.68    7.80
 -10   3   1  131.19   15.00
  10  -3   1  147.69   10.80
   3  10   1  145.49   10.00
 -10   3   1  139.89   10.20
  -5 -10  -1  660.93   24.50
 -10   5  -1  718.63   22.90
  10  -5  -1  686.03   24.40
  10  -5  -1  720.03   24.60
 -10   5  -1  708.73   25.40
 -10   5  -1  683.23   24.60
   5  10  -1  669.63   23.10
  -5 -10  -1  697.83   24.30
   5  10  -1  654.53   25.40
   5  10  -1  654.13   24.10
 -10   5  -1  728.13   25.80
   5  10  -1  651.13   24.90
   5  10   1  731.33   24.20
  10  -5   1  720.53   25.80
 -10   5   1  687.83   22.90
 -10   5   1  675.93   25.60
  10  -5   1  681.73   23.50
   5  10   1  722.73   26.10
  10  -5   1  647.84   24.90
  -5 -10   1  690.53   24.60
   5  10   1  712.23   25.80
  -5 -10   1  695.13   29.10
 -10   5   1  692.33   25.70
   5  10   1  684.03   25.50
  10  -5   1  666.13   25.00
   5  10   1  698.33   24.20
  -5 -10   1  719.73   23.70
  10  -5   1  680.83   23.80
   7  10  -1   29.10    4.30
 -10   7  -1   25.40    6.70
 -10   7  -1   26.10    7.50
   7  10  -1   32.30    6.80
 -10   7  -1   25.50    4.60
 -10   7  -1   19.30    6.50
  10  -7  -1   19.20    5.40
   7  10  -1   24.20    5.60
  10  -7  -1   14.90    4.90
  -7 -10  -1   24.80    5.70
  -7 -10  -1   31.40    5.60
  10  -7  -1   33.20    5.70
   7  10   1   27.60    5.00
 -10   7   1   34.00    7.00
  -7 -10   1   26.00    4.40
 -10   7   1   28.40    7.10
   7  10   1   23.30    6.20
   7  10   1   16.90    5.90
   7  10   1   28.60    5.20
  10  -7   1   30.40    6.10
  -7 -10   1   17.50    5.40
 -10   7   1   33.40    5.00
  10  -7   1   28.70    4.70
  10  -7   1   16.90    7.50
  10  -7   1   33.40    5.30
  10  -7   1   35.20    6.30
  -9 -10  -1   14.00    6.10
   9  10  -1   14.10    7.30
  10  -9  -1   15.20    5.90
 -10   9  -1   12.60    7.00
 -10   9  -1    5.40    8.10
  10  -9  -1    8.90    5.90
   9  10  -1    7.00    5.70
  10  -9  -1    8.30    5.40
 -10   9  -1    8.70    7.60
   9  10  -1    6.70    5.60
   9  10  -1    7.70    4.20
 -10   9  -1   13.10    5.30
  -9 -10  -1    6.20    6.20
  -9 -10   1    9.70    4.60
 -10   9   1    9.20    7.10
   9  10   1   23.80    6.20
  10  -9   1   13.80    7.90
  10  -9   1    2.30    4.70
 -10   9   1    2.40    5.10
   9  10   1    9.50    7.50
   9  10   1    2.70    6.80
 -10   9   1    9.90    7.50
  10  -9   1   16.70    6.60
   9  10   1    6.30    5.00
  -9 -10   1   11.70    6.00
  10  -9   1    8.70    7.20
  10  -9   1    9.20    5.50
  10 -11  -1  989.20   33.20
  11  10  -1  903.41   31.70
 -11 -10  -1  914.41   33.50
  11  10  -1  936.71   37.20
  11  10  -1  886.51   33.90
 -10  11  -1  954.30   33.00
 -11 -10  -1  914.21   34.60
  10 -11  -1  919.71   32.30
 -10  11  -1  950.70   35.10
 -10  11   1  932.71   32.50
  11  10   1  912.41   32.30
  10 -11   1  913.71   33.50
 -10  11   1  904.91   34.90
 -10  11   1  929.01   34.90
 -11 -10   1  903.81   31.60
  11  10   1  912.21   32.90
 -11 -10   1  912.81   34.00
  11  10   1  891.71   34.70
  11   8  -1  186.88   13.10
  -8  11  -1  184.88   12.80
 -11  -8  -1  199.78   13.70
   8 -11  -1  193.38   11.70
  11   8  -1  184.88   14.40
 -11  -8  -1  206.78   13.10
  -8  11  -1  207.78   14.90
  11   8  -1  196.78   11.20
   8 -11  -1  224.08   13.00
  -8  11   1  200.68   13.20
  -8  11   1  182.88   14.90
  11   8   1  199.68   15.10
  11   8   1  192.28   12.70
 -11  -8   1  195.48   11.10
   8 -11   1  186.28   12.80
 -11  -8   1  183.38   13.90
  11   8   1  195.98   11.90
   8 -11   1  189.88   10.20
 -11  -6  -1   89.59    9.70
   6 -11  -1  112.09   10.60
  11   6  -1  102.79    9.70
  -6  11  -1   98.49   11.20
  -6  11  -1   92.29   10.30
   6 -11  -1   99.09    9.10
 -11  -6  -1  110.09   10.60
   6 -11  -1  111.79   11.80
  -6  11  -1  109.09   11.10
  -6  11  -1  106.29   10.40
   6 -11  -1   86.69   11.70
  11   6  -1  103.99   11.00
  11   6  -1   86.29    8.10
  -6  11   1   96.69   10.30
   6 -11   1   88.09   10.00
  -6  11   1  100.89    7.80
 -11  -6   1   98.69   11.00
  -6  11   1  114.49   12.00
  11   6   1  103.79    9.70
  -6  11   1  103.09   11.30
  11   6   1  114.89    9.40
  -6  11   1   82.59    9.20
  11   6   1   92.19   11.50
 -11  -6   1  107.49    8.90
   6 -11   1  112.99    7.50
  -4  11  -1  246.98   12.70
  -4  11  -1  255.47   13.90
  -4  11  -1  242.58   13.70
  -4  11  -1  278.17   12.70
 -11  -4  -1  234.58   13.30
   4 -11  -1  256.67   11.80
   4 -11  -1  260.17   13.40
  11   4  -1  249.68   11.70
   4 -11  -1  256.97   11.60
 -11  -4  -1  294.37   13.70
  11   4  -1  238.58   12.70
   4 -11  -1  253.37   14.10
 -11  -4  -1  251.77   10.00
  11   4  -1  226.58   12.90
   4 -11   1  267.07   13.70
  11   4   1  258.27   13.10
  -4  11   1  244.88   13.90
  -4  11   1  258.37   14.80
  -4  11   1  253.87   15.50
  -4  11   1  269.27   11.40
 -11  -4   1  255.37   12.00
 -11  -4   1  248.88   14.00
   4 -11   1  269.27   10.50
  -4  11   1  255.37   12.60
  11   4   1  246.98   13.90
  11   4   1  252.87   12.60
 -11  -4   1  235.48   10.90
   4 -11   1  263.37   12.90
   2 -11  -1  165.58   10.60
  -2  11  -1  155.68    9.70
  -2  11  -1  176.28   11.50
  11   2  -1  135.89    8.40
   2 -11  -1  175.08    8.70
 -11  -2  -1  140.39   11.40
   2 -11  -1  146.19    8.90
  11   2  -1  160.48   10.40
 -11  -2  -1  142.79   10.90
  -2  11  -1  152.18   11.30
   2 -11  -1  166.28    9.90
  -2  11  -1  147.29    9.70
 -11  -2  -1  147.79    8.20
  11   2  -1  157.68    9.60
  -2  11   1  154.18   12.20
  -2  11   1  163.78    9.90
 -11  -2   1  160.98    9.00
  11   2   1  143.19   10.80
 -11  -2   1  148.39   14.40
  11   2   1  168.18   10.40
  11   2   1  148.59    9.90
  -2  11   1  142.19    9.40
   2 -11   1  136.59    9.40
 -11  -2   1  161.18   11.30
   2 -11   1  134.79    9.60
  -2  11   1  148.99   11.00
  -2  11   1  163.28   11.80
   2 -11   1  142.49    7.40
 -11  -2   1  149.59    9.10
   0 -11  -1  210.78   10.70
 -11   0  -1  206.58   10.60
 -11   0  -1  221.38   12.50
  11   0  -1  200.08   11.40
   0  11  -1  203.88   12.50
 -11   0  -1  205.78   12.10
   0 -11  -1  209.48   10.40
  11   0  -1  209.08   10.40
   0  11  -1  207.88   10.10
  11   0  -1  199.68   11.70
 -11   0  -1  196.08   12.40
  11   0  -1  208.98    9.90
   0 -11  -1  202.68   10.00
   0  11  -1  210.58   10.10
   0  11  -1  211.08   11.30
   0 -11  -1  192.38   11.90
   0  11   1  208.18   13.30
   0  11   1  203.28   11.10
 -11   0   1  212.98   11.20
   0 -11   1  219.78   11.30
   0  11   1  207.78   12.40
   0 -11   1  220.38   10.40
   0  11   1  199.58   11.00
  11   0   1  203.68   11.60
   0  11   1  224.98   11.20
  11   0   1  214.98   13.00
  11   0   1  208.18   10.90
   0 -11   1  192.58    9.30
 -11   0   1  211.48   11.70
  11   0   1  193.88   13.30
 -11   2  -1 1068.19   35.50
  -2 -11  -1 1024.30   34.80
   2  11  -1 1017.30   36.20
  -2 -11  -1 1103.29   35.10
  11  -2  -1 1098.19   32.80
 -11   2  -1 1052.39   37.70
   2  11  -1 1100.19   33.40
   2  11  -1 1071.89   34.30
  11  -2  -1 1050.79   34.90
 -11   2  -1 1043.80   35.40
   2  11  -1 1016.70   35.90
  11  -2  -1 1010.30   35.40
  11  -2  -1 1041.60   35.40
 -11   2  -1 1084.09   35.50
   2  11   1 1054.59   36.40
  11  -2   1 1087.59   35.70
  -2 -11   1 1044.30   35.40
   2  11   1 1032.50   35.50
  11  -2   1 1069.29   34.60
   2  11   1 1086.09   35.90
   2  11   1 1074.79   35.00
 -11   2   1 1045.30   35.70
  11  -2   1 1018.30   35.70
   2  11   1 1049.20   34.00
  11  -2   1 1061.19   35.60
  11  -2   1 1050.59   32.40
  -2 -11   1 1064.19   34.40
   2  11   1 1056.79   34.40
  -2 -11   1 1108.09   34.70
 -11   2   1 1040.00   35.60
   4  11  -1 1685.03   54.19
 -11   4  -1 1656.23   53.89
   4  11  -1 1751.82   50.89
 -11   4  -1 1647.64   54.59
 -11   4  -1 1687.23   53.49
  -4 -11  -1 1646.94   53.69
   4  11  -1 1662.93   52.59
  11  -4  -1 1691.43   53.49
   4  11  -1 1608.74   54.49
  11  -4  -1 1628.64   53.49
  -4 -11  -1 1776.32   53.69
   4  11  -1 1622.94   53.49
 -11   4  -1 1668.13   54.09
  11  -4  -1 1634.54   53.69
 -11   4  -1 1768.22   51.69
   4  11   1 1680.13   52.99
   4  11   1 1621.14   54.19
 -11   4   1 1641.84   54.29
 -11   4   1 1730.13   54.09
  -4 -11   1 1642.74   52.99
   4  11   1 1630.54   54.29
  11  -4   1 1664.23   52.39
   4  11   1 1727.03   52.89
 -11   4   1 1722.43   51.09
  -4 -11   1 1701.33   52.59
  11  -4   1 1556.04   53.59
  11  -4   1 1695.33   53.79
   4  11   1 1676.73   50.69
  11  -4   1 1688.73   53.99
 -11   6  -1   38.80    7.40
   6  11  -1   22.30    6.70
 -11   6  -1   38.50    8.10
  -6 -11  -1   32.10    6.00
 -11   6  -1   35.00    7.60
   6  11  -1   30.70    6.40
   6  11  -1   26.30    5.70
  11  -6  -1   29.20    5.70
  11  -6  -1   23.50    5.20
   6  11  -1   25.60    4.50
 -11   6  -1   30.10    4.60
  -6 -11  -1   31.40    6.00
  11  -6  -1   25.40    6.00
   6  11   1   32.30    5.50
  11  -6   1   31.30    5.40
  11  -6   1   24.50    5.00
  11  -6   1   23.90    6.10
 -11   6   1   34.70    4.60
  -6 -11   1   30.60    5.70
   6  11   1   33.20    7.20
 -11   6   1   20.90    6.60
   6  11   1   27.60    5.00
 -11   6   1   31.80    7.30
  11  -6   1   26.50    7.60
   6  11   1   25.70    6.60
  11  -6   1   25.70    5.90
  -6 -11   1   34.50    5.10
 -11   8  -1   90.99    9.90
  -8 -11  -1  107.89   11.20
  11  -8  -1   87.89   10.90
  -8 -11  -1   92.99   11.00
   8  11  -1   82.09   10.60
   8  11  -1  104.59   11.50
   8  11  -1   84.09    9.70
  11  -8  -1   91.29   10.30
 -11   8  -1   92.29   10.90
 -11   8  -1   96.99   12.20
 -11   8  -1   93.29   16.20
   8  11  -1   89.69    8.40
  11  -8  -1   80.79   10.80
 -11   8   1  108.29   12.50
   8  11   1   82.69    9.60
  11  -8   1   96.89   11.50
  -8 -11   1   98.09    9.00
 -11   8   1  119.29   13.40
  11  -8   1  102.79    9.60
   8  11   1   89.59    9.50
  -8 -11   1   89.29   10.70
  11  -8   1  105.09   11.00
  11  -8   1   94.19    9.60
   8  11   1   91.69   12.00
   8  11   1   71.09    9.10
  11  -8   1   95.99   12.90
 -10 -11  -1    3.60    7.60
  10  11  -1    4.10    6.40
  11 -10  -1    1.00    5.70
  10  11  -1    1.80    4.80
  10  11  -1   -4.30    6.60
 -11  10  -1    5.40    5.80
 -10 -11  -1    2.90    6.80
 -11  10  -1   12.90    8.20
  11 -10  -1    0.80    6.80
  11 -10  -1    8.30    7.10
  10  11  -1    3.10    7.70
  11 -10   1    7.70    7.20
  10  11   1    1.80    6.70
  10  11   1    3.30    8.10
  10  11   1   -1.40    5.70
 -11  10   1    3.30    8.50
 -10 -11   1    1.10    5.20
  10  11   1   -2.50    6.20
 -11  10   1   -1.30    5.80
 -10 -11   1    0.80    6.50
 -11  10   1    2.60    8.90
 -12 -11  -1    9.70    8.80
  12  11  -1    8.10    9.80
  11 -12  -1   10.90    6.90
 -11  12  -1   -4.40    9.40
 -12 -11  -1   12.20   13.00
 -11  12  -1    5.00    8.20
  12  11  -1    7.80    6.20
  11 -12  -1   -5.10   12.10
  12  11  -1   14.50    8.40
  11 -12  -1   12.70    8.30
 -12 -11   1   11.20    8.50
  12  11   1    0.40    7.70
  11 -12   1    0.10    8.60
 -11  12   1    2.90   10.00
  12  11   1    5.30    7.30
 -12 -11   1   -4.10    6.50
 -11  12   1   -1.10   10.80
  12  11   1  -10.30    9.70
 -11  12   1   14.90    7.70
  12   9  -1   78.29    9.70
 -12  -9  -1   80.29   10.00
 -12  -9  -1   66.19    9.00
  -9  12  -1   73.09    8.80
  -9  12  -1   58.39    9.90
   9 -12  -1   71.09    8.60
  12   9  -1   59.69    8.80
   9 -12  -1   87.79   10.20
  12   9  -1   67.59   10.30
  -9  12  -1   79.49   10.60
  -9  12   1   58.99   10.40
 -12  -9   1   97.89   10.10
  -9  12   1   97.49   12.60
   9 -12   1   57.09    8.30
  12   9   1   62.99    8.30
  12   9   1   77.19    8.20
  12   9   1   82.39   10.80
 -12  -9   1   76.69   10.50
  -9  12   1   71.79   11.40
   9 -12   1   79.59   11.00
   9 -12   1   73.99    9.40
 -12  -7  -1   93.49   11.90
  12   7  -1   63.19    7.70
   7 -12  -1   74.69    7.90
  12   7  -1   74.69    8.60
  -7  12  -1   71.69    8.20
  -7  12  -1   76.19    9.60
   7 -12  -1   73.69    9.80
   7 -12  -1   79.69    9.00
  12   7  -1   91.79   12.80
 -12  -7  -1   93.89   12.40
  -7  12  -1   86.99   11.50
   7 -12   1   75.99    8.70
 -12  -7   1   72.69    9.10
  12   7   1   86.89   11.40
  -7  12   1  120.69   14.50
  12   7   1   81.39    9.70
   7 -12   1   90.69   11.70
  12   7   1   96.99   10.40
  -7  12   1   83.49    9.00
   7 -12   1  107.79   11.00
   7 -12   1   89.69    9.80
 -12  -7   1   80.49    9.00
  -7  12   1   89.79   10.70
   5 -12  -1  232.48   12.30
  -5  12  -1  242.18   13.80
   5 -12  -1  258.77   14.40
  12   5  -1  241.18   14.30
   5 -12  -1  242.38   13.00
  -5  12  -1  250.87   13.00
  12   5  -1  239.28   14.00
  -5  12  -1  256.27   14.50
 -12  -5  -1  230.88   14.10
   5 -12  -1  258.97   15.00
  12   5  -1  219.78   12.10
  -5  12  -1  232.48   14.90
 -12  -5  -1  249.88   14.60
  12   5   1  255.67   13.90
   5 -12   1  248.68   11.20
   5 -12   1  251.37   14.60
 -12  -5   1  215.28   12.30
 -12  -5   1  237.78   15.10
  12   5   1  255.77   13.40
  -5  12   1  234.18   14.70
  -5  12   1  250.57   11.80
  -5  12   1  238.58   14.30
  12   5   1  228.38   14.70
  -5  12   1  238.48   15.60
   5 -12   1  238.88   13.30
  -5  12   1  256.47   15.40
   3 -12  -1 1542.25   49.10
  -3  12  -1 1478.85   48.50
   3 -12  -1 1485.85   47.60
   3 -12  -1 1545.35   48.40
  -3  12  -1 1527.85   48.30
  12   3  -1 1444.16   48.70
 -12  -3  -1 1466.05   48.70
  12   3  -1 1437.76   47.60
  -3  12  -1 1475.05   48.50
  12   3  -1 1557.44   48.10
 -12  -3  -1 1517.05   46.50
 -12  -3  -1 1438.96   49.10
  -3  12  -1 1447.46   49.60
 -12  -3   1 1479.85   46.20
   3 -12   1 1520.75   45.90
  12   3   1 1505.35   47.90
  -3  12   1 1487.05   47.50
  -3  12   1 1448.16   49.10
  -3  12   1 1495.65   48.50
   3 -12   1 1419.46   47.50
  12   3   1 1466.05   48.30
 -12  -3   1 1458.95   49.30
  -3  12   1 1505.55   49.10
  -3  12   1 1494.55   47.60
  12   3   1 1421.26   48.30
 -12  -3   1 1406.26   47.30
   3 -12   1 1446.26   47.60
  -1  12  -1  490.45   20.40
   1 -12  -1  493.35   18.80
 -12  -1  -1  451.65   19.50
  -1  12  -1  485.65   18.20
   1 -12  -1  515.25   18.10
  -1  12  -1  479.85   19.80
  12   1  -1  419.76   18.90
   1 -12  -1  484.35   20.30
  12   1  -1  472.75   17.90
  12   1  -1  449.76   17.80
 -12  -1  -1  473.55   19.80
 -12  -1  -1  460.05   17.50
  -1  12  -1  479.35   19.10
   1 -12  -1  453.65   18.00
  12   1   1  442.76   19.00
  -1  12   1  441.46   20.00
   1 -12   1  478.85   18.20
   1 -12   1  465.25   16.50
 -12  -1   1  489.25   20.20
  -1  12   1  474.15   18.50
 -12  -1   1  453.25   18.20
 -12  -1   1  466.25   17.90
   1 -12   1  426.16   18.10
  -1  12   1  465.85   19.20
  -1  12   1  471.25   21.00
  -1  12   1  451.85   18.30
  12   1   1  469.95   18.70
  -1 -12  -1    7.60    4.40
  12  -1  -1   -0.20    5.10
   1  12  -1    5.60    4.80
  12  -1  -1    2.50    4.80
   1  12  -1    5.60    3.90
 -12   1  -1    4.70    5.90
  12  -1  -1    7.00    4.20
  -1 -12  -1    7.20    4.90
 -12   1  -1    4.10    5.60
   1  12  -1   -0.10    5.80
  12  -1  -1    1.50    3.80
  -1 -12  -1    4.30    7.50
   1  12  -1    4.50    3.90
   1  12   1    2.90    9.10
   1  12   1    7.80    5.00
   1  12   1   -1.20    4.80
   1  12   1    4.70    4.60
  12  -1   1    6.30    4.80
 -12   1   1    0.70    5.00
  12  -1   1    7.40    4.90
  12  -1   1    1.00    5.00
  -1 -12   1    2.60    3.90
  -1 -12   1    2.90    4.30
   1  12   1   13.30    6.10
 -12   1   1    8.90    5.50
  -1 -12   1   -3.20    4.60
   3  12  -1  159.38   12.20
   3  12  -1  145.39   11.70
  -3 -12  -1  144.49   11.10
  12  -3  -1  147.39    9.90
   3  12  -1  153.88    9.10
  -3 -12  -1  126.79   10.20
 -12   3  -1  152.28   11.20
 -12   3  -1  144.39   11.80
  12  -3  -1  158.48   10.70
 -12   3  -1  152.58   13.10
  12  -3  -1  136.49   11.10
   3  12  -1  143.79    7.80
   3  12  -1  159.38   10.20
  -3 -12   1  135.59    9.50
   3  12   1  142.99    9.40
   3  12   1  150.28   11.20
  12  -3   1  169.08   10.10
 -12   3   1  143.49   11.30
  -3 -12   1  146.49    9.90
   3  12   1  147.19   10.10
   3  12   1  146.59    8.60
  -3 -12   1  161.68   11.10
 -12   3   1  163.28   11.80
  12  -3   1  127.99   12.70
  12  -3   1  160.38   11.20
   3  12   1  137.19   12.30
   5  12  -1   18.40    4.50
   5  12  -1   13.10    6.60
   5  12  -1   27.60    6.90
 -12   5  -1   19.50    8.80
 -12   5  -1   30.40    4.80
 -12   5  -1   31.90    7.00
 -12   5  -1   33.00    7.60
  -5 -12  -1    9.30    5.80
   5  12  -1   19.70    7.10
  12  -5  -1   29.70    6.20
  12  -5  -1   27.30    5.70
  -5 -12  -1   18.80    5.60
  12  -5  -1   29.30    6.10
   5  12   1   25.60    6.80
 -12   5   1   23.80    7.30
   5  12   1   27.10    5.60
 -12   5   1   24.30    6.20
  -5 -12   1   31.10    5.20
  12  -5   1   18.50    6.20
  -5 -12   1   30.30    5.90
   5  12   1   29.70    7.30
 -12   5   1   10.10    6.60
  12  -5   1   19.90    5.00
  12  -5   1    8.40    6.10
   5  12   1   38.40    5.90
  12  -7  -1  473.35   19.30
 -12   7  -1  463.25   18.10
  12  -7  -1  462.45   19.80
   7  12  -1  465.65   20.30
  -7 -12  -1  447.26   19.90
 -12   7  -1  512.35   24.90
   7  12  -1  449.95   21.80
  -7 -12  -1  481.25   19.70
   7  12  -1  436.36   17.90
  12  -7  -1  502.15   20.10
   7  12  -1  457.25   19.90
 -12   7  -1  439.66   20.90
   7  12   1  448.86   19.20
  12  -7   1  476.75   18.40
   7  12   1  467.75   21.80
   7  12   1  463.85   21.00
 -12   7   1  488.35   18.30
   7  12   1  451.25   19.50
  12  -7   1  531.95   23.10
 -12   7   1  490.25   21.70
  -7 -12   1  472.35   19.80
  12  -7   1  454.05   20.50
  12  -7   1  493.65   24.40
  -7 -12   1  462.55   18.80
 -12   7   1  495.15   22.30
  12  -9  -1    4.00    6.90
  -9 -12  -1   10.60    7.30
  -9 -12  -1    6.10    7.20
   9  12  -1   12.70    7.00
   9  12  -1    5.40    6.30
   9  12  -1    7.10    8.40
   9  12  -1    5.40    5.10
  12  -9  -1    1.60    7.40
  12  -9  -1    5.10    6.30
 -12   9  -1    7.90    8.10
 -12   9  -1   21.90   11.40
  12  -9   1   12.80    5.90
   9  12   1   -1.50    5.80
  12  -9   1    0.70   13.30
  -9 -12   1   19.80    7.70
  -9 -12   1    4.70    5.50
 -12   9   1    9.20    9.30
   9  12   1    6.90    6.10
  12  -9   1   15.20    7.90
   9  12   1   -4.80    7.20
   9  12   1    2.90    8.20
 -12   9   1   13.50    9.00
  11  12  -1 1040.20   41.30
  11  12  -1 1036.00   39.20
  12 -11  -1 1093.79   37.60
 -11 -12  -1 1087.99   39.00
 -11 -12  -1 1059.09   40.00
 -12  11  -1 1064.09   40.50
  12 -11  -1 1128.59   38.20
 -12  11  -1 1138.59   37.40
  11  12  -1 1046.60   36.80
  11  12   1 1071.29   38.50
  11  12   1 1108.39   38.10
 -12  11   1 1077.99   40.60
 -11 -12   1 1039.10   37.20
 -12  11   1 1110.99   41.30
  12 -11   1 1171.18   39.50
 -11 -12   1 1031.30   39.70
  11  12   1 1030.90   41.00
  13  12  -1  378.96   22.60
  13  12  -1  342.67   18.30
  12 -13  -1  346.77   21.30
 -12  13  -1  362.76   24.10
 -13 -12  -1  383.06   24.90
 -13 -12  -1  359.86   21.70
  13  12  -1  380.06   25.70
  12 -13  -1  392.56   20.50
 -13 -12   1  329.77   19.20
 -12  13   1  353.36   24.90
 -13 -12   1  350.06   22.60
  12 -13   1  391.26   23.20
  13  12   1  341.97   21.90
  13  12   1  362.36   20.60
  13  12   1  338.37   24.70
 -10  13  -1   65.19    9.50
  13  10  -1   58.19   11.00
  10 -13  -1   49.20    8.20
  13  10  -1   60.19    7.60
 -13 -10  -1   65.69   10.50
 -10  13  -1   63.99   11.90
  10 -13  -1   58.99    9.50
 -13 -10  -1   67.69   11.20
  13  10  -1   42.50    9.50
 -13 -10   1   61.89   10.80
 -13 -10   1   46.70    7.90
  10 -13   1   49.00    9.90
  13  10   1   52.99    8.80
 -10  13   1   75.99   12.10
  13  10   1   46.80   11.00
 -10  13   1   57.09    9.40
  13  10   1   58.39    9.40
 -13  -8  -1   44.20    8.70
  13   8  -1   47.00    9.70
   8 -13  -1   34.80    6.90
  13   8  -1   45.60    6.60
  13   8  -1   39.10    8.20
   8 -13  -1   37.60    7.70
  -8  13  -1   47.00    9.80
 -13  -8  -1   38.50    8.70
  -8  13  -1   34.10    8.00
  13   8   1   34.80    9.20
   8 -13   1   48.50    8.70
  13   8   1   35.40    7.60
 -13  -8   1   37.40    7.10
  13   8   1   45.10    8.20
   8 -13   1   53.39   10.00
 -13  -8   1   24.90    8.60
  -8  13   1   47.50   10.50
   8 -13   1   43.20    8.00
  -8  13   1   46.90    8.70
  13   6  -1  975.50   34.60
  13   6  -1  926.71   34.00
  13   6  -1  920.31   32.60
 -13  -6  -1  937.31   33.90
  -6  13  -1  938.81   33.70
   6 -13  -1 1011.80   36.60
 -13  -6  -1  973.90   35.10
  -6  13  -1  995.30   33.10
   6 -13  -1  920.71   32.60
  -6  13  -1  908.11   34.80
   6 -13  -1  955.30   32.90
  -6  13  -1  959.80   34.70
  13   6   1  856.41   33.80
   6 -13   1  955.80   33.50
 -13  -6   1  927.41   35.10
  13   6   1  893.01   34.40
  -6  13   1 1026.60   43.60
  13   6   1  950.50   33.30
  -6  13   1  985.50   31.90
  -6  13   1  935.21   34.30
  -6  13   1  966.10   35.50
 -13  -6   1  906.71   32.70
   6 -13   1  979.50   34.60
  13   4  -1  633.34   25.50
   4 -13  -1  666.43   25.90
  -4  13  -1  689.33   25.20
  -4  13  -1  652.23   26.30
  13   4  -1  644.14   25.00
 -13  -4  -1  663.73   26.20
   4 -13  -1  701.63   24.20
  13   4  -1  616.44   24.00
 -13  -4  -1  622.64   26.10
  -4  13  -1  686.83   25.20
   4 -13  -1  658.63   23.90
  -4  13  -1  680.43   25.80
  13   4   1  683.43   25.90
  -4  13   1  634.24   32.40
  -4  13   1  682.53   24.20
   4 -13   1  672.33   25.60
   4 -13   1  613.44   24.80
 -13  -4   1  667.13   27.00
  -4  13   1  651.83   25.50
  -4  13   1  607.44   26.20
 -13  -4   1  667.03   24.70
  13   4   1  662.13   25.00
  -4  13   1  675.73   26.80
  13   4   1  689.53   26.00
   4 -13   1  674.23   22.90
  -2  13  -1  606.94   23.10
  -2  13  -1  620.04   22.70
   2 -13  -1  595.14   22.10
  13   2  -1  596.34   22.40
 -13  -2  -1  596.34   24.00
   2 -13  -1  620.44   22.20
  13   2  -1  572.84   23.50
 -13  -2  -1  596.74   24.40
  -2  13  -1  580.64   24.60
  -2  13  -1  606.44   23.00
 -13  -2  -1  621.74   21.40
  13   2   1  581.94   23.10
 -13  -2   1  591.34   24.80
   2 -13   1  577.04   22.70
  13   2   1  591.64   23.50
   2 -13   1  610.94   22.80
   2 -13   1  627.94   20.90
  -2  13   1  575.74   22.40
  13   2   1  611.14   23.90
 -13  -2   1  608.84   21.70
  -2  13   1  606.24   24.60
  -2  13   1  606.64   24.40
  13   0  -1  647.44   25.30
   0 -13  -1  674.23   24.00
   0  13  -1  673.83   26.60
   0  13  -1  659.23   25.40
   0 -13  -1  675.03   24.10
 -13   0  -1  697.83   26.40
 -13   0  -1  683.43   24.30
   0  13  -1  634.44   24.90
 -13   0  -1  653.53   25.70
   0 -13  -1  647.64   25.10
  13   0  -1  703.53   23.10
  13   0  -1  639.14   24.10
   0  13  -1  688.13   24.40
   0  13   1  661.83   24.80
   0 -13   1  645.44   24.40
 -13   0   1  637.34   26.40
  13   0   1  695.83   25.50
 -13   0   1  685.43   25.10
   0  13   1  656.63   26.50
   0  13   1  664.03   25.10
   0  13   1  702.83   24.90
  13   0   1  637.44   25.60
   0 -13   1  652.43   24.50
  13   0   1  677.63   25.20
 -13   0   1  694.53   24.70
  13  -2  -1  176.68   11.20
  -2 -13  -1  173.28   11.90
   2  13  -1  184.28   13.00
   2  13  -1  174.58   10.40
   2  13  -1  175.48    9.70
  13  -2  -1  182.98   12.40
 -13   2  -1  185.08   14.40
  13  -2  -1  179.48   12.30
 -13   2  -1  170.58   12.80
   2  13  -1  178.48   13.70
  -2 -13  -1  183.38   11.50
 -13   2  -1  186.88   12.40
  -2 -13  -1  189.78   13.00
   2  13   1  180.68   12.00
  13  -2   1  187.28   12.50
 -13   2   1  152.98   11.90
  -2 -13   1  188.68   10.80
   2  13   1  185.88   10.80
 -13   2   1  185.48   13.20
   2  13   1  179.88   12.80
  13  -2   1  176.48   11.70
   2  13   1  197.48   14.20
  -2 -13   1  180.68   12.40
  -2 -13   1  168.48   11.10
  -4 -13  -1  110.79   10.70
  13  -4  -1  123.59   11.70
   4  13  -1   96.49   12.20
   4  13  -1  101.59   12.20
  -4 -13  -1  106.89   11.50
 -13   4  -1  126.39   14.70
   4  13  -1  103.59   10.20
 -13   4  -1  115.79   12.10
  13  -4  -1  113.99   10.70
  13  -4  -1  104.69   11.10
   4  13  -1   91.49    8.90
 -13   4  -1  105.99   11.40
 -13   4   1   89.29   11.90
  -4 -13   1  124.39    9.90
  13  -4   1  107.99   11.60
   4  13   1  107.99   12.80
  13  -4   1   99.79    9.80
  -4 -13   1  104.69    9.70
   4  13   1  111.59   10.00
 -13   4   1   83.59    9.10
   4  13   1  109.29   10.70
   4  13   1  101.99   11.60
  13  -4   1  111.79   10.90
 -13   6  -1   52.69   10.10
   6  13  -1   46.00    8.90
 -13   6  -1   47.10    7.90
  13  -6  -1   49.20    8.60
  -6 -13  -1   33.20    6.90
 -13   6  -1   44.30    8.20
   6  13  -1   40.00    7.20
   6  13  -1   48.30    8.40
  -6 -13  -1   46.50    8.10
  13  -6  -1   33.00    7.40
   6  13  -1   44.80    6.00
  13  -6  -1   51.29    7.40
  -6 -13   1   54.89    7.60
  13  -6   1   52.49    8.30
   6  13   1   48.30    7.00
 -13   6   1   48.30    8.90
  -6 -13   1   55.69    6.60
   6  13   1   43.90    8.40
   6  13   1   44.10    8.50
 -13   6   1   51.29    9.10
   6  13   1   50.49    8.30
  -8 -13  -1  331.87   18.30
   8  13  -1  355.06   19.10
  13  -8  -1  347.67   18.10
  -8 -13  -1  349.27   18.30
  13  -8  -1  349.77   17.90
 -13   8  -1  365.26   18.30
 -13   8  -1  328.07   19.50
   8  13  -1  324.37   17.90
   8  13  -1  336.67   19.90
   8  13  -1  321.77   15.90
 -13   8  -1  343.57   21.50
  13  -8  -1  334.57   17.10
   8  13   1  330.17   19.50
   8  13   1  320.37   16.60
  -8 -13   1  331.37   16.00
 -13   8   1  304.57   19.80
  -8 -13   1  334.57   17.70
  13  -8   1  336.37   17.90
 -13   8   1  338.47   20.10
   8  13   1  334.97   17.20
   8  13   1  339.87   18.80
  13 -10  -1  630.44   25.30
  10  13  -1  640.74   24.60
 -13  10  -1  594.74   28.60
  13 -10  -1  676.53   26.40
  10  13  -1  648.54   25.70
 -10 -13  -1  592.34   27.10
  10  13  -1  632.84   29.10
  13 -10  -1  658.23   26.80
 -10 -13  -1  614.34   26.10
  10  13  -1  603.04   26.30
 -13  10   1  661.73   29.90
  10  13   1  641.24   26.20
  13 -10   1  631.54   27.00
 -13  10   1  620.74   28.50
  10  13   1  617.14   25.90
 -10 -13   1  627.94   24.80
  10  13   1  561.64   28.50
 -10 -13   1  677.83   27.70
  10  13   1  612.94   25.80
  12  13  -1   39.90   11.00
  13 -12  -1   33.10   10.90
  13 -12  -1   59.39    9.70
  12  13  -1   41.30   12.70
 -13  12  -1   63.39   12.60
 -12 -13  -1   49.20   12.20
 -12 -13  -1   29.60   11.30
  12  13  -1   38.50    8.50
 -12 -13   1   22.20    8.80
  13 -12   1   43.60   11.90
 -13  12   1   31.90   13.00
 -12 -13   1   29.70   11.20
  12  13   1   43.50   10.10
  12  13   1   54.69   10.20
  12  13   1   28.10   12.00
  14  13  -1  358.16   21.10
  14  13  -1  427.96   26.80
  14  13  -1  364.46   28.00
 -14 -13  -1  390.46   27.60
 -14 -13  -1  380.66   27.20
 -13  14  -1  353.46   27.20
  13 -14   1  433.66   26.70
 -13  14   1  429.76   27.50
 -14 -13   1  344.27   22.30
  14  13   1  343.27   28.80
 -14 -13   1  397.26   26.60
  14  13   1  354.96   24.00
  14  13   1  368.76   24.50
 -11  14  -1   51.49   10.80
  14  11  -1   48.00   11.60
  11 -14  -1   55.99   14.90
  14  11  -1   49.70    8.90
 -14 -11  -1   55.09   11.90
  14  11  -1   40.60   13.30
 -11  14  -1   33.00   12.90
  11 -14  -1   51.79   11.10
 -14 -11  -1   31.60   11.40
 -14 -11   1   43.20    9.40
  11 -14   1   38.30   11.60
 -11  14   1   52.29   13.10
 -11  14   1   58.59   10.50
  14  11   1   39.90   10.30
  14  11   1   54.39   11.80
 -14 -11   1   35.40   11.80
  14  11   1   36.40   12.60
  -9  14  -1  153.58   17.10
  14   9  -1  157.98   16.40
 -14  -9  -1  148.49   17.60
   9 -14  -1  147.79   12.90
  14   9  -1  172.58   19.00
   9 -14  -1  162.08   16.00
  -9  14  -1  134.49   13.80
  14   9   1  140.39   15.50
   9 -14   1  143.39   16.50
  14   9   1  154.18   18.50
 -14  -9   1  132.39   15.80
  -9  14   1  169.08   19.80
  -9  14   1  150.78   16.80
  14   9   1  166.38   15.20
  14   7  -1  100.99   10.50
  14   7  -1  101.39   11.40
  -7  14  -1   93.69   11.10
  14   7  -1  100.59   11.40
   7 -14  -1   90.99   11.90
   7 -14  -1   97.29   13.20
  -7  14  -1   95.69   10.60
 -14  -7  -1   83.69   11.00
 -14  -7  -1  102.69   11.00
  14   7   1  100.19   13.20
  -7  14   1   97.19   11.90
  14   7   1   74.09   10.70
   7 -14   1  103.09   11.80
  14   7   1   69.49    9.50
  -7  14   1  107.99   14.60
 -14  -7   1   82.49   11.50
   7 -14   1   99.39   13.50
 -14  -7   1  101.79   11.80
   7 -14   1   97.79   10.10
 -14  -5  -1   82.29   10.20
   5 -14  -1   95.39   11.80
   5 -14  -1  101.89   11.10
  -5  14  -1   88.19   10.10
  14   5  -1   83.19   10.90
 -14  -5  -1   94.19   10.40
  -5  14  -1  104.09   10.80
  14   5  -1  101.39   13.50
  14   5  -1   94.59   12.70
  -5  14  -1   86.39   12.00
  -5  14  -1   89.29   12.40
   5 -14  -1   68.59   13.20
  14   5   1   83.49   10.20
  -5  14   1  116.29   14.00
   5 -14   1   94.69   12.50
   5 -14   1  122.89   14.20
 -14  -5   1   98.59   11.50
  14   5   1   98.89   10.50
  -5  14   1   89.69   11.00
  14   5   1   98.29   12.60
 -14  -5   1   86.09   11.00
   3 -14  -1  311.27   17.50
   3 -14  -1  320.47   15.20
  14   3  -1  284.17   16.60
  -3  14  -1  306.67   15.90
  14   3  -1  304.37   16.20
  -3  14  -1  312.77   16.40
 -14  -3  -1  314.57   17.20
  14   3  -1  281.87   15.20
  -3  14  -1  309.97   18.20
   3 -14  -1  284.47   14.40
  -3  14  -1  302.77   16.80
 -14  -3  -1  287.27   17.00
 -14  -3   1  296.37   20.40
 -14  -3   1  298.67   17.60
 -14  -3   1  296.17   15.90
  -3  14   1  276.87   18.10
  14   3   1  301.67   17.00
  14   3   1  300.87   16.60
  14   3   1  285.77   16.60
  -3  14   1  310.47   18.20
  -3  14   1  291.27   16.20
   3 -14   1  303.87   15.80
  -3  14   1  301.47   14.70
   3 -14   1  302.07   13.90
   3 -14   1  312.07   16.60
  14   1  -1   65.09    7.10
   1 -14  -1   76.89   10.20
  14   1  -1   78.39    8.70
  14   1  -1   81.19   10.00
  -1  14  -1   63.79    8.90
  -1  14  -1   66.49    7.90
 -14  -1  -1   51.99    8.90
 -14  -1  -1   72.99    9.30
  -1  14  -1   54.09    7.10
  -1  14  -1   63.19    7.90
   1 -14  -1   68.89    8.70
   1 -14  -1   66.89    7.30
 -14  -1  -1   63.69    9.40
  -1  14   1   57.09    8.60
 -14  -1   1   66.29    8.20
  -1  14   1   94.29   10.60
 -14  -1   1   86.59   10.30
  14   1   1   62.29    8.20
  14   1   1   69.89    8.70
 -14  -1   1   78.49    7.70
   1 -14   1   71.99    9.60
  -1  14   1   68.39    8.10
   1 -14   1   70.39    8.00
   1 -14   1   82.79   10.60
  -1  14   1   73.19   10.00
  14   1   1   73.69    8.40
 -14   1  -1  216.48   13.30
   1  14  -1  227.58   12.10
  -1 -14  -1  219.88   15.10
  14  -1  -1  249.68   13.30
  14  -1  -1  220.08   14.50
 -14   1  -1  239.38   16.70
  -1 -14  -1  202.18   12.90
   1  14  -1  201.58   12.60
 -14   1  -1  242.78   15.50
  -1 -14  -1  225.88   13.00
   1  14  -1  192.88   14.20
   1  14  -1  221.58   15.70
   1  14   1  254.37   13.60
 -14   1   1  216.38   16.80
  14  -1   1  226.68   14.20
 -14   1   1  225.98   14.00
 -14   1   1  212.58   14.80
  -1 -14   1  224.38   13.10
  -1 -14   1  245.78   12.00
  -1 -14   1  227.68   13.80
  14  -1   1  223.48   15.40
   1  14   1  231.98   16.70
  14  -1   1  192.48   14.90
   1  14   1  217.98   13.70
   1  14   1  241.08   14.40
   3  14  -1  281.07   14.30
  -3 -14  -1  299.77   15.10
   3  14  -1  271.67   16.60
 -14   3  -1  280.67   16.30
  -3 -14  -1  292.27   16.70
 -14   3  -1  267.47   18.90
   3  14  -1  286.87   17.30
  14  -3  -1  285.47   15.90
  -3 -14  -1  293.57   15.60
  14  -3  -1  290.67   15.20
  14  -3  -1  280.77   15.90
 -14   3  -1  293.97   16.70
 -14   3   1  302.37   18.70
   3  14   1  310.37   15.70
   3  14   1  293.87   18.10
  -3 -14   1  292.87   16.30
  14  -3   1  262.97   15.90
  14  -3   1  312.17   14.70
  -3 -14   1  308.17   14.60
   3  14   1  262.27   16.20
  -3 -14   1  301.27   14.70
 -14   3   1  303.77   17.40
   5  14  -1   18.30    7.20
 -14   5  -1   19.20    8.00
  -5 -14  -1   23.40    8.30
   5  14  -1   26.50    6.80
  14  -5  -1   13.50    6.70
 -14   5  -1   12.30    9.30
   5  14  -1   26.20    8.60
  -5 -14  -1   11.10    7.00
 -14   5  -1   29.90    8.20
  14  -5  -1   18.30    7.10
   5  14  -1   25.40    8.70
  14  -5  -1   19.60    7.40
   5  14   1   13.80    8.00
  14  -5   1   24.60    7.60
  14  -5   1   18.20    7.00
  -5 -14   1   23.60    6.70
 -14   5   1   24.60    8.60
  -5 -14   1   16.40    6.30
   5  14   1   15.60    6.60
 -14   5   1   11.10    7.90
   5  14   1   22.00    8.50
   5  14   1   22.60    7.00
   7  14  -1  344.57   20.70
  14  -7  -1  371.26   18.10
 -14   7  -1  364.16   22.40
 -14   7  -1  351.36   18.60
   7  14  -1  363.06   19.80
   7  14  -1  333.97   18.40
 -14   7  -1  348.67   20.10
   7  14  -1  349.87   16.50
  -7 -14  -1  318.77   18.40
  14  -7  -1  338.87   20.30
  14  -7  -1  307.07   18.20
  -7 -14  -1  339.67   18.90
  -7 -14   1  329.47   17.80
   7  14   1  299.87   17.00
   7  14   1  337.47   20.30
   7  14   1  325.87   19.80
  14  -7   1  329.07   18.40
 -14   7   1  322.97   19.20
  -7 -14   1  332.57   16.60
 -14   7   1  353.56   21.20
   7  14   1  325.17   17.50
  -9 -14  -1  134.89   16.10
  14  -9  -1  137.09   16.10
 -14   9  -1  174.78   19.00
  14  -9  -1  139.99   13.70
   9  14  -1  149.79   12.70
   9  14  -1  188.98   24.90
   9  14  -1  114.99   15.00
   9  14  -1  134.59   16.50
  -9 -14  -1  190.98   16.90
  -9 -14   1  143.99   13.60
 -14   9   1  150.28   19.70
  14  -9   1  156.48   16.30
 -14   9   1  139.49   15.60
   9  14   1  141.29   16.90
  -9 -14   1  156.18   16.60
   9  14   1  144.19   14.90
   9  14   1  153.48   14.80
  11  14  -1   45.40    8.50
  11  14  -1   60.79   11.60
  14 -11  -1   50.99   10.70
  14 -11  -1   63.79   16.10
 -11 -14  -1   49.50   11.50
  11  14  -1   55.59   13.40
 -11 -14  -1   56.79   12.00
 -14  11  -1   67.09   13.10
  11  14   1   52.09   13.20
  11  14   1   42.80   10.70
  14 -11   1   49.70   11.10
 -14  11   1   54.49   16.30
 -11 -14   1   55.89   11.90
 -14  11   1   64.69   13.40
  11  14   1   50.89   10.20
 -11 -14   1   51.59    9.50
  13  14  -1   49.80   15.00
 -13 -14  -1   78.89   15.20
 -13 -14  -1   75.99   13.90
  13  14  -1   79.09   11.10
 -14  13  -1   77.29   15.50
  13  14  -1   84.19   14.00
  13  14   1  100.79   13.20
  13  14   1   64.29   13.30
 -13 -14   1   83.19   15.30
 -13 -14   1   76.49   11.40
  14 -13   1   81.79   14.10
  13  14   1   89.19   16.20
 -14  13   1   84.99   16.00
  15  14  -1   -3.70   11.50
  15  14  -1  -20.50   17.40
 -15 -14  -1   -4.60   14.90
  15  14  -1    0.10   14.50
 -14  15  -1    6.80   15.60
 -15 -14  -1    1.10   15.70
 -15 -14   1    5.40   11.80
  15  14   1   -9.40   14.50
  15  14   1   -7.60   13.50
  15  14   1  -17.70   16.30
  14 -15   1   22.30   22.10
 -14  15   1    6.50   16.40
 -15 -14   1    2.30   16.10
  15  12  -1   28.80   12.90
  15  12  -1    0.50    9.10
  15  12  -1   13.00   15.00
 -15 -12  -1   12.80   14.10
 -12  15  -1    2.80   13.80
 -15 -12  -1   11.30   13.50
  15  12   1    3.50   14.50
 -12  15   1   18.60   14.10
 -15 -12   1   -6.20   13.10
  15  12   1    2.10   10.90
 -15 -12   1   11.30   10.20
  15  12   1   -8.20   11.80
 -12  15   1   27.60   17.30
  12 -15   1   -6.30   12.70
  15  10  -1  646.84   30.50
 -15 -10  -1  696.43   31.60
  15  10  -1  680.03   27.70
 -10  15  -1  704.83   30.30
 -15 -10  -1  670.13   31.40
 -10  15  -1  694.03   32.20
  15  10  -1  649.14   32.90
  10 -15   1  691.13   30.90
  15  10   1  649.64   31.60
 -15 -10   1  732.23   32.70
 -10  15   1  718.63   31.00
  15  10   1  733.63   30.70
 -10  15   1  645.34   32.10
 -15 -10   1  604.14   28.10
  15  10   1  701.83   29.60
  -8  15  -1  412.26   26.70
   8 -15  -1  491.55   22.80
  15   8  -1  474.95   26.50
 -15  -8  -1  471.65   24.80
  15   8  -1  455.75   21.50
  15   8  -1  482.25   24.30
  -8  15  -1  481.05   24.60
   8 -15  -1  486.65   25.40
 -15  -8  -1  472.65   25.40
  15   8   1  472.45   23.90
   8 -15   1  473.15   23.30
  -8  15   1  486.75   27.00
  15   8   1  454.35   23.30
  -8  15   1  479.45   24.60
 -15  -8   1  492.75   25.40
  15   8   1  472.15   25.40
 -15  -8   1  443.96   21.90
   6 -15  -1  345.47   18.50
  -6  15  -1  352.26   20.50
  15   6  -1  365.56   17.90
   6 -15  -1  348.57   17.30
  -6  15  -1  380.16   19.60
  15   6  -1  314.47   24.20
  15   6  -1  362.46   20.60
  -6  15  -1  365.66   24.50
 -15  -6  -1  358.46   21.30
  -6  15  -1  349.67   25.60
 -15  -6  -1  368.36   20.50
  -6  15   1  345.47   22.20
  15   6   1  345.07   19.60
  15   6   1  344.27   20.10
 -15  -6   1  348.77   21.40
   6 -15   1  346.17   19.30
   6 -15   1  410.46   21.50
  15   6   1  351.46   21.30
  -6  15   1  360.76   20.60
 -15  -6   1  350.56   18.60
  15   4  -1  300.07   17.50
   4 -15  -1  296.77   16.70
  -4  15  -1  316.47   20.00
  -4  15  -1  332.47   19.20
  15   4  -1  307.57   18.10
  15   4  -1  285.97   16.30
   4 -15  -1  272.17   18.90
 -15  -4  -1  318.97   19.90
 -15  -4  -1  316.57   19.10
   4 -15  -1  315.37   15.80
  -4  15  -1  328.27   17.10
  -4  15  -1  312.67   18.10
 -15  -4   1  310.17   19.50
  -4  15   1  341.87   20.20
   4 -15   1  327.27   17.30
  -4  15   1  315.27   19.60
  15   4   1  294.47   17.90
   4 -15   1  333.27   20.00
 -15  -4   1  281.67   17.10
  -4  15   1  315.37   20.30
  15   4   1  308.67   18.40
  15   4   1  312.27   19.10
 -15  -2  -1  304.37   19.80
   2 -15  -1  306.07   15.90
  -2  15  -1  292.57   17.00
  -2  15  -1  305.67   18.70
   2 -15  -1  275.37   15.10
  15   2  -1  263.87   16.00
  -2  15  -1  330.17   16.90
   2 -15  -1  319.27   17.80
  -2  15  -1  284.87   17.20
 -15  -2  -1  300.77   18.20
  15   2  -1  277.37   17.40
  15   2   1  322.17   17.20
 -15  -2   1  313.47   16.30
   2 -15   1  292.57   13.60
   2 -15   1  275.97   16.00
 -15  -2   1  281.57   17.00
  15   2   1  297.57   17.40
  15   2   1  291.67   17.60
  -2  15   1  281.87   18.40
  -2  15   1  294.97   18.40
 -15  -2   1  299.17   18.70
  -2  15   1  269.57   16.00
   2 -15   1  296.27   18.00
   0  15  -1   46.00    9.60
  15   0  -1   32.80    7.80
 -15   0  -1   41.40   10.20
   0 -15  -1   42.30    7.10
 -15   0  -1   35.90    9.10
   0  15  -1   56.19    7.50
   0 -15  -1   49.99    7.70
   0 -15  -1   40.80    8.90
   0  15  -1   45.90    7.20
  15   0  -1   47.60    7.20
   0  15  -1   49.90    8.70
   0  15   1   40.50    9.70
 -15   0   1   39.70    9.40
   0  15   1   49.00    8.20
  15   0   1   51.89    8.90
  15   0   1   28.50    7.80
   0  15   1   54.49    8.60
 -15   0   1   38.50    8.10
   0 -15   1   43.50    8.00
   0  15   1   41.80    8.00
   0 -15   1   40.70    7.70
   0 -15   1   45.10    5.90
  15   0   1   39.50    8.00
   2  15  -1   84.09   10.90
  -2 -15  -1   73.59    8.40
 -15   2  -1   64.69    9.90
  15  -2  -1   82.79   11.50
  -2 -15  -1   60.19    8.20
 -15   2  -1   72.89   11.70
   2  15  -1   57.59    9.30
  15  -2  -1   64.99    9.40
 -15   2  -1   64.39    8.60
   2  15  -1   66.99    7.80
  -2 -15  -1   79.19    9.70
 -15   2   1   77.49    9.60
 -15   2   1   59.39   10.20
  15  -2   1   58.69    9.00
   2  15   1   69.19   10.60
  15  -2   1   66.09    9.70
  15  -2   1   68.19    9.10
 -15   2   1   67.19    8.90
  -2 -15   1   66.39    7.70
  -2 -15   1   60.09    8.00
   2  15   1   62.89    8.90
   2  15   1   64.39    9.30
  -2 -15   1   69.49    8.70
  -4 -15  -1  879.21   31.90
 -15   4  -1  870.61   35.00
  15  -4  -1  847.32   32.40
   4  15  -1  865.01   33.90
 -15   4  -1  835.92   32.60
 -15   4  -1  878.41   32.50
   4  15  -1  867.81   34.00
  15  -4  -1  880.81   31.80
   4  15  -1  846.12   30.90
  -4 -15  -1  885.21   32.00
  -4 -15  -1  890.21   33.00
  15  -4  -1  838.92   32.30
   4  15   1  843.12   32.00
 -15   4   1  900.51   33.10
  -4 -15   1  878.91   33.10
 -15   4   1  901.91   33.90
  15  -4   1  867.41   32.90
   4  15   1  852.21   34.50
  -4 -15   1  863.91   31.50
  -4 -15   1  903.61   31.50
   4  15   1  836.72   33.30
  15  -6  -1 1361.06   45.40
  -6 -15  -1 1267.57   45.70
  15  -6  -1 1313.27   45.50
  15  -6  -1 1345.77   47.00
   6  15  -1 1342.57   46.70
   6  15  -1 1263.67   44.20
   6  15  -1 1290.17   47.60
  -6 -15  -1 1317.77   46.10
 -15   6  -1 1388.36   47.90
 -15   6  -1 1367.46   46.50
   6  15  -1 1296.37   45.50
 -15   6  -1 1340.77   45.50
  15  -6   1 1210.18   44.50
 -15   6   1 1310.87   45.50
   6  15   1 1265.57   43.50
   6  15   1 1260.07   46.00
   6  15   1 1285.47   46.10
  -6 -15   1 1247.28   43.70
   6  15   1 1293.47   44.10
  -6 -15   1 1317.47   43.50
 -15   6   1 1331.27   45.90
   8  15  -1   93.49   17.30
   8  15  -1   76.09   13.00
   8  15  -1   67.49   12.00
  15  -8  -1   77.19   10.70
  -8 -15  -1   82.09   11.60
   8  15  -1   84.99   11.80
  15  -8  -1  108.19   14.60
  15  -8  -1   90.49   10.80
   8  15   1   95.69   12.60
   8  15   1   87.19   12.60
  -8 -15   1   73.29   10.60
  15  -8   1   83.59   15.00
   8  15   1   75.99   10.20
   8  15   1   76.39   10.50
 -15   8   1   82.49   13.20
 -15   8   1   69.69   17.70
  15 -10  -1  331.67   21.90
 -10 -15  -1  277.27   22.20
  10  15  -1  324.17   18.30
 -15  10  -1  315.67   23.10
  10  15  -1  335.57   24.00
  10  15  -1  315.27   21.40
 -10 -15  -1  322.87   22.10
 -10 -15   1  302.77   22.70
 -15  10   1  333.17   24.70
  10  15   1  294.77   23.40
  10  15   1  301.87   20.10
  15 -10   1  330.27   21.90
  10  15   1  339.97   21.50
 -15  10   1  304.27   25.90
 -10 -15   1  317.07   19.30
  12  15  -1   65.89   10.70
  12  15  -1   60.39   15.80
  12  15  -1   65.99   13.00
 -12 -15  -1   81.09   15.00
 -12 -15  -1   73.29   14.40
 -15  12  -1   39.00   14.60
 -15  12   1   86.59   16.30
  12  15   1   70.29   15.50
  15 -12   1   60.49   14.00
  12  15   1   88.99   13.20
 -12 -15   1   68.99   11.50
 -12 -15   1   55.99   14.50
  12  15   1   89.79   13.50
 -15  14  -1    9.60   16.30
 -14 -15  -1   52.69   16.70
 -14 -15  -1   24.00   15.90
  14  15  -1   20.90   14.90
  14  15  -1    1.80   17.90
  14  15  -1   21.20   11.30
  15 -14   1    5.00   14.40
  14  15   1   30.30   17.60
 -14 -15   1   35.40   16.40
  14  15   1   28.30   14.70
 -14 -15   1   41.60   12.70
 -15  14   1    2.60   17.10
  14  15   1   36.10   13.80
  16  13  -1   -4.10   11.50
  16  13  -1   13.70   15.60
 -16 -13  -1    1.80   16.10
 -16 -13  -1    8.40   15.70
 -13  16  -1    7.00   15.70
  16  13  -1   -3.20   17.20
  13 -16   1   24.30   15.30
 -16 -13   1   -9.10   15.30
 -13  16   1   -9.00   16.90
  16  13   1    3.60   14.00
  16  13   1   24.00   17.60
 -16 -13   1   15.40   12.60
  16  13   1   15.70   13.40
 -16 -11  -1   56.59   14.80
  16  11  -1   42.40   15.60
 -11  16  -1   45.20   15.20
 -16 -11  -1   53.39   14.90
 -11  16  -1   34.00   12.00
  16  11  -1   54.59   10.90
  16  11  -1   64.09   14.80
  16  11   1   60.89   13.70
 -11  16   1   56.49   13.30
 -16 -11   1   49.10   11.90
  11 -16   1   63.59   14.40
 -11  16   1   57.49   15.30
  16  11   1   63.49   16.00
 -16 -11   1   59.29   15.40
  16  11   1   32.40   12.40
 -16  -9  -1    4.60   12.50
  -9  16  -1   18.70   13.00
  16   9  -1    9.00    8.90
  16   9  -1    9.50   13.20
 -16  -9  -1    2.60   12.00
  16   9  -1   15.30   11.60
  -9  16  -1    5.30   11.70
   9 -16   1    4.70   11.70
  -9  16   1   22.60   11.80
  -9  16   1   16.50   13.30
  16   9   1   12.90   11.30
  16   9   1   12.50   13.10
 -16  -9   1   11.60   13.50
  16   9   1   11.90   10.50
 -16  -9   1   15.60   10.00
 -16  -7  -1  222.48   21.40
  16   7  -1  241.68   19.20
 -16  -7  -1  262.47   24.50
  -7  16  -1  247.68   20.80
   7 -16  -1  226.38   20.40
  16   7  -1  198.58   16.60
   7 -16  -1  246.88   22.00
  16   7  -1  248.18   20.00
  16   7   1  276.07   20.30
  -7  16   1  266.07   21.50
  16   7   1  230.18   24.50
 -16  -7   1  220.68   21.00
  16   7   1  212.38   20.90
 -16  -7   1  201.58   17.40
   7 -16   1  224.78   20.10
  16   5  -1   32.00   10.00
   5 -16  -1   10.00    8.70
 -16  -5  -1    7.40   10.10
   5 -16  -1    2.00    7.10
 -16  -5  -1   17.60   10.70
  -5  16  -1   12.30   10.30
  16   5   1    4.40    9.80
 -16  -5   1   10.50   10.40
  -5  16   1    3.80   14.00
  -5  16   1   19.10   12.80
  16   5   1   18.70   13.40
 -16  -5   1   -9.50   16.10
  16   5   1    8.40    9.10
   5 -16   1    9.40   10.40
   5 -16   1   13.50    9.10
 -16  -3  -1  752.22   31.90
   3 -16  -1  778.92   35.50
  16   3  -1  747.23   29.40
 -16  -3  -1  784.82   32.90
  16   3  -1  715.73   31.10
   3 -16  -1  812.52   29.40
  -3  16  -1  803.92   30.80
  -3  16  -1  745.43   32.60
   3 -16  -1  766.52   28.70
  -3  16  -1  828.42   30.80
  -3  16  -1  788.32   30.50
 -16  -3   1  735.63   31.60
   3 -16   1  779.72   30.90
  16   3   1  710.93   30.30
  16   3   1  723.43   29.70
  16   3   1  780.02   30.50
  -3  16   1  733.23   32.10
  -3  16   1  776.72   31.10
 -16  -3   1  773.62   29.90
   3 -16   1  739.83   29.70
  -1  16  -1  424.26   21.60
   1 -16  -1  417.36   19.80
  -1  16  -1  425.26   23.30
 -16  -1  -1  443.96   22.90
 -16  -1  -1  435.46   24.30
   1 -16  -1  438.16   22.50
  -1  16  -1  418.56   20.20
  -1  16  -1  404.06   19.80
  16   1  -1  422.36   21.90
  16   1  -1  452.85   20.60
   1 -16  -1  396.06   19.30
 -16  -1   1  400.36   21.30
  -1  16   1  429.76   21.50
  -1  16   1  449.95   24.00
  16   1   1  406.36   20.70
  16   1   1  430.36   22.30
  -1  16   1  429.46   20.50
   1 -16   1  401.06   21.40
 -16  -1   1  428.76   23.40
   1 -16   1  442.26   20.20
   1 -16   1  420.16   22.10
  16   1   1  369.16   21.50
  -1 -16  -1   42.30    8.40
   1  16  -1   52.59    8.40
 -16   1  -1   51.89   10.70
   1  16  -1   40.00   10.90
 -16   1  -1   52.79   12.00
   1  16  -1   46.10    9.40
  -1 -16  -1   51.89    8.10
  16  -1  -1   57.59    9.50
 -16   1  -1   56.79   10.50
  -1 -16  -1   58.99   10.00
  16  -1  -1   40.70    8.20
  -1 -16   1   56.29    7.40
   1  16   1   50.19    8.80
 -16   1   1   38.00   10.40
  16  -1   1   48.90   10.20
 -16   1   1   60.59    9.10
  16  -1   1   56.29    9.90
  -1 -16   1   57.99    9.20
   1  16   1   43.00    9.30
 -16   1   1   42.40    9.20
  -1 -16   1   47.80    8.90
   1  16   1   52.29   11.10
  -3 -16  -1   13.20    8.30
  -3 -16  -1   16.10    9.40
   3  16  -1   12.40    9.90
  16  -3  -1   29.90    9.10
  -3 -16  -1   14.50    8.10
 -16   3  -1   20.10    9.70
 -16   3  -1   24.60   12.10
   3  16  -1   17.30    6.90
   3  16  -1   15.90    9.00
  16  -3  -1   14.20    8.80
 -16   3  -1   24.50    9.20
 -16   3   1   25.60    8.80
  16  -3   1   12.50    8.90
  -3 -16   1   13.70    8.00
  -3 -16   1   18.30    7.00
   3  16   1   12.60   10.30
  16  -3   1   11.30    9.60
 -16   3   1   26.00   10.60
   3  16   1   11.90    8.90
 -16   3   1   17.00    9.60
   3  16   1    8.70    7.60
  -3 -16   1    6.50    8.10
  -5 -16  -1   15.50   10.40
  16  -5  -1    5.50    8.30
  -5 -16  -1   13.60    9.00
 -16   5  -1    9.30    9.60
  16  -5  -1   25.00    9.20
 -16   5  -1    5.60    9.70
  16  -5  -1   12.70    9.50
  -5 -16  -1    5.70    8.50
   5  16  -1   -1.60   10.20
   5  16  -1   22.20   19.20
 -16   5  -1   16.10   12.20
   5  16  -1   23.80    7.60
  -5 -16   1   11.70    7.80
   5  16   1   13.10   10.70
  16  -5   1    6.80   10.20
  -5 -16   1    8.80    9.20
  -5 -16   1   12.40    8.00
   5  16   1   11.90    8.60
   5  16   1   -5.00   10.70
 -16   5   1   15.80   10.60
 -16   5   1   32.70   10.20
   7  16  -1   59.09   10.50
  16  -7  -1   52.59   11.00
  16  -7  -1   63.39   10.40
   7  16  -1   61.69   12.90
   7  16  -1   51.59    9.10
  16  -7  -1   56.49   10.20
  -7 -16  -1   53.39   11.10
 -16   7  -1   44.70   11.30
  -7 -16  -1   67.89   12.00
   7  16  -1   46.70   12.00
 -16   7   1   76.39   12.20
   7  16   1   53.09   12.40
  -7 -16   1   39.80   10.50
   7  16   1   50.59   10.50
  16  -7   1   64.99   10.80
 -16   7   1   64.39   13.30
  -7 -16   1   50.69   10.00
   7  16   1   55.79   13.10
   7  16   1   63.19   10.20
   9  16  -1   52.69   12.00
   9  16  -1   33.20   12.30
   9  16  -1   41.10   13.60
  16  -9  -1   37.10   11.40
  -9 -16  -1   34.60   12.20
  16  -9  -1   41.20   17.80
   9  16  -1   48.10    9.70
  -9 -16  -1   53.69   12.20
 -16   9  -1   38.60   13.00
  -9 -16   1   42.50   11.40
   9  16   1   20.20   13.50
   9  16   1   36.00   14.10
   9  16   1   35.70   10.80
  16  -9   1   36.70   11.80
  -9 -16   1   33.60   10.20
   9  16   1   34.50   11.40
 -16   9   1   44.20   13.50
 -11 -16  -1   83.39   14.90
  11  16  -1   81.99   14.10
  16 -11  -1   90.39   17.00
  11  16  -1   75.59   17.20
  11  16  -1   92.09   11.70
 -11 -16  -1   84.59   14.90
 -16  11  -1   72.09   15.20
  11  16   1   71.59   12.70
 -11 -16   1   65.19   14.40
  16 -11   1   99.49   14.50
 -11 -16   1   67.99   12.00
  11  16   1   82.79   13.60
  11  16   1   72.49   16.60
 -16  11   1   87.59   16.10
  13  16  -1  322.17   23.20
  13  16  -1  309.07   32.30
  13  16  -1  319.07   27.60
 -16  13  -1  357.46   29.80
 -13 -16  -1  343.77   28.40
 -13 -16  -1  336.77   28.60
  13  16   1  342.77   26.10
  13  16   1  379.26   27.80
 -13 -16   1  334.47   24.50
 -16  13   1  258.07   30.00
  16 -13   1  319.97   28.30
 -13 -16   1  345.27   28.20
  13  16   1  329.27   31.10
 -17 -10  -1  120.89   17.70
  17  10  -1  107.69   15.70
 -10  17  -1  108.09   16.90
  17  10  -1   92.99   12.20
 -17 -10  -1  100.09   16.80
  17  10  -1  117.29   17.10
 -10  17  -1   94.49   15.30
  17  10   1  110.59   17.50
 -17 -10   1  105.09   13.60
  17  10   1  107.79   14.70
 -10  17   1   99.29   15.20
  10 -17   1  118.49   16.10
  17  10   1  134.69   16.10
 -10  17   1   85.39   16.90
 -17 -10   1   75.99   16.90
  17   8  -1  108.49   12.20
  17   8  -1   83.79   15.40
 -17  -8  -1  104.49   15.50
  17   8  -1  100.69   14.30
  -8  17  -1  114.39   15.40
  -8  17  -1  124.99   15.90
 -17  -8  -1  113.69   16.10
   8 -17   1  111.09   13.80
 -17  -8   1  119.99   16.30
  17   8   1   91.89   15.10
  -8  17   1   84.19   16.00
  17   8   1   91.39   13.70
  -8  17   1  109.89   14.90
  17   8   1   92.09   13.30
 -17  -8   1   81.19   12.10
 -17  -6  -1   20.80   12.70
 -17  -6  -1   26.00   12.40
  17   6  -1   12.90   10.40
  -6  17  -1   21.30   12.90
  -6  17  -1    1.10   11.80
  17   6  -1   17.00    8.90
  -6  17   1   13.40   12.10
  17   6   1   15.50   10.90
  17   6   1   13.20   11.90
   6 -17   1   16.40   10.70
  17   6   1    4.80   10.70
 -17  -6   1    8.50   10.00
 -17  -6   1   11.20   12.80
  -6  17   1   28.10   13.50
   4 -17  -1   72.29   10.40
   4 -17  -1   49.99    9.00
 -17  -4  -1   57.79   13.00
 -17  -4  -1   63.19   13.70
  -4  17  -1   56.49   12.50
  17   4  -1   54.09    9.80
  17   4  -1   49.70   10.80
  -4  17  -1   46.70   11.70
  17   4   1   61.09   11.50
   4 -17   1   64.89   12.60
  -4  17   1   38.50   12.40
 -17  -4   1   56.09   13.00
  17   4   1   46.50   11.40
  17   4   1   43.90   11.50
   4 -17   1   55.19   12.20
 -17  -4   1   40.60   10.30
  -4  17   1   51.99   12.60
   2 -17  -1   64.29   10.00
  -2  17  -1   60.69    9.80
  -2  17  -1   70.29   12.70
 -17  -2  -1   82.59   13.10
 -17  -2  -1   83.89   13.20
  -2  17  -1   52.59   10.70
   2 -17  -1   73.89    9.00
  17   2  -1   70.49   11.30
  17   2  -1   90.79   11.80
  -2  17  -1   68.09   10.50
  17   2   1   71.49   11.10
 -17  -2   1   72.09   12.50
  -2  17   1   92.69   12.00
  17   2   1   78.49   15.00
   2 -17   1   64.19   11.50
   2 -17   1   74.19   10.70
  17   2   1   76.99   11.70
 -17  -2   1   77.89   13.00
  -2  17   1   76.99   13.10
  17   0  -1  423.46   29.90
   0 -17  -1  435.56   21.20
   0 -17  -1  441.56   23.80
 -17   0  -1  450.65   27.00
   0  17  -1  423.86   22.00
   0  17  -1  400.46   25.40
  17   0  -1  418.66   29.00
 -17   0  -1  442.36   24.80
   0  17  -1  465.95   23.80
   0 -17  -1  429.56   20.70
   0  17   1  443.76   22.40
   0 -17   1  436.96   22.30
   0  17   1  456.35   25.20
 -17   0   1  382.06   33.00
  17   0   1  399.06   22.90
   0 -17   1  450.45   22.30
 -17   0   1  422.66   26.20
  17   0   1  433.36   23.60
  17  -2  -1  511.25   26.40
 -17   2  -1  602.54   30.40
 -17   2  -1  583.54   27.40
  17  -2  -1  529.45   25.80
  -2 -17  -1  607.74   26.20
   2  17  -1  577.64   25.10
   2  17  -1  529.75   31.40
   2  17  -1  571.44   28.10
  -2 -17  -1  573.24   24.80
  -2 -17  -1  547.35   25.00
   2  17   1  534.85   26.60
  17  -2   1  538.35   26.30
  -2 -17   1  552.34   24.90
   2  17   1  551.84   29.20
 -17   2   1  542.25   26.30
 -17   2   1  579.64   30.10
  -2 -17   1  572.64   25.70
  -2 -17   1  586.24   23.30
   4  17  -1  133.89   14.70
  -4 -17  -1  101.49   13.00
 -17   4  -1  105.59   13.00
   4  17  -1  102.89   14.40
 -17   4  -1   76.29   11.80
   4  17  -1  133.19   18.80
  -4 -17  -1  109.59   12.00
 -17   4  -1   95.89   15.30
  -4 -17   1  119.29   14.20
   4  17   1  107.79   14.50
  17  -4   1  108.29   12.80
  -4 -17   1   85.59   11.40
   4  17   1   84.09   13.30
 -17   4   1  102.39   19.00
 -17   4   1  119.29   20.60
 -17   4   1  103.29   13.10
  -4 -17   1  116.29   12.50
  17  -6  -1  211.78   20.60
   6  17  -1  192.68   22.10
  -6 -17  -1  219.08   19.80
   6  17  -1  221.18   16.90
   6  17  -1  247.48   23.60
 -17   6  -1  233.58   20.10
  17  -6  -1  191.58   17.60
 -17   6   1  202.98   21.60
  17  -6   1  210.88   19.80
  -6 -17   1  187.38   20.70
 -17   6   1  196.28   23.50
  -6 -17   1  177.98   24.30
   6  17   1  210.28   21.40
   6  17   1  217.28   23.20
  -6 -17   1  191.18   18.50
 -17   6   1  199.18   23.10
  17  -8  -1   42.20   11.10
  -8 -17  -1   35.50   12.80
   8  17  -1   41.20   14.50
  -8 -17  -1   34.60   12.50
   8  17  -1   24.80   13.10
   8  17  -1   29.10    9.90
  17  -8  -1   31.90   12.10
 -17   8  -1   30.90   13.00
   8  17   1   11.50   13.90
   8  17   1   36.10   11.50
   8  17   1   33.00   11.30
 -17   8   1   34.70   13.30
  17  -8   1   31.80   12.30
  -8 -17   1   34.30   12.30
 -17   8   1   35.00   14.90
  -8 -17   1   45.80   11.40
  -8 -17   1   32.20   11.00
   8  17   1   37.20   14.20
  17 -10  -1   29.90   13.90
 -17  10  -1   20.60   14.30
 -10 -17  -1    7.60   13.20
  10  17  -1   13.80   15.60
  10  17  -1    9.10   12.80
  10  17  -1   13.50   10.70
 -10 -17  -1    5.00   14.20
  10  17   1   -9.20   11.90
 -10 -17   1    3.70   11.30
  17 -10   1    7.90   13.80
 -10 -17   1   27.70   13.40
 -17  10   1    8.10   14.70
  10  17   1    5.60   15.80
  10  17   1   28.30   12.70
  18   9  -1   32.40   11.70
 -18  -9  -1   42.40   16.40
  18   9  -1   28.00   14.40
  -9  18  -1   44.20   16.30
 -18  -9  -1    7.80   15.60
  -9  18  -1   37.60   15.50
  -9  18   1   27.30   15.10
   9 -18   1   17.10   14.20
  -9  18   1   27.50   16.60
 -18  -9   1   26.70   16.30
  18   9   1   54.29   16.30
  18   9   1   29.40   13.30
 -18  -9   1   50.19   13.00
  18   9   1   29.10   14.50
  18   7  -1  528.55   29.80
 -18  -7  -1  536.85   30.60
  -7  18  -1  541.25   31.70
 -18  -7  -1  514.35   31.80
  -7  18  -1  556.84   31.00
  18   7  -1  539.15   27.00
 -18  -7   1  560.84   31.60
  18   7   1  569.04   29.80
  -7  18   1  499.55   31.40
  -7  18   1  566.84   31.00
  18   7   1  522.85   30.00
  18   7   1  568.24   30.70
   7 -18   1  523.25   28.50
 -18  -7   1  544.45   28.10
  18   5  -1   68.69   11.50
 -18  -5  -1   61.19   14.50
 -18  -5  -1   59.49   14.30
  18   5  -1   47.00   12.10
  -5  18  -1   79.69   14.20
  -5  18  -1   65.69   14.30
  18   5   1   67.89   12.80
  -5  18   1   79.99   15.10
  -5  18   1   74.69   14.80
 -18  -5   1   66.29   12.50
   5 -18   1   74.89   12.60
  18   5   1   74.29   13.60
 -18  -5   1   70.79   14.90
  -3  18  -1   26.50   10.30
 -18  -3  -1   36.00   13.60
  18   3  -1   20.10   10.10
 -18  -3  -1   18.00   13.90
  -3  18  -1   22.50   12.30
   3 -18  -1    3.40   11.70
  18   3  -1   20.20   11.00
  -3  18  -1   29.50   13.30
 -18  -3   1   10.40   12.60
  18   3   1    9.50   11.10
   3 -18   1   33.50   11.30
  18   3   1   15.40   11.90
 -18  -3   1   20.00   11.10
  -3  18   1   15.30   13.70
 -18  -1  -1  202.88   21.90
 -18  -1  -1  199.98   23.90
  18   1  -1  200.68   19.60
  -1  18  -1  209.28   20.50
  -1  18  -1  172.18   23.10
  18   1  -1  210.38   19.20
  -1  18  -1  206.58   21.70
   1 -18  -1  174.08   16.30
   1 -18  -1  179.08   19.50
   1 -18   1  193.48   19.70
 -18  -1   1  192.28   20.30
 -18  -1   1  249.28   23.10
  18   1   1  211.08   29.60
  18   1   1  187.68   19.40
   1 -18   1  145.09   18.00
  -1  18   1  169.98   20.50
  -1  18   1  191.88   22.00
  18  -1  -1   10.90   10.90
 -18   1  -1   15.40   17.90
   1  18  -1   -4.30   11.90
   1  18  -1    4.50    9.90
  18  -1  -1    9.90    9.90
  -1 -18  -1   -1.70   17.00
  -1 -18  -1    3.80   11.70
  -1 -18  -1    6.30    9.60
 -18   1  -1    5.00   14.40
   1  18  -1    0.00   11.10
  -1 -18   1    5.00   10.90
  -1 -18   1    1.60   10.30
  18  -1   1   -3.50   10.10
   1  18   1   21.30   13.40
 -18   1   1   13.00   12.30
   1  18   1   16.40   11.10
  -3 -18  -1  399.36   22.70
  18  -3  -1  356.16   24.10
   3  18  -1  370.06   26.40
 -18   3  -1  404.16   28.60
  18  -3  -1  383.86   23.00
   3  18  -1  416.66   25.20
  -3 -18  -1  376.36   22.80
   3  18  -1  435.06   23.10
  -3 -18  -1  391.26   26.10
 -18   3  -1  374.56   29.30
 -18   3   1  395.36   27.40
   3  18   1  382.06   24.20
  -3 -18   1  346.07   23.50
   3  18   1  345.07   27.60
  -3 -18   1  383.56   22.60
  18  -3   1  411.06   23.40
 -18   3   1  372.76   24.40
  -5 -18  -1   38.90   12.90
  18  -5  -1   14.90   12.00
   5  18  -1   20.90   14.30
  -5 -18  -1   11.60   11.50
  -5 -18  -1   20.20   11.50
  18  -5  -1   16.10   10.40
   5  18  -1   27.00   10.20
   5  18  -1   26.40   13.60
 -18   5  -1    3.80   11.70
  -5 -18   1   19.70   10.40
 -18   5   1    3.90   11.80
 -18   5   1   16.60   14.20
 -18   5   1   21.90   13.30
   5  18   1    7.70   12.70
  18  -5   1   30.40   11.80
   5  18   1   12.20   14.70
  -5 -18   1    4.50   10.70
  -5 -18   1   22.90   11.70
   7  18  -1  229.08   25.20
 -18   7  -1  269.37   23.90
  -7 -18  -1  255.17   22.30
   7  18  -1  221.88   26.20
  18  -7  -1  231.48   22.40
  18  -7  -1  223.88   21.90
  -7 -18  -1  260.77   23.80
   7  18  -1  247.48   20.00
  -7 -18  -1  229.68   25.10
 -18   7   1  241.08   26.40
 -18   7   1  232.28   25.50
  -7 -18   1  219.78   24.50
   7  18   1  257.57   21.60
   7  18   1  255.17   28.30
  -7 -18   1  256.07   21.90
  -7 -18   1  259.47   20.80
   7  18   1  237.68   25.00
 -18   7   1  246.98   24.40
  18  -7   1  220.88   22.30
   9  18  -1  182.28   26.50
  -9 -18  -1  216.18   26.50
   9  18  -1  226.88   20.80
  18  -9  -1  196.88   24.00
 -18   9  -1  207.18   25.00
  -9 -18  -1  180.98   18.20
   9  18   1  173.58   20.00
  -9 -18   1  214.88   22.50
  -9 -18   1  191.38   19.00
 -18   9   1  235.38   26.70
   9  18   1  192.68   23.10
  18  -9   1  187.68   24.80
  -9 -18   1  205.58   23.20
 -19  -8  -1  294.27   30.20
 -19  -8  -1  320.27   29.60
  19   8  -1  259.97   24.00
  19   8  -1  285.97   27.20
  -8  19  -1  259.27   29.40
  -8  19  -1  290.27   29.10
  -8  19   1  300.07   30.80
 -19  -8   1  283.07   29.80
 -19  -8   1  230.58   25.30
  19   8   1  204.08   26.30
  -8  19   1  256.07   28.80
   8 -19   1  305.87   26.40
  19   8   1  252.97   25.50
  19   6  -1   35.70   13.80
  -6  19  -1   33.80   16.00
  -6  19  -1   64.99   15.90
  19   6  -1   52.99   12.80
 -19  -6  -1   47.00   16.40
 -19  -6  -1   59.59   16.50
  19   6   1   28.40   14.10
 -19  -6   1   51.59   13.20
  -6  19   1   64.29   16.80
  -6  19   1   44.40   16.00
 -19  -6   1   50.69   16.90
   6 -19   1   39.00   13.50
  19   6   1   47.30   14.50
 -19  -4  -1  230.48   27.10
 -19  -4  -1  207.58   26.20
  19   4  -1  197.28   21.60
  19   4  -1  176.88   23.00
  -4  19  -1  194.78   26.70
 -19  -4   1  190.08   26.20
  19   4   1  174.58   23.70
  19   4   1  212.58   23.70
  -4  19   1  192.58   25.90
 -19  -4   1  198.38   22.90
   4 -19   1  135.79   15.60
 -19  -2  -1   90.09   16.50
  -2  19  -1   91.49   13.90
 -19  -2  -1   75.99   16.40
  19   2  -1   65.59   13.30
  19   2  -1   71.99   12.60
  -2  19  -1   79.89   15.80
   2 -19   1   92.69   15.30
  19   2   1   81.99   13.60
 -19  -2   1   74.09   16.10
 -19  -2   1   85.79   14.00
   2 -19   1   56.19   13.40
  19   2   1   75.59   13.40
  -2  19   1   70.19   16.20
  19   0  -1  106.29   14.10
   0  19  -1  124.49   14.10
 -19   0  -1  154.48   17.20
 -19   0  -1  143.79   17.80
   0  19  -1  129.19   17.50
   0 -19  -1  133.39   17.00
  19   0  -1  150.48   15.00
   0  19  -1  100.09   15.30
   0 -19   1  132.79   16.00
   0 -19   1  112.29   14.20
  19   0   1  121.89   14.90
   0  19   1  148.09   17.90
 -19   0   1  135.89   17.10
 -19   0   1  121.69   15.60
   0  19   1  138.19   14.50
  19  -2  -1   96.49   13.70
 -19   2  -1   91.19   15.60
   2  19  -1  100.69   13.50
  -2 -19  -1  108.59   12.60
  19  -2  -1   99.69   14.50
   2  19  -1  107.79   16.50
   2  19  -1   91.29   15.40
 -19   2  -1   97.39   17.80
  -2 -19   1  101.69   14.30
  -2 -19   1  101.79   14.30
   2  19   1  102.09   14.90
 -19   2   1   90.09   16.60
   2  19   1  135.39   17.70
  19  -2   1   87.19   13.70
   4  19  -1   31.70   14.90
  -4 -19  -1   41.00   12.10
  19  -4  -1   17.70   11.90
  -4 -19  -1   27.30   14.10
  19  -4  -1   34.00   13.50
  -4 -19  -1   45.60   18.50
   4  19  -1   14.30   11.70
   4  19  -1   18.40   15.70
   4  19   1   28.00   14.50
  19  -4   1   35.90   12.90
 -19   4   1   22.80   15.70
 -19   4   1   22.70   14.40
   4  19   1   33.30   15.90
  -4 -19   1   52.09   13.90
   4  19   1   38.40   14.40
  -4 -19   1   30.90   12.50
  -6 -19  -1  278.27   26.90
  19  -6  -1  288.37   23.00
  -6 -19  -1  260.87   24.90
  -6 -19  -1  291.17   25.30
   6  19  -1  274.67   28.80
 -19   6  -1  281.27   25.50
   6  19  -1  269.77   28.00
  19  -6  -1  255.07   24.70
   6  19  -1  268.47   22.60
 -19   6   1  254.77   27.90
   6  19   1  305.07   27.60
  -6 -19   1  302.47   26.30
 -19   6   1  307.87   27.60
 -19   6   1  316.37   26.60
   6  19   1  262.07   30.00
   6  19   1  299.87   25.30
  19  -6   1  273.17   25.70
  -6 -19   1  323.67   24.50
  19  -8  -1  237.78   26.10
   8  19  -1  281.27   22.90
  -8 -19  -1  232.98   28.10
 -19   8  -1  309.57   27.30
  -8 -19  -1  265.77   28.40
  -8 -19  -1  290.47   27.70
   8  19  -1  290.77   29.50
 -19   8   1  308.77   28.70
  -8 -19   1  240.28   24.60
  -8 -19   1  273.57   29.10
   8  19   1  291.47   28.60
  -8 -19   1  279.77   27.50
   8  19   1  216.38   25.00
   8  19   1  299.47   31.20
  19  -8   1  230.48   26.90
 -20  -5  -1  177.88   21.00
  -5  20  -1  169.58   20.20
  20   5  -1  193.78   25.50
  20   5  -1  204.38   23.30
 -20  -5  -1  160.18   20.40
  20   5   1  156.68   17.20
  -5  20   1  154.08   19.90
   5 -20   1  145.79   16.60
  20   5   1  138.49   17.30
 -20  -5   1  174.48   17.60
 -20  -5   1  150.58   20.40
  20   3  -1   15.00   13.00
  -3  20  -1   15.10   17.80
  20   3  -1   26.00   14.20
  -3  20  -1   -6.50   14.40
 -20  -3  -1   18.20   17.30
 -20  -3  -1   -0.70   16.60
  20   3   1   -1.80   13.70
  20   3   1    3.80   13.20
   3 -20   1    4.00   13.50
 -20  -3   1    3.50   16.30
  -3  20   1    5.50   16.30
 -20  -3   1   16.80   14.60
  -1  20  -1  680.03   33.50
  -1  20  -1  704.83   34.60
  20   1  -1  666.93   33.80
  20   1  -1  673.53   33.50
  -1  20  -1  677.93   37.80
 -20  -1  -1  723.93   38.80
 -20  -1  -1  745.63   37.10
   1 -20   1  672.93   32.70
 -20  -1   1  676.43   37.30
 -20  -1   1  628.64   34.60
  20   1   1  673.53   34.80
   1 -20   1  710.63   35.50
  20   1   1  650.83   33.40
  -1  20   1  707.33   36.90
 -20   1  -1   97.29   19.30
  -1 -20  -1   40.60   13.90
   1  20  -1   84.09   14.20
   1  20  -1   53.69   17.90
 -20   1  -1   77.69   17.20
  20  -1  -1   65.19   14.70
  20  -1  -1   61.19   15.10
   1  20  -1   54.69   15.90
  20  -1   1   62.69   14.50
 -20   1   1   75.19   16.70
  20  -1   1   63.19   21.80
  -1 -20   1   31.70   13.90
 -20   1   1   88.99   18.00
  -1 -20   1   79.89   16.20
   1  20   1   83.29   14.90
   1  20   1   90.59   18.10
  20  -3  -1  152.48   17.40
  -3 -20  -1  186.28   16.70
   3  20  -1  217.08   26.70
   3  20  -1  193.88   22.90
   3  20  -1  215.08   21.60
  20  -3  -1  214.38   24.90
 -20   3   1  206.78   27.80
   3  20   1  202.18   22.00
  -3 -20   1  148.99   17.60
   3  20   1  234.58   25.60
  -3 -20   1  187.58   24.80
  20  -3   1  243.48   24.90
 -20   3   1  214.48   21.10
   5  20  -1    4.70   13.70
 -20   5  -1   42.30   19.60
  20  -5  -1   19.00   13.90
   5  20  -1  -12.90   16.70
  -5 -20  -1   11.20   13.40
   5  20  -1    9.90   17.80
 -20   5   1   10.80   17.20
 -20   5   1   -2.00   16.60
  -5 -20   1  -12.30   14.10
   5  20   1   38.90   17.00
   5  20   1   15.90   18.90
  -5 -20   1    8.40   16.30
  20  -5   1   15.10   13.60
 -20   5   1  -12.20   14.70
   0   0  -2 9774.12  289.17
   0   0  -2 9999.00  291.67
   0   0  -2 9836.72  288.57
   0   0  -2 9285.07  289.67
   0   0  -2 9879.11  288.67
   0   0  -2 9682.83  288.97
   0   0  -2 9142.89  289.67
   0   0   2 9042.79  274.37
   0   0   2 9734.73  275.87
   0   0   2 8484.45  275.67
   0   0   2 9334.27  275.37
   0   0   2 9784.82  274.47
   0   0   2 8801.92  275.67
  -1   1  -2   76.59    3.40
   1  -1  -2   75.69    3.30
  -1   1  -2   73.49    3.80
  -1  -1  -2   81.49    3.70
  -1  -1  -2   76.19    3.80
   1  -1  -2   75.19    3.30
   1   1  -2   82.69    3.90
   1   1  -2   79.19    3.90
  -1   1  -2   77.19    3.50
  -1  -1  -2   73.79    3.80
  -1   1  -2   80.19    4.10
   1  -1  -2   77.89    4.00
   1   1  -2   79.59    4.20
  -1  -1  -2   76.19    3.60
  -1   1  -2   80.99    3.40
  -1  -1  -2   81.99    3.90
   1   1  -2   82.19    4.50
  -1   1  -2   78.59    4.20
   1  -1  -2   80.19    3.30
   1  -1  -2   70.89    4.00
  -1  -1   2   74.49    3.80
  -1  -1   2   78.29    3.70
   1  -1   2   80.69    3.90
  -1   1   2   78.19    2.90
   1   1   2   79.29    4.50
   1  -1   2   82.59    3.40
  -1   1   2   80.19    3.50
  -1  -1   2   74.49    2.90
  -1   1   2   79.79    3.00
   1  -1   2   77.69    3.90
  -1  -1   2   76.19    2.80
  -1   1   2   78.89    3.10
   1   1   2   69.79    3.70
   1   1   2   68.59    4.60
   1  -1   2   83.89    3.80
   1   1   2   74.29    3.50
   1   1   2   78.29    3.90
  -1   1   2   81.09    4.30
   1  -1   2   80.09    4.80
  -1   1   2   77.79    3.40
   1   1   2   80.89    3.60
   1  -1   2   84.39    3.20
   0   2  -2  644.64   21.80
   0   2  -2  710.33   20.60
  -2   0  -2  645.34   21.30
  -2   0  -2  679.13   21.60
   0  -2  -2  687.53   21.40
   0  -2  -2  681.13   21.40
   0  -2  -2  659.83   21.20
   0   2  -2  691.93   21.40
   0  -2  -2  676.03   21.10
   2   0  -2  669.93   21.50
  -2   0  -2  655.73   20.90
   0   2  -2  664.83   21.70
  -2   0  -2  654.63   21.40
   0  -2  -2  690.13   20.30
   2   0  -2  675.33   20.80
   2   0  -2  668.83   21.30
  -2   0  -2  700.13   21.20
   0   2  -2  664.93   20.60
   0   2  -2  679.83   20.80
   0   2   2  632.84   21.40
  -2   0   2  697.03   20.30
   0   2   2  642.24   21.00
   0  -2   2  651.53   20.60
   0  -2   2  655.63   21.10
   2   0   2  675.83   22.00
  -2   0   2  665.63   21.30
   2   0   2  683.03   20.80
  -2   0   2  698.23   20.60
   2   0   2  648.24   20.80
   0   2   2  684.13   20.80
   0   2   2  655.03   21.50
   0   2   2  681.13   20.20
   0  -2   2  662.13   20.60
   0   2   2  678.03   21.00
  -2   0   2  685.43   20.30
   2   0   2  675.23   21.10
  -2   0   2  653.53   21.30
   2   0   2  666.33   21.20
   2   0   2  667.13   21.10
  -2  -2  -2  207.58    8.00
  -2   2  -2  258.17    8.30
   2   2  -2  183.98    7.80
  -2   2  -2  240.28    8.30
   2   2  -2  195.88    8.10
  -2  -2  -2  193.98    8.00
  -2  -2  -2  187.08    8.10
  -2   2  -2  253.07    8.00
   2   2  -2  184.38    8.10
   2   2  -2  196.28    7.90
  -2  -2  -2  194.78    8.10
   2  -2  -2  268.87    8.60
  -2  -2  -2  186.28    7.80
   2  -2  -2  262.87    7.70
   2  -2  -2  261.87    7.80
   2   2  -2  183.08    8.40
   2  -2  -2  243.08    8.10
   2  -2  -2  263.67    7.80
   2  -2   2  187.88    8.20
   2  -2   2  182.88    7.50
   2  -2   2  198.08    7.50
  -2   2   2  194.28    7.20
  -2   2   2  194.98    7.70
  -2   2   2  184.08    6.70
  -2   2   2  192.68    6.20
  -2   2   2  203.08    7.10
   2  -2   2  204.38    6.30
   2  -2   2  194.78    7.00
  -2   2   2  192.78    7.00
   2  -2   2  193.28    7.40
  -2   2   2  191.68    7.90
  -1   3  -2  703.13   21.30
  -1   3  -2  683.23   20.80
   1  -3  -2  690.73   21.00
   3   1  -2  650.53   21.30
   3   1  -2  638.74   21.00
  -1   3  -2  676.03   20.50
  -1   3  -2  645.34   21.80
   1  -3  -2  705.53   21.10
  -3  -1  -2  664.63   21.00
   1  -3  -2  639.14   21.20
  -3  -1  -2  633.04   21.00
  -3  -1  -2  662.93   21.20
  -3  -1  -2  635.44   21.10
   3   1  -2  627.04   21.40
   3   1  -2  634.64   21.00
  -1   3  -2  693.63   21.60
   3   1  -2  629.44   21.30
  -1   3  -2  730.43   20.80
  -3  -1  -2  616.44   21.30
  -1   3   2  639.14   21.10
   3   1   2  669.13   20.90
   1  -3   2  622.64   19.70
   1  -3   2  635.24   20.30
   3   1   2  673.53   20.50
   3   1   2  673.03   20.90
   3   1   2  660.93   20.80
  -1   3   2  609.54   20.50
  -1   3   2  626.24   20.50
  -1   3   2  622.34   20.50
   3   1   2  682.93   21.60
   1  -3   2  613.34   20.40
   1  -3   2  640.04   19.50
   1  -3   2  635.14   20.70
  -1   3   2  643.34   20.30
  -1   3   2  647.34   21.00
   3   1   2  656.13   20.70
   1   3  -2  205.98    9.30
  -1  -3  -2  209.28    8.70
  -1  -3  -2  211.38    8.00
  -3   1  -2  278.97    9.00
   1   3  -2  215.38    8.20
   3  -1  -2  284.47    9.30
  -1  -3  -2  208.48    8.70
  -3   1  -2  268.67    8.80
   1   3  -2  211.88    8.40
   3  -1  -2  279.87    8.00
  -3   1  -2  276.17    9.00
  -3   1  -2  266.77    9.10
  -1  -3  -2  214.48    8.60
   1   3  -2  214.18    8.60
  -3   1  -2  280.77    9.00
  -1  -3  -2  213.68    8.50
  -1  -3  -2  209.68    8.80
  -3   1  -2  279.37    8.00
   1   3  -2  212.48    9.00
  -1  -3   2  265.67    8.10
  -3   1   2  211.98    7.50
   3  -1   2  209.68    8.00
   3  -1   2  210.38    8.40
  -3   1   2  199.78    7.70
   3  -1   2  200.88    8.50
  -3   1   2  211.28    8.20
   3  -1   2  204.18    7.60
  -3   1   2  201.28    7.70
  -3   1   2  209.18    7.40
   1   3   2  264.67    8.50
   1   3   2  267.67    8.10
  -3   1   2  203.08    8.50
   3  -1   2  199.08    8.90
  -3  -3  -2 1810.32   54.19
  -3   3  -2 1791.62   54.49
   3  -3  -2 1766.62   53.09
   3  -3  -2 1751.72   53.89
  -3   3  -2 1788.72   54.39
   3   3  -2 1802.62   54.69
  -3  -3  -2 1699.33   53.69
  -3  -3  -2 1709.83   54.29
  -3   3  -2 1795.02   54.09
  -3  -3  -2 1734.73   54.29
   3   3  -2 1792.22   54.19
   3  -3  -2 1764.32   53.39
   3   3  -2 1750.72   54.19
  -3   3  -2 1725.83   54.39
   3  -3  -2 1834.52   53.79
   3   3  -2 1741.83   53.69
   3   3  -2 1766.92   54.09
   3  -3  -2 1819.22   54.49
   3   3   2 1755.52   53.59
   3  -3   2 1739.93   52.49
  -3   3   2 1715.03   52.19
  -3   3   2 1709.63   52.49
   3  -3   2 1704.93   52.99
   3   3   2 1723.73   52.39
   3  -3   2 1706.43   52.99
  -3   3   2 1756.82   53.29
  -3   3   2 1721.13   52.99
   3  -3   2 1685.93   53.39
  -3   3   2 1697.73   51.79
  -3   3   2 1686.53   52.59
   3   3   2 1725.53   52.99
   3  -3   2 1697.93   52.99
  -3   3   2 1773.02   51.99
   3   3   2 1671.63   52.99
   3   3   2 1810.92   52.69
   2  -4  -2  199.18    5.90
   4   2  -2  173.08    7.20
  -4  -2  -2  163.28    7.60
   2  -4  -2  201.78    5.80
   4   2  -2  149.39    6.90
  -4  -2  -2  169.28    7.00
  -2   4  -2  201.08    7.60
  -4  -2  -2  175.98    7.80
  -2   4  -2  199.98    8.20
   4   2  -2  150.28    7.60
   2  -4  -2  197.58    7.50
   4   2  -2  156.18    7.50
  -4  -2  -2  162.78    7.40
  -2   4  -2  193.08    8.40
  -2   4  -2  194.28    7.80
  -2   4  -2  195.38    7.20
   2  -4  -2  194.18    7.40
   4   2  -2  164.28    7.00
  -2   4   2  152.28    7.70
   2  -4   2  159.88    6.90
  -2   4   2  155.28    7.20
   4   2   2  194.78    7.40
   2  -4   2  153.28    7.50
  -2   4   2  158.08    6.60
   2  -4   2  155.08    7.20
   2  -4   2  160.08    7.00
  -2   4   2  169.18    7.00
   4   2   2  195.88    7.60
   4   2   2  184.98    8.20
  -2   4   2  150.48    7.50
   4   2   2  200.98    7.40
   4   2   2  191.58    7.20
  -2   4   2  165.08    7.10
  -4   0  -2 1540.65   49.40
  -4   0  -2 1653.03   48.90
   0  -4  -2 1581.04   49.40
   0   4  -2 1530.75   48.80
   0  -4  -2 1555.24   49.20
  -4   0  -2 1631.24   49.20
   0   4  -2 1554.64   49.60
   0   4  -2 1587.34   48.50
   0   4  -2 1633.64   49.10
   4   0  -2 1646.64   48.20
   4   0  -2 1695.43   48.80
  -4   0  -2 1629.54   49.20
   4   0  -2 1544.95   49.50
   0  -4  -2 1628.04   48.10
   4   0  -2 1593.14   48.10
   0   4  -2 1578.64   49.90
   4   0  -2 1690.43   48.90
  -4   0  -2 1546.65   49.20
   0  -4  -2 1629.84   49.10
   0  -4  -2 1601.94   49.10
   0  -4   2 1565.84   47.10
  -4   0   2 1517.45   47.90
   4   0   2 1363.26   48.50
   0   4   2 1635.84   48.00
   0  -4   2 1604.34   46.90
   0   4   2 1548.74   47.70
   0  -4   2 1624.54   48.00
   0   4   2 1561.14   46.60
   0   4   2 1597.04   47.60
   4   0   2 1504.85   48.00
   0   4   2 1570.84   47.90
   0   4   2 1592.54   48.00
  -4   0   2 1553.94   46.90
   0  -4   2 1551.44   47.70
   0   4   2 1538.75   48.20
   4   0   2 1584.54   48.20
  -4   0   2 1550.64   47.20
   4   0   2 1538.35   48.60
  -4   0   2 1552.44   47.50
  -4   0   2 1516.65   46.80
   4   0   2 1506.95   48.00
   0  -4   2 1608.34   46.90
   2   4  -2 5117.19  146.69
   2   4  -2 4780.92  145.49
  -4   2  -2 4734.83  146.29
  -4   2  -2 4998.80  144.99
  -2  -4  -2 4805.12  146.09
  -2  -4  -2 4611.94  145.49
  -4   2  -2 4820.22  146.19
   4  -2  -2 4748.82  145.39
   4  -2  -2 4699.13  145.19
  -4   2  -2 4745.62  145.99
   4  -2  -2 4964.10  145.19
  -2  -4  -2 4995.10  146.19
   4  -2  -2 4885.41  146.29
   2   4  -2 4752.72  146.09
  -4   2  -2 4897.41  146.09
   4  -2  -2 5003.10  145.59
  -4   2  -2 5027.50  144.99
  -4   2  -2 4974.60  146.09
   2   4  -2 4612.44  145.89
  -2  -4  -2 4992.90  145.89
  -2  -4   2 4934.51  144.49
   2   4   2 4630.34  144.69
   2   4   2 4660.73  145.49
  -4   2   2 4746.83  144.69
  -4   2   2 4582.94  144.99
  -2  -4   2 4824.22  144.39
  -4   2   2 4895.81  144.99
  -4   2   2 4831.42  145.39
   2   4   2 4846.42  145.79
   4  -2   2 4887.81  145.69
  -2  -4   2 4920.11  145.29
   2   4   2 4830.22  146.09
  -4   2   2 4762.82  144.39
   4  -2   2 4634.34  145.99
  -4   2   2 5030.20  145.89
   4  -2   2 4767.92  145.79
   2   4   2 5082.39  145.29
   4  -2   2 4821.72  145.79
   4  -2   2 5142.39  145.39
  -4   2   2 4977.30  144.29
   4   4  -2  119.99    5.70
   4  -4  -2   81.19    4.10
   4  -4  -2   98.19    5.80
  -4  -4  -2  119.79    4.80
   4  -4  -2   84.89    4.50
   4  -4  -2   85.59    5.90
  -4   4  -2   83.29    6.00
   4  -4  -2   93.99    6.00
  -4  -4  -2  114.79    5.90
  -4   4  -2   89.99    6.70
  -4   4  -2   89.09    6.00
  -4  -4  -2  112.99    6.10
  -4   4  -2   81.79    6.40
  -4   4  -2   82.79    5.80
   4   4  -2  115.69    6.40
  -4  -4  -2  126.29    6.40
   4  -4  -2   89.59    5.20
   4   4  -2  117.39    4.90
  -4   4   2  113.69    5.90
  -4   4   2  121.69    5.80
  -4   4   2  110.59    5.40
  -4  -4   2   83.89    3.80
  -4   4   2  116.29    6.80
   4   4   2   88.69    6.30
   4  -4   2  129.39    6.90
  -4   4   2  123.29    6.40
  -4   4   2  121.89    6.40
   4   4   2   75.29    6.10
   4   4   2   90.69    5.40
  -4  -4   2   89.79    6.50
   4   4   2   79.09    5.70
   4  -4   2  115.09    7.70
   4  -4   2  118.79    6.50
  -4   4   2  118.29    4.10
   4  -4   2  121.09    6.40
   3  -5  -2  600.44   19.00
  -5  -3  -2  561.44   19.20
  -3   5  -2  553.34   19.00
   5   3  -2  543.95   19.40
   5   3  -2  593.14   18.60
  -5  -3  -2  575.04   19.30
   3  -5  -2  575.74   19.00
   5   3  -2  591.24   18.40
   3  -5  -2  602.24   19.50
  -5  -3  -2  569.74   18.20
  -3   5  -2  531.95   19.50
  -5  -3  -2  597.74   19.50
  -3   5  -2  571.24   19.90
   3  -5  -2  560.74   19.10
   3  -5  -2  552.14   19.20
  -3   5  -2  561.14   19.40
   5   3  -2  567.64   19.00
  -3   5  -2  528.25   19.60
   3  -5  -2  571.14   17.80
  -3   5  -2  574.04   19.30
   5   3  -2  567.54   19.30
  -3   5   2  565.04   19.10
   3  -5   2  561.14   19.70
  -5  -3   2  573.84   17.30
   5   3   2  576.14   19.30
   5   3   2  554.74   19.10
  -3   5   2  584.94   19.10
   5   3   2  560.24   20.00
  -3   5   2  558.54   19.60
   3  -5   2  578.64   18.70
  -5  -3   2  544.45   17.40
  -3   5   2  566.74   18.60
   3  -5   2  546.05   19.20
   5   3   2  556.04   18.90
   5   3   2  541.85   18.90
  -3   5   2  568.14   19.50
  -3   5   2  581.04   18.00
   3  -5   2  573.84   19.00
  -1   5  -2   57.79    4.30
  -5  -1  -2   57.09    4.20
  -1   5  -2   49.99    4.50
   1  -5  -2   53.89    5.40
  -1   5  -2   56.69    4.40
   5   1  -2   55.99    2.60
  -1   5  -2   51.49    5.00
   1  -5  -2   54.59    2.80
   5   1  -2   55.69    4.40
   5   1  -2   54.79    2.50
   5   1  -2   58.89    4.90
   1  -5  -2   57.69    4.50
   1  -5  -2   55.79    4.40
  -5  -1  -2   57.59    5.00
   1  -5  -2   57.59    4.50
   1  -5  -2   54.89    2.80
  -1   5  -2   56.69    5.20
  -5  -1  -2   56.19    5.20
  -5  -1  -2   55.79    4.30
  -1   5  -2   54.09    3.70
   5   1  -2   56.99    4.20
   1  -5   2   50.29    3.70
  -1   5   2   56.59    4.40
   1  -5   2   52.79    2.90
  -5  -1   2   54.29    2.90
  -1   5   2   48.90    5.50
   1  -5   2   54.49    5.30
  -5  -1   2   63.29    3.90
  -1   5   2   60.19    4.60
   5   1   2   50.89    4.40
   1  -5   2   56.89    2.50
  -1   5   2   61.09    5.10
   1  -5   2   52.59    5.80
  -1   5   2   52.19    4.90
  -5  -1   2   59.09    4.60
   5   1   2   54.49    5.50
   5   1   2   56.79    4.70
   5   1   2   52.89    5.20
   5   1   2   52.99    4.90
  -5  -1   2   54.49    3.00
  -1   5   2   47.20    5.10
   1  -5   2   56.39    4.60
  -5   1  -2 1101.59   34.40
  -5   1  -2 1079.89   34.80
   5  -1  -2 1030.00   35.10
   5  -1  -2 1074.79   35.40
   5  -1  -2 1071.89   34.20
   5  -1  -2 1139.19   34.50
  -1  -5  -2 1123.79   35.20
   1   5  -2 1193.98   34.30
  -1  -5  -2 1157.08   35.20
  -5   1  -2 1120.99   35.10
   1   5  -2 1095.19   35.70
  -5   1  -2 1147.39   35.40
  -1  -5  -2 1135.29   34.90
  -1  -5  -2 1135.89   34.20
  -5   1  -2 1059.89   35.40
   1   5  -2 1122.99   34.00
   1   5  -2 1128.29   34.70
   1   5  -2 1179.58   35.60
   1   5   2 1100.39   35.20
   5  -1   2 1144.19   35.30
   5  -1   2 1132.19   35.60
   1   5   2 1077.99   35.30
   1   5   2 1056.49   34.60
   1   5   2 1093.69   34.60
   1   5   2 1102.59   34.90
  -5   1   2 1149.78   35.10
  -5   1   2 1102.89   34.10
   5  -1   2 1095.79   35.20
  -5   1   2 1080.29   34.40
  -1  -5   2 1040.60   33.80
   1   5   2 1091.19   33.70
  -1  -5   2 1140.69   34.30
  -5   1   2 1171.28   34.40
   5  -1   2 1136.19   34.80
  -1  -5   2 1087.29   34.10
  -1  -5   2 1116.49   35.00
  -5   1   2 1129.09   33.60
  -5   3  -2  980.40   33.00
   3   5  -2 1052.79   31.30
  -3  -5  -2 1038.80   32.90
   5  -3  -2 1048.10   32.10
  -5   3  -2 1044.20   31.40
   3   5  -2 1027.80   31.80
   5  -3  -2 1020.50   32.20
   3   5  -2  996.90   32.60
  -3  -5  -2 1059.39   32.60
   3   5  -2 1032.10   33.20
  -5   3  -2  996.10   33.70
  -3  -5  -2 1038.50   31.80
   3   5  -2 1032.10   32.80
  -5   3  -2 1050.69   31.40
   3   5  -2 1036.00   31.10
  -3  -5  -2 1028.10   32.80
  -5   3  -2  987.40   32.50
  -5   3  -2 1045.00   33.00
   5  -3  -2 1000.70   32.90
   5  -3  -2 1032.10   31.90
  -3  -5   2 1013.60   30.80
   3   5   2 1032.30   31.40
  -5   3   2  994.90   31.80
   3   5   2 1021.40   32.00
   3   5   2  999.90   32.30
   3   5   2  965.70   32.90
  -5   3   2  989.50   32.60
  -3  -5   2  989.20   32.00
  -5   3   2 1036.80   31.90
  -5   3   2  989.80   31.30
   5  -3   2  982.10   32.70
   5  -3   2 1032.70   32.70
   5  -3   2 1027.90   32.50
   5  -3   2  992.20   33.70
   3   5   2 1019.60   32.50
  -3  -5   2 1036.10   31.00
  -5   3   2 1047.30   32.00
   5  -5  -2 2274.57   68.29
   5   5  -2 2356.76   67.19
   5   5  -2 2289.47   68.89
  -5  -5  -2 2268.87   68.39
  -5  -5  -2 2243.98   66.99
   5   5  -2 2215.58   66.59
   5   5  -2 2147.59   68.09
  -5   5  -2 2159.08   68.39
   5   5  -2 2242.58   67.89
  -5   5  -2 2181.28   68.49
  -5   5  -2 2231.08   66.39
   5  -5  -2 2225.48   68.89
   5  -5  -2 2069.59   68.29
   5  -5  -2 2180.68   67.29
   5   5  -2 2177.98   66.59
  -5   5  -2 2247.08   68.69
   5  -5  -2 2218.28   68.09
  -5  -5  -2 2206.28   68.49
  -5   5  -2 2173.68   68.69
  -5  -5  -2 2155.98   68.19
  -5   5  -2 2312.87   66.29
   5   5   2 2228.28   69.09
   5   5   2 2229.18   67.79
  -5   5   2 2221.38   68.09
   5  -5   2 2209.38   68.49
   5  -5   2 2109.79   68.19
  -5   5   2 2267.07   67.49
   5   5   2 2244.58   67.59
  -5   5   2 2247.68   68.09
   5   5   2 2221.08   67.99
  -5  -5   2 2132.79   68.29
  -5   5   2 2213.18   68.79
  -5  -5   2 2202.48   66.49
   5  -5   2 2218.58   68.29
  -5   5   2 2191.28   68.09
   5  -5   2 2277.07   67.99
   5   5   2 2244.58   68.19
  -5  -5   2 2099.49   66.49
  -4   6  -2  632.24   22.20
  -4   6  -2  586.64   20.10
  -6  -4  -2  580.14   18.80
   6   4  -2  577.74   18.40
  -6  -4  -2  581.24   20.20
   4  -6  -2  599.24   18.90
   4  -6  -2  603.94   20.20
  -4   6  -2  570.74   20.50
  -4   6  -2  594.04   20.60
  -4   6  -2  615.04   20.60
   6   4  -2  580.84   20.00
   4  -6  -2  586.04   20.20
   6   4  -2  579.34   19.30
   4  -6  -2  561.94   19.00
   6   4  -2  588.94   18.30
  -6  -4  -2  581.34   20.40
   4  -6  -2  600.74   19.90
   6   4  -2  581.14   20.40
  -6  -4  -2  581.64   20.40
   4  -6   2  558.04   20.10
   6   4   2  604.54   19.80
  -6  -4   2  587.54   18.20
   6   4   2  620.74   20.30
  -6  -4   2  572.64   20.80
   6   4   2  590.44   19.80
  -4   6   2  569.54   20.00
  -4   6   2  584.14   19.70
   4  -6   2  590.24   20.60
  -4   6   2  555.74   20.20
  -4   6   2  588.34   18.30
  -6  -4   2  585.24   18.90
   4  -6   2  562.54   19.90
  -4   6   2  533.25   20.60
   6   4   2  585.04   21.10
   4  -6   2  533.35   21.30
   6   4   2  603.14   19.70
   4  -6   2  562.64   19.60
  -2   6  -2 1843.82   56.49
   6   2  -2 1848.52   55.19
   6   2  -2 1879.01   56.59
  -6  -2  -2 1833.62   56.09
   2  -6  -2 1875.41   55.29
   6   2  -2 1819.22   57.19
  -2   6  -2 1802.22   57.29
   6   2  -2 1794.92   55.79
  -2   6  -2 1837.92   56.39
   2  -6  -2 1846.12   56.79
   6   2  -2 1852.71   55.29
   6   2  -2 1862.41   56.59
   2  -6  -2 1830.52   55.39
  -2   6  -2 1769.72   57.19
  -2   6  -2 1864.61   56.59
  -2   6  -2 1871.41   56.79
  -6  -2  -2 1791.52   56.89
  -6  -2  -2 1900.01   56.99
  -6  -2  -2 1841.32   56.79
   2  -6  -2 1758.72   56.79
   6   2   2 1856.91   55.59
   6   2   2 1749.82   56.49
  -2   6   2 1797.52   55.79
  -6  -2   2 1791.52   54.49
   2  -6   2 1729.03   55.69
   2  -6   2 1762.62   54.89
   6   2   2 1741.53   55.79
   2  -6   2 1823.22   55.99
  -2   6   2 1788.32   55.09
  -6  -2   2 1779.62   54.29
  -2   6   2 1805.32   56.39
   2  -6   2 1818.02   55.49
  -6  -2   2 1835.22   55.69
  -2   6   2 1816.92   56.09
   6   2   2 1792.02   55.99
   6   2   2 1923.91   55.39
   6   0  -2  752.72   22.20
   6   0  -2  682.23   21.50
   0   6  -2  683.63   22.00
  -6   0  -2  678.53   22.20
   0   6  -2  674.23   22.10
   0  -6  -2  677.93   22.40
   0   6  -2  663.53   23.00
   0   6  -2  670.13   23.10
   6   0  -2  626.34   22.70
  -6   0  -2  661.93   22.70
   0  -6  -2  667.23   22.20
   0   6  -2  674.13   21.60
  -6   0  -2  685.53   22.10
   6   0  -2  681.63   21.30
  -6   0  -2  664.93   22.70
   6   0  -2  715.43   21.50
   0  -6  -2  664.43   22.50
   0  -6  -2  685.23   21.20
   0   6   2  677.53   22.10
   0  -6   2  645.04   21.00
   6   0   2  657.13   21.50
  -6   0   2  653.73   22.10
   0  -6   2  633.54   22.30
   0   6   2  668.13   22.10
  -6   0   2  628.84   21.00
  -6   0   2  663.03   21.20
   0   6   2  679.13   21.80
   0  -6   2  685.43   22.20
   0  -6   2  654.93   21.10
   0   6   2  678.93   22.60
   6   0   2  672.33   22.00
  -6   0   2  644.74   21.00
   0  -6   2  688.33   20.70
   0   6   2  668.43   22.10
   6   0   2  702.33   22.90
   6   0   2  647.64   22.30
   6   0   2  650.63   22.40
   2   6  -2  177.18    6.70
   2   6  -2  154.88    6.10
  -6   2  -2  164.28    8.30
   6  -2  -2  164.28    6.80
   6  -2  -2  164.88    8.10
   6  -2  -2  169.58    7.50
   2   6  -2  149.88    7.60
  -2  -6  -2  151.08    7.80
   2   6  -2  145.69    8.40
  -6   2  -2  160.98    8.90
  -2  -6  -2  153.18    7.80
   2   6  -2  162.08    6.90
   2   6  -2  171.08    8.20
   6  -2  -2  168.48    7.20
  -6   2  -2  169.98    6.90
  -6   2  -2  155.38    7.90
  -6   2  -2  168.08    7.50
  -6   2   2  149.69    7.60
  -6   2   2  160.38    7.00
  -6   2   2  143.29    8.10
  -2  -6   2  163.98    7.00
   6  -2   2  148.09    8.10
   6  -2   2  149.99    8.10
   2   6   2  170.68    8.40
   2   6   2  167.78    7.30
   2   6   2  158.18    8.20
   2   6   2  168.58    6.50
   6  -2   2  152.58    8.50
  -2  -6   2  157.78    6.90
   6  -2   2  151.88    8.20
  -6   2   2  154.98    7.00
  -2  -6   2  160.68    6.20
  -4  -6  -2  167.48    8.70
  -6   4  -2  182.18    9.00
  -6   4  -2  201.48    9.50
   4   6  -2  165.78    9.10
  -6   4  -2  188.98    7.60
   4   6  -2  172.78    8.50
   6  -4  -2  177.38   12.20
  -4  -6  -2  169.48    8.60
   6  -4  -2  174.48    8.00
   6  -4  -2  161.68    8.70
   6  -4  -2  194.58    9.10
   6  -4  -2  183.78    7.70
   4   6  -2  173.78    6.60
   4   6  -2  169.08    7.00
  -6   4  -2  184.48    8.30
  -4  -6  -2  176.78    8.70
  -6   4  -2  189.88    7.00
   4   6  -2  164.28    8.30
   4   6  -2  175.38    6.80
  -6   4  -2  171.08    9.10
   6  -4   2  159.68    9.10
   4   6   2  179.68    8.90
   6  -4   2  177.08    8.90
   4   6   2  176.08    8.30
   6  -4   2  167.18    8.70
   4   6   2  177.28    7.50
  -6   4   2  156.98    9.40
   4   6   2  186.58    9.10
  -4  -6   2  174.08    6.60
   6  -4   2  170.18    8.80
  -4  -6   2  177.78    6.90
  -6   4   2  156.68    8.10
   4   6   2  165.08    9.40
  -6   4   2  161.48    8.10
  -6   4   2  157.18    8.10
  -6   4   2  178.58    9.50
   4   6   2  184.38    7.30
  -4  -6   2  177.08    8.40
  -6   6  -2  243.48    8.70
   6  -6  -2  245.28   11.30
  -6   6  -2  236.48   11.00
   6   6  -2  261.97   10.40
  -6  -6  -2  232.88   10.90
  -6  -6  -2  251.37   11.40
  -6   6  -2  229.78   11.90
  -6  -6  -2  263.87   11.40
   6   6  -2  266.47    9.10
  -6  -6  -2  256.07    8.80
   6  -6  -2  236.78    9.80
   6  -6  -2  244.68   10.80
   6   6  -2  246.98   11.90
   6   6  -2  243.58    8.90
  -6   6  -2  244.48    8.70
  -6   6  -2  242.68   12.70
   6   6  -2  244.78   11.10
   6   6  -2  247.08    8.90
   6   6   2  240.98   10.70
   6   6   2  247.58   11.20
  -6  -6   2  221.98    8.90
   6   6   2  229.48   12.30
   6   6   2  237.68   10.10
  -6   6   2  238.38   10.70
   6  -6   2  261.87   11.70
   6  -6   2  252.97   11.10
   6  -6   2  234.88   11.30
  -6   6   2  241.08   12.50
  -6   6   2  257.07   11.30
   6   6   2  232.48   11.60
  -6   6   2  247.88   11.20
  -6  -6   2  245.28    9.00
  -6  -6   2  228.58   11.20
   6  -6   2  249.38   11.30
  -5   7  -2  357.56   15.10
  -7  -5  -2  391.26   14.90
   5  -7  -2  378.16   14.50
  -7  -5  -2  364.16   12.30
   5  -7  -2  357.26   14.10
  -7  -5  -2  359.96   14.70
   7   5  -2  354.66   14.80
   5  -7  -2  369.16   13.00
   5  -7  -2  384.56   14.50
   7   5  -2  378.56   12.50
   7   5  -2  369.26   13.20
  -5   7  -2  357.46   14.80
   7   5  -2  369.16   12.40
   7   5  -2  360.86   14.40
  -7  -5  -2  352.36   14.40
  -5   7  -2  377.36   14.50
   5  -7  -2  337.47   12.60
  -5   7  -2  370.06   15.70
   7   5   2  390.46   14.20
  -5   7   2  378.76   16.00
   5  -7   2  361.86   14.50
   7   5   2  368.26   14.20
  -7  -5   2  376.26   12.80
  -5   7   2  352.36   14.80
  -7  -5   2  368.86   15.40
   5  -7   2  349.87   14.60
   7   5   2  375.76   15.10
  -5   7   2  366.06   12.20
  -7  -5   2  373.76   13.00
  -5   7   2  373.66   14.90
   7   5   2  376.36   16.10
   7   5   2  353.86   14.20
  -7  -5   2  369.06   12.60
  -5   7   2  356.96   14.30
   5  -7   2  366.36   15.00
  -3   7  -2 1910.91   58.89
   3  -7  -2 1994.10   59.09
   3  -7  -2 1915.31   58.79
  -3   7  -2 1849.52   59.09
   7   3  -2 1847.72   57.69
   7   3  -2 1974.40   57.49
   7   3  -2 1905.81   59.59
  -7  -3  -2 1915.31   59.19
   7   3  -2 1787.42   58.79
   3  -7  -2 1860.21   58.99
   7   3  -2 1881.61   57.59
  -3   7  -2 1895.21   59.59
  -3   7  -2 1916.51   59.59
  -7  -3  -2 1871.11   59.19
  -3   7  -2 1911.61   59.29
  -7  -3  -2 1922.11   57.89
   3  -7  -2 1879.51   57.59
   7   3  -2 1896.21   58.99
  -3   7  -2 1914.31   58.99
  -7  -3  -2 1941.61   59.19
  -3   7   2 1902.41   58.19
  -3   7   2 1932.81   59.19
  -3   7   2 1854.71   59.09
   7   3   2 1874.91   58.69
  -7  -3   2 1844.42   57.29
  -3   7   2 1880.61   59.59
  -7  -3   2 1894.81   57.09
   3  -7   2 1870.31   59.19
   7   3   2 1815.32   58.69
   3  -7   2 1868.01   58.39
   3  -7   2 1880.31   58.69
   7   3   2 1918.81   57.79
  -3   7   2 1870.61   57.49
  -7  -3   2 1953.90   57.89
   3  -7   2 1884.41   57.89
   7   3   2 1843.42   58.39
   7   3   2 1910.31   59.59
  -1   7  -2 1098.79   34.70
   7   1  -2 1097.29   34.50
  -1   7  -2 1105.19   34.80
   1  -7  -2 1082.99   35.30
   1  -7  -2 1118.69   35.40
   7   1  -2 1066.49   35.70
   7   1  -2 1112.19   34.10
   7   1  -2 1159.88   35.10
  -1   7  -2 1031.70   35.80
  -7  -1  -2 1119.99   35.60
  -1   7  -2 1084.99   35.00
   1  -7  -2 1104.29   33.90
  -7  -1  -2 1113.69   34.70
   7   1  -2 1155.38   34.20
  -1   7  -2 1098.19   36.00
  -7  -1  -2 1071.49   35.50
   1  -7  -2 1113.39   35.10
  -7  -1  -2 1121.59   35.30
   1  -7   2 1046.50   33.70
   7   1   2 1124.79   34.40
  -1   7   2 1123.79   34.90
  -1   7   2 1110.39   34.80
  -1   7   2 1077.89   35.80
   7   1   2 1069.59   35.40
   7   1   2 1045.20   35.50
   7   1   2 1114.79   35.20
  -1   7   2 1113.59   35.30
   1  -7   2 1119.39   35.30
  -7  -1   2 1089.19   34.10
  -7  -1   2 1100.89   33.80
   7   1   2 1116.29   36.00
  -7  -1   2 1048.50   34.10
   1  -7   2 1088.49   34.50
  -1   7   2 1115.79   35.40
  -7  -1   2 1150.28   35.00
   1  -7   2 1086.59   35.20
   1  -7   2 1112.79   33.40
  -1  -7  -2  443.96   15.80
   7  -1  -2  444.26   14.90
  -7   1  -2  458.35   15.50
  -1  -7  -2  426.16   15.90
   1   7  -2  418.76   15.00
   1   7  -2  441.66   15.20
   7  -1  -2  450.85   14.40
   7  -1  -2  458.65   15.40
   1   7  -2  418.06   16.30
   1   7  -2  429.76   14.70
   7  -1  -2  482.45   15.40
  -7   1  -2  452.25   16.70
   7  -1  -2  426.06   16.20
  -1  -7  -2  424.96   15.90
  -7   1  -2  440.16   15.90
  -7   1  -2  446.36   15.10
   1   7  -2  413.86   16.50
  -7   1  -2  449.56   16.40
   1   7   2  451.15   15.50
   1   7   2  446.26   16.60
   7  -1   2  428.66   16.50
   1   7   2  448.06   15.50
  -7   1   2  424.26   14.50
  -7   1   2  414.06   14.00
   1   7   2  445.76   16.00
   7  -1   2  434.46   16.40
   1   7   2  449.16   14.40
   1   7   2  455.95   16.30
   7  -1   2  427.46   16.10
  -1  -7   2  473.05   14.70
  -7   1   2  427.36   15.10
  -7   1   2  422.26   16.10
  -1  -7   2  438.16   15.50
  -1  -7   2  421.76   15.80
  -7   1   2  393.06   15.40
  -1  -7   2  450.25   14.70
   7  -1   2  429.56   16.20
   3   7  -2 1925.71   63.09
   7  -3  -2 2031.10   61.99
   7  -3  -2 1918.31   62.79
   3   7  -2 2022.20   61.39
  -7   3  -2 1953.70   62.79
  -3  -7  -2 2053.29   62.59
  -3  -7  -2 2063.09   62.49
  -7   3  -2 1953.70   62.79
  -7   3  -2 2039.70   63.19
  -7   3  -2 2041.80   62.09
   3   7  -2 2018.80   61.39
   7  -3  -2 1999.50   61.99
   3   7  -2 2109.09   62.89
  -7   3  -2 2085.89   61.59
   3   7  -2 2059.19   62.59
   3   7  -2 2011.70   61.19
  -3  -7  -2 2046.80   62.79
   7  -3   2 2008.50   62.29
  -3  -7   2 1931.41   60.99
   3   7   2 1982.20   62.79
   3   7   2 2033.10   61.39
   3   7   2 1966.30   61.19
  -3  -7   2 2034.50   61.29
  -7   3   2 2020.20   62.09
  -7   3   2 2032.20   61.59
   7  -3   2 1983.90   62.59
  -7   3   2 1964.50   61.99
   3   7   2 2011.50   61.99
   3   7   2 2045.00   62.49
   3   7   2 1981.90   62.99
  -3  -7   2 1977.00   61.79
  -7   3   2 2081.19   62.89
   7  -3   2 1998.20   62.79
   7  -3   2 2111.89   62.99
   5   7  -2 1732.43   55.29
  -7   5  -2 1635.24   56.29
   7  -5  -2 1773.12   55.39
   7  -5  -2 1809.12   55.29
  -7   5  -2 1736.83   55.99
   5   7  -2 1797.32   54.09
   5   7  -2 1773.52   56.49
  -7   5  -2 1744.43   55.29
   7  -5  -2 1804.62   54.69
  -7   5  -2 1779.22   54.09
  -5  -7  -2 1756.92   55.49
   5   7  -2 1838.32   56.59
   7  -5  -2 1791.72   55.89
   5   7  -2 1842.02   54.19
   7  -5  -2 1755.52   55.79
   5   7  -2 1751.32   53.89
  -7   5  -2 1801.02   56.39
  -5  -7  -2 1832.82   55.59
  -5  -7   2 1671.63   53.19
  -7   5   2 1750.42   54.19
   5   7   2 1762.82   54.89
   5   7   2 1752.62   54.39
   5   7   2 1788.02   53.09
  -7   5   2 1742.53   54.69
   7  -5   2 1765.02   54.69
  -7   5   2 1716.53   57.19
   7  -5   2 1736.93   54.79
   7  -5   2 1743.83   55.09
   5   7   2 1700.63   56.19
  -5  -7   2 1770.02   53.19
   5   7   2 1696.03   53.79
   5   7   2 1818.82   54.89
  -7   5   2 1723.43   54.99
  -7   5   2 1667.63   53.89
  -5  -7   2 1777.92   54.69
   7   7  -2  142.29    8.90
  -7  -7  -2  147.29   10.10
  -7   7  -2  151.28   10.20
   7   7  -2  164.38    7.40
   7   7  -2  145.59    6.80
   7  -7  -2  146.69    8.20
  -7  -7  -2  154.58   10.20
   7  -7  -2  136.89    9.20
   7   7  -2  165.78   10.80
  -7   7  -2  161.48    7.20
  -7  -7  -2  152.48    9.90
  -7   7  -2  169.08   11.70
  -7   7  -2  152.08   10.00
   7   7  -2  159.68    8.50
   7  -7  -2  148.69   11.00
   7  -7  -2  129.39   10.00
  -7   7  -2  144.99    9.30
   7  -7   2  154.48    9.70
  -7   7   2  141.99   10.90
   7  -7   2  164.78   10.40
  -7  -7   2  143.09    7.10
   7   7   2  161.58   11.00
   7   7   2  135.39    9.10
   7   7   2  148.19    8.70
   7   7   2  150.38   10.80
  -7   7   2  157.28    9.70
   7   7   2  152.28    6.50
  -7   7   2  143.89   11.20
   7  -7   2  156.68    9.60
   7   7   2  143.79    9.30
  -7  -7   2  136.09    7.00
  -7  -7   2  137.99    7.20
  -7  -7   2  132.09   10.00
  -7   7   2  163.98   10.30
   7  -7   2  182.18   10.10
  -6   8  -2   41.20    5.50
  -8  -6  -2   56.89    7.90
  -8  -6  -2   52.49    6.40
   8   6  -2   58.19    4.90
  -6   8  -2   58.89    8.80
  -8  -6  -2   61.99    4.30
   6  -8  -2   47.60    6.10
  -6   8  -2   52.89    6.10
   6  -8  -2   55.29    7.00
   8   6  -2   54.69    5.80
   6  -8  -2   53.49    6.70
   8   6  -2   64.39    5.50
   6  -8  -2   43.90    5.30
  -6   8  -2   44.10    6.00
  -8  -6  -2   44.10    5.90
   8   6  -2   54.59    6.00
   8   6  -2   61.99    8.40
   6  -8   2   59.39    7.70
   8   6   2   47.00    6.40
  -8  -6   2   48.30    5.20
  -6   8   2   55.49    7.10
  -6   8   2   51.79    6.30
  -8  -6   2   50.19    6.40
  -6   8   2   51.19    6.40
   8   6   2   61.99    6.90
   8   6   2   40.80    5.10
   6  -8   2   53.59    4.30
   6  -8   2   45.70    5.70
   6  -8   2   59.69    7.90
  -6   8   2   49.80    4.20
   8   6   2   51.09    5.60
  -8  -6   2   51.79    5.00
   6  -8   2   56.89    7.30
  -8  -6   2   57.49    5.40
   8   6   2   45.90    6.30
   4  -8  -2   93.09    7.30
  -4   8  -2  104.89    8.40
  -8  -4  -2   86.89    8.10
  -8  -4  -2   90.69    5.40
  -4   8  -2   99.69    7.20
  -4   8  -2   90.09    9.30
  -4   8  -2   85.09    7.90
  -4   8  -2  101.69    4.70
  -8  -4  -2   97.99    8.20
   8   4  -2   96.49    5.50
   8   4  -2   85.59    7.90
   4  -8  -2  102.29    7.90
   4  -8  -2  106.49    7.40
  -8  -4  -2   89.79    7.90
   4  -8  -2  102.99    6.00
   8   4  -2   90.39    5.40
   8   4  -2   93.29    7.60
  -4   8   2   78.19    8.70
  -4   8   2  107.49    8.60
   8   4   2  105.69    8.70
   8   4   2   93.49    7.60
  -8  -4   2  108.69    6.60
   8   4   2  108.09    6.80
   4  -8   2   78.59    7.70
  -4   8   2   93.49    9.10
   8   4   2   99.59   13.20
   4  -8   2   82.39    4.20
  -4   8   2   90.69    5.70
   4  -8   2   90.59    8.80
  -8  -4   2  103.09    5.50
   4  -8   2   90.49    7.30
  -4   8   2   92.19    7.90
   8   4   2  106.79    7.40
   8   2  -2   55.09    4.50
   2  -8  -2   66.39    6.70
  -2   8  -2   63.19    6.40
  -8  -2  -2   49.60    6.80
  -8  -2  -2   59.69    7.20
   8   2  -2   55.09    6.20
  -2   8  -2   61.79    6.20
   2  -8  -2   62.39    6.10
  -2   8  -2   57.49    5.60
   8   2  -2   54.69    4.70
  -8  -2  -2   60.69    5.30
   8   2  -2   48.10    6.00
  -2   8  -2   71.19    8.50
   8   2  -2   58.79    7.10
   2  -8  -2   61.29    4.70
   2  -8  -2   61.69    6.20
  -2   8  -2   63.69    7.40
  -2   8  -2   58.79    7.00
  -2   8  -2   65.29    5.70
  -8  -2  -2   61.79    6.70
   8   2   2   69.49    7.00
   2  -8   2   49.10    5.80
  -8  -2   2   64.79    6.20
  -8  -2   2   59.19    4.20
   2  -8   2   54.19    3.50
  -2   8   2   54.49    6.40
  -2   8   2   58.39    7.10
  -2   8   2   58.59    7.70
  -8  -2   2   68.79    5.20
  -2   8   2   55.19    5.50
   2  -8   2   55.09    6.90
   2  -8   2   62.99    7.00
   2  -8   2   60.49    5.80
   8   2   2   65.39    7.70
   8   2   2   60.39    7.60
   8   2   2   72.39    6.90
  -2   8   2   58.99    6.90
  -8  -2   2   58.09    5.20
   8   2   2   63.39    5.50
   8   0  -2  925.61   29.00
   8   0  -2  873.51   28.20
  -8   0  -2  898.11   29.70
   0  -8  -2  890.11   29.30
  -8   0  -2  903.81   28.90
   8   0  -2  864.51   29.80
  -8   0  -2  899.31   29.60
   0  -8  -2  875.51   29.30
   0  -8  -2  870.31   29.00
   0   8  -2  870.01   30.10
   0   8  -2  886.51   28.40
   0  -8  -2  886.61   27.90
  -8   0  -2  892.41   29.10
   8   0  -2  917.81   28.00
   8   0  -2  934.01   28.50
   0   8  -2  796.52   29.70
   0   8  -2  897.11   28.60
  -8   0   2  867.71   26.90
   8   0   2  801.32   28.90
   8   0   2  897.51   27.60
   0   8   2  886.41   28.50
   0   8   2  841.72   28.50
   0  -8   2  906.51   28.80
  -8   0   2  844.42   27.90
   0  -8   2  851.81   28.70
  -8   0   2  843.32   28.50
   0   8   2  901.01   28.70
   8   0   2  821.62   29.20
   0   8   2  875.41   29.60
   0   8   2  892.81   28.90
   8   0   2  861.41   28.70
  -8   0   2  874.71   27.80
   0  -8   2  874.31   27.10
   0  -8   2  865.11   27.80
   8   0   2  885.81   29.20
   8  -2  -2  703.33   25.90
  -8   2  -2  777.82   24.90
  -2  -8  -2  754.52   25.50
  -8   2  -2  740.63   24.40
   8  -2  -2  719.83   24.70
   2   8  -2  799.52   24.30
   2   8  -2  751.22   24.10
   2   8  -2  780.32   25.60
  -8   2  -2  753.72   25.90
   8  -2  -2  761.62   25.20
  -2  -8  -2  768.62   25.50
   2   8  -2  732.03   25.90
   8  -2  -2  779.72   25.00
   2   8  -2  713.23   26.20
  -8   2  -2  762.12   25.60
  -8   2  -2  734.53   26.20
   2   8  -2  776.92   24.60
   2   8   2  734.73   26.00
   2   8   2  773.62   25.00
   8  -2   2  739.63   26.30
  -8   2   2  747.43   25.40
   8  -2   2  798.22   26.30
   8  -2   2  789.02   26.20
   2   8   2  737.33   24.30
   2   8   2  775.82   26.00
  -8   2   2  770.52   25.30
   2   8   2  742.53   25.40
  -8   2   2  770.42   24.30
  -8   2   2  754.02   26.10
   2   8   2  728.33   26.30
   8  -2   2  782.02   26.20
  -2  -8   2  753.72   24.70
  -2  -8   2  756.82   24.50
   4   8  -2  410.76   14.00
  -8   4  -2  396.86   14.10
  -4  -8  -2  396.36   15.50
  -4  -8  -2  368.36   15.40
  -8   4  -2  402.16   16.10
   4   8  -2  358.76   16.40
   8  -4  -2  427.86   16.30
   4   8  -2  384.96   15.20
  -4  -8  -2  402.06   15.10
   4   8  -2  379.16   13.50
   4   8  -2  384.76   15.50
  -8   4  -2  408.26   14.70
   8  -4  -2  402.56   15.40
   4   8  -2  386.26   13.30
  -8   4  -2  382.76   16.30
   8  -4  -2  398.06   14.50
  -4  -8   2  391.36   14.10
   8  -4   2  359.76   15.80
  -8   4   2  391.16   15.60
   4   8   2  409.16   13.90
  -4  -8   2  391.86   14.90
   4   8   2  411.06   14.20
   8  -4   2  399.16   16.20
  -4  -8   2  385.96   13.70
  -8   4   2  388.16   16.70
  -8   4   2  409.96   14.40
   4   8   2  389.46   16.10
   8  -4   2  393.76   15.40
   4   8   2  391.86   15.80
   4   8   2  381.76   15.00
   6   8  -2  239.18   11.50
  -8   6  -2  247.68   12.50
  -8   6  -2  264.57   10.30
   8  -6  -2  240.18   11.30
  -8   6  -2  269.17   14.00
   8  -6  -2  237.98   11.70
  -6  -8  -2  253.77   11.90
   6   8  -2  243.28   10.10
  -8   6  -2  248.08   11.30
  -8   6  -2  248.28   12.90
   6   8  -2  260.27    9.20
   8  -6  -2  247.88   13.00
   6   8  -2  259.07   13.20
   6   8  -2  236.98    9.50
   8  -6  -2  243.58   10.70
  -6  -8  -2  226.48   11.80
   6   8  -2  241.08   11.50
  -6  -8  -2  241.68   12.20
  -6  -8   2  223.78   12.80
   8  -6   2  257.87   11.90
   6   8   2  253.57   13.30
   8  -6   2  246.88   12.30
  -8   6   2  260.37   12.80
   6   8   2  232.78   12.30
   6   8   2  235.48   11.40
  -8   6   2  220.58   18.30
  -6  -8   2  242.58    9.80
  -8   6   2  250.17   11.50
  -6  -8   2  259.17   10.30
   8  -6   2  253.17   12.80
   8  -6   2  236.08   12.10
  -8   6   2  240.68   13.30
   6   8   2  243.98   10.90
   6   8   2  247.58    9.20
   6   8   2  231.58   12.70
   8  -8  -2  542.65   21.20
  -8   8  -2  601.74   22.30
   8   8  -2  584.44   20.20
  -8   8  -2  589.64   23.50
  -8   8  -2  565.54   21.30
  -8  -8  -2  572.74   22.00
   8  -8  -2  554.74   20.10
  -8  -8  -2  571.34   21.90
   8   8  -2  540.45   21.20
   8   8  -2  550.24   19.10
   8   8  -2  568.14   22.80
   8  -8  -2  546.75   21.00
  -8   8  -2  578.84   19.00
   8   8  -2  591.24   19.70
   8  -8   2  579.24   21.50
   8   8   2  559.04   20.60
   8   8   2  539.35   22.60
   8  -8   2  588.44   22.20
  -8   8   2  577.54   23.00
  -8  -8   2  539.25   19.30
   8   8   2  562.84   21.00
  -8  -8   2  558.54   19.80
   8  -8   2  580.34   22.50
   8   8   2  572.84   21.10
  -8  -8   2  554.94   21.90
  -8   8   2  555.24   21.40
  -8   8   2  592.34   22.70
   8  -8   2  582.24   21.70
   9   7  -2  294.97   13.70
  -9  -7  -2  288.77   14.50
   9   7  -2  282.47   11.80
  -7   9  -2  295.37   13.90
   7  -9  -2  301.57   14.20
  -9  -7  -2  297.57   14.70
   9   7  -2  283.37   11.30
   9   7  -2  295.67   15.30
   9   7  -2  301.47   12.30
   7  -9  -2  277.77   13.70
  -7   9  -2  332.47   17.80
   7  -9  -2  281.27   12.40
  -7   9  -2  278.57   14.90
  -7   9  -2  288.77   14.50
  -9  -7   2  283.47   12.30
   9   7   2  289.57   13.20
  -9  -7   2  288.57   11.30
  -9  -7   2  275.67   14.70
   9   7   2  283.47   13.10
   7  -9   2  283.17   14.10
  -7   9   2  297.07   16.10
  -9  -7   2  289.67   11.60
   9   7   2  304.07   15.40
   7  -9   2  278.57   20.30
  -7   9   2  326.27   16.00
   7  -9   2  283.07   10.60
  -7   9   2  282.87   14.20
   9   7   2  290.77   13.60
   7  -9   2  281.67   14.30
   9   5  -2 1699.33   53.09
  -5   9  -2 1582.54   52.99
   5  -9  -2 1729.33   51.29
   9   5  -2 1731.03   50.99
  -9  -5  -2 1632.84   52.69
  -9  -5  -2 1656.23   50.29
  -5   9  -2 1706.43   53.29
  -5   9  -2 1617.14   52.99
  -9  -5  -2 1646.14   52.79
   9   5  -2 1662.73   50.59
   9   5  -2 1548.65   52.49
  -9  -5  -2 1620.84   53.09
   5  -9  -2 1700.43   52.69
   9   5  -2 1627.24   50.99
   5  -9  -2 1697.03   52.79
   5  -9  -2 1582.44   52.39
  -5   9   2 1631.64   49.40
   9   5   2 1629.64   50.09
   5  -9   2 1615.84   51.59
  -9  -5   2 1596.44   49.70
  -5   9   2 1629.44   51.99
   5  -9   2 1613.64   48.70
  -9  -5   2 1664.03   49.80
  -9  -5   2 1605.24   52.49
  -9  -5   2 1514.65   49.80
  -5   9   2 1689.33   51.49
   9   5   2 1652.23   51.29
   5  -9   2 1543.05   51.49
  -5   9   2 1612.14   52.49
   9   5   2 1569.24   51.39
   9   5   2 1620.14   52.69
  -5   9   2 1559.44   51.89
   9   5   2 1635.04   51.69
  -3   9  -2 1054.09   34.60
   9   3  -2 1054.79   32.40
   3  -9  -2  993.40   33.70
  -3   9  -2 1016.60   35.40
   9   3  -2 1025.60   33.50
   3  -9  -2 1035.70   32.30
  -9  -3  -2 1062.89   34.30
  -3   9  -2  992.60   34.70
   9   3  -2 1000.40   32.40
   9   3  -2  900.51   35.00
  -3   9  -2 1131.19   32.20
  -9  -3  -2 1040.30   34.40
  -3   9  -2 1004.90   35.80
  -9  -3  -2 1048.30   32.40
   3  -9  -2 1026.40   34.00
  -9  -3  -2 1012.70   33.90
   9   3  -2  998.30   34.60
   3  -9  -2 1042.60   33.70
   9   3   2 1077.99   36.10
   9   3   2 1026.30   33.60
  -3   9   2 1072.99   34.30
   3  -9   2 1028.70   31.10
  -3   9   2  964.50   34.30
  -9  -3   2 1001.10   32.50
   9   3   2 1037.00   34.00
  -3   9   2 1042.70   32.50
   9   3   2 1001.40   35.20
   3  -9   2  900.41   36.10
  -9  -3   2 1050.19   31.30
  -3   9   2  987.90   33.70
   3  -9   2  971.40   35.20
   3  -9   2  997.20   33.60
   9   3   2 1014.20   32.10
  -3   9   2 1005.90   34.50
  -9  -3   2  984.50   35.10
   3  -9   2 1001.90   33.50
  -9  -3   2 1062.09   32.80
  -9  -3   2 1062.39   32.30
  -9  -1  -2 1080.59   35.40
   9   1  -2 1057.09   34.10
   9   1  -2 1050.09   35.10
  -9  -1  -2 1099.29   35.50
   1  -9  -2 1115.59   35.20
   1  -9  -2 1088.99   33.80
  -1   9  -2  984.80   35.60
   9   1  -2 1128.69   34.30
  -9  -1  -2 1056.99   35.60
   1  -9  -2 1118.49   35.50
  -1   9  -2 1055.39   34.80
  -1   9  -2 1134.09   35.50
   9   1  -2 1115.19   34.40
  -9  -1  -2 1061.69   34.50
  -1   9  -2 1029.20   36.20
   9   1  -2 1084.89   36.10
  -9  -1   2 1079.79   35.10
  -9  -1   2 1049.40   34.50
  -1   9   2 1076.39   36.50
   9   1   2 1021.00   36.40
  -1   9   2 1111.99   35.70
   9   1   2 1088.19   35.60
   9   1   2 1141.79   33.90
  -1   9   2 1101.89   35.10
  -9  -1   2 1032.90   33.30
   9   1   2 1107.99   35.80
  -9  -1   2 1091.29   34.40
   1  -9   2 1046.70   35.30
  -1   9   2 1098.99   35.70
  -9  -1   2 1065.09   33.00
   9   1   2 1123.49   36.10
  -1   9   2 1062.49   34.90
   1  -9   2 1089.59   33.40
   1  -9   2 1069.59   36.10
   9  -1  -2  838.72   27.70
   9  -1  -2  880.91   26.40
   1   9  -2  878.31   28.30
   9  -1  -2  836.22   29.30
   1   9  -2  830.12   27.40
  -9   1  -2  864.71   28.30
   1   9  -2  865.21   27.50
   9  -1  -2  867.71   28.20
   1   9  -2  798.32   30.00
  -9   1  -2  856.01   28.40
  -1  -9  -2  780.82   28.70
  -9   1  -2  849.22   29.30
  -9   1  -2  874.31   29.00
   9  -1  -2  808.72   28.20
  -1  -9  -2  899.41   28.50
   1   9  -2  849.81   29.50
  -1  -9  -2  891.81   28.80
  -9   1   2  863.41   26.70
  -9   1   2  828.82   28.10
  -1  -9   2  829.42   27.10
   9  -1   2  804.02   29.20
  -1  -9   2  819.32   28.90
  -1  -9   2  850.01   27.70
   1   9   2  823.82   28.80
   1   9   2  851.01   29.10
   1   9   2  845.62   29.70
   1   9   2  876.81   28.50
   1   9   2  857.31   28.30
  -1  -9   2  826.82   28.50
  -9   1   2  846.12   28.20
   9  -1   2  864.11   29.10
  -9   1   2  858.31   28.90
   9  -1   2  909.71   29.40
   9  -1   2  879.21   27.30
   1   9   2  884.41   27.30
  -9   1   2  860.41   26.60
   9  -1   2  882.21   29.10
   3   9  -2  339.57   13.90
  -3  -9  -2  337.67   14.00
  -3  -9  -2  337.17   13.70
   9  -3  -2  340.67   14.90
   3   9  -2  350.06   13.10
   9  -3  -2  314.77   14.40
   3   9  -2  335.17   12.30
  -9   3  -2  332.47   12.70
  -9   3  -2  339.57   15.50
   9  -3  -2  317.87   13.30
   3   9  -2  310.17   14.60
  -9   3  -2  332.97   13.10
  -9   3  -2  343.97   14.80
   9  -3  -2  318.37   13.40
  -3  -9  -2  333.07   14.10
   3   9  -2  340.27   12.10
   3   9   2  339.67   13.00
  -3  -9   2  299.37   13.50
   3   9   2  301.37   14.40
  -9   3   2  328.87   14.80
   9  -3   2  331.27   14.80
   3   9   2  325.87   13.60
  -9   3   2  329.47   15.10
   9  -3   2  332.07   14.10
   9  -3   2  337.07   14.50
  -3  -9   2  324.97   12.30
   9  -3   2  315.67   14.40
  -9   3   2  325.67   13.60
  -9   3   2  333.17   12.10
   3   9   2  325.27   12.40
   3   9   2  302.87   15.20
  -3  -9   2  316.87   12.80
   3   9   2  346.77   14.60
   9  -5  -2  929.21   30.70
  -9   5  -2  928.71   32.00
   5   9  -2  953.70   29.10
   5   9  -2  937.11   31.80
   5   9  -2  896.21   31.40
  -5  -9  -2  893.71   31.60
   9  -5  -2  942.61   31.70
  -5  -9  -2  938.31   31.60
  -9   5  -2  996.90   32.70
  -9   5  -2  932.81   32.30
  -9   5  -2  959.10   30.20
  -9   5  -2  940.71   30.60
   5   9  -2  934.61   30.10
   9  -5  -2  944.61   31.20
   5   9  -2  913.81   29.70
  -5  -9  -2  930.51   31.30
   5   9  -2  908.11   32.40
   9  -5   2  950.80   32.00
   9  -5   2  928.71   32.20
   5   9   2  910.81   30.60
   9  -5   2  943.51   32.60
   5   9   2 1002.30   32.30
  -5  -9   2  908.91   30.40
   5   9   2  896.91   32.60
  -9   5   2  966.30   30.70
   5   9   2  925.41   32.80
  -5  -9   2  965.00   31.60
  -9   5   2  925.31   32.00
  -5  -9   2  940.51   30.10
  -9   5   2  920.71   32.70
   5   9   2  951.50   31.40
   5   9   2  945.21   29.70
   9  -5   2  969.90   31.80
  -9   7  -2  907.81   28.50
   9  -7  -2  824.22   30.00
   7   9  -2  892.91   31.70
   9  -7  -2  870.91   29.30
   7   9  -2  860.11   30.20
  -9   7  -2  877.21   31.80
  -9   7  -2  910.61   30.80
  -7  -9  -2  885.51   30.80
   7   9  -2  883.01   29.80
   7   9  -2  888.41   28.70
   7   9  -2  866.81   28.30
   9  -7  -2  866.21   30.20
  -9   7   2  869.71   30.40
   9  -7   2  891.71   29.90
   9  -7   2  918.71   30.70
   7   9   2  849.12   30.90
  -7  -9   2  861.91   30.10
  -7  -9   2  837.32   28.10
  -9   7   2  863.61   31.50
   7   9   2  842.72   29.10
   9  -7   2  905.31   31.10
  -9   7   2  870.81   29.40
   9  -7   2  856.91   30.40
   7   9   2  859.01   30.90
   7   9   2  853.81   31.40
  -7  -9   2  842.82   28.60
  -9  -9  -2  408.36   18.30
   9  -9  -2  400.26   16.70
   9  -9  -2  392.76   17.90
   9   9  -2  378.96   17.50
  -9   9  -2  394.26   18.70
  -9  -9  -2  397.26   18.30
  -9   9  -2  393.06   17.10
  -9   9  -2  413.66   18.50
   9   9  -2  415.46   16.40
   9  -9  -2  368.96   17.00
   9   9  -2  385.56   14.90
   9   9  -2  384.16   19.00
   9  -9   2  372.96   19.50
   9  -9   2  374.66   17.90
   9  -9   2  387.76   17.40
   9   9   2  358.96   16.40
  -9   9   2  371.56   16.70
  -9   9   2  377.86   19.30
   9   9   2  373.66   16.10
  -9  -9   2  374.76   14.80
  -9  -9   2  399.06   17.80
   9   9   2  386.56   18.80
  -9   9   2  380.46   18.40
  -8  10  -2  131.39   10.70
   8 -10  -2  137.29   11.50
  10   8  -2  145.49    9.40
 -10  -8  -2  146.29   12.80
   8 -10  -2  153.18   10.80
   8 -10  -2  142.69   11.00
  -8  10  -2  124.19   12.00
  10   8  -2  143.19   11.60
  -8  10  -2  125.19   12.40
 -10  -8  -2  148.09   11.90
  10   8  -2  142.79    8.30
  10   8  -2  132.79   13.40
   8 -10   2  156.08   12.00
 -10  -8   2  137.29    8.60
  10   8   2  135.99   11.10
  10   8   2  133.69   10.70
  -8  10   2  132.89   14.00
  -8  10   2  146.39   11.90
 -10  -8   2  130.99   12.50
  10   8   2  117.39   10.70
   8 -10   2  133.49   13.60
  -8  10   2  132.79   13.80
  10   8   2  116.49   12.90
   8 -10   2  128.59   11.70
  10   6  -2   62.99    7.70
  -6  10  -2   64.69    9.00
   6 -10  -2   55.19    7.60
  10   6  -2   73.49    7.30
   6 -10  -2   63.99    8.20
  10   6  -2   63.09    6.40
 -10  -6  -2   70.59    9.60
 -10  -6  -2   67.79    7.60
   6 -10  -2   65.19    8.10
  -6  10  -2   70.69    9.10
  10   6  -2   64.39    6.40
  -6  10  -2   61.59    7.80
  10   6  -2   71.69    9.10
  -6  10   2   62.29    9.40
  10   6   2   45.80    5.90
  -6  10   2   61.49    6.30
  10   6   2   70.59    7.20
   6 -10   2   72.09   10.00
 -10  -6   2   69.89    5.80
 -10  -6   2   57.59    6.80
   6 -10   2   49.40    6.40
  -6  10   2   54.29    7.20
 -10  -6   2   45.90    7.20
  10   6   2   66.69    7.90
   6 -10   2   68.99    7.40
 -10  -6   2   60.29    8.10
  -6  10   2   49.80    7.70
  10   6   2   62.59    8.10
  -6  10   2   65.49    9.60
  -4  10  -2  391.26   15.70
  -4  10  -2  393.26   16.60
 -10  -4  -2  396.86   13.60
  -4  10  -2  384.06   16.80
  10   4  -2  387.76   14.50
   4 -10  -2  411.76   16.30
 -10  -4  -2  364.66   16.60
 -10  -4  -2  383.56   17.50
   4 -10  -2  425.06   16.70
  10   4  -2  388.06   16.20
   4 -10  -2  355.06   15.50
   4 -10  -2  385.46   14.40
  10   4  -2  393.36   15.90
  -4  10  -2  376.46   16.50
  10   4  -2  352.26   14.00
 -10  -4  -2  382.96   16.80
  10   4   2  406.76   17.40
 -10  -4   2  351.86   17.10
  10   4   2  384.16   17.20
 -10  -4   2  380.06   12.90
  -4  10   2  391.26   14.20
   4 -10   2  389.66   15.90
 -10  -4   2  379.26   14.60
   4 -10   2  375.66   16.10
 -10  -4   2  398.86   14.80
  -4  10   2  374.36   17.30
  -4  10   2  383.16   17.10
  10   4   2  360.86   16.20
  -4  10   2  373.26   16.10
  10   4   2  367.96   14.00
  10   4   2  387.76   16.30
   4 -10   2  381.26   12.90
  -4  10   2  396.46   18.00
  -2  10  -2 2188.48   72.79
 -10  -2  -2 2305.87   72.29
 -10  -2  -2 2354.76   70.79
   2 -10  -2 2325.17   71.79
  10   2  -2 2325.87   70.79
   2 -10  -2 2239.08   71.69
  10   2  -2 2436.46   71.29
   2 -10  -2 2332.67   70.49
  10   2  -2 2207.28   70.69
  -2  10  -2 2342.17   71.59
  -2  10  -2 2320.37   72.69
  10   2  -2 2316.77   72.79
  10   2  -2 2252.17   71.89
   2 -10  -2 2364.56   72.19
 -10  -2  -2 2280.67   74.09
 -10  -2  -2 2340.67   72.09
  -2  10   2 2358.26   72.29
  10   2   2 2189.18   72.99
  10   2   2 2377.36   73.09
  -2  10   2 2403.86   71.99
  10   2   2 2329.97   72.79
  -2  10   2 2498.15   73.19
  -2  10   2 2387.26   73.29
   2 -10   2 2287.57   72.09
 -10  -2   2 2325.87   71.99
  -2  10   2 2285.17   73.69
 -10  -2   2 2337.67   71.69
  10   2   2 2254.57   74.39
  10   2   2 2300.27   70.59
 -10  -2   2 2221.48   71.69
   2 -10   2 2387.36   70.39
   2 -10   2 2323.77   72.59
   0 -10  -2  929.31   32.10
 -10   0  -2 1004.70   32.70
  10   0  -2  911.81   32.80
 -10   0  -2  984.00   33.00
   0  10  -2  894.21   32.80
   0  10  -2  976.50   31.40
  10   0  -2  959.70   31.30
  10   0  -2 1044.20   30.70
   0  10  -2  948.11   31.40
  10   0  -2 1051.89   32.00
   0 -10  -2  944.61   32.00
   0 -10  -2  979.90   32.40
   0  10  -2  850.61   32.80
   0  10  -2  957.90   32.20
   0 -10  -2  946.01   30.70
 -10   0  -2  981.10   32.40
 -10   0  -2  990.60   31.90
  10   0  -2 1016.10   32.60
   0  10   2  988.50   32.00
   0  10   2  981.70   31.80
  10   0   2  945.21   29.70
   0 -10   2  991.30   31.00
  10   0   2  969.40   32.60
   0 -10   2  949.90   31.80
 -10   0   2  792.02   33.30
   0 -10   2  969.00   29.90
  10   0   2  960.30   32.10
 -10   0   2  927.41   31.70
   0  10   2  893.61   32.70
  10   0   2  943.11   32.30
 -10   0   2  952.30   31.20
   0 -10   2  955.40   32.90
   0  10   2  994.80   32.40
  10   0   2  911.61   32.10
   0  10   2  948.81   31.40
 -10   2  -2  149.29    9.30
  -2 -10  -2  124.09    8.90
   2  10  -2  134.79   10.60
 -10   2  -2  138.09    9.50
  10  -2  -2  114.59    7.90
 -10   2  -2  135.29   10.80
   2  10  -2  124.09    9.10
   2  10  -2  122.69   10.10
   2  10  -2  142.49    7.50
  10  -2  -2  144.09    9.00
   2  10  -2  133.69    7.30
  10  -2  -2  118.29    9.40
  -2 -10  -2  139.09    9.40
  -2 -10  -2  149.88    9.80
 -10   2  -2  158.68   10.60
 -10   2  -2  132.89    7.10
 -10   2   2  139.19    6.70
   2  10   2  138.99    9.20
  -2 -10   2  127.29    7.60
   2  10   2  127.19   10.50
   2  10   2  124.89    9.50
   2  10   2  131.39   10.60
  -2 -10   2  133.69    9.20
   2  10   2  127.39    9.00
  10  -2   2  131.49    9.20
   2  10   2  126.79    7.50
 -10   2   2  125.39   10.30
  10  -2   2  135.39    9.50
 -10   2   2  138.09    8.60
  10  -2   2  137.89   11.10
  -2 -10   2  134.79    7.40
  10  -2   2  134.59   10.30
  -2 -10   2  135.39   10.50
 -10   2   2  129.69   15.70
 -10   4  -2   66.69    8.60
  10  -4  -2   66.69    7.70
 -10   4  -2   69.89    8.90
   4  10  -2   49.00    6.60
  -4 -10  -2   42.70    5.90
   4  10  -2   59.19    5.50
 -10   4  -2   61.39    6.70
  -4 -10  -2   53.39    6.90
 -10   4  -2   69.99    7.30
   4  10  -2   44.50    6.30
   4  10  -2   50.89    5.50
 -10   4  -2   85.19    8.50
  10  -4  -2   55.99    7.00
   4  10  -2   62.09    7.70
  10  -4  -2   65.39    8.30
   4  10  -2   54.99    5.80
  -4 -10  -2   50.99    6.10
  -4 -10   2   70.19    7.80
 -10   4   2   43.30    6.40
   4  10   2   68.09    6.70
 -10   4   2   52.39    6.20
  -4 -10   2   50.39    6.00
  10  -4   2   46.00    7.10
  10  -4   2   63.89    8.40
   4  10   2   66.09    7.90
   4  10   2   64.49    8.80
  -4 -10   2   64.09    5.90
  10  -4   2   41.50    5.80
 -10   4   2   65.99    7.90
   4  10   2   62.19    7.20
   4  10   2   79.89   10.00
   4  10   2   63.39    7.60
  -6 -10  -2  139.49   10.90
  -6 -10  -2  113.39   10.10
  10  -6  -2  121.59    9.50
 -10   6  -2  128.99    8.80
 -10   6  -2  136.89   11.30
   6  10  -2  113.49    6.70
 -10   6  -2  136.39   13.70
   6  10  -2  108.99    9.70
  10  -6  -2  117.69    9.00
  10  -6  -2  115.09    9.80
   6  10  -2  119.69   10.40
 -10   6  -2  118.69   11.00
   6  10  -2  113.19   11.20
   6  10  -2  114.29    7.10
 -10   6  -2  122.49    8.80
 -10   6   2  107.49   10.60
  10  -6   2  138.19   11.30
   6  10   2  139.59   11.80
  -6 -10   2  114.89    9.50
   6  10   2  127.99    9.20
   6  10   2  137.69   10.80
   6  10   2  112.09   11.00
 -10   6   2   93.89   11.60
  -6 -10   2  127.49    7.70
 -10   6   2  118.39    8.70
  10  -6   2  113.49   12.50
  10  -6   2  116.69   10.20
  10  -6   2  125.29   10.20
  10  -8  -2   -1.90    4.90
 -10   8  -2   -0.20    4.80
  10  -8  -2    8.00    5.90
  -8 -10  -2   -1.00    5.80
 -10   8  -2   -4.90    9.20
   8  10  -2    0.20    5.10
   8  10  -2    5.00    6.00
  10  -8  -2    5.90    5.60
   8  10  -2    2.40    3.40
  -8 -10  -2   12.00    6.40
 -10   8  -2   -1.00    6.90
   8  10  -2    8.00    7.00
 -10   8  -2    6.50    6.20
   8  10   2   -8.10    6.20
  -8 -10   2    3.90    3.90
  -8 -10   2   16.80    6.20
   8  10   2   -1.10    4.70
   8  10   2   -2.20    6.60
 -10   8   2    0.10    5.70
   8  10   2    8.60    5.70
  10  -8   2    4.00    6.30
 -10   8   2    0.50    7.10
  10  -8   2   -5.50    7.70
  10  -8   2    7.20    6.00
 -10   8   2    4.30    6.50
  10  10  -2   73.39    7.90
  10  10  -2   71.39   10.00
  10  10  -2   76.09    7.90
  10 -10  -2   48.00    7.50
 -10  10  -2   49.30    7.50
 -10 -10  -2   71.59    9.50
 -10 -10  -2   61.69    9.20
  10 -10  -2   46.40    7.30
 -10  10  -2   45.30    8.80
  10 -10  -2   38.90    7.50
  10  10  -2   74.69    8.80
  10  10   2   45.30    8.10
  10  10   2   39.90    7.50
 -10  10   2   57.19   10.10
 -10  10   2   86.69   11.70
 -10 -10   2   41.10    5.70
 -10 -10   2   31.10    7.80
  10  10   2   39.00    6.80
  10 -10   2   55.29    8.20
  10 -10   2   84.89   10.60
  10 -10   2   79.39    8.30
 -10  10   2   68.59    9.80
  10  10   2   40.30    9.20
  11   9  -2  925.11   34.80
   9 -11  -2  967.50   33.60
   9 -11  -2  926.11   32.60
  11   9  -2  876.11   30.60
  -9  11  -2  904.71   34.50
  11   9  -2  904.91   33.20
  -9  11  -2  922.01   32.90
   9 -11  -2  911.41   31.60
 -11  -9  -2  976.80   34.30
 -11  -9  -2  882.41   33.80
  -9  11   2  929.11   33.10
   9 -11   2  945.31   33.60
  11   9   2  895.61   34.90
   9 -11   2  932.11   32.80
   9 -11   2  991.90   34.30
  11   9   2  900.51   32.40
  -9  11   2  934.51   34.90
 -11  -9   2  901.81   34.10
  -9  11   2  908.31   35.40
 -11  -9   2  887.61   30.90
  11   9   2  918.51   32.90
  11   9   2  887.81   32.50
  11   7  -2  481.05   21.80
  -7  11  -2  513.45   20.40
  11   7  -2  468.35   17.90
  -7  11  -2  478.85   20.90
  11   7  -2  467.35   20.70
   7 -11  -2  492.15   19.80
   7 -11  -2  512.55   21.10
 -11  -7  -2  428.86   21.00
 -11  -7  -2  515.15   21.10
   7 -11  -2  527.95   19.10
  -7  11  -2  492.95   21.80
  11   7   2  491.75   17.90
  -7  11   2  451.35   21.70
 -11  -7   2  470.55   21.70
   7 -11   2  465.15   20.80
  11   7   2  488.25   20.00
   7 -11   2  478.05   20.20
   7 -11   2  483.75   20.10
 -11  -7   2  450.65   17.60
  -7  11   2  467.55   22.70
  -7  11   2  456.85   20.50
  11   7   2  489.35   21.60
  11   7   2  496.05   19.90
   5 -11  -2   96.89    8.70
  -5  11  -2   86.19   10.50
 -11  -5  -2   99.49   11.70
 -11  -5  -2  113.49    7.10
   5 -11  -2   97.29    9.00
   5 -11  -2   91.09   10.40
  -5  11  -2  103.39    9.90
  11   5  -2   93.59    7.80
  -5  11  -2  104.09    9.50
  -5  11  -2  107.19   10.90
   5 -11  -2  101.79   12.00
  11   5  -2   99.39   11.50
  11   5  -2  115.89   10.00
 -11  -5  -2  105.99   10.60
  11   5   2   81.29   11.60
  -5  11   2  111.29   13.00
  11   5   2   96.49   10.00
  -5  11   2  114.09    8.00
  -5  11   2  125.49   12.30
   5 -11   2  105.39   10.80
   5 -11   2  114.39   10.20
 -11  -5   2   85.59    8.10
  11   5   2  104.39   10.50
  -5  11   2  110.89   11.10
 -11  -5   2   98.99    9.00
  -5  11   2   99.79   12.50
 -11  -5   2   94.19   11.30
  11   5   2  104.59    7.60
   3 -11  -2   14.80    5.20
  -3  11  -2    6.80    5.80
 -11  -3  -2   18.10    3.80
  -3  11  -2    3.30    4.30
  -3  11  -2   11.00    5.50
   3 -11  -2   11.00    4.00
  11   3  -2    8.80    5.90
  -3  11  -2    9.80    4.90
  11   3  -2    3.50    5.00
  11   3  -2    8.80    3.50
  11   3  -2    5.40    5.10
   3 -11  -2    2.90    5.70
   3 -11  -2    7.00    4.50
 -11  -3  -2    6.70    5.50
  11   3   2    6.50    5.90
   3 -11   2    8.90    3.40
 -11  -3   2    0.30    5.40
 -11  -3   2   13.00    5.40
   3 -11   2    6.40    4.60
 -11  -3   2    5.60    4.60
  -3  11   2    9.60    6.50
 -11  -3   2    3.50    3.60
  -3  11   2    7.90    4.00
   3 -11   2   10.00    4.90
  11   3   2   11.90    5.80
  11   3   2    9.20    7.50
  11   3   2    9.40    4.80
  11   3   2    9.60    3.20
  -3  11   2    0.70    6.20
  -3  11   2    6.20    5.10
  -3  11   2    6.70    5.90
   1 -11  -2  116.59   10.00
  -1  11  -2   97.69    9.40
 -11  -1  -2  126.09   11.20
 -11  -1  -2  122.39   11.60
  -1  11  -2  109.39    8.20
   1 -11  -2  111.39    7.60
  11   1  -2  157.68   13.40
  11   1  -2  136.39    8.80
 -11  -1  -2  134.09    8.60
 -11  -1  -2  128.49   10.50
  -1  11  -2   93.39   10.20
  11   1  -2  128.49   10.40
   1 -11  -2   99.99    9.50
   1 -11  -2   95.89    8.20
  11   1  -2  143.29    9.80
  11   1  -2  120.29    7.70
 -11  -1   2   96.39    9.40
 -11  -1   2   96.99    8.20
  -1  11   2  120.79   11.00
  -1  11   2  137.19    9.20
  11   1   2  109.69    6.50
  -1  11   2  138.79   12.20
   1 -11   2  126.79   10.90
  11   1   2  107.99   11.90
   1 -11   2  136.29    6.60
  -1  11   2  125.09   11.30
  11   1   2   95.89    9.50
  11   1   2   87.99   10.40
 -11  -1   2   96.49   10.30
  -1  11   2  115.89    9.10
  11   1   2   95.89   10.30
   1 -11   2  134.59    9.40
   1  11  -2  284.07   14.20
  11  -1  -2  316.57   13.70
 -11   1  -2  306.47   14.90
  -1 -11  -2  270.17   13.10
  11  -1  -2  303.27   10.40
 -11   1  -2  289.47   15.70
   1  11  -2  280.07   12.00
  -1 -11  -2  283.17   12.00
   1  11  -2  269.87   14.60
  11  -1  -2  265.17   13.70
 -11   1  -2  285.57   13.50
 -11   1  -2  292.77   13.60
  -1 -11  -2  297.67   14.00
  11  -1  -2  274.57   12.20
   1  11  -2  281.47   12.00
  -1 -11  -2  275.17   13.80
   1  11   2  296.47   15.60
   1  11   2  292.27   13.50
  11  -1   2  241.88   16.00
   1  11   2  293.67   13.20
 -11   1   2  278.87   14.10
  -1 -11   2  281.07   11.50
   1  11   2  289.87   13.80
  -1 -11   2  284.37   12.10
   1  11   2  273.57   15.00
  11  -1   2  275.27   16.10
  11  -1   2  293.37   11.10
 -11   1   2  281.97   13.10
  -1 -11   2  282.17   13.50
  11  -1   2  295.37   14.40
 -11   3  -2  268.37   12.60
   3  11  -2  270.17   10.80
   3  11  -2  252.17   14.10
  11  -3  -2  243.08   12.70
 -11   3  -2  250.97   10.70
  -3 -11  -2  233.68   14.40
  11  -3  -2  227.68   13.00
   3  11  -2  247.28   13.80
  11  -3  -2  249.97   11.80
  -3 -11  -2  254.27   12.70
   3  11  -2  236.08   10.80
 -11   3  -2  246.08   13.10
 -11   3  -2  283.47   14.50
  -3 -11  -2  283.57   13.40
   3  11   2  271.17   13.10
 -11   3   2  234.38   12.80
   3  11   2  265.27   13.80
   3  11   2  267.37   11.60
   3  11   2  270.17   12.50
 -11   3   2  228.78   14.10
  -3 -11   2  248.38   13.40
  11  -3   2  244.18   13.30
  11  -3   2  224.58   13.20
  -3 -11   2  265.57   11.40
   3  11   2  256.87   15.30
  -3 -11   2  254.07   11.80
   3  11   2  274.47   15.40
  11  -3   2  261.67   14.30
 -11   3   2  258.07   10.60
  11  -3   2  285.37   15.60
   5  11  -2  491.85   20.10
 -11   5  -2  479.55   21.30
  11  -5  -2  477.25   19.60
  11  -5  -2  490.55   19.10
  -5 -11  -2  494.05   20.10
 -11   5  -2  491.65   17.80
 -11   5  -2  495.15   20.90
   5  11  -2  477.45   20.90
   5  11  -2  484.25   17.50
   5  11  -2  491.25   19.70
 -11   5  -2  476.75   20.30
 -11   5  -2  471.35   18.50
   5  11  -2  482.05   16.20
  -5 -11  -2  474.55   19.70
  11  -5  -2  515.35   19.60
   5  11   2  461.75   18.30
  -5 -11   2  521.65   19.30
 -11   5   2  454.25   20.70
 -11   5   2  534.85   18.10
  11  -5   2  508.65   20.30
   5  11   2  483.75   20.90
   5  11   2  490.75   19.50
   5  11   2  470.25   21.10
  11  -5   2  492.05   21.60
 -11   5   2  508.45   19.90
  -5 -11   2  459.05   17.80
  11  -5   2  500.55   21.40
   7  11  -2 1332.57   45.10
 -11   7  -2 1402.46   46.90
 -11   7  -2 1435.16   45.40
 -11   7  -2 1389.86   45.90
   7  11  -2 1362.46   44.70
 -11   7  -2 1392.76   43.20
  11  -7  -2 1310.07   44.60
  11  -7  -2 1368.36   44.80
   7  11  -2 1314.17   43.10
  -7 -11  -2 1339.87   45.10
  11  -7  -2 1321.17   44.10
   7  11  -2 1352.26   46.60
 -11   7  -2 1325.57   46.00
  -7 -11  -2 1327.77   45.50
   7  11   2 1355.66   47.00
   7  11   2 1306.47   44.20
  11  -7   2 1348.17   46.00
 -11   7   2 1461.85   44.10
   7  11   2 1349.27   45.10
  11  -7   2 1448.46   46.80
  11  -7   2 1389.66   46.20
 -11   7   2 1332.47   46.90
  -7 -11   2 1349.47   45.20
  11  -7   2 1422.26   45.30
  -7 -11   2 1360.06   43.70
   7  11   2 1308.97   45.80
 -11   7   2 1367.26   46.00
  -9 -11  -2   92.39   10.20
   9  11  -2   98.99   11.70
   9  11  -2  111.79   12.20
  11  -9  -2  117.69   11.40
 -11   9  -2  106.59   14.30
  -9 -11  -2  109.39   12.70
  11  -9  -2  104.09   11.80
   9  11  -2   89.59   10.90
 -11   9  -2  113.39   13.70
  11  -9  -2  110.59   12.00
 -11   9  -2   96.89   10.70
   9  11  -2  108.09    8.80
   9  11   2  100.49   13.50
   9  11   2  129.79   14.40
  11  -9   2  116.69   12.30
 -11   9   2  115.89   10.90
   9  11   2  123.29   11.90
  11  -9   2  104.19   13.50
  -9 -11   2   92.49    8.80
   9  11   2  103.69   11.00
  -9 -11   2   99.29   12.20
 -11   9   2  110.69   14.90
 -11   9   2  107.99   11.20
  11  -9   2  113.49   12.50
  11 -11  -2   28.70    8.00
 -11  11  -2   29.40    7.50
  11  11  -2   34.20   10.60
 -11  11  -2   35.30   10.40
  11 -11  -2   27.40    8.30
  11 -11  -2   22.40    8.00
  11  11  -2   23.10    5.70
  11  11  -2   26.30    8.20
 -11 -11  -2   22.20    9.10
 -11 -11  -2   16.40    9.50
  11 -11   2   23.40    8.80
 -11  11   2   19.20   10.20
 -11  11   2   18.90    7.60
  11  11   2   27.80   10.50
 -11  11   2   28.80   10.60
  11  11   2   26.20    8.10
 -11 -11   2   29.90    6.10
  11 -11   2   24.20    8.90
  11  11   2   26.10    7.80
 -11 -11   2   20.60    9.10
  10 -12  -2  656.33   26.50
 -12 -10  -2  624.54   27.50
  10 -12  -2  643.74   25.50
 -10  12  -2  655.43   27.90
  12  10  -2  620.54   28.70
 -12 -10  -2  642.54   28.00
 -10  12  -2  666.53   28.60
  12  10  -2  624.84   26.40
  12  10  -2  596.64   23.20
 -10  12   2  690.83   29.20
  10 -12   2  662.93   29.20
  12  10   2  600.64   26.00
 -10  12   2  589.74   29.10
  12  10   2  641.64   28.90
  10 -12   2  661.73   27.40
 -12 -10   2  614.54   24.00
  12  10   2  668.73   26.30
 -12 -10   2  643.14   28.00
  10 -12   2  671.33   26.00
 -10  12   2  630.44   26.60
  12   8  -2   67.59    8.30
  -8  12  -2   54.19    8.40
 -12  -8  -2   80.79   10.10
  -8  12  -2   94.19   10.60
   8 -12  -2   73.89    7.90
   8 -12  -2   75.29    8.50
  12   8  -2   82.49   10.30
 -12  -8  -2   66.79   10.00
  12   8  -2   70.79    8.60
  -8  12  -2  105.09   12.40
 -12  -8   2   83.09    9.40
  12   8   2   98.59   12.40
  -8  12   2   90.59   11.10
  -8  12   2   99.39   13.20
  12   8   2   99.29   14.40
   8 -12   2   84.39   10.70
  -8  12   2   66.19   10.30
   8 -12   2   73.89    8.90
   8 -12   2   98.49   12.70
 -12  -8   2   72.49    9.90
  12   8   2   84.19    8.90
  -6  12  -2 1386.66   45.90
  12   6  -2 1372.66   46.20
  12   6  -2 1406.66   46.60
  12   6  -2 1298.97   44.00
 -12  -6  -2 1389.96   46.80
  -6  12  -2 1384.86   46.60
   6 -12  -2 1440.56   46.60
   6 -12  -2 1393.16   45.40
   6 -12  -2 1379.26   44.20
 -12  -6  -2 1341.67   46.80
  -6  12  -2 1370.26   46.70
  -6  12   2 1426.36   47.50
  12   6   2 1432.56   45.80
  -6  12   2 1423.06   46.70
   6 -12   2 1340.97   45.90
  12   6   2 1332.67   45.70
  12   6   2 1354.16   47.10
 -12  -6   2 1339.07   47.00
   6 -12   2 1350.96   46.10
   6 -12   2 1366.16   45.70
 -12  -6   2 1318.37   44.00
  -6  12   2 1352.76   47.20
  12   4  -2  121.99   15.40
  -4  12  -2  115.99   10.10
   4 -12  -2  103.49   12.00
   4 -12  -2  104.79   11.50
  -4  12  -2  127.79   11.00
 -12  -4  -2  124.29   11.80
 -12  -4  -2  119.59    8.60
 -12  -4  -2  122.59   12.80
  -4  12  -2   95.99   11.00
   4 -12  -2  111.09    9.90
  12   4  -2  103.09    8.70
  12   4  -2  130.19   10.90
  -4  12  -2  102.59   12.50
   4 -12  -2  118.39    9.50
   4 -12   2  110.19   10.60
  12   4   2  111.39   10.90
  -4  12   2  114.69   12.40
  12   4   2  108.69   11.70
   4 -12   2  118.89   10.80
  12   4   2  103.49   10.70
 -12  -4   2  100.59    9.40
 -12  -4   2  105.29    9.90
  -4  12   2  129.99    9.20
 -12  -4   2  105.49   12.40
  -4  12   2  105.59   12.30
  -4  12   2   99.29   12.50
  -4  12   2   94.49   10.70
  12   2  -2  507.25   19.20
  -2  12  -2  517.45   20.40
   2 -12  -2  519.75   19.00
   2 -12  -2  514.85   20.10
   2 -12  -2  533.35   21.10
   2 -12  -2  506.15   21.30
 -12  -2  -2  548.45   19.10
  12   2  -2  556.34   21.00
  -2  12  -2  519.85   20.10
 -12  -2  -2  547.15   21.90
  -2  12  -2  527.55   22.10
  12   2  -2  563.04   20.00
  -2  12  -2  513.05   21.20
 -12  -2  -2  540.05   23.00
   2 -12   2  515.25   20.30
  12   2   2  522.55   21.70
  -2  12   2  541.45   20.20
 -12  -2   2  545.45   20.20
   2 -12   2  556.54   18.10
 -12  -2   2  488.35   22.70
  -2  12   2  519.05   22.80
  -2  12   2  553.34   20.90
  12   2   2  511.35   21.50
  -2  12   2  538.55   22.80
  12   2   2  533.15   21.50
 -12  -2   2  497.25   19.60
  -2  12   2  530.75   22.00
   2 -12   2  522.85   20.60
   0  12  -2   85.69   10.80
  12   0  -2   87.49   10.40
  12   0  -2   92.69    7.80
   0 -12  -2  104.59    8.20
   0 -12  -2   98.89   10.40
   0 -12  -2  108.79   11.50
 -12   0  -2  100.39    9.30
   0  12  -2   90.39   11.00
 -12   0  -2   84.09   10.40
   0 -12  -2   94.69    8.60
  12   0  -2   75.29    9.70
   0  12  -2   88.19   10.00
  12   0  -2   92.59    8.20
   0  12  -2  102.49    8.30
 -12   0   2   86.89    8.80
   0  12   2   91.39   11.20
   0 -12   2   70.29    8.20
   0 -12   2   77.79    9.30
  12   0   2   97.89   10.70
   0 -12   2   82.59    6.70
 -12   0   2   89.89   10.20
   0  12   2   90.59   11.60
   0  12   2   91.49    9.60
   0  12   2   68.69    9.20
  12   0   2  116.69   11.20
  12   0   2   97.09   10.20
   0  12   2   77.89    9.10
  12  -2  -2   69.09    8.00
   2  12  -2   61.39    7.30
 -12   2  -2   58.39    7.00
 -12   2  -2   74.19    8.10
 -12   2  -2   67.29    8.80
   2  12  -2   73.49   10.40
 -12   2  -2   70.79    9.10
   2  12  -2   63.89    8.20
  -2 -12  -2   61.19    8.00
  -2 -12  -2   76.79    9.30
  12  -2  -2   67.39    9.40
  -2 -12  -2   71.09    9.00
   2  12  -2   73.59    7.50
  -2 -12  -2   67.09    8.70
  12  -2  -2   70.49    9.40
   2  12   2   61.89    7.50
  -2 -12   2   57.79    7.10
  12  -2   2   56.09    8.10
   2  12   2   69.49    7.10
  -2 -12   2   62.29    7.90
  12  -2   2   64.69    7.90
   2  12   2   92.59    9.70
  -2 -12   2   62.39    7.20
  12  -2   2   76.99    9.50
 -12   2   2   63.89    7.00
  12  -2   2   62.89    7.50
   2  12   2   64.59    8.30
   2  12   2   65.69    7.10
 -12   2   2   63.49    7.70
 -12   4  -2  803.42   27.00
  -4 -12  -2  753.12   27.50
 -12   4  -2  765.72   28.70
   4  12  -2  719.13   28.60
   4  12  -2  733.13   27.30
 -12   4  -2  705.73   27.80
   4  12  -2  778.12   24.50
   4  12  -2  754.32   25.70
 -12   4  -2  808.12   25.30
  12  -4  -2  746.43   27.50
  -4 -12  -2  755.12   28.20
  12  -4  -2  730.23   27.00
  12  -4  -2  738.33   26.70
   4  12  -2  749.53   28.10
 -12   4   2  760.02   29.00
  -4 -12   2  743.73   26.40
   4  12   2  778.82   29.40
   4  12   2  791.72   26.40
   4  12   2  753.42   28.60
  12  -4   2  743.03   29.30
  12  -4   2  722.33   28.00
  -4 -12   2  785.52   26.80
   4  12   2  769.92   27.70
  12  -4   2  796.12   28.70
 -12   4   2  773.32   28.20
  12  -4   2  787.82   29.70
 -12   6  -2   32.50    6.40
  -6 -12  -2   19.80    6.70
  12  -6  -2   33.10    6.10
 -12   6  -2   16.50    9.00
  12  -6  -2   17.50    6.60
   6  12  -2   27.50    8.10
 -12   6  -2   30.50    6.00
   6  12  -2   30.20    4.90
   6  12  -2   27.70    6.50
 -12   6  -2   35.60    7.80
  12  -6  -2   15.30    6.70
 -12   6  -2   28.00   10.50
   6  12  -2   39.50    7.70
  -6 -12  -2   34.00    7.30
   6  12   2   29.90    8.00
 -12   6   2   47.10    7.80
  12  -6   2   34.30    7.00
  12  -6   2   35.80    7.10
  -6 -12   2   21.30    4.90
  -6 -12   2   21.50    6.40
 -12   6   2   47.20    8.50
   6  12   2   34.20    8.30
 -12   6   2   38.80    6.00
   6  12   2   24.20    6.40
   6  12   2   18.20    5.40
  12  -6   2   21.70    8.70
  -8 -12  -2  926.61   33.30
   8  12  -2  891.41   34.80
 -12   8  -2  924.21   34.50
  12  -8  -2  909.11   32.60
  12  -8  -2  919.81   31.80
   8  12  -2  862.31   32.70
  12  -8  -2  915.01   32.80
   8  12  -2  951.50   32.50
  -8 -12  -2  860.81   33.60
   8  12  -2  896.11   30.60
  -8 -12   2  899.91   31.30
   8  12   2  904.51   34.30
  12  -8   2  977.40   32.70
   8  12   2  868.71   35.10
  12  -8   2  929.41   34.00
   8  12   2  888.31   32.20
  -8 -12   2  939.61   33.50
 -12   8   2  945.51   31.50
 -12   8   2  947.21   34.40
 -12   8   2  905.61   35.20
   8  12   2  931.41   32.90
  10  12  -2  144.09   13.90
  12 -10  -2  134.49   13.90
 -10 -12  -2  162.78   17.00
 -12  10  -2  154.08   12.90
  10  12  -2  106.19   14.20
 -12  10  -2  131.29   16.80
 -10 -12  -2  158.28   16.00
  10  12  -2  133.89   10.90
  12 -10  -2  132.39   14.50
  12 -10  -2  146.79   13.90
  10  12  -2  140.79   17.20
  10  12   2  155.18   13.90
  10  12   2  133.79   14.70
 -10 -12   2  134.09   15.30
 -12  10   2  138.19   17.20
 -12  10   2  147.29   18.30
  10  12   2  152.38   15.40
  10  12   2  154.48   17.10
 -10 -12   2  135.29   11.40
  12 -10   2  137.39   15.10
 -12 -12  -2   43.50   11.20
  12 -12  -2   40.10    9.20
 -12  12  -2   61.19   12.40
 -12 -12  -2   43.90   11.90
  12  12  -2   41.50   12.90
  12  12  -2   44.60    7.50
  12  12  -2   46.70   10.50
  12  12   2   40.70   10.00
 -12  12   2   44.40   12.50
  12  12   2   43.00   12.50
 -12 -12   2   55.09    8.20
 -12 -12   2   35.00   10.40
  12  12   2   37.40   11.80
  12 -12   2   31.00   10.40
 -12  12   2   35.40   13.30
 -13 -11  -2  103.59   13.10
 -11  13  -2  127.79   15.70
  11 -13  -2  132.79   15.20
  13  11  -2  110.99   12.50
  13  11  -2  101.79   12.40
 -11  13  -2  111.09   13.50
 -13 -11  -2  119.09   13.60
  11 -13   2  101.29   12.50
 -13 -11   2  111.69   13.70
 -11  13   2  108.69   14.80
 -11  13   2  129.69   19.60
  13  11   2  114.39   14.30
 -13 -11   2  117.99   13.20
 -11  13   2  134.09   15.60
  13  11   2  140.09   19.30
  13  11   2  123.89   15.90
   9 -13  -2  164.68   14.50
  13   9  -2  165.48   18.70
  13   9  -2  181.78   16.90
 -13  -9  -2  175.88   18.60
 -13  -9  -2  167.48   17.30
  -9  13  -2  154.78   15.70
  -9  13  -2  199.98   17.60
  13   9  -2  165.38   12.00
  13   9   2  189.88   15.20
  -9  13   2  159.38   20.30
   9 -13   2  177.18   16.00
 -13  -9   2  159.68   12.50
  -9  13   2  188.38   19.30
  13   9   2  158.58   18.40
   9 -13   2  189.38   18.10
 -13  -9   2  178.08   17.50
  -9  13   2  199.88   16.90
   9 -13   2  190.08   16.50
  13   9   2  155.48   15.40
   7 -13  -2   96.09   12.40
  -7  13  -2  141.79   15.00
  -7  13  -2  133.99   14.20
  13   7  -2  132.49   10.50
 -13  -7  -2  113.99   15.10
  13   7  -2  119.29   16.10
   7 -13  -2  125.49   12.40
  13   7  -2  128.49   13.70
 -13  -7  -2  156.38   15.70
  -7  13  -2  154.48   13.00
  13   7   2  122.19   13.00
 -13  -7   2  121.89   15.50
  13   7   2  110.79   13.70
   7 -13   2  117.39   14.80
  -7  13   2  101.39   12.30
  -7  13   2  145.49   15.00
  -7  13   2   99.69   12.20
   7 -13   2  121.19   13.50
   7 -13   2  129.69   14.40
 -13  -7   2  121.59   10.60
  13   7   2  130.39   15.50
 -13  -5  -2   28.90    8.10
   5 -13  -2   13.50    6.20
 -13  -5  -2   13.60    8.30
  13   5  -2   20.10    7.70
  13   5  -2   17.10    5.20
   5 -13  -2   21.40    8.20
  -5  13  -2   19.50    7.00
  -5  13  -2   18.70    7.80
  -5  13  -2   10.20    7.40
  13   5  -2   18.40    6.80
  -5  13  -2   14.30    6.60
 -13  -5   2   15.60    5.60
  -5  13   2   20.00    9.00
  13   5   2   20.20    7.50
  13   5   2   13.20    7.90
 -13  -5   2   19.00    8.40
   5 -13   2   20.80    8.90
  -5  13   2   16.90    7.60
   5 -13   2   16.00    6.70
  -5  13   2   20.10    6.20
  13   5   2   10.90    6.80
  13   3  -2  245.48   13.90
 -13  -3  -2  249.08   16.50
   3 -13  -2  228.88   14.90
   3 -13  -2  238.88   12.30
  13   3  -2  209.38   14.10
  -3  13  -2  236.68   14.00
  -3  13  -2  214.38   13.00
   3 -13  -2  199.08   12.50
  -3  13  -2  200.28   13.90
  -3  13  -2  228.78   15.60
 -13  -3  -2  238.48   15.50
 -13  -3  -2  233.28   11.70
   3 -13  -2  237.58   16.20
 -13  -3   2  246.18   13.60
  13   3   2  205.08   15.20
   3 -13   2  235.58   13.80
  13   3   2  203.88   14.40
   3 -13   2  222.98   13.80
 -13  -3   2  203.98   15.30
  13   3   2  234.78   14.60
  -3  13   2  234.18   13.90
  -3  13   2  251.47   16.60
  -3  13   2  234.18   18.00
  -3  13   2  221.28   17.10
  -3  13   2  222.78   15.70
  -1  13  -2   -2.80    4.80
  13   1  -2    1.40    4.40
  -1  13  -2    2.00    5.50
   1 -13  -2    2.00    5.00
   1 -13  -2    2.40    8.00
 -13  -1  -2    2.10    6.80
  13   1  -2    0.80    6.50
   1 -13  -2   -0.70    4.90
  13   1  -2    0.00    5.50
  -1  13  -2   -1.40    6.50
   1 -13  -2   10.20    7.10
 -13  -1  -2   -7.60    7.70
 -13  -1  -2   -1.40    5.00
  -1  13  -2    4.00    5.60
  -1  13   2   10.40    7.40
 -13  -1   2    5.80    6.80
  13   1   2   14.40    6.80
 -13  -1   2   -2.70    7.80
  13   1   2    6.10    6.80
   1 -13   2   -1.80    4.10
  -1  13   2   10.90    7.60
  -1  13   2   -0.90    5.10
 -13  -1   2    6.10    5.20
  -1  13   2   -6.40    6.30
  13   1   2    0.40    6.70
  -1  13   2   -7.50    8.80
   1 -13   2    0.90    6.00
   1 -13   2    5.00    5.30
 -13   1  -2  485.85   22.00
  13  -1  -2  420.16   19.80
   1  13  -2  472.45   21.10
   1  13  -2  442.46   18.00
  13  -1  -2  461.35   18.40
  -1 -13  -2  452.85   19.00
  13  -1  -2  469.05   19.50
  -1 -13  -2  481.55   23.50
  -1 -13  -2  430.86   19.40
   1  13  -2  419.06   19.90
 -13   1  -2  486.65   20.10
 -13   1  -2  499.85   19.20
 -13   1   2  470.85   19.60
  -1 -13   2  485.65   19.90
   1  13   2  491.35   20.60
  13  -1   2  460.65   20.30
  13  -1   2  440.86   20.30
  13  -1   2  485.15   21.20
   1  13   2  483.85   20.00
   1  13   2  425.36   21.90
   1  13   2  468.95   22.00
  -1 -13   2  455.55   18.50
 -13   1   2  480.55   20.20
  -1 -13   2  496.75   17.70
   3  13  -2  759.52   29.00
  -3 -13  -2  738.53   26.60
   3  13  -2  699.83   28.70
  13  -3  -2  707.03   26.50
 -13   3  -2  757.62   27.50
   3  13  -2  783.72   24.90
   3  13  -2  706.23   25.70
 -13   3  -2  774.42   29.90
  13  -3  -2  754.52   27.90
  -3 -13  -2  750.82   28.50
  13  -3  -2  753.12   27.60
  -3 -13  -2  716.93   27.40
 -13   3  -2  735.03   27.70
   3  13   2  740.73   28.30
  13  -3   2  745.73   28.60
   3  13   2  728.93   29.10
 -13   3   2  759.42   28.20
  -3 -13   2  713.53   25.70
 -13   3   2  739.33   27.50
  -3 -13   2  767.22   26.20
  13  -3   2  739.73   27.10
   3  13   2  702.43   27.00
  -3 -13   2  739.93   28.20
  13  -3   2  728.33   28.10
  -5 -13  -2   92.69   11.40
   5  13  -2   93.69    9.80
  13  -5  -2   94.69   12.10
 -13   5  -2   88.29   12.50
  13  -5  -2   92.69   10.20
  -5 -13  -2   85.19    9.80
   5  13  -2   87.69    8.70
 -13   5  -2   73.59    9.10
   5  13  -2   97.79   13.00
 -13   5  -2   96.09   11.90
   5  13  -2   83.89   11.50
  13  -5  -2   98.89   11.90
  13  -5   2  104.79   12.50
 -13   5   2   84.39    9.60
   5  13   2   93.29   12.40
   5  13   2   81.49    8.90
  -5 -13   2   83.59   10.60
   5  13   2   78.49   10.20
  13  -5   2   71.09    8.60
  -5 -13   2   77.59    9.40
  13  -5   2  105.69   11.80
 -13   5   2  111.19   13.20
   5  13   2   84.99   10.20
   7  13  -2   68.29    9.00
  -7 -13  -2   52.99    8.90
 -13   7  -2   84.69    9.80
   7  13  -2   47.40    9.60
   7  13  -2   66.89    9.10
   7  13  -2   69.19    9.40
  13  -7  -2   71.99    8.50
  -7 -13  -2   70.79    9.80
  13  -7  -2   63.19    8.40
  13  -7  -2   69.49    8.80
 -13   7   2   77.69   10.80
  13  -7   2   74.49    9.40
  -7 -13   2   79.29    8.80
 -13   7   2   71.89   10.00
   7  13   2   69.59    7.90
   7  13   2   59.89   10.30
  -7 -13   2   74.99    9.60
   7  13   2   79.09   10.70
   7  13   2   75.29    9.20
  13  -7   2   73.59    8.70
   9  13  -2  132.89   17.40
  13  -9  -2  163.68   15.10
 -13   9  -2  169.08   16.70
   9  13  -2  138.19   14.90
  -9 -13  -2  132.49   16.10
  13  -9  -2  170.98   14.70
   9  13  -2  132.79   11.60
  -9 -13  -2  145.29   17.20
   9  13  -2  148.09   15.50
  13  -9  -2  141.29   14.60
  13  -9   2  122.49   16.10
   9  13   2  147.79   14.00
   9  13   2  161.38   15.40
 -13   9   2  133.59   13.50
 -13   9   2  114.49   13.50
  -9 -13   2  168.08   12.30
  -9 -13   2  172.28   15.20
   9  13   2  153.88   17.00
   9  13   2  158.38   18.10
  11  13  -2   56.29   13.00
  11  13  -2   75.89   12.00
 -11 -13  -2   48.00   11.40
  11  13  -2   68.29    8.30
  13 -11  -2   81.39   11.20
 -11 -13  -2   55.09   11.80
 -13  11  -2   80.29   13.00
  11  13   2   55.09   13.60
  13 -11   2   71.09   11.60
 -13  11   2   71.49   13.30
  11  13   2   74.29   10.70
 -11 -13   2   58.09    8.40
 -13  11   2   75.09   13.70
 -11 -13   2   66.39   17.00
  11  13   2   67.09   10.50
  13 -13  -2  210.78   18.90
  13  13  -2  195.18   20.80
  13  13  -2  191.98   16.10
 -13 -13  -2  205.08   23.60
  13  13  -2  206.18   25.50
 -13  13  -2  226.28   22.50
 -13 -13  -2  218.08   23.80
 -13 -13   2  228.58   23.00
 -13  13   2  239.08   23.80
  13  13   2  218.08   24.10
 -13 -13   2  227.58   16.70
  13  13   2  196.18   20.50
  13 -13   2  213.88   22.10
  13  13   2  187.18   20.50
  14  12  -2   -2.40    7.80
  14  12  -2   21.70   12.30
  14  12  -2    1.80   14.50
 -14 -12  -2    3.00   12.20
  12 -14  -2    1.70    9.50
 -12  14  -2   11.30   13.50
 -14 -12  -2    8.90   13.70
 -14 -12   2  -13.60   11.90
 -14 -12   2    4.00    8.70
 -12  14   2  -19.50   13.50
  12 -14   2   -5.20   12.00
  14  12   2   -9.70   10.70
  14  12   2   -5.70   13.80
  14  12   2    5.70   10.80
 -12  14   2   -0.30   10.40
  14  10  -2  515.45   29.10
 -10  14  -2  588.14   29.30
  10 -14  -2  554.24   24.50
 -10  14  -2  538.55   28.00
  14  10  -2  539.75   22.80
  14  10  -2  544.75   26.20
 -14 -10  -2  547.05   28.80
 -14 -10  -2  566.24   28.00
 -10  14   2  549.54   29.10
 -14 -10   2  499.35   22.60
  14  10   2  565.94   25.90
 -14 -10   2  580.44   28.50
  14  10   2  545.95   26.10
  14  10   2  543.85   28.20
  10 -14   2  532.05   26.90
 -10  14   2  571.44   26.30
  -8  14  -2   46.20   10.90
 -14  -8  -2   52.19   11.40
  14   8  -2   44.30    8.60
  -8  14  -2   51.59   10.50
  -8  14  -2   34.00    9.50
  14   8  -2   46.10    9.80
 -14  -8  -2   55.69   11.30
   8 -14  -2   53.99    8.80
  14   8  -2   65.29   11.50
  14   8   2   38.40    9.70
  14   8   2   43.00   11.10
 -14  -8   2   41.40   11.00
 -14  -8   2   39.80    8.80
   8 -14   2   76.39   11.80
   8 -14   2   49.30    9.90
  14   8   2   43.30    9.70
  -8  14   2   50.49   10.40
   8 -14   2   47.10    9.80
  -8  14   2   53.39   12.10
  -6  14  -2  530.45   24.50
  14   6  -2  512.45   23.90
 -14  -6  -2  533.15   24.40
 -14  -6  -2  505.45   25.70
  -6  14  -2  528.75   24.40
  -6  14  -2  556.84   23.60
  14   6  -2  508.15   21.00
  14   6  -2  492.95   23.50
   6 -14  -2  554.14   22.40
  -6  14   2  521.45   24.60
  14   6   2  555.94   23.90
 -14  -6   2  495.55   21.30
  -6  14   2  531.15   25.30
  14   6   2  534.45   25.10
 -14  -6   2  530.05   25.80
   6 -14   2  516.75   23.10
   6 -14   2  530.05   24.60
  14   6   2  506.45   23.40
   4 -14  -2  109.59   12.10
   4 -14  -2  116.99   11.60
 -14  -4  -2   96.89   11.60
  -4  14  -2   88.59   10.00
 -14  -4  -2  107.69   14.50
  14   4  -2  105.99   10.90
  -4  14  -2  118.39   13.10
  -4  14  -2  103.49   11.30
  14   4  -2  109.89   13.30
  14   4  -2  108.59   12.90
  -4  14  -2  122.09   12.60
 -14  -4   2   86.79   11.20
  14   4   2  111.39   13.40
  14   4   2   95.99   10.30
  14   4   2   86.29   10.60
  -4  14   2  111.89   14.80
 -14  -4   2   91.09   11.40
   4 -14   2   84.99    9.30
  -4  14   2  121.29   12.20
   4 -14   2  102.79   13.90
  14   2  -2  169.48   11.20
 -14  -2  -2  180.68   18.50
   2 -14  -2  194.38   15.70
  -2  14  -2  190.88   14.50
  -2  14  -2  181.08   12.60
   2 -14  -2  188.08   12.60
  14   2  -2  176.08   14.10
  -2  14  -2  184.18   13.60
  -2  14  -2  183.58   15.60
   2 -14  -2  201.88   12.50
 -14  -2  -2  176.28   15.10
 -14  -2  -2  193.68   12.70
  -2  14   2  182.98   12.40
  -2  14   2  198.28   16.90
  14   2   2  205.88   15.50
  -2  14   2  180.88   15.50
   2 -14   2  177.78   13.50
  -2  14   2  185.38   15.70
   2 -14   2  193.48   14.10
 -14  -2   2  176.68   12.70
 -14  -2   2  185.58   15.90
  14   2   2  197.98   15.40
  14   2   2  194.28   14.20
 -14   0  -2 1667.63   53.29
   0 -14  -2 1637.64   53.99
  14   0  -2 1610.14   53.49
 -14   0  -2 1695.93   55.69
 -14   0  -2 1708.93   55.09
  14   0  -2 1705.53   54.69
  14   0  -2 1616.74   55.29
   0  14  -2 1617.64   55.99
   0  14  -2 1635.44   55.19
   0  14  -2 1688.63   53.69
   0 -14  -2 1698.53   54.49
   0  14  -2 1655.73   52.79
   0 -14  -2 1652.93   52.69
   0  14   2 1628.54   54.09
 -14   0   2 1651.83   54.09
  14   0   2 1547.15   55.09
  14   0   2 1690.63   54.89
   0  14   2 1678.73   54.29
   0 -14   2 1635.64   54.49
 -14   0   2 1701.43   54.09
   0  14   2 1693.33   54.19
 -14   0   2 1665.53   56.69
   0 -14   2 1655.93   52.09
   0  14   2 1700.63   56.29
  14   0   2 1658.53   56.79
   0 -14   2 1636.14   53.59
  -2 -14  -2   92.79    9.90
  14  -2  -2  107.29   12.40
   2  14  -2   86.39   11.20
 -14   2  -2  103.19   12.80
 -14   2  -2  109.89   12.00
   2  14  -2   87.39   12.80
  -2 -14  -2  109.49   10.80
   2  14  -2   96.49   10.00
  -2 -14  -2   93.09   11.60
 -14   2  -2  125.99   15.90
   2  14  -2   97.19   10.90
  14  -2  -2   97.89   10.30
  14  -2  -2  115.69   12.80
  -2 -14   2   88.09   10.10
   2  14   2   90.09   12.30
  14  -2   2  117.29   12.60
 -14   2   2   93.59   10.20
  -2 -14   2   92.99   11.90
  -2 -14   2  110.19    9.40
 -14   2   2   89.39    9.20
  14  -2   2  129.39   12.80
   2  14   2  109.69   14.70
 -14   4  -2  907.21   34.50
  -4 -14  -2  983.50   35.10
   4  14  -2  982.80   35.60
   4  14  -2  929.31   36.10
  14  -4  -2  962.40   33.90
 -14   4  -2  990.60   36.90
  14  -4  -2  981.50   34.80
 -14   4  -2 1007.90   34.10
   4  14  -2  920.31   32.80
  14  -4  -2  977.90   34.50
  -4 -14  -2  943.41   34.40
   4  14   2  929.01   35.40
  -4 -14   2  902.31   34.90
  -4 -14   2  985.40   32.90
  -4 -14   2  907.11   32.60
   4  14   2  921.11   36.20
   4  14   2  987.90   34.20
 -14   4   2  980.90   35.50
  14  -4   2  921.81   34.70
 -14   4   2  982.70   34.90
  14  -4   2  992.50   33.80
  14  -6  -2   39.40    7.80
   6  14  -2   25.60    9.30
   6  14  -2   26.50    8.80
  14  -6  -2   31.50    8.10
   6  14  -2   16.30    8.70
  -6 -14  -2   30.30    9.50
  14  -6  -2   29.20    7.20
   6  14  -2   23.30    6.00
 -14   6  -2   26.00    9.10
  -6 -14  -2   22.50    8.10
   6  14   2   46.40   10.50
   6  14   2   24.80    9.50
  -6 -14   2   33.40    7.30
  14  -6   2   22.20    8.80
 -14   6   2   23.10    9.00
 -14   6   2   41.10   10.30
   6  14   2   19.60    7.90
   6  14   2   32.20    7.00
  -6 -14   2   32.60    6.80
   8  14  -2  243.08   19.20
  -8 -14  -2  264.07   19.80
  -8 -14  -2  241.98   17.90
  14  -8  -2  252.47   17.50
 -14   8  -2  285.07   19.50
   8  14  -2  258.87   18.40
   8  14  -2  266.87   15.70
  14  -8  -2  244.08   17.10
   8  14  -2  261.27   20.30
  14  -8  -2  271.97   17.60
   8  14   2  269.37   20.40
  -8 -14   2  246.08   15.80
 -14   8   2  258.37   20.60
  -8 -14   2  298.37   17.90
   8  14   2  283.97   17.70
   8  14   2  256.07   16.40
   8  14   2  278.57   21.60
 -14   8   2  281.57   21.20
  14  -8   2  274.57   19.00
 -14  10  -2    3.90   10.80
  10  14  -2    8.30    6.90
  14 -10  -2   20.10   12.60
  10  14  -2    3.40   11.80
  10  14  -2   16.40   10.00
 -10 -14  -2   17.20   11.50
 -10 -14  -2   10.70   10.90
  14 -10  -2    8.20    9.60
 -14  10   2   19.00   12.70
  10  14   2    6.20   12.20
  14 -10   2   16.00   10.20
 -10 -14   2   10.20    7.40
 -14  10   2   21.20   12.90
  10  14   2   20.60   10.80
  10  14   2   11.70    9.50
  14 -12  -2   45.00   11.00
  12  14  -2   44.80   12.40
  12  14  -2   56.69   15.00
 -12 -14  -2   68.49   14.80
 -14  12  -2   57.19   14.80
 -12 -14  -2   73.99   14.30
  12  14  -2   50.79    9.20
 -14  12   2   90.59   15.80
  12  14   2   54.49   15.50
 -12 -14   2   46.30   13.60
  14 -12   2   61.79   13.00
 -14  12   2   33.10   23.20
  12  14   2   36.20   14.60
  12  14   2   51.29   12.20
 -12 -14   2   44.90    9.40
  14  14  -2  561.14   32.40
  14  14  -2  569.44   35.50
 -14 -14  -2  565.14   32.80
 -14  14  -2  572.54   32.00
  14  14  -2  524.95   25.80
 -14 -14  -2  566.34   32.20
  14  14   2  569.64   35.30
  14  14   2  561.24   30.30
 -14  14   2  574.44   33.80
 -14 -14   2  581.14   33.40
  14  14   2  540.95   30.50
 -14 -14   2  532.75   26.10
  14 -14   2  558.54   32.50
 -15 -13  -2  152.38   17.90
 -13  15  -2  161.98   18.60
  15  13  -2  183.58   20.40
  15  13  -2  157.58   17.90
 -15 -13  -2  169.38   19.00
  15  13  -2  166.48   18.00
 -13  15   2  169.68   20.10
 -15 -13   2  170.68   18.80
  15  13   2  125.49   19.40
  15  13   2  142.29   16.30
  13 -15   2  207.38   25.30
 -15 -13   2  175.78   19.00
  15  13   2  157.18   16.80
 -15 -11  -2   62.29   14.00
  15  11  -2   29.40   12.80
  11 -15  -2   26.00   10.60
 -11  15  -2   46.30   14.10
  15  11  -2   48.00    9.20
 -11  15  -2   23.10   11.60
  15  11  -2   20.90   15.00
 -15 -11  -2   36.40   15.00
  15  11   2   -3.80   13.30
 -11  15   2   31.30   11.60
  15  11   2   31.80   12.10
  15  11   2   36.90   11.60
  11 -15   2   40.30   13.00
 -15 -11   2   40.30   13.80
 -11  15   2   16.40   14.20
 -15 -11   2   22.30    9.30
 -15  -9  -2  213.48   23.30
  15   9  -2  237.58   16.20
  15   9  -2  265.37   21.50
  -9  15  -2  263.97   22.60
  -9  15  -2  240.78   20.90
  15   9  -2  235.08   23.30
 -15  -9  -2  243.88   21.40
   9 -15  -2  250.37   17.70
 -15  -9   2  258.17   22.80
  -9  15   2  249.08   23.50
  15   9   2  293.87   21.70
  15   9   2  238.98   22.00
  15   9   2  249.08   19.80
 -15  -9   2  221.68   16.50
   9 -15   2  257.47   20.40
  -9  15   2  244.58   21.20
  15   7  -2  376.16   18.70
  -7  15  -2  419.66   30.60
  15   7  -2  342.67   23.50
 -15  -7  -2  380.66   32.30
  15   7  -2  387.76   23.00
  -7  15  -2  398.56   23.30
   7 -15  -2  425.86   20.60
  15   7   2  423.16   22.20
  -7  15   2  407.76   25.80
   7 -15   2  368.96   22.10
   7 -15   2  394.56   22.60
 -15  -7   2  332.47   18.50
  -7  15   2  379.06   22.70
  15   7   2  366.26   23.60
   7 -15   2  413.46   23.90
 -15  -7   2  412.56   24.80
  -5  15  -2   56.19   10.30
  15   5  -2   61.79    9.90
  -5  15  -2   73.49   11.50
  -5  15  -2   52.49    9.20
  15   5  -2   48.40    7.70
 -15  -5  -2   40.40   11.40
 -15  -5  -2   43.30   10.20
   5 -15  -2   54.59    9.00
  15   5  -2   52.19    9.40
  -5  15  -2   42.50    8.80
 -15  -5   2   47.90   11.00
   5 -15   2   70.59    9.90
  15   5   2   57.39   10.90
 -15  -5   2   47.70    8.00
  15   5   2   47.60    9.60
   5 -15   2   50.79   10.60
  15   5   2   59.29   10.40
  -5  15   2   56.69   10.80
  -5  15   2   52.89   12.00
  -3  15  -2   19.40    7.70
  -3  15  -2   13.70    8.40
  15   3  -2   19.70    6.90
 -15  -3  -2   14.80    9.30
  -3  15  -2   18.10    9.70
  -3  15  -2   23.40    8.40
 -15  -3  -2   15.20   10.60
  15   3  -2   18.20    8.30
   3 -15  -2   27.50    7.70
   3 -15   2   15.50    8.40
   3 -15   2   29.10    8.00
 -15  -3   2    6.90    9.50
  15   3   2    4.40    8.10
 -15  -3   2   24.00    7.50
  15   3   2   10.00    8.90
  -3  15   2    6.50    9.10
  15   3   2   21.40    8.50
  -3  15   2   13.10   10.40
  -1  15  -2   98.79    9.30
  15   1  -2  112.59   10.90
 -15  -1  -2  125.39   16.00
  15   1  -2  103.99   10.70
   1 -15  -2   96.39   12.00
 -15  -1  -2  111.39   12.70
  -1  15  -2  100.69   11.80
  -1  15  -2   81.89   11.30
   1 -15  -2   92.39   12.50
  -1  15  -2  101.19   13.50
   1 -15  -2   94.89   11.80
  15   1   2  111.59   14.60
 -15  -1   2   81.59   11.00
  15   1   2  111.69   15.20
  15   1   2   81.89   10.60
  -1  15   2  132.09   16.30
  -1  15   2  128.59   12.10
   1 -15   2  128.89   13.50
 -15  -1   2   87.69   11.70
  -1  15   2  105.29   12.70
   1 -15   2  104.19   12.70
 -15   1  -2  100.79   11.00
  -1 -15  -2  101.59   11.10
   1  15  -2  100.99   10.80
  15  -1  -2   80.19   10.20
 -15   1  -2   88.59   12.00
  -1 -15  -2   99.09   11.80
   1  15  -2   98.99   11.90
  15  -1  -2   78.29   10.90
   1  15  -2   96.39   11.20
  -1 -15  -2   92.29   11.60
 -15   1  -2   93.59   13.10
   1  15  -2  107.09   13.80
  15  -1  -2  100.19   10.50
 -15   1   2  102.19   12.50
  15  -1   2  105.09   13.90
 -15   1   2   88.89    9.50
   1  15   2   81.19   11.50
  15  -1   2  117.09   15.00
  -1 -15   2   69.29    8.50
   1  15   2   81.79    9.60
  15  -1   2  119.89   13.80
  -1 -15   2   70.99    9.40
 -15   1   2  115.29   13.00
 -15   3  -2   87.49   10.10
   3  15  -2   74.59   10.70
 -15   3  -2   96.39   13.40
  -3 -15  -2  106.39   11.20
  -3 -15  -2   82.19    9.80
   3  15  -2   89.19   11.20
  15  -3  -2   83.99   10.70
  15  -3  -2   76.09    9.90
   3  15  -2   87.09   10.70
 -15   3  -2   87.99   10.00
  15  -3  -2  101.99   11.50
  -3 -15  -2   94.39   12.80
  -3 -15   2   81.59    9.80
  15  -3   2   72.19    9.50
  -3 -15   2   74.09    8.20
  -3 -15   2   94.99   10.40
 -15   3   2   73.89    9.70
   3  15   2   76.29   11.40
 -15   3   2   81.29   10.60
  15  -3   2   91.39    9.80
   3  15   2   84.79   10.50
   5  15  -2    7.10   15.10
  -5 -15  -2   25.80    9.70
   5  15  -2   12.10   10.00
  15  -5  -2   14.80    8.50
   5  15  -2   11.90    6.40
 -15   5  -2   15.90    9.10
  15  -5  -2    4.10    8.10
  15  -5  -2   19.00    7.10
  -5 -15  -2   23.60    8.50
   5  15   2    9.60    9.00
   5  15   2   12.00    7.00
  15  -5   2   24.00    8.50
  -5 -15   2   17.30    6.90
  -5 -15   2    5.30    6.70
   5  15   2    7.90   10.00
 -15   5   2   15.30    9.10
 -15   5   2   21.00   11.80
   5  15   2   13.90    8.20
  -5 -15   2   10.10    8.70
   7  15  -2  339.87   17.40
  15  -7  -2  388.36   20.50
  15  -7  -2  353.06   19.90
   7  15  -2  365.96   20.50
  -7 -15  -2  358.96   22.40
  15  -7  -2  376.86   20.20
 -15   7  -2  366.66   26.40
   7  15  -2  328.37   22.50
  -7 -15  -2  334.57   22.00
   7  15  -2  358.26   21.80
  15  -7   2  345.67   21.00
 -15   7   2  329.07   33.10
  -7 -15   2  349.96   19.10
 -15   7   2  364.86   22.80
  -7 -15   2  349.67   18.50
   7  15   2  373.96   23.00
   7  15   2  346.07   23.90
   9  15  -2  297.67   17.60
   9  15  -2  300.77   24.20
  15  -9  -2  316.17   22.00
  15  -9  -2  303.37   19.80
   9  15  -2  313.67   21.90
  -9 -15  -2  297.07   23.90
  -9 -15  -2  332.17   22.00
   9  15  -2  323.17   21.30
 -15   9  -2  357.76   23.30
   9  15   2  325.07   23.70
   9  15   2  328.47   19.70
 -15   9   2  304.67   23.30
   9  15   2  301.37   23.30
  -9 -15   2  314.17   18.10
  15  -9   2  305.87   21.90
  11  15  -2   31.10   13.00
  11  15  -2   23.20    8.90
 -15  11  -2   28.40   13.90
  11  15  -2   35.60   14.40
 -11 -15  -2   19.80   14.00
  15 -11  -2   40.30   11.00
 -11 -15  -2   42.70   13.40
  15 -11   2   39.70   11.90
 -15  11   2   42.30   15.00
 -11 -15   2   13.60   12.10
 -15  11   2   36.10   14.90
  11  15   2   23.20   14.90
  11  15   2   30.20   11.10
 -11 -15   2   21.10    9.00
 -13 -15  -2  115.99   18.30
 -13 -15  -2  102.39   17.50
  13  15  -2   81.59   11.20
  13  15  -2  109.09   16.30
  13  15  -2  125.19   19.40
 -15  13  -2   80.59   17.40
 -15  13   2   96.49   17.70
  13  15   2   80.29   14.10
 -13 -15   2   86.49   11.60
 -13 -15   2   64.29   16.20
  13  15   2   97.29   18.50
  13  15   2   85.29   14.40
  15 -13   2   97.69   15.70
  16  12  -2   16.40   10.20
 -16 -12  -2    0.30   15.50
  16  12  -2   13.20   14.80
  16  12  -2   29.40   16.80
 -12  16  -2   38.60   16.00
 -12  16  -2   17.30   12.70
 -16 -12  -2   33.20   16.70
  16  12   2   20.00   14.10
 -16 -12   2    2.20   15.50
  12 -16   2    4.50   14.90
  16  12   2   10.30   13.40
 -12  16   2   13.20   17.10
 -16 -12   2   11.10   10.70
  16  12   2    7.70   16.80
 -10  16  -2   12.10   12.40
  10 -16  -2   30.40   11.00
 -10  16  -2   11.10   13.40
  16  10  -2   38.40   15.00
  16  10  -2   27.70   12.80
 -16 -10  -2    6.00   15.40
  16  10  -2   22.40    9.30
 -16 -10  -2    8.80   14.00
 -16 -10   2   15.70   14.70
 -10  16   2   35.50   13.00
  16  10   2   41.90   12.50
  16  10   2   15.20   14.20
 -10  16   2   12.00   15.00
 -16 -10   2   12.90    9.30
  10 -16   2   27.00   13.60
  16  10   2   25.80   12.30
  -8  16  -2  105.69   14.40
 -16  -8  -2   81.29   14.60
  16   8  -2   86.29    9.90
   8 -16  -2   65.19   17.90
  16   8  -2  101.99   14.30
  16   8  -2   64.89   12.90
 -16  -8  -2   59.69   14.70
  -8  16  -2   75.49   12.70
 -16  -8   2   89.19   10.70
  -8  16   2   79.69   13.20
  16   8   2   84.29   12.30
  16   8   2   73.49   12.60
 -16  -8   2   68.39   14.20
   8 -16   2   61.79   11.70
  -8  16   2   59.69   14.40
  16   8   2   82.49   14.60
  -6  16  -2  196.38   23.00
  -6  16  -2  191.28   20.00
 -16  -6  -2  215.38   21.00
   6 -16  -2  184.18   16.50
  16   6  -2  210.78   19.20
  16   6  -2  199.58   15.90
 -16  -6  -2  211.68   22.80
   6 -16   2  234.18   20.30
 -16  -6   2  179.78   16.10
  16   6   2  176.68   20.60
  -6  16   2  196.98   25.40
  16   6   2  176.78   18.50
 -16  -6   2  189.88   20.70
   6 -16   2  199.58   20.90
  16   6   2  188.38   19.70
  -6  16   2  181.78   20.80
   6 -16   2  192.38   18.40
  -4  16  -2  902.71   35.70
  -4  16  -2  969.10   37.70
 -16  -4  -2  973.10   37.00
  -4  16  -2  956.00   35.80
  16   4  -2  908.21   34.00
  16   4  -2  889.21   39.80
 -16  -4  -2  981.60   38.30
  -4  16  -2  949.51   36.20
   4 -16  -2  969.90   34.90
 -16  -4   2  920.41   37.60
   4 -16   2  948.11   37.50
  -4  16   2  902.41   38.60
  16   4   2  963.80   36.70
  16   4   2  917.51   35.90
  16   4   2  943.91   36.60
   4 -16   2  925.91   35.50
 -16  -4   2  871.01   34.00
  -4  16   2  981.10   38.00
 -16  -2  -2   15.80   11.90
  -2  16  -2   15.80   12.30
  16   2  -2   28.80    7.80
 -16  -2  -2   20.90   10.70
   2 -16  -2   25.80    8.10
  16   2  -2   24.90    9.40
  -2  16  -2   24.20    8.90
  -2  16  -2   25.30    9.20
  -2  16  -2   21.30    8.50
 -16  -2   2    4.00   10.90
  16   2   2   20.40    9.60
  16   2   2   22.20   10.90
  -2  16   2   35.20   11.10
   2 -16   2   18.30    8.90
   2 -16   2   29.70    9.50
  -2  16   2   37.10   12.20
 -16  -2   2   22.70    8.70
   0  16  -2  470.55   24.80
 -16   0  -2  459.85   26.00
  16   0  -2  464.65   20.60
  16   0  -2  489.45   23.20
   0  16  -2  481.55   21.10
   0  16  -2  492.55   25.10
   0 -16  -2  452.75   21.40
   0  16  -2  466.25   23.90
 -16   0  -2  486.95   24.30
  16   0   2  472.75   23.10
   0 -16   2  435.56   22.00
   0 -16   2  448.06   21.80
  16   0   2  461.95   24.10
   0  16   2  461.05   22.40
 -16   0   2  457.35   21.70
   0  16   2  480.15   25.30
  16   0   2  484.15   22.50
 -16   0   2  477.85   25.00
 -16   2  -2   62.79   13.30
  -2 -16  -2   23.20   10.90
 -16   2  -2   41.50   10.40
 -16   2  -2   36.40    9.30
   2  16  -2   37.50    9.00
  -2 -16  -2   38.30    8.70
  16  -2  -2   37.00   10.00
  -2 -16  -2   12.30    8.00
   2  16  -2   45.40   10.30
   2  16  -2   33.70   10.50
  16  -2  -2   35.40    7.80
 -16   2   2   29.00    9.50
 -16   2   2   19.00   11.50
  16  -2   2   27.30   10.00
   2  16   2   29.40    9.40
   2  16   2   21.50   10.80
  -2 -16   2   37.40    8.40
 -16   2   2   40.40    9.50
  -2 -16   2   34.30    9.50
  16  -2   2   40.60   10.80
  -4 -16  -2   58.69   11.40
   4  16  -2   49.60   11.90
  16  -4  -2   88.19   11.50
  -4 -16  -2   45.00    9.80
 -16   4  -2   85.39   11.20
  16  -4  -2   86.29   10.70
  16  -4  -2   72.19    9.40
  -4 -16  -2   57.49    9.70
   4  16  -2   72.59   12.30
   4  16   2   69.19   12.50
 -16   4   2   60.19   10.80
  16  -4   2   49.99   10.10
  -4 -16   2   81.19    9.20
 -16   4   2   66.39   11.70
   4  16   2   77.79   11.40
 -16   6  -2   56.69   12.50
  -6 -16  -2   49.40   12.20
   6  16  -2   48.20    8.40
  16  -6  -2   61.59   10.60
  16  -6  -2   47.70   16.60
  -6 -16  -2   70.99   11.10
  16  -6  -2   54.39   12.20
   6  16  -2   61.99   12.70
   6  16  -2   59.19   12.20
  -6 -16   2   59.29    9.40
   6  16   2   50.89   12.40
  -6 -16   2   57.59    9.20
  16  -6   2   65.59   11.40
   6  16   2   60.09   19.70
 -16   6   2   50.99   12.40
  -6 -16   2   50.59   11.70
  16  -8  -2   59.39   11.50
  16  -8  -2   56.19   11.70
   8  16  -2   72.69    9.50
  -8 -16  -2   62.59   16.40
 -16   8  -2   62.79   13.10
  -8 -16  -2   63.49   12.00
   8  16  -2   58.79   13.50
  16  -8  -2   45.50   10.90
 -16   8   2   77.69   13.90
   8  16   2   76.29   14.40
  -8 -16   2   57.39   11.50
  16  -8   2   61.49   12.00
  -8 -16   2   40.90    9.80
  -8 -16   2   63.29   12.50
   8  16   2   43.60   14.00
 -16   8   2   68.69   14.20
 -10 -16  -2  881.31   37.70
  16 -10  -2  857.91   34.50
  10  16  -2  807.92   32.60
 -16  10  -2  885.31   37.80
 -10 -16  -2  876.51   37.70
  10  16  -2  845.52   39.70
  10  16  -2  839.02   36.60
 -10 -16   2  838.32   35.40
  16 -10   2  865.01   36.80
  10  16   2  815.02   38.70
 -16  10   2  859.81   39.40
 -16  10   2  848.32   38.30
 -10 -16   2  816.22   32.60
  12  16  -2  202.58   29.00
  12  16  -2  166.48   17.90
 -16  12  -2  183.28   19.00
  12  16  -2  166.88   18.70
 -12 -16  -2  140.59   19.00
 -12 -16  -2  158.48   18.10
 -12 -16   2  182.48   18.10
  12  16   2  170.98   20.20
  12  16   2  178.68   20.70
  12  16   2  157.58   16.10
 -12 -16   2  200.78   19.80
  16 -12   2  168.08   18.20
 -16  12   2  170.68   20.00
  17  11  -2  273.07   20.90
 -11  17  -2  282.47   28.40
  17  11  -2  296.57   28.10
 -17 -11  -2  262.37   31.90
 -17 -11  -2  322.57   29.90
 -11  17  -2  295.27   25.50
 -17 -11   2  277.37   29.90
  17  11   2  286.07   27.40
 -11  17   2  301.57   26.80
 -17 -11   2  268.27   21.50
  17  11   2  333.07   31.10
 -11  17   2  309.47   31.30
  11 -17   2  316.77   28.60
  17  11   2  232.58   25.60
 -17  -9  -2   24.80   14.20
  -9  17  -2   33.60   15.10
  -9  17  -2   39.20   13.80
 -17  -9  -2   27.30   16.30
  17   9  -2   42.80   10.40
  17   9  -2   30.00   14.40
  -9  17   2   55.29   14.90
  17   9   2   33.90   13.10
  17   9   2   21.30   15.10
  17   9   2   38.60   13.40
  -9  17   2   17.30   15.80
 -17  -9   2   21.70   10.40
   9 -17   2   30.30   13.80
 -17  -9   2   14.20   16.10
  17   7  -2   68.69   10.20
 -17  -7  -2   60.69   14.10
   7 -17  -2   61.99   11.00
  17   7  -2   54.59   13.30
  -7  17  -2   56.29   13.70
 -17  -7  -2   61.09   15.60
  -7  17  -2   49.60   14.40
  17   7   2   56.59   12.60
   7 -17   2   51.29   16.00
  17   7   2   44.60   13.60
  -7  17   2   52.19   13.10
  17   7   2   53.19   14.00
  -7  17   2   61.19   15.80
   7 -17   2   60.29   12.50
 -17  -7   2   85.69   15.60
 -17  -7   2   51.09    9.90
   5 -17  -2   85.59   15.90
  17   5  -2  123.29   13.50
 -17  -5  -2  158.78   23.60
 -17  -5  -2  102.09   13.90
  17   5  -2  128.99   16.40
  -5  17  -2  105.79   14.50
  -5  17  -2   97.39   13.70
   5 -17   2  115.59   13.50
  17   5   2  100.89   13.60
  -5  17   2  115.69   15.00
  17   5   2   95.99   19.90
  -5  17   2  123.39   21.40
 -17  -5   2  122.19   15.80
 -17  -5   2  120.39   16.30
 -17  -3  -2  132.89   15.70
  17   3  -2  135.59   15.40
  -3  17  -2  120.79   12.50
  17   3  -2  140.29   13.70
 -17  -3  -2  103.39   20.00
  -3  17  -2  168.08   19.70
   3 -17  -2  113.99   12.70
  -3  17  -2  132.99   15.10
   3 -17   2  141.99   18.00
  17   3   2  162.88   19.60
   3 -17   2  135.79   18.00
  -3  17   2  138.79   15.70
 -17  -3   2  144.39   16.20
  17   3   2  105.69   13.00
 -17  -3   2  135.19   15.40
  -3  17   2  130.79   14.90
  -1  17  -2  194.08   19.90
 -17  -1  -2  205.68   24.30
 -17  -1  -2  213.88   21.00
  17   1  -2  202.88   22.80
   1 -17  -2  219.68   17.40
  -1  17  -2  262.57   21.40
  -1  17   2  216.88   21.30
   1 -17   2  209.98   17.70
  17   1   2  176.28   19.00
 -17  -1   2  210.58   21.10
  17   1   2  204.98   19.10
   1  17  -2  209.68   17.10
   1  17  -2  174.28   21.20
  17  -1  -2  159.48   20.50
 -17   1  -2  241.48   20.90
   1  17  -2  210.28   20.20
  17  -1  -2  214.78   15.90
 -17   1  -2  203.78   25.30
  -1 -17   2  197.58   18.00
  -1 -17   2  189.58   17.30
   1  17   2  210.98   22.50
 -17   1   2  189.88   21.50
  17  -1   2  174.08   18.10
   1  17   2  167.18   18.70
 -17   1   2  185.48   18.00
 -17   3  -2  547.35   38.00
  -3 -17  -2  564.34   25.90
  17  -3  -2  505.35   24.20
 -17   3  -2  540.05   30.80
   3  17  -2  574.14   28.30
   3  17  -2  556.84   24.40
   3  17  -2  543.75   27.80
  17  -3  -2  514.15   26.60
 -17   3   2  580.14   30.10
   3  17   2  538.15   29.30
  -3 -17   2  527.15   26.40
  -3 -17   2  503.25   24.20
   3  17   2  551.24   27.50
  17  -3   2  533.95   26.70
 -17   3   2  556.54   26.50
 -17   3   2  563.54   26.50
   5  17  -2  188.98   16.20
  17  -5  -2  202.48   19.50
  17  -5  -2  198.48   18.20
   5  17  -2  181.58   22.20
   5  17  -2  166.28   22.50
 -17   5  -2  195.38   19.80
  -5 -17  -2  207.38   19.20
  -5 -17  -2  197.58   22.30
  -5 -17   2  197.38   20.30
   5  17   2  181.48   23.50
  17  -5   2  226.38   19.30
  -5 -17   2  191.28   17.10
 -17   5   2  203.68   21.40
 -17   5   2  170.48   20.70
   5  17   2  148.59   20.30
  17  -7  -2   52.19   11.30
   7  17  -2   78.69   14.00
 -17   7  -2   59.09   13.50
  -7 -17  -2   73.89   14.90
  -7 -17  -2   68.79   13.60
  17  -7  -2   67.49   12.50
  -7 -17  -2   72.89   12.90
   7  17  -2   67.89   10.00
  17  -7  -2   36.40   12.00
   7  17  -2   56.09   14.20
  -7 -17   2   57.49   11.20
   7  17   2   62.89   17.00
  17  -7   2   89.59   13.90
  -7 -17   2   63.39   10.70
 -17   7   2   37.50   14.30
   7  17   2   52.59   14.30
   7  17   2   54.19   15.30
 -17   7   2   71.99   14.50
  -7 -17   2   52.19   13.20
  -9 -17  -2   48.20   14.00
  17  -9  -2   77.19   13.20
   9  17  -2   78.39   11.00
 -17   9  -2   88.59   14.50
   9  17  -2   80.19   17.00
  17  -9  -2   77.59   12.70
  -9 -17  -2  107.59   16.70
  -9 -17   2   78.39   11.90
  17  -9   2   76.89   14.00
   9  17   2   78.89   18.10
   9  17   2   39.70   18.70
  -9 -17   2   75.59   12.70
 -17   9   2   63.49   15.70
  -9 -17   2   68.49   14.50
   9  17   2   70.79   16.40
 -17   9   2   68.39   16.20
  11  17  -2   -5.80   16.30
  11  17  -2    5.20   14.80
  11  17  -2   13.70   10.60
 -11 -17  -2   28.50   15.30
 -17  11  -2   17.10   15.00
 -11 -17   2   29.20   13.80
 -11 -17   2   20.00   11.40
  11  17   2   -6.00   14.20
  17 -11   2   24.40   14.40
  11  17   2   25.60   17.90
 -17  11   2   20.90   16.70
  18   8  -2  185.08   25.10
 -18  -8  -2  194.98   27.00
  18   8  -2  182.68   19.70
 -18  -8  -2  183.38   20.40
  -8  18  -2  165.88   19.00
  -8  18  -2  197.58   18.40
  18   8   2  184.38   17.40
  18   8   2  215.48   24.00
  -8  18   2  178.18   18.80
  18   8   2  180.98   26.00
 -18  -8   2  152.68   19.30
   8 -18   2  212.78   24.60
 -18  -8   2  187.78   19.80
  -8  18   2  223.78   29.00
  18   6  -2   27.00   10.40
  -6  18  -2   39.40   14.20
  18   6  -2   12.10   13.00
 -18  -6  -2   -4.30   15.30
   6 -18  -2   11.30   11.30
 -18  -6  -2    6.70   14.00
  -6  18  -2   15.00   14.10
 -18  -6   2   30.10   14.90
 -18  -6   2   -5.00   10.30
  -6  18   2   11.80   14.40
  18   6   2   28.70   14.10
   6 -18   2   32.10   14.90
  -6  18   2   16.90   15.70
   6 -18   2    7.70   12.90
  18   6   2    2.00   12.90
  -4  18  -2  184.88   21.60
 -18  -4  -2  224.88   26.00
  18   4  -2  191.98   18.80
  -4  18  -2  166.68   20.70
   4 -18  -2  194.48   18.80
  18   4  -2  187.38   21.10
  -4  18  -2  215.68   24.20
 -18  -4  -2  176.58   22.90
  -4  18  -2  173.28   20.00
   4 -18   2  178.88   23.30
  18   4   2  216.18   22.50
 -18  -4   2  169.58   19.20
 -18  -4   2  194.58   25.00
   4 -18   2  200.68   21.00
  -4  18   2  215.88   23.90
  18   4   2  170.28   22.30
  -4  18   2  197.48   24.80
  -2  18  -2   56.69   11.80
 -18  -2  -2   34.80   13.60
  -2  18  -2   51.19   14.50
  18   2  -2   64.39   12.70
   2 -18  -2   69.89   13.10
  18   2  -2   52.49   10.90
  -2  18  -2   69.19   13.60
   2 -18   2   49.10   11.80
  -2  18   2   68.79   15.20
 -18  -2   2   54.69   11.50
  18   2   2   59.79   13.30
 -18  -2   2   58.09   14.40
   2 -18   2   51.39   13.20
   0  18  -2   56.59   13.70
   0  18  -2   61.59   13.10
 -18   0  -2   94.49   16.70
  18   0  -2   70.49   13.20
   0 -18  -2   57.29   11.10
 -18   0  -2   66.19   14.90
   0  18  -2   70.59   11.80
 -18   0   2   63.19   14.60
  18   0   2   73.99   13.60
   0 -18   2   85.59   12.60
   0 -18   2   70.29   12.20
   0  18   2   68.39   14.80
   2  18  -2  296.07   24.80
   2  18  -2  321.67   20.60
  18  -2  -2  297.27   23.30
  18  -2  -2  287.37   19.90
   2  18  -2  327.87   25.10
  -2 -18  -2  293.07   21.50
 -18   2   2  307.57   21.70
  -2 -18   2  318.97   22.40
   2  18   2  295.57   22.90
  18  -2   2  313.57   22.10
 -18   2   2  332.67   25.20
  -2 -18   2  282.67   20.90
   2  18   2  299.87   26.60
  18  -4  -2   12.40   12.00
  -4 -18  -2   -9.10   11.00
   4  18  -2    3.00   13.00
 -18   4  -2    9.40   12.20
   4  18  -2   12.70    9.90
  18  -4  -2   26.10   10.70
   4  18  -2   25.20   13.40
 -18   4   2   18.50   12.30
  -4 -18   2    0.40    9.90
  -4 -18   2   10.50   11.70
 -18   4   2   29.40   12.40
  18  -4   2   16.20   12.60
 -18   4   2  -15.70   14.50
   4  18   2   10.50   14.80
   4  18   2   14.90   13.00
  18  -6  -2  372.56   24.50
  18  -6  -2  393.96   23.90
   6  18  -2  369.16   28.50
  -6 -18  -2  405.06   25.10
  18  -6  -2  406.76   25.30
   6  18  -2  383.86   28.30
   6  18  -2  399.16   22.50
 -18   6  -2  470.15   27.50
   6  18   2  428.76   27.80
 -18   6   2  425.36   28.10
   6  18   2  378.76   31.00
  18  -6   2  379.56   26.40
 -18   6   2  456.15   27.80
  -6 -18   2  391.26   23.40
  -6 -18   2  390.66   26.40
   8  18  -2   16.90   10.00
  18  -8  -2   36.20   12.30
   8  18  -2   44.90   15.40
 -18   8  -2   30.30   14.40
   8  18  -2   44.50   16.50
  -8 -18  -2   49.20   15.00
  18  -8  -2   28.70   12.70
   8  18   2   10.00   17.00
   8  18   2   37.70   15.70
  18  -8   2   27.30   13.90
  -8 -18   2   18.70   11.30
  -8 -18   2   32.60   15.00
 -18   8   2   18.30   15.70
 -18   8   2   34.00   16.50
 -19  -7  -2  222.08   22.90
 -19  -7  -2  253.17   30.40
  19   7  -2  243.78   22.20
  -7  19  -2  247.18   27.80
  19   7  -2  279.87   28.10
  -7  19  -2  256.57   28.20
  -7  19   2  288.57   27.80
  19   7   2  224.08   25.90
  19   7   2  197.48   27.90
 -19  -7   2  225.58   23.20
 -19  -7   2  183.78   21.90
  -7  19   2  318.27   29.50
   7 -19   2  224.48   26.90
 -19  -5  -2  321.87   29.30
  -5  19  -2  329.87   38.50
  -5  19  -2  307.67   31.60
 -19  -5  -2  323.77   32.80
  19   5  -2  325.57   27.10
  19   5  -2  338.17   22.70
  -5  19  -2  340.47   28.10
  19   5   2  347.07   36.00
  -5  19   2  341.97   29.10
 -19  -5   2  285.07   30.00
 -19  -5   2  324.07   23.40
   5 -19   2  310.87   29.90
  19   5   2  334.67   27.20
   5 -19   2  296.47   26.70
  19   3  -2  163.18   22.40
  -3  19  -2  200.88   19.70
  -3  19  -2  159.88   15.90
   3 -19  -2  174.58   20.30
  19   3  -2  161.98   19.00
  -3  19  -2  207.98   23.30
 -19  -3  -2  182.58   25.40
 -19  -3  -2  187.38   24.80
   3 -19   2  199.58   25.00
  19   3   2  179.38   23.80
 -19  -3   2  206.48   26.30
   3 -19   2  174.18   23.30
 -19  -3   2  167.08   20.70
  -3  19   2  181.08   19.30
  -1  19  -2  189.28   21.80
  19   1  -2  212.08   24.00
 -19  -1  -2  227.58   25.10
  -1  19  -2  204.58   25.50
  -1  19  -2  169.58   22.80
   1 -19  -2  214.98   20.10
  19   1  -2  167.58   20.70
 -19  -1   2  192.38   26.40
 -19  -1   2  180.58   21.60
   1 -19   2  197.48   24.50
   1 -19   2  183.08   22.40
  -1  19   2  200.48   26.70
  19   1   2  177.68   22.80
   1  19  -2   63.49   12.50
  -1 -19  -2   39.20   12.00
  19  -1  -2   53.99   14.40
   1  19  -2   64.89   14.90
   1  19  -2   68.69   15.90
  -1 -19   2   45.90   13.50
  -1 -19   2   59.69   13.40
   1  19   2   49.50   15.10
   1  19   2   63.19   16.60
  19  -1   2   34.00   13.20
 -19   1   2   58.59   16.30
  19  -3  -2   29.70   11.50
  -3 -19  -2   48.40   13.40
  19  -3  -2   43.60   13.60
   3  19  -2   24.50   15.70
   3  19  -2   32.40   15.10
   3  19  -2   49.40   12.00
 -19   3   2   59.09   16.40
  19  -3   2   43.10   13.20
  -3 -19   2   35.80   12.50
   3  19   2   16.20   13.90
  -3 -19   2   49.50   13.50
   3  19   2   43.10   17.00
 -19   3   2   40.60   13.40
   5  19  -2  194.18   26.50
  19  -5  -2  116.99   15.20
  19  -5  -2  139.39   14.80
  -5 -19  -2  152.38   16.50
   5  19  -2  153.28   19.80
   5  19  -2  155.18   18.50
  -5 -19   2  165.68   15.60
  19  -5   2  179.28   22.90
 -19   5   2  154.58   17.10
 -19   5   2  144.79   17.30
   5  19   2  138.99   18.50
   5  19   2  146.89   20.20
  -5 -19   2  154.98   17.00
 -19   5   2  173.18   20.10
  19  -7  -2   80.19   13.90
   7  19  -2   60.79   17.10
 -19   7  -2   99.89   16.50
   7  19  -2   81.79   12.80
   7  19  -2   63.19   18.10
  -7 -19  -2   50.79   15.70
  19  -7   2   72.69   15.00
  -7 -19   2   77.69   13.30
  -7 -19   2   53.29   15.20
 -19   7   2  114.79   17.30
   7  19   2   86.79   17.20
 -19   7   2   57.99   17.40
 -19   7   2   71.79   20.20
   7  19   2   73.69   22.70
 -20  -4  -2  211.68   21.00
  20   4  -2  223.88   24.30
  -4  20  -2  230.48   29.10
  -4  20  -2  226.28   30.20
  20   4  -2  227.48   26.50
 -20  -4   2  175.18   21.70
  20   4   2  222.18   28.90
  -4  20   2  210.18   23.70
 -20  -4   2  223.58   25.50
   4 -20   2  204.18   25.30
  -2  20  -2  145.49   19.00
 -20  -2  -2  148.59   18.30
  -2  20  -2  131.89   17.20
  20   2  -2  149.39   15.00
   2 -20  -2  154.18   16.20
  -2  20  -2  140.59   16.00
  20   2  -2  142.79   17.50
   2 -20   2  164.68   17.60
  -2  20   2  178.88   20.20
  20   2   2  125.49   16.60
 -20  -2   2  131.79   18.90
   2 -20   2  163.78   18.90
 -20  -2   2  139.19   15.80
   0  20  -2   10.60   16.60
   0  20  -2   -3.60   14.80
   0  20  -2   10.60   12.60
  20   0  -2    0.30   14.10
  20   0  -2   -2.40   12.00
   0 -20  -2   -9.40   11.60
 -20   0   2   -6.20   16.10
   0 -20   2  -14.10   14.00
   0 -20   2    3.30   14.50
  20   0   2   12.20   13.60
   0  20   2   -7.00   16.50
 -20   0   2    6.40   14.00
   2  20  -2  129.29   18.90
   2  20  -2  110.69   18.00
  20  -2  -2  143.49   26.50
   2  20  -2  140.59   15.60
  -2 -20  -2  177.88   22.40
  20  -2  -2  113.99   14.70
  -2 -20   2  121.19   16.90
  20  -2   2  141.79   16.80
 -20   2   2  150.98   19.80
   2  20   2  118.59   17.20
  -2 -20   2  107.99   16.50
   2  20   2  162.88   20.80
   4  20  -2   35.00   17.20
  20  -4  -2   22.00   15.10
   4  20  -2   17.70   13.40
  -4 -20  -2   44.20   14.80
   4  20  -2    8.60   16.50
  20  -4  -2   48.10   13.50
  -4 -20   2   20.10   15.20
  20  -4   2   29.40   14.80
  -4 -20   2   38.40   14.60
 -20   4   2   37.90   15.80
 -20   4   2   43.30   18.70
   4  20   2   11.80   19.80
   4  20   2   46.80   16.10
   1   0  -3  348.27   13.20
   0   1  -3  361.56   13.20
   0   1  -3  399.96   12.90
   0   1  -3  410.86   12.30
   0  -1  -3  409.66   12.70
   1   0  -3  360.96   12.30
  -1   0  -3  365.96   13.20
  -1   0  -3  366.26   13.70
   0  -1  -3  385.76   12.70
   0  -1  -3  392.76   13.40
   0  -1  -3  377.96   12.30
  -1   0  -3  362.06   12.30
   0   1  -3  376.06   12.60
  -1   0  -3  369.76   12.80
   0  -1  -3  390.36   13.20
   0   1  -3  387.96   13.70
   1   0  -3  366.36   13.20
   1   0  -3  385.46   12.20
  -1   0  -3  384.86   12.70
  -1   0  -3  371.36   12.90
   0   1   3  367.06   12.40
   0   1   3  349.87   12.40
  -1   0   3  376.36   12.10
   1   0   3  384.06   12.60
   1   0   3  387.86   14.00
   0   1   3  350.66   13.60
   0  -1   3  339.67   13.80
   0  -1   3  347.27   12.40
  -1   0   3  375.06   13.60
  -1   0   3  389.46   12.10
  -1   0   3  369.36   13.30
   1   0   3  390.36   11.90
   1   0   3  368.36   12.60
   0  -1   3  358.76   12.20
   0   1   3  342.67   13.30
   1   0   3  378.06   12.50
   0   1   3  357.06   12.00
   0  -1   3  367.66   12.10
  -1   0   3  389.46   12.00
   0   1   3  362.76   11.90
  -1   2  -3  892.41   26.50
  -1   2  -3  834.12   26.70
  -2  -1  -3  859.11   26.90
  -2  -1  -3  863.81   26.70
  -2  -1  -3  816.12   27.10
  -2  -1  -3  851.81   26.80
   1  -2  -3  872.91   27.30
  -1   2  -3  835.12   27.60
  -1   2  -3  876.61   26.40
   2   1  -3  819.82   27.30
  -2  -1  -3  821.42   27.10
   2   1  -3  833.82   27.20
   1  -2  -3  883.41   26.60
   2   1  -3  843.82   27.10
  -1   2  -3  878.81   27.30
   1  -2  -3  833.12   27.30
   1  -2  -3  863.51   26.70
   1  -2  -3  820.12   26.20
  -2  -1   3  789.52   25.20
   2   1   3  829.82   26.50
  -2  -1   3  865.31   25.20
  -1   2   3  855.71   26.10
  -1   2   3  812.62   26.10
   2   1   3  863.71   26.00
   2   1   3  828.22   27.00
   2   1   3  849.32   26.20
   1  -2   3  784.52   26.20
  -2  -1   3  852.81   26.00
   1  -2   3  826.72   26.40
  -2  -1   3  835.82   27.20
   2   1   3  812.02   27.50
  -1   2   3  825.32   26.90
  -1   2   3  835.82   27.10
   1  -2   3  844.22   26.10
   1  -2   3  819.92   25.60
   2   1   3  814.92   26.50
   1  -2   3  793.12   27.50
  -2   1  -3 1213.68   39.60
  -2   1  -3 1244.88   38.90
   2  -1  -3 1281.07   38.80
   2  -1  -3 1260.07   39.70
   1   2  -3 1237.38   38.30
  -2   1  -3 1243.68   40.00
   1   2  -3 1308.47   39.60
   1   2  -3 1313.37   38.20
  -2   1  -3 1231.48   39.50
  -1  -2  -3 1295.67   39.20
   1   2  -3 1293.57   39.30
  -1  -2  -3 1252.27   39.60
   2  -1  -3 1257.17   38.70
  -1  -2  -3 1261.57   38.60
   1   2  -3 1287.57   39.90
  -1  -2  -3 1248.98   39.40
  -1  -2  -3 1287.67   39.50
  -1  -2  -3 1328.87   39.10
   2  -1  -3 1250.27   39.80
  -2   1  -3 1281.57   38.80
  -1  -2   3 1211.58   38.20
  -1  -2   3 1163.18   37.50
   2  -1   3 1240.98   38.50
  -2   1   3 1329.77   37.40
   2  -1   3 1218.58   38.50
   1   2   3 1187.98   37.60
   2  -1   3 1243.98   39.60
  -1  -2   3 1262.17   37.40
   1   2   3 1223.28   38.30
  -2   1   3 1206.98   37.80
   1   2   3 1233.38   38.40
   2  -1   3 1325.07   38.40
  -1  -2   3 1207.68   39.40
   1   2   3 1276.37   38.00
  -2   1   3 1260.27   37.70
   1   2   3 1189.98   39.00
   2  -1   3 1246.88   37.60
  -2   1   3 1202.08   38.80
  -2   1   3 1205.58   38.60
  -2   1   3 1263.67   37.40
   1   2   3 1209.38   39.30
  -2   3  -3 1474.15   44.00
   3   2  -3 1468.15   45.90
   3   2  -3 1493.85   45.30
   3   2  -3 1417.26   45.50
  -3  -2  -3 1433.76   45.30
   2  -3  -3 1470.55   45.00
  -3  -2  -3 1464.95   45.30
   2  -3  -3 1477.15   44.70
  -2   3  -3 1484.95   45.00
   3   2  -3 1490.55   45.60
   3   2  -3 1467.75   45.00
  -3  -2  -3 1440.96   45.40
  -2   3  -3 1462.55   44.60
  -2   3  -3 1447.26   45.30
  -3  -2  -3 1436.56   45.60
  -2   3  -3 1437.26   46.00
   2  -3  -3 1495.95   45.80
  -3  -2  -3 1487.75   45.30
  -2   3  -3 1437.66   45.60
  -2   3   3 1422.66   44.40
   3   2   3 1463.85   44.50
   2  -3   3 1431.56   44.70
  -2   3   3 1472.25   45.40
   3   2   3 1471.85   44.60
   3   2   3 1435.86   45.10
  -2   3   3 1456.85   44.60
   2  -3   3 1441.36   43.40
  -2   3   3 1474.55   44.80
   3   2   3 1474.45   45.20
  -2   3   3 1421.06   45.40
   2  -3   3 1441.76   45.10
   2  -3   3 1433.36   46.00
   3   2   3 1414.46   45.40
   3   2   3 1419.36   46.00
   2  -3   3 1447.06   44.90
   0   3  -3  991.60   31.40
   0  -3  -3  953.10   30.60
   0  -3  -3  988.60   30.40
  -3   0  -3  947.71   31.30
   0  -3  -3  932.41   30.80
   3   0  -3  946.21   29.40
   0   3  -3  995.50   30.00
  -3   0  -3  965.90   30.60
   3   0  -3 1000.00   29.50
   0  -3  -3 1008.30   30.30
   0   3  -3 1033.70   29.80
  -3   0  -3  932.21   30.90
   3   0  -3  943.81   31.00
   0  -3  -3  998.90   30.90
   3   0  -3  971.70   30.80
   0   3  -3  931.11   30.70
   0   3  -3  967.20   29.90
   3   0  -3  959.40   29.90
  -3   0  -3  949.01   30.10
  -3   0  -3  968.20   30.80
   0   3   3  966.60   29.60
   3   0   3  935.51   31.20
   0   3   3  891.71   29.90
   0  -3   3  998.30   29.90
   0  -3   3  957.30   30.00
   0  -3   3  931.61   31.20
   0   3   3  912.21   30.70
   3   0   3  956.70   30.10
  -3   0   3  972.20   28.90
   0  -3   3  931.21   29.40
  -3   0   3  944.61   30.20
   3   0   3  959.00   30.20
   0   3   3  931.01   29.90
   0   3   3  920.41   30.50
  -3   0   3  973.30   28.90
   3   0   3  946.71   30.30
  -3   0   3  956.00   30.30
   3   0   3  966.30   29.60
  -2  -3  -3 1674.03   50.19
  -3   2  -3 1678.93   49.30
  -2  -3  -3 1600.84   50.49
   2   3  -3 1643.64   50.39
   2   3  -3 1687.73   50.89
  -2  -3  -3 1582.64   50.49
  -3   2  -3 1630.24   50.69
   3  -2  -3 1629.54   50.79
  -2  -3  -3 1608.94   50.29
   3  -2  -3 1615.24   49.10
  -2  -3  -3 1612.94   50.39
   3  -2  -3 1626.34   49.80
  -3   2  -3 1643.54   49.99
  -3   2  -3 1594.14   50.79
   3  -2  -3 1650.63   49.80
  -3   2  -3 1636.94   50.69
   2   3  -3 1702.23   50.39
   2   3  -3 1633.34   51.29
   2   3  -3 1578.64   50.19
   3  -2   3 1598.14   49.90
  -3   2   3 1651.03   48.40
   2   3   3 1616.14   49.90
  -3   2   3 1610.84   49.50
  -3   2   3 1599.64   49.10
   3  -2   3 1661.43   49.90
  -3   2   3 1536.75   50.39
   2   3   3 1543.25   50.59
   2   3   3 1602.24   50.29
  -2  -3   3 1570.54   48.10
   2   3   3 1615.34   49.70
   3  -2   3 1654.03   49.00
  -3   2   3 1594.44   50.29
   2   3   3 1645.64   49.40
  -3   2   3 1574.84   49.00
  -2  -3   3 1625.24   49.70
   3  -2   3 1652.03   49.99
   3  -2   3 1533.35   50.79
   2   3   3 1617.54   48.80
   3  -2   3 1646.44   48.60
   3  -4  -3  615.54   21.90
  -4  -3  -3  682.53   21.70
   3  -4  -3  627.84   21.20
   4   3  -3  649.04   21.30
  -3   4  -3  632.74   21.70
   4   3  -3  642.54   22.20
   4   3  -3  654.83   21.80
   3  -4  -3  651.43   21.30
   3  -4  -3  651.83   21.10
  -4  -3  -3  662.53   21.20
  -4  -3  -3  664.83   21.90
  -4  -3  -3  660.03   22.00
   4   3  -3  654.53   21.60
  -3   4  -3  626.14   22.20
  -3   4  -3  615.34   21.10
  -3   4  -3  617.14   21.80
   4   3  -3  683.53   21.30
  -3   4  -3  675.03   21.70
  -3   4   3  657.33   21.30
   3  -4   3  656.23   20.70
   4   3   3  600.94   22.70
   4   3   3  624.54   22.00
  -3   4   3  634.34   20.80
  -3   4   3  685.03   20.90
  -3   4   3  666.33   22.00
   4   3   3  630.84   21.30
   4   3   3  634.94   21.80
   4   3   3  620.54   21.00
   3  -4   3  645.24   21.90
  -3   4   3  672.33   22.30
  -3   4   3  635.24   21.20
   3  -4   3  621.84   21.70
   3  -4   3  649.64   21.60
   3  -4   3  657.03   22.70
  -1   4  -3 2884.51   84.19
   4   1  -3 2798.52   83.69
  -4  -1  -3 2786.62   83.59
   4   1  -3 2825.72   83.79
   1  -4  -3 2532.05   83.39
   4   1  -3 2774.82   83.09
  -1   4  -3 2704.43   84.29
   1  -4  -3 2614.44   83.79
   4   1  -3 2842.02   84.09
  -4  -1  -3 2745.23   83.99
  -4  -1  -3 2873.81   83.59
   1  -4  -3 2703.23   83.29
  -1   4  -3 2609.64   83.09
  -1   4  -3 2789.42   82.99
   1  -4  -3 2705.73   83.09
  -4  -1  -3 2797.12   83.29
  -1   4   3 2736.73   80.69
  -1   4   3 2725.83   81.09
  -1   4   3 2724.63   81.79
   4   1   3 2590.24   81.19
   4   1   3 2525.65   82.29
   4   1   3 2550.54   81.49
   1  -4   3 2588.44   80.79
  -4  -1   3 2630.64   81.29
   1  -4   3 2734.53   79.69
  -1   4   3 2691.93   81.19
   1  -4   3 2722.43   80.89
  -1   4   3 2741.73   81.49
   4   1   3 2726.13   80.89
   4   1   3 2658.53   81.59
  -1   4   3 2705.73   82.49
   1  -4   3 2728.63   81.39
   1  -4   3 2670.93   82.49
   4   1   3 2552.04   81.29
  -4   1  -3   73.79    5.60
   1   4  -3   61.89    3.10
   4  -1  -3   61.49    5.50
   4  -1  -3   63.79    3.70
  -1  -4  -3   58.89    3.60
   4  -1  -3   64.09    3.40
  -1  -4  -3   52.69    5.80
   4  -1  -3   65.29    4.00
  -1  -4  -3   57.19    5.00
   1   4  -3   58.99    3.30
   1   4  -3   52.89    4.80
  -1  -4  -3   56.19    4.80
  -1  -4  -3   54.89    4.80
   1   4  -3   59.89    4.30
  -4   1  -3   61.79    4.00
  -4   1  -3   69.09    5.60
  -4   1  -3   61.59    7.80
  -1  -4  -3   53.49    5.00
  -4   1  -3   67.29    5.40
  -4   1  -3   61.69    5.90
   1   4  -3   56.69    6.30
   1   4  -3   51.19    5.50
  -1  -4   3   61.49    3.70
   1   4   3   66.49    5.70
   4  -1   3   52.79    6.40
  -1  -4   3   60.29    4.90
  -1  -4   3   65.69    3.40
  -4   1   3   53.59    3.90
   1   4   3   59.79    6.40
   4  -1   3   57.89    5.60
  -4   1   3   54.39    3.50
   4  -1   3   57.59    5.40
   4  -1   3   58.49    6.40
   1   4   3   59.79    5.20
   1   4   3   67.99    6.00
  -4   1   3   58.19    5.30
   4  -1   3   53.69    5.00
  -4   1   3   54.49    5.80
  -4   1   3   52.99    4.80
   1   4   3   62.59    5.10
  -4   3  -3 1137.69   33.60
   3   4  -3 1102.89   35.30
  -3  -4  -3 1094.79   35.50
   3   4  -3 1122.79   35.40
  -4   3  -3 1117.69   35.10
  -4   3  -3 1059.79   35.70
  -4   3  -3 1109.19   35.90
   4  -3  -3 1109.49   34.90
   4  -3  -3 1136.29   34.80
   4  -3  -3 1084.69   35.90
   3   4  -3 1104.99   35.70
  -3  -4  -3 1152.98   35.40
   3   4  -3 1075.29   36.20
  -4   3  -3 1152.98   35.60
   3   4  -3 1156.58   35.10
  -4   3  -3 1159.18   33.60
  -4   3  -3 1087.29   35.70
  -3  -4  -3 1106.29   35.70
  -3  -4  -3 1132.69   35.10
  -4   3   3 1066.19   33.20
  -4   3   3 1085.49   34.20
  -4   3   3 1095.29   35.40
   3   4   3 1115.69   35.00
   4  -3   3 1109.89   35.10
   3   4   3 1041.80   35.70
   3   4   3 1115.99   33.80
   3   4   3 1127.69   34.60
   4  -3   3 1079.19   35.20
  -4   3   3 1117.89   35.00
  -4   3   3 1098.79   34.30
  -4   3   3 1090.69   33.80
   4  -3   3 1109.69   35.20
   3   4   3 1063.69   35.40
   4  -3   3 1047.30   35.80
   4  -3   3 1118.89   34.30
   5   4  -3  303.87   12.80
   5   4  -3  299.87   12.40
  -5  -4  -3  307.87   12.80
   4  -5  -3  307.37   12.40
   5   4  -3  319.77   12.20
   4  -5  -3  294.77   12.60
  -5  -4  -3  302.57   12.40
  -5  -4  -3  290.97   12.50
  -4   5  -3  296.97   12.50
  -4   5  -3  296.47   12.90
   4  -5  -3  307.87   12.40
  -5  -4  -3  306.67   11.40
   5   4  -3  310.97   11.50
  -4   5  -3  325.27   12.90
   4  -5  -3  301.27   11.80
  -4   5  -3  305.47   12.70
   5   4  -3  303.17   11.90
  -4   5  -3  324.87   13.10
   5   4   3  296.07   11.50
  -4   5   3  304.17   12.00
   4  -5   3  315.77   13.40
   4  -5   3  299.37   12.70
   5   4   3  294.17   12.50
   4  -5   3  296.07   13.40
   5   4   3  309.97   12.10
   5   4   3  293.37   12.70
  -4   5   3  309.37   12.00
   4  -5   3  299.07   12.40
  -4   5   3  298.97   12.40
  -4   5   3  307.17   13.20
  -4   5   3  307.57   10.60
   5   4   3  297.27   13.70
  -4   5   3  299.57   12.60
   4  -5   3  285.47   12.00
   2  -5  -3  133.49    7.60
  -2   5  -3  149.99    7.30
   5   2  -3  153.18    7.00
  -2   5  -3  126.59    8.20
   5   2  -3  139.79    8.10
   2  -5  -3  137.89    7.80
  -2   5  -3  144.29    7.60
  -5  -2  -3  141.39    7.20
   2  -5  -3  137.99    7.90
   5   2  -3  163.78    7.40
   5   2  -3  155.88    7.80
  -5  -2  -3  155.48    7.10
   5   2  -3  149.99    7.20
   2  -5  -3  134.79    7.10
  -2   5  -3  124.69    6.80
  -5  -2  -3  145.79    7.80
  -5  -2  -3  149.69    8.20
   2  -5   3  144.19    7.70
   2  -5   3  149.69    7.10
   5   2   3  125.59    8.10
   2  -5   3  144.19    7.50
  -2   5   3  142.39    7.10
  -2   5   3  129.79    8.30
   5   2   3  139.19    7.50
   2  -5   3  156.58    9.10
   5   2   3  128.59    7.20
  -2   5   3  137.89    7.20
   5   2   3  136.59    7.80
  -2   5   3  152.88    8.30
  -2   5   3  150.98    8.20
  -2   5   3  145.19    7.40
   5   2   3  123.89    8.50
   0  -5  -3  459.75   16.90
   0   5  -3  494.85   16.80
  -5   0  -3  492.55   16.20
   5   0  -3  485.15   17.40
   5   0  -3  504.05   16.00
  -5   0  -3  477.85   17.30
   0   5  -3  458.35   15.70
   0   5  -3  482.35   15.90
  -5   0  -3  485.65   16.80
   0   5  -3  450.45   17.90
   0  -5  -3  467.45   16.60
   5   0  -3  495.75   15.10
   0   5  -3  483.95   17.60
  -5   0  -3  505.25   17.00
   5   0  -3  513.05   15.40
   0  -5  -3  458.35   16.70
  -5   0   3  458.75   16.90
   5   0   3  455.15   16.80
  -5   0   3  463.65   15.10
   5   0   3  462.05   17.00
  -5   0   3  462.15   15.30
   5   0   3  472.05   16.80
  -5   0   3  464.25   16.30
   0  -5   3  473.75   15.70
  -5   0   3  471.85   16.40
   0   5   3  483.15   17.00
   0  -5   3  506.25   15.20
   5   0   3  476.35   16.50
   5   0   3  458.05   17.90
   0   5   3  501.05   17.00
   0  -5   3  463.05   16.70
   0   5   3  502.75   16.90
   0   5   3  475.05   16.30
   0   5   3  472.15   17.10
   0  -5   3  471.85   16.00
   0  -5   3  482.25   15.30
   0   5   3  462.75   17.30
  -5   2  -3   59.09    5.90
  -5   2  -3   58.19    6.50
   5  -2  -3   60.99    4.10
   2   5  -3   69.59    3.10
  -2  -5  -3   79.89    5.90
   5  -2  -3   65.79    5.10
   5  -2  -3   49.30    6.10
   2   5  -3   79.29    3.50
   2   5  -3   78.09    6.70
  -2  -5  -3   81.29    5.70
  -5   2  -3   57.79    4.00
   2   5  -3   78.59    6.30
   2   5  -3   68.49    5.10
  -5   2  -3   56.59    5.60
  -5   2  -3   60.59    6.20
  -2  -5  -3   71.59    5.80
   5  -2  -3   66.49    4.10
  -2  -5  -3   72.79    5.10
  -5   2   3   65.29    5.30
   5  -2   3   75.69    6.00
   2   5   3   54.29    5.70
   5  -2   3   62.89    6.00
   5  -2   3   66.29    7.80
  -5   2   3   69.29    5.20
   2   5   3   64.69    6.30
  -2  -5   3   63.59    5.30
  -5   2   3   82.79    5.30
  -5   2   3   73.19    4.40
   2   5   3   56.79    3.80
  -5   2   3   69.89    6.40
   5  -2   3   66.89    7.00
  -2  -5   3   55.79    4.10
  -5   2   3   79.39    4.50
   2   5   3   71.19    5.70
  -2  -5   3   51.59    5.70
   5  -2   3   76.69    6.30
   2   5   3   56.39    6.50
  -2  -5   3   54.49    3.30
   4   5  -3  337.17   14.10
   5  -4  -3  338.57   12.50
   5  -4  -3  344.37   11.10
   5  -4  -3  324.37   13.40
  -5   4  -3  333.77   13.50
  -4  -5  -3  344.07   13.30
  -5   4  -3  332.97   13.70
  -4  -5  -3  350.66   12.40
   4   5  -3  332.47   13.20
  -5   4  -3  326.17   13.60
   4   5  -3  349.27   12.30
  -4  -5  -3  364.16   13.70
  -4  -5  -3  333.87   13.40
   4   5  -3  330.57   13.00
   4   5   3  340.67   12.10
  -5   4   3  333.07   12.90
  -4  -5   3  312.47   10.40
  -5   4   3  355.36   13.20
   4   5   3  342.07   13.00
   5  -4   3  335.27   13.50
  -5   4   3  323.87   11.10
   5  -4   3  348.27   13.80
  -4  -5   3  320.57   10.70
  -5   4   3  330.97   11.60
   5  -4   3  323.97   14.50
  -4  -5   3  343.77   13.50
   4   5   3  335.07   14.60
   4   5   3  315.17   13.70
  -5   4   3  364.36   11.00
   5  -4   3  322.77   14.30
   4   5   3  345.87   13.80
  -5   4   3  343.97   12.70
   5  -4   3  321.67   13.00
  -6  -5  -3 1842.72   54.59
  -6  -5  -3 1709.83   54.69
   5  -6  -3 1747.43   52.09
  -5   6  -3 1724.63   54.49
  -6  -5  -3 1734.53   53.09
   6   5  -3 1687.73   54.79
   5  -6  -3 1644.34   54.49
  -5   6  -3 1731.03   54.29
   5  -6  -3 1737.73   54.39
   6   5  -3 1767.62   53.79
   5  -6  -3 1653.83   55.09
  -6  -5  -3 1801.72   54.69
  -5   6  -3 1711.73   54.69
   5  -6  -3 1697.93   52.39
   5  -6  -3 1767.02   53.79
  -5   6  -3 1728.63   54.69
   6   5  -3 1742.93   53.19
   6   5  -3 1641.14   53.99
  -5   6   3 1620.44   52.49
   6   5   3 1733.43   53.69
   6   5   3 1706.63   52.69
   5  -6   3 1674.93   53.59
   6   5   3 1724.03   53.09
  -6  -5   3 1660.23   50.89
  -6  -5   3 1690.33   53.99
   5  -6   3 1762.02   54.49
  -5   6   3 1644.54   53.49
   5  -6   3 1685.23   53.69
  -5   6   3 1697.53   54.09
  -6  -5   3 1697.73   50.89
   5  -6   3 1713.53   52.89
   5  -6   3 1699.83   55.49
  -5   6   3 1720.63   51.09
  -5   6   3 1629.24   53.19
   6   5   3 1658.63   54.59
  -5   6   3 1707.23   53.29
   6   5   3 1696.73   53.39
  -6  -3  -3  119.29    8.10
   6   3  -3  127.29    6.80
   3  -6  -3  122.09    7.90
  -6  -3  -3  112.89    7.30
   3  -6  -3  118.69    9.20
  -3   6  -3  122.19    7.30
  -3   6  -3  122.39    7.60
   6   3  -3  126.09    8.20
   6   3  -3  122.89    7.80
   3  -6  -3  114.89    7.20
  -6  -3  -3  121.09    8.20
  -3   6  -3  125.29    8.60
  -3   6  -3  129.89    8.60
  -3   6  -3  119.49    8.70
  -6  -3  -3  116.89    6.60
   6   3  -3  123.39    6.90
   6   3  -3  125.79    7.00
   3  -6  -3  107.99   10.60
  -3   6   3  127.79    6.50
   6   3   3  118.19    7.20
   6   3   3  117.29    9.00
   3  -6   3  120.59    7.30
  -3   6   3  115.49    8.20
  -3   6   3  116.99    7.40
   6   3   3  121.59    7.80
  -3   6   3  122.39    7.60
   3  -6   3  121.29    8.00
  -3   6   3  109.69    9.10
   3  -6   3  112.69    8.80
   6   3   3  115.99    8.50
   6   3   3  130.19    7.90
   3  -6   3  113.29    9.30
  -1   6  -3 3341.87  100.79
   1  -6  -3 3304.47  100.39
  -6  -1  -3 3255.27   99.59
  -6  -1  -3 3191.48  100.39
   1  -6  -3 3271.17  100.09
   6   1  -3 3198.58   98.19
  -1   6  -3 3298.67  101.19
  -6  -1  -3 3267.47   99.79
   6   1  -3 3202.98   99.49
   1  -6  -3 3258.27   99.59
   6   1  -3 3374.46   99.69
   6   1  -3 3291.97  100.69
  -1   6  -3 3572.94   99.69
  -1   6  -3 3320.27  100.09
  -6  -1  -3 3288.57  100.09
   6   1  -3 3325.27   98.39
  -1   6  -3 3121.49   99.39
  -6  -1   3 3291.17   96.89
  -6  -1   3 3175.68   96.79
  -1   6   3 3268.97   98.29
  -1   6   3 3256.47   98.59
   1  -6   3 3381.66   98.29
  -6  -1   3 3078.19   97.89
   6   1   3 3389.16   98.39
  -1   6   3 3294.57   97.99
  -1   6   3 3170.28   98.79
   6   1   3 3324.27  100.39
   6   1   3 3200.18   99.59
   1  -6   3 3143.49   97.89
   6   1   3 3125.09   98.79
  -6  -1   3 3356.06   98.89
  -1   6   3 3128.59   99.09
   6   1   3 3199.78   98.39
   1  -6   3 3159.78   98.59
   6  -1  -3  338.77   11.40
   6  -1  -3  352.66   11.50
  -6   1  -3  321.67   12.40
   1   6  -3  302.77   12.00
  -1  -6  -3  291.87   11.00
  -1  -6  -3  296.47   12.30
   1   6  -3  305.97   13.20
   6  -1  -3  315.07   13.20
  -6   1  -3  338.67   13.30
   1   6  -3  304.77   10.80
  -1  -6  -3  290.17   12.60
   6  -1  -3  331.27   10.90
  -6   1  -3  313.97   12.90
  -6   1  -3  347.27   12.70
   1   6  -3  291.57   13.30
  -1  -6  -3  310.57   12.50
   1   6  -3  315.67   11.20
  -6   1  -3  329.07   11.40
  -6   1   3  294.67   11.20
  -1  -6   3  331.07   11.10
   6  -1   3  315.37   13.80
  -6   1   3  283.87   11.30
   6  -1   3  305.47   13.60
  -6   1   3  283.47   11.00
   1   6   3  335.17   14.30
  -1  -6   3  333.27   11.80
   1   6   3  317.37   12.10
   1   6   3  320.37   10.20
  -6   1   3  303.57   12.80
   1   6   3  348.27   12.60
  -1  -6   3  325.87   12.80
   1   6   3  317.47   13.40
   1   6   3  332.77   12.90
  -6   1   3  296.07   11.80
  -1  -6   3  311.27   10.90
   6  -1   3  304.97   12.40
   6  -1   3  300.47   12.70
   6  -3  -3  226.88    9.90
  -6   3  -3  214.48   11.20
   3   6  -3  228.88    8.10
  -6   3  -3  212.38    7.90
   6  -3  -3  214.78    8.90
  -3  -6  -3  242.28   10.40
  -6   3  -3  223.18    8.60
  -6   3  -3  218.98   10.50
  -6   3  -3  215.78   10.30
  -3  -6  -3  230.88    9.40
   3   6  -3  229.98   11.20
  -6   3  -3  224.18   10.10
   6  -3  -3  204.98   10.60
   6  -3  -3  215.58    8.50
   3   6  -3  220.18   10.80
   3   6  -3  221.68    9.10
   3   6  -3  230.48    7.60
   3   6  -3  225.68   10.10
  -3  -6  -3  216.68   10.40
  -3  -6   3  220.98    7.80
  -6   3   3  216.48    9.60
   3   6   3  217.08    8.30
   6  -3   3  220.88   10.90
   3   6   3  210.38   11.00
   3   6   3  205.08   10.60
   6  -3   3  232.28   10.30
  -3  -6   3  209.78    9.50
   3   6   3  221.48   11.00
  -6   3   3  219.18    9.60
   6  -3   3  220.18   11.40
  -6   3   3  213.58    9.20
   3   6   3  203.38    9.90
  -6   3   3  218.58   10.90
  -3  -6   3  217.08    8.40
   6  -3   3  221.88   10.70
  -5  -6  -3  556.34   23.10
  -6   5  -3  616.84   22.50
  -6   5  -3  610.54   22.20
  -6   5  -3  606.94   22.00
  -5  -6  -3  635.94   20.50
   5   6  -3  598.54   22.50
   6  -5  -3  635.04   22.00
  -5  -6  -3  636.84   22.00
   6  -5  -3  627.64   21.20
   5   6  -3  626.74   20.40
  -6   5  -3  574.44   22.10
   5   6  -3  621.04   19.10
   6  -5  -3  609.54   22.20
   6  -5  -3  662.83   19.90
  -5  -6  -3  606.04   21.80
   5   6  -3  620.74   21.70
   5   6  -3  640.54   19.20
  -6   5   3  597.84   21.80
  -5  -6   3  612.34   19.00
   6  -5   3  632.04   22.70
   5   6   3  621.74   21.30
   5   6   3  611.44   21.80
   6  -5   3  612.34   22.00
   5   6   3  586.54   22.70
   6  -5   3  604.24   21.90
  -5  -6   3  612.94   21.50
  -6   5   3  612.14   21.20
  -5  -6   3  600.54   18.90
  -6   5   3  592.04   22.40
   6  -5   3  595.74   21.70
  -6   5   3  564.74   22.20
   5   6   3  615.64   20.30
   5   6   3  603.74   22.00
   6  -7  -3  293.67   10.50
  -6   7  -3  250.87   13.00
   6  -7  -3  306.77   13.40
   7   6  -3  273.07    9.70
  -6   7  -3  283.67   13.20
   7   6  -3  276.27   14.40
  -7  -6  -3  279.17   10.80
  -7  -6  -3  288.27   13.50
  -6   7  -3  278.77   13.30
  -7  -6  -3  259.07   13.10
   7   6  -3  279.97    9.60
   7   6  -3  263.97   12.90
   6  -7  -3  297.07   12.40
   7   6  -3  288.07   12.20
  -7  -6  -3  279.97   13.40
  -7  -6   3  283.27   13.60
   7   6   3  276.47   12.10
   6  -7   3  267.97   14.10
   7   6   3  282.67   14.50
  -7  -6   3  257.47    9.70
  -6   7   3  269.77   14.00
  -6   7   3  281.67   13.10
   6  -7   3  254.37   12.90
   7   6   3  294.27   12.90
   7   6   3  265.37   14.50
  -7  -6   3  288.37    9.80
   6  -7   3  301.97   13.80
   7   6   3  300.37   13.40
  -7  -6   3  288.27   11.40
  -6   7   3  268.37   13.40
   7   4  -3  371.86   16.10
   7   4  -3  369.96   14.90
   4  -7  -3  400.86   15.00
  -7  -4  -3  362.26   13.70
   7   4  -3  367.16   15.40
  -7  -4  -3  371.76   15.10
   4  -7  -3  393.76   15.50
   7   4  -3  393.16   14.20
  -7  -4  -3  387.46   15.70
  -4   7  -3  369.16   15.70
  -7  -4  -3  399.36   15.80
  -4   7  -3  395.76   15.30
  -4   7  -3  378.86   15.40
  -4   7  -3  394.66   16.30
  -7  -4   3  377.06   13.30
  -4   7   3  372.76   15.90
   7   4   3  396.36   15.00
   4  -7   3  377.96   17.00
   7   4   3  419.36   15.40
   4  -7   3  357.66   15.60
   4  -7   3  355.66   18.70
  -4   7   3  391.16   13.50
  -4   7   3  342.77   17.60
   7   4   3  408.66   15.40
   4  -7   3  386.56   15.80
  -4   7   3  393.96   15.60
  -4   7   3  356.76   16.30
   7   4   3  393.36   16.90
   7   4   3  434.36   16.30
  -7  -4   3  440.46   17.60
  -7  -4   3  403.06   12.60
   7   2  -3  301.67   13.50
  -7  -2  -3  299.67   11.90
  -2   7  -3  284.47   14.70
   7   2  -3  331.17   12.60
   2  -7  -3  325.27   12.70
   7   2  -3  318.17   12.40
   2  -7  -3  310.77   12.80
  -7  -2  -3  295.07   13.40
  -7  -2  -3  311.67   13.50
  -7  -2  -3  309.57   12.40
   7   2  -3  314.47   10.20
   7   2  -3  308.17   10.10
  -2   7  -3  309.77   12.80
   2  -7   3  270.37   16.40
  -7  -2   3  297.47   10.40
  -2   7   3  315.87   13.50
   7   2   3  317.97   12.70
  -2   7   3  307.47   12.70
  -7  -2   3  302.37   11.60
   2  -7   3  305.97   13.80
  -7  -2   3  308.07   12.30
  -7  -2   3  292.67   10.40
   7   2   3  317.37   15.70
  -2   7   3  296.37   12.20
   7   2   3  309.57   13.40
   2  -7   3  292.57   13.10
   7   2   3  302.17   12.40
  -2   7   3  295.17   14.80
  -2   7   3  305.37   12.00
   7   2   3  310.37   12.90
  -7   0  -3   84.19    6.20
   7   0  -3   86.69    5.90
   0  -7  -3   87.59    7.20
   0   7  -3   77.79    7.90
   7   0  -3   99.89    4.60
   0   7  -3   82.79    8.10
   7   0  -3   86.59    5.40
   0   7  -3   84.89    6.60
  -7   0  -3   92.79    8.20
   0  -7  -3   76.19    7.00
   0  -7  -3   96.99    5.20
   7   0  -3   82.69    6.00
  -7   0  -3   88.49    6.90
   0  -7  -3   90.99    4.10
   0   7  -3   81.59    5.50
   0  -7  -3   85.69    6.70
  -7   0  -3   79.19    7.30
   0   7  -3   84.89    8.30
   7   0  -3   72.59    7.70
  -7   0   3   86.89    7.30
   7   0   3   96.39    8.20
   0  -7   3   80.09    4.40
   0   7   3   79.89    7.20
  -7   0   3   88.49    5.90
   0  -7   3   95.59    7.20
   7   0   3   85.39    7.40
   7   0   3   88.69    6.90
   7   0   3   89.69    8.30
   7   0   3   72.69    6.90
   0   7   3   72.79    6.60
   0  -7   3   75.39    7.30
   0   7   3   80.09    7.10
   0  -7   3  105.79    9.20
  -7   0   3   82.49    5.00
   0   7   3   83.99    8.00
   0  -7   3   76.99    5.60
  -7   0   3   84.69    5.70
   0   7   3   91.59    7.10
   7  -2  -3 1065.09   33.40
  -7   2  -3 1030.80   34.20
   2   7  -3 1034.40   34.60
   2   7  -3 1052.19   32.70
  -7   2  -3 1033.30   34.60
  -7   2  -3 1033.50   33.80
  -7   2  -3 1043.60   34.50
   2   7  -3 1031.80   32.30
  -2  -7  -3 1074.79   34.00
   2   7  -3  987.90   37.90
  -2  -7  -3 1012.30   34.10
   2   7  -3 1077.39   33.30
   7  -2  -3 1066.69   32.90
  -7   2  -3 1073.79   32.70
   7  -2   3 1025.20   33.20
   2   7   3 1079.69   31.50
   2   7   3 1060.19   34.20
  -2  -7   3  958.30   33.50
   2   7   3 1057.49   34.20
   7  -2   3 1012.50   34.00
  -2  -7   3 1025.10   32.20
   2   7   3 1075.29   33.60
  -7   2   3 1027.50   32.50
   2   7   3 1033.70   32.90
   7  -2   3 1036.50   34.40
   7  -2   3 1009.30   33.70
  -7   2   3 1017.30   32.50
  -7   2   3  957.90   31.00
   2   7   3 1054.59   33.00
  -7   2   3  997.70   30.90
  -7   2   3  958.30   33.70
  -2  -7   3 1042.50   32.20
  -2  -7   3  921.11   32.20
   7  -4  -3  842.92   25.60
   4   7  -3  810.42   27.20
   4   7  -3  785.12   27.10
  -4  -7  -3  794.12   27.40
  -7   4  -3  791.02   27.00
   4   7  -3  844.62   25.80
   7  -4  -3  720.33   27.30
   7  -4  -3  773.32   26.20
  -7   4  -3  784.22   27.60
  -7   4  -3  812.42   28.00
  -4  -7  -3  835.52   27.10
   4   7  -3  820.42   25.10
  -7   4  -3  783.52   24.70
  -7   4  -3  768.52   27.60
   4   7  -3  776.82   25.40
   4   7  -3  833.52   28.30
  -4  -7  -3  821.22   27.30
  -7   4  -3  775.22   24.90
  -7   4   3  793.42   27.70
   7  -4   3  790.92   27.40
   7  -4   3  797.92   27.60
  -7   4   3  821.02   26.40
   7  -4   3  807.12   28.00
   4   7   3  775.72   28.00
  -4  -7   3  762.42   24.60
   4   7   3  778.22   25.90
   4   7   3  772.42   27.50
  -4  -7   3  781.52   26.30
  -7   4   3  764.62   26.70
   4   7   3  798.22   27.30
   4   7   3  798.42   25.40
   4   7   3  817.62   28.40
  -7   4   3  782.42   26.40
  -4  -7   3  769.32   24.90
   7  -6  -3   61.59    8.30
  -7   6  -3   59.69    7.40
  -6  -7  -3   63.19    9.00
   7  -6  -3   75.29    5.90
  -7   6  -3   61.39    7.30
  -6  -7  -3   60.59    8.20
   6   7  -3   68.89    4.50
   6   7  -3   66.09    4.20
   6   7  -3   73.39    9.30
   6   7  -3   74.09    5.90
   7  -6  -3   68.79    6.70
  -7   6  -3   65.39    8.00
  -6  -7  -3   64.79    8.40
   6   7  -3   81.49    7.50
  -7   6  -3   67.49    8.20
   6   7  -3   77.39    7.90
   6   7   3   60.89    7.80
  -7   6   3   70.49    7.90
   7  -6   3   78.49    9.20
  -6  -7   3   61.09    6.70
   6   7   3   65.19    6.50
   6   7   3   88.09    9.10
   7  -6   3   73.59    9.20
  -7   6   3   67.59    9.00
   6   7   3   51.69    6.90
  -7   6   3   72.59    8.40
   7  -6   3   72.09    8.00
   6   7   3   64.29    7.40
   7  -6   3   86.49   11.60
  -6  -7   3   60.39    4.50
  -6  -7   3   64.59    4.70
   7  -8  -3  112.79    8.80
  -7   8  -3   89.99   10.40
   8   7  -3  120.79   11.10
  -8  -7  -3  114.79   10.90
   7  -8  -3  103.99    7.40
   8   7  -3  119.29    8.80
   7  -8  -3  108.89    9.60
   8   7  -3  110.39    6.40
  -7   8  -3  107.99   10.20
  -7   8  -3   87.89   10.00
  -8  -7  -3  117.49   11.50
   8   7  -3   99.79    5.70
  -8  -7  -3  106.29    7.20
   8   7  -3  106.39    9.70
  -8  -7  -3   90.09    9.90
   7  -8   3  104.19   10.30
  -8  -7   3   88.89    5.80
  -8  -7   3   97.59    7.70
   8   7   3  102.69    9.70
   8   7   3  107.49    8.90
  -8  -7   3  105.79    5.90
   7  -8   3  118.09   10.20
   8   7   3  104.89   11.20
   7  -8   3   99.59   11.00
   8   7   3   99.29   12.00
   8   7   3   92.39    9.20
  -7   8   3  110.99   10.50
  -7   8   3  116.99   10.00
  -8  -7   3  100.09   10.30
  -7   8   3   97.49   11.10
   8   5  -3 1479.55   47.30
  -8  -5  -3 1453.65   46.80
   8   5  -3 1412.46   44.30
  -8  -5  -3 1463.85   45.00
  -8  -5  -3 1424.06   46.90
   8   5  -3 1487.35   45.50
  -5   8  -3 1367.26   47.10
  -5   8  -3 1445.16   47.10
   8   5  -3 1519.95   44.20
  -5   8  -3 1468.05   46.80
   8   5  -3 1459.35   46.60
   5  -8  -3 1426.66   46.40
   5  -8  -3 1403.36   46.80
  -8  -5  -3 1501.85   47.10
   5  -8  -3 1451.95   44.20
   8   5   3 1539.45   47.40
   8   5   3 1464.85   46.40
  -5   8   3 1472.45   44.30
   8   5   3 1379.56   47.70
   8   5   3 1447.16   46.30
   5  -8   3 1435.76   47.60
   5  -8   3 1439.26   46.90
  -5   8   3 1460.45   47.10
  -5   8   3 1457.45   46.90
  -8  -5   3 1471.55   44.20
   5  -8   3 1454.85   46.80
  -8  -5   3 1456.55   44.40
  -8  -5   3 1439.06   45.40
   8   5   3 1444.56   48.20
  -5   8   3 1366.56   47.50
  -8  -5   3 1414.76   47.50
  -8  -3  -3  715.93   23.00
   3  -8  -3  695.43   23.90
  -3   8  -3  676.13   24.90
   3  -8  -3  685.63   24.30
  -3   8  -3  714.53   24.90
  -3   8  -3  669.53   24.10
  -3   8  -3  706.83   25.20
  -8  -3  -3  704.23   24.70
  -8  -3  -3  672.93   24.20
   8   3  -3  687.53   21.80
   8   3  -3  671.73   23.90
   8   3  -3  656.23   24.70
   8   3  -3  692.93   21.60
   3  -8  -3  680.63   23.90
  -8  -3  -3  695.83   24.60
   8   3  -3  701.83   23.90
  -3   8  -3  684.53   23.60
   8   3   3  690.63   25.30
  -8  -3   3  707.13   22.50
   8   3   3  678.53   23.90
  -8  -3   3  693.63   21.60
  -3   8   3  630.04   24.50
   3  -8   3  681.63   23.60
  -3   8   3  674.53   23.80
   8   3   3  688.73   23.40
   8   3   3  697.63   24.80
   8   3   3  710.03   24.10
  -3   8   3  713.63   24.20
  -3   8   3  666.73   24.70
  -8  -3   3  656.83   23.40
  -8  -3   3  659.53   21.70
   3  -8   3  672.23   26.00
   3  -8   3  633.34   23.80
  -3   8   3  685.53   22.50
  -8  -1  -3  322.27   14.00
   8   1  -3  306.97   10.90
  -1   8  -3  296.77   11.90
   1  -8  -3  306.87   10.30
  -1   8  -3  317.47   12.70
  -8  -1  -3  293.57   12.50
   1  -8  -3  301.57   13.10
   8   1  -3  314.37   11.30
  -1   8  -3  300.47   13.10
  -8  -1  -3  313.07   13.60
  -1   8  -3  288.47   14.00
   8   1  -3  309.17   12.40
  -1   8  -3  293.67   14.10
  -8  -1  -3  313.07   12.70
   1  -8  -3  317.07   10.60
   1  -8  -3  320.17   13.20
   8   1  -3  320.87   12.20
   8   1  -3  312.97   13.90
   8   1   3  307.37   13.70
  -8  -1   3  296.47   11.10
  -8  -1   3  312.57   11.40
  -1   8   3  306.97   12.60
   8   1   3  294.17   13.60
   8   1   3  308.77   12.30
  -8  -1   3  298.07   12.90
   8   1   3  311.07   14.40
  -1   8   3  294.97   13.40
  -1   8   3  290.97   13.20
   8   1   3  306.27   12.90
  -1   8   3  298.87   12.50
   1  -8   3  305.07   14.30
   1  -8   3  271.07   10.20
   1  -8   3  289.57   10.00
   1  -8   3  301.17   13.10
   1  -8   3  282.07   11.80
  -1   8   3  298.07   14.00
  -8  -1   3  294.77   11.10
   1   8  -3 1252.27   39.80
  -1  -8  -3 1272.67   40.80
   1   8  -3 1238.18   41.20
   8  -1  -3 1292.57   39.70
  -8   1  -3 1239.78   39.60
   1   8  -3 1324.67   39.80
  -1  -8  -3 1225.48   40.70
   8  -1  -3 1217.28   39.10
  -8   1  -3 1260.67   41.40
   1   8  -3 1307.67   41.90
  -8   1  -3 1211.18   40.40
   8  -1  -3 1196.48   41.20
   8  -1  -3 1311.47   39.80
  -1  -8  -3 1263.67   40.30
   1   8  -3 1239.88   39.10
  -8   1  -3 1267.87   40.90
   1   8   3 1236.08   40.20
   8  -1   3 1280.47   40.70
   8  -1   3 1161.48   40.50
   1   8   3 1159.58   40.80
  -8   1   3 1262.67   38.00
   8  -1   3 1256.37   40.60
   1   8   3 1244.28   39.60
   8  -1   3 1255.07   39.60
  -8   1   3 1173.08   37.90
  -8   1   3 1238.58   38.90
   1   8   3 1251.27   39.90
  -1  -8   3 1170.48   40.10
  -8   1   3 1280.07   39.10
  -8   1   3 1262.97   40.30
  -1  -8   3 1277.67   39.50
  -8   1   3 1275.87   38.90
  -1  -8   3 1202.88   38.60
  -1  -8   3 1269.17   38.30
   1   8   3 1245.58   40.20
   8  -3  -3  120.29    9.30
   3   8  -3  140.89    9.70
   8  -3  -3  133.89    9.50
   8  -3  -3  125.79    7.20
  -8   3  -3  128.09    9.50
   3   8  -3  155.18    7.40
  -8   3  -3  140.39   11.40
  -8   3  -3  141.69    7.30
   3   8  -3  133.69   10.00
   3   8  -3  133.09    9.00
   8  -3  -3  146.39    7.60
   3   8  -3  153.38    7.60
  -8   3  -3  129.39    8.30
  -3  -8  -3  143.39    9.20
  -8   3  -3  147.39    9.90
   3   8  -3  142.29    6.30
  -3  -8  -3  156.98    9.40
  -3  -8  -3  144.99    9.50
  -8   3   3  155.18    8.00
   8  -3   3  149.79   10.30
  -3  -8   3  154.38    8.10
  -8   3   3  139.89   10.00
  -3  -8   3  130.99    9.40
   3   8   3  150.88   10.50
   3   8   3  138.99    9.80
  -3  -8   3  135.79    7.50
   8  -3   3  145.99    9.50
   3   8   3  135.49    6.80
   3   8   3  131.59    8.80
  -3  -8   3  128.79    6.60
  -8   3   3  149.88   10.20
   8  -3   3  134.19    9.90
   3   8   3  152.78    8.70
   3   8   3  128.89   10.20
  -8   3   3  146.19    8.40
   8  -3   3  161.58   16.30
   8  -5  -3 1404.16   42.60
   8  -5  -3 1326.97   43.40
  -8   5  -3 1310.07   44.50
  -5  -8  -3 1375.26   44.20
   5   8  -3 1395.46   42.10
  -8   5  -3 1406.96   41.40
  -5  -8  -3 1397.86   44.40
  -5  -8  -3 1332.57   44.40
   5   8  -3 1340.87   44.40
   8  -5  -3 1341.87   44.40
   5   8  -3 1352.86   42.40
  -8   5  -3 1346.67   43.90
  -8   5  -3 1353.46   44.80
  -8   5  -3 1434.16   45.00
   5   8  -3 1366.26   45.40
   5   8  -3 1352.06   41.90
   5   8  -3 1331.07   44.00
  -8   5   3 1412.66   43.60
   5   8   3 1442.86   45.20
  -5  -8   3 1336.57   41.90
   5   8   3 1289.37   45.20
  -5  -8   3 1354.86   42.00
  -5  -8   3 1379.66   43.80
   5   8   3 1351.86   44.50
   8  -5   3 1368.96   45.20
   5   8   3 1376.16   43.80
  -8   5   3 1361.96   43.90
  -8   5   3 1269.77   44.80
   5   8   3 1369.76   42.70
   8  -5   3 1308.57   44.50
   8  -5   3 1373.86   44.90
   8  -5   3 1364.86   44.30
   5   8   3 1380.76   42.70
  -8   7  -3   24.40    6.20
   7   8  -3   14.40    6.40
   7   8  -3   20.00    5.10
   7   8  -3   22.50    3.50
   8  -7  -3   26.40    4.90
   8  -7  -3   29.50    4.60
  -7  -8  -3   24.00    6.70
   8  -7  -3   31.80    6.10
   7   8  -3   22.30    3.10
  -8   7  -3   30.90    6.50
   7   8  -3   23.60    4.00
  -7  -8  -3   19.60    6.30
  -7  -8  -3   31.30    6.90
  -8   7  -3   36.40    5.80
   7   8   3   34.50    5.10
   7   8   3   32.50    6.80
   7   8   3   19.80    7.20
  -7  -8   3   26.80    3.50
  -8   7   3   27.80    5.60
   8  -7   3   26.60    6.20
   8  -7   3   19.70    6.90
  -7  -8   3   29.30    3.40
   7   8   3   38.20    7.70
  -8   7   3   23.10    6.00
   7   8   3   24.80    4.60
   8  -7   3   18.00    5.10
  -8   7   3   20.30    6.80
   7   8   3   18.60    5.60
  -7  -8   3   24.60    5.70
  -9  -8  -3 1160.38   40.50
   8  -9  -3 1196.88   40.00
   9   8  -3 1181.88   37.60
  -9  -8  -3 1221.08   40.70
   8  -9  -3 1194.78   38.10
  -8   9  -3 1174.28   40.40
  -8   9  -3 1200.78   40.20
   8  -9  -3 1190.28   40.10
   9   8  -3 1167.78   41.20
   9   8  -3 1143.39   37.10
   9   8  -3 1266.27   38.90
   9   8  -3 1160.88   40.00
  -8   9  -3 1145.79   40.80
   9   8   3 1205.08   39.10
   9   8   3 1185.58   39.70
  -8   9   3 1135.79   41.30
  -9  -8   3 1226.08   40.80
  -8   9   3 1163.68   40.30
   8  -9   3 1154.88   40.20
   9   8   3 1205.38   42.10
  -9  -8   3 1157.88   37.10
   8  -9   3 1216.78   40.70
   9   8   3 1148.29   39.60
  -8   9   3 1172.68   40.10
  -9  -8   3 1153.08   37.20
   8  -9   3 1179.78   40.30
   6  -9  -3  900.91   28.60
  -9  -6  -3  962.10   31.90
   9   6  -3  893.21   31.00
   6  -9  -3  850.41   31.20
  -9  -6  -3  887.31   32.00
  -9  -6  -3  906.01   28.80
   6  -9  -3  897.31   31.00
  -6   9  -3  858.41   31.70
  -6   9  -3  839.72   31.30
  -9  -6  -3  901.91   31.60
   9   6  -3  934.21   28.50
   9   6  -3  924.51   32.20
  -6   9  -3  899.91   31.30
   9   6  -3  949.60   29.60
   9   6  -3  878.51   28.40
   9   6   3  839.42   32.30
  -9  -6   3  830.62   28.10
  -9  -6   3  878.61   28.90
   9   6   3  918.31   30.50
  -9  -6   3  858.81   31.60
   6  -9   3  873.71   31.00
  -9  -6   3  875.91   27.90
  -6   9   3  892.41   31.40
   9   6   3  890.01   30.30
   9   6   3  865.01   30.20
  -6   9   3  916.81   32.20
   6  -9   3  935.01   31.40
   6  -9   3  871.81   31.00
  -6   9   3  892.21   31.40
   9   6   3  898.31   31.80
   9   4  -3  126.89    6.40
  -9  -4  -3  140.39   10.60
   9   4  -3  131.39    7.00
  -4   9  -3  124.49   10.50
   4  -9  -3  134.39    9.80
   4  -9  -3  149.09    9.70
  -4   9  -3  140.39   10.20
   9   4  -3  132.19   10.30
  -9  -4  -3  127.09   10.30
  -9  -4  -3  130.29    7.60
   9   4  -3  139.99    9.60
  -4   9  -3  135.99    8.70
   4  -9  -3  137.89    6.80
   9   4  -3  119.69   10.10
  -9  -4  -3  133.29   10.60
   4  -9  -3  146.09   11.40
   9   4   3  136.69    9.20
  -9  -4   3  130.69    6.70
  -9  -4   3  118.19   11.70
  -9  -4   3  136.79    6.70
  -4   9   3  136.49    7.30
  -4   9   3  116.19   10.70
  -4   9   3  123.79   10.90
  -9  -4   3  122.39    8.50
   9   4   3  129.59    9.90
   9   4   3  133.29   11.40
   4  -9   3  121.89    9.80
   4  -9   3  132.19    9.40
   4  -9   3  129.79   11.20
  -4   9   3  134.89   11.60
  -4   9   3  114.79   14.60
   9   4   3  141.19   11.90
   9   4   3  137.69    9.40
  -2   9  -3  127.29   10.10
   2  -9  -3  116.49    9.40
  -2   9  -3  109.69    9.90
  -9  -2  -3  117.29    7.90
   9   2  -3  121.29    6.80
   2  -9  -3  117.49    5.90
  -9  -2  -3  116.89    9.00
   9   2  -3  101.99    9.30
   2  -9  -3  117.09    8.50
   9   2  -3  121.09    6.40
  -9  -2  -3  127.49   10.30
   2  -9  -3  132.99    9.30
   9   2  -3  126.99    8.50
  -2   9  -3  117.79    9.00
  -2   9  -3  112.49    7.70
  -9  -2  -3  100.29    9.40
  -9  -2   3  114.99    6.80
  -9  -2   3  114.09    6.60
   9   2   3  111.29    8.70
  -9  -2   3  112.09    8.70
  -2   9   3  110.99   10.80
   2  -9   3   99.29    8.30
   9   2   3  126.79    8.20
   2  -9   3  111.19    8.00
  -2   9   3  122.89    8.00
  -2   9   3  109.89    9.50
  -2   9   3  109.99    9.50
  -9  -2   3  114.29    6.70
   9   2   3  117.79    9.10
   9   2   3  108.69   10.10
   9   2   3  123.39   10.90
  -2   9   3  115.09   10.10
   9   0  -3  244.18   11.20
   0  -9  -3  217.18   11.50
   0   9  -3  235.98   12.80
   0   9  -3  257.27   12.10
   0   9  -3  248.68   11.30
  -9   0  -3  257.37   13.30
  -9   0  -3  237.98   11.20
  -9   0  -3  241.98   11.40
   0   9  -3  239.98   10.20
   9   0  -3  233.18    9.60
   0  -9  -3  263.67   12.10
   0  -9  -3  254.97   12.10
  -9   0  -3  227.68   12.50
   0   9  -3  217.58   12.70
   9   0  -3  217.08   12.00
   9   0  -3  233.58   10.70
   0  -9  -3  251.67    9.20
   9   0  -3  242.18   10.20
   0   9   3  240.88   11.80
   0  -9   3  213.88   13.00
  -9   0   3  223.68   13.50
   9   0   3  251.87   12.20
   0   9   3  239.18   12.40
   0  -9   3  228.88   10.10
  -9   0   3  255.07    9.80
   0  -9   3  237.88    8.70
   0  -9   3  218.68   11.40
  -9   0   3  233.98   10.10
  -9   0   3  226.08   10.40
   9   0   3  240.48   13.20
   0   9   3  241.58   12.90
   9   0   3  245.38   10.80
   0   9   3  237.88   12.20
   9   0   3  240.18   12.90
   9   0   3  233.78   12.10
   9  -2  -3   79.29    5.90
   2   9  -3   66.09    7.10
   9  -2  -3   70.09    8.50
  -2  -9  -3   67.79    8.00
  -9   2  -3   78.09    8.10
   2   9  -3   70.29    6.40
  -2  -9  -3   67.29    7.70
   9  -2  -3   76.29    6.80
  -2  -9  -3   68.29    8.70
  -9   2  -3   74.69    6.90
  -9   2  -3   80.99    7.30
   2   9  -3   66.69    5.10
   2   9  -3   67.49    8.60
  -9   2  -3   76.09    8.00
   9  -2  -3   67.79    8.50
   2   9  -3   77.29    9.30
  -9   2  -3   73.29    9.40
   9  -2   3   72.49    9.90
   2   9   3   79.09    9.80
   2   9   3   76.99    8.00
   2   9   3   77.89    5.40
  -9   2   3   63.79    6.40
   9  -2   3   69.89    6.90
  -2  -9   3   88.79    8.20
   9  -2   3   69.89    8.20
  -2  -9   3   78.19    8.60
   2   9   3   74.89    8.20
   2   9   3   83.29    8.50
  -9   2   3   85.39    8.70
  -2  -9   3   81.69    6.20
  -2  -9   3   74.19    5.50
  -9   2   3   63.29    6.10
  -9   2   3   85.19    9.10
   2   9   3   72.29    9.80
   9  -2   3   81.99    9.30
  -4  -9  -3  238.08   12.40
  -4  -9  -3  255.57   12.70
  -9   4  -3  240.88   10.20
   9  -4  -3  225.28   12.70
   4   9  -3  248.38   10.30
   9  -4  -3  235.68   11.00
  -9   4  -3  243.28   12.90
   4   9  -3  236.48    9.50
  -9   4  -3  235.98   13.30
   4   9  -3  261.97   12.90
   4   9  -3  251.17   10.50
   9  -4  -3  252.17   11.00
  -4  -9  -3  252.37   12.70
  -9   4  -3  225.58   11.50
   4   9  -3  260.07   12.30
  -9   4  -3  245.38   15.10
   4   9  -3  244.38   13.30
   9  -4   3  239.68   13.30
  -4  -9   3  221.98   11.20
  -4  -9   3  219.78   10.40
   4   9   3  244.68   13.60
  -9   4   3  237.38   13.10
   4   9   3  228.98   11.70
   4   9   3  259.17   14.70
  -9   4   3  231.18   11.60
   9  -4   3  234.68   14.40
   4   9   3  214.48   12.90
   9  -4   3  236.78   12.50
   4   9   3  244.88   11.50
   9  -4   3  243.38   13.70
  -9   4   3  257.67   10.90
  -4  -9   3  236.48    9.50
   4   9   3  240.68   10.00
   6   9  -3  729.53   23.50
   9  -6  -3  689.93   26.00
   9  -6  -3  750.42   24.30
  -6  -9  -3  723.13   26.30
   6   9  -3  708.93   25.80
   6   9  -3  740.63   23.60
  -9   6  -3  707.73   26.90
   9  -6  -3  725.43   25.30
   6   9  -3  714.63   27.30
   6   9  -3  710.63   25.90
  -6  -9  -3  746.43   26.70
  -6  -9  -3  702.53   26.30
   6   9  -3  696.33   23.20
  -9   6  -3  702.23   29.00
  -9   6  -3  719.43   25.60
  -6  -9   3  755.32   26.20
   6   9   3  759.42   25.00
  -6  -9   3  715.73   23.90
   6   9   3  713.23   27.70
   6   9   3  730.53   24.50
  -9   6   3  734.73   26.40
  -6  -9   3  703.13   24.00
   6   9   3  757.42   26.20
  -9   6   3  687.53   27.50
   9  -6   3  735.23   26.90
   9  -6   3  763.42   27.10
  -9   6   3  711.43   25.80
   6   9   3  763.92   27.60
   6   9   3  708.93   27.10
   9  -8  -3  681.83   25.70
  -8  -9  -3  726.93   26.90
  -9   8  -3  692.03   25.50
   8   9  -3  649.04   22.60
   8   9  -3  698.83   25.20
  -9   8  -3  693.63   26.80
  -8  -9  -3  669.63   26.40
   9  -8  -3  699.33   25.40
   8   9  -3  642.84   27.30
  -9   8  -3  716.63   26.50
   8   9  -3  667.13   25.50
   9  -8  -3  718.13   23.70
  -8  -9   3  689.13   22.80
   9  -8   3  690.93   27.20
   9  -8   3  650.83   25.90
  -9   8   3  638.54   27.20
   8   9   3  699.93   25.90
   8   9   3  695.53   27.70
   9  -8   3  692.83   26.30
   8   9   3  684.93   24.30
  -8  -9   3  685.63   25.90
  -8  -9   3  704.33   23.20
  -9   8   3  685.53   26.60
   8   9   3  707.53   26.40
  -9   8   3  662.13   25.40
  10   9  -3  160.28   12.20
  10   9  -3  145.39   13.40
 -10  -9  -3  141.59   13.80
  -9  10  -3  167.58   14.40
   9 -10  -3  176.28   13.40
  -9  10  -3  135.19   14.30
  -9  10  -3  143.49   13.40
 -10  -9  -3  135.89   16.00
   9 -10  -3  139.49   12.70
  10   9  -3  150.18   16.10
  10   9  -3  154.48    8.70
 -10  -9   3  159.28   14.30
  10   9   3  153.28   11.90
   9 -10   3  173.68   13.90
  10   9   3  160.58   14.00
  -9  10   3  136.59   15.50
  -9  10   3  152.58   13.90
  -9  10   3  162.28   16.20
 -10  -9   3  147.29    9.30
   9 -10   3  154.58   16.30
  10   9   3  159.48   15.20
   9 -10   3  148.19   14.20
   7 -10  -3  152.98   11.90
  -7  10  -3  154.28   12.20
  10   7  -3  139.69   11.70
  -7  10  -3  134.59   12.10
   7 -10  -3  133.59   11.50
  10   7  -3  130.59   13.80
 -10  -7  -3  139.69   12.10
  -7  10  -3  136.89   13.10
  10   7  -3  148.49    7.90
  10   7  -3  147.59    9.60
 -10  -7  -3  122.79   14.70
  10   7   3  135.69   12.00
   7 -10   3  141.09   12.60
  10   7   3  136.49   10.80
  -7  10   3  139.79   14.60
 -10  -7   3  127.19    7.60
   7 -10   3  135.19   11.70
  -7  10   3  149.59   12.40
 -10  -7   3  134.89   12.80
 -10  -7   3  141.39    8.80
  10   7   3  151.88   11.90
  -7  10   3  130.99   13.90
   7 -10   3  158.68   12.50
  10   7   3  131.79   14.10
 -10  -5  -3  205.48    9.80
   5 -10  -3  180.28   12.00
  -5  10  -3  193.18   12.70
  -5  10  -3  194.48   11.80
  10   5  -3  204.58    9.30
  10   5  -3  202.28   11.90
   5 -10  -3  212.08   12.10
  10   5  -3  223.78   14.20
 -10  -5  -3  198.38   14.10
  -5  10  -3  195.88   13.00
 -10  -5  -3  203.68   12.70
 -10  -5  -3  183.58   15.20
  -5  10   3  210.98   14.10
  10   5   3  178.98   11.60
   5 -10   3  218.28   12.10
   5 -10   3  186.08   12.10
  10   5   3  200.68   11.60
 -10  -5   3  190.88   13.60
   5 -10   3  214.78   13.70
  -5  10   3  209.38    9.90
  10   5   3  204.78   15.30
 -10  -5   3  189.38    9.40
 -10  -5   3  179.58    9.10
  10   5   3  186.78   12.30
  -5  10   3  191.78   13.20
  -5  10   3  196.58   13.90
 -10  -5   3  172.58   10.30
  10   5   3  186.58   14.10
  -3  10  -3  578.24   20.80
  10   3  -3  541.35   20.70
  -3  10  -3  532.35   21.90
   3 -10  -3  570.24   21.40
  10   3  -3  562.44   20.70
   3 -10  -3  536.75   20.80
 -10  -3  -3  539.35   21.30
 -10  -3  -3  533.95   22.20
  -3  10  -3  550.44   20.30
   3 -10  -3  554.74   18.10
  10   3  -3  539.05   18.50
  -3  10  -3  519.35   21.50
  10   3  -3  554.54   18.80
  10   3  -3  549.54   22.00
 -10  -3  -3  577.94   19.30
 -10  -3  -3  543.05   21.80
  -3  10   3  581.04   28.20
 -10  -3   3  532.55   19.00
  -3  10   3  533.95   22.50
 -10  -3   3  553.74   20.30
 -10  -3   3  559.94   19.10
   3 -10   3  545.85   20.50
  10   3   3  564.74   22.40
 -10  -3   3  564.74   18.70
  -3  10   3  534.75   22.20
  -3  10   3  561.94   19.40
  -3  10   3  537.05   22.00
   3 -10   3  507.45   20.90
  10   3   3  536.25   21.20
  10   3   3  572.94   22.60
  10   3   3  556.94   19.90
  10   3   3  559.64   21.20
  10   1  -3  101.39    9.10
   1 -10  -3   75.19    8.20
  10   1  -3   84.39    6.40
 -10  -1  -3   96.49   10.90
  -1  10  -3   97.99    9.80
 -10  -1  -3   90.59    8.40
   1 -10  -3   99.69    6.20
  -1  10  -3   98.79    7.40
  10   1  -3   85.69    9.30
   1 -10  -3  101.29   10.10
   1 -10  -3   88.99    9.30
  10   1  -3  124.09    8.50
  -1  10  -3   94.09   10.10
  10   1  -3   98.19    7.90
  -1  10  -3  104.29    8.60
 -10  -1  -3   99.19    9.10
 -10  -1  -3   76.39   10.40
  10   1   3   95.49    8.00
  10   1   3  100.79    9.80
  10   1   3   93.29    9.30
   1 -10   3   99.49    5.30
 -10  -1   3  102.49    6.60
 -10  -1   3   99.79    8.40
   1 -10   3  108.49    9.20
  -1  10   3   91.69   10.10
  -1  10   3   90.99   10.30
  10   1   3   93.59   10.20
   1 -10   3   88.29    7.90
 -10  -1   3   98.49    7.20
  -1  10   3  111.09    8.70
  -1  10   3  112.29   11.30
  10   1   3   93.59   11.70
  -1  10   3  114.59   10.30
  -1 -10  -3 1833.22   59.19
 -10   1  -3 1867.21   58.19
  10  -1  -3 1886.21   58.29
   1  10  -3 1770.22   59.99
 -10   1  -3 1872.21   59.79
  10  -1  -3 1935.21   58.19
  10  -1  -3 1835.42   57.79
 -10   1  -3 1875.61   58.69
  10  -1  -3 1804.22   59.59
  -1 -10  -3 1859.11   58.99
   1  10  -3 1832.42   57.99
  -1 -10  -3 1857.61   56.89
  -1 -10  -3 1915.11   59.19
   1  10  -3 1847.52   57.69
   1  10  -3 1849.02   59.99
 -10   1  -3 1942.21   59.69
  10  -1   3 1830.72   59.69
  10  -1   3 1908.11   59.89
 -10   1   3 1782.52   57.89
   1  10   3 1947.11   59.39
   1  10   3 1899.21   58.89
   1  10   3 1862.41   59.19
  10  -1   3 1893.71   57.69
  -1 -10   3 1765.52   60.39
  -1 -10   3 1789.22   57.59
   1  10   3 1849.21   60.09
  10  -1   3 1892.61   59.09
  -1 -10   3 1816.12   59.09
  -1 -10   3 1906.41   56.79
 -10   1   3 1857.31   58.29
  10  -1   3 1796.22   59.39
 -10   1   3 1878.01   56.99
   1  10   3 1875.41   58.49
 -10   1   3 1848.92   59.09
  -3 -10  -3  255.17   13.30
   3  10  -3  259.47   10.50
   3  10  -3  259.47   14.10
 -10   3  -3  259.17   11.70
 -10   3  -3  260.87   14.00
 -10   3  -3  272.77   15.50
  -3 -10  -3  274.97   13.90
   3  10  -3  264.37   14.30
  10  -3  -3  247.88   11.60
 -10   3  -3  249.48   11.80
  10  -3  -3  242.38   13.60
   3  10  -3  274.47   12.00
  -3 -10  -3  258.27   13.20
 -10   3  -3  232.98   12.80
   3  10  -3  270.27   11.30
  10  -3  -3  256.77   12.10
  -3 -10   3  242.68   13.30
 -10   3   3  255.67   12.20
  10  -3   3  292.27   15.00
   3  10   3  259.17   13.70
  -3 -10   3  259.07   11.50
  -3 -10   3  248.98   12.80
   3  10   3  233.98   14.70
  -3 -10   3  250.27   10.60
   3  10   3  260.87   10.70
 -10   3   3  270.27   11.20
   3  10   3  245.38   15.10
 -10   3   3  263.47   14.00
  10  -3   3  245.18   13.50
   3  10   3  265.57   13.00
   3  10   3  258.27   12.80
  10  -3   3  277.97   15.10
  10  -3   3  275.57   14.30
 -10   5  -3  565.14   24.90
  10  -5  -3  553.84   21.20
   5  10  -3  592.04   19.70
   5  10  -3  541.55   19.40
  -5 -10  -3  571.84   22.60
  10  -5  -3  591.54   20.70
 -10   5  -3  571.14   22.90
   5  10  -3  568.94   22.00
   5  10  -3  586.24   22.30
 -10   5  -3  596.54   23.20
  -5 -10  -3  584.74   23.20
  10  -5  -3  555.84   22.50
  -5 -10  -3  577.64   22.50
   5  10  -3  609.54   23.60
 -10   5  -3  617.04   19.70
   5  10  -3  557.94   23.60
 -10   5   3  563.54   23.50
  -5 -10   3  546.65   19.90
  -5 -10   3  585.64   20.60
   5  10   3  593.14   21.00
 -10   5   3  593.04   22.20
  10  -5   3  607.14   24.00
  -5 -10   3  558.84   23.50
  10  -5   3  601.24   23.00
   5  10   3  584.54   20.40
 -10   5   3  594.04   21.10
   5  10   3  543.85   23.40
  10  -5   3  562.34   22.80
   5  10   3  592.84   23.60
   5  10   3  600.54   23.70
   5  10   3  594.04   22.00
  10  -5   3  595.64   24.40
 -10   7  -3   60.19    8.50
  -7 -10  -3   69.09    8.90
 -10   7  -3   72.39    9.60
  10  -7  -3   68.09    8.80
 -10   7  -3   59.89    8.40
  10  -7  -3   76.69   10.30
   7  10  -3   91.89   11.20
   7  10  -3   81.59    6.50
  10  -7  -3   74.89    9.40
  -7 -10  -3   87.79   11.00
   7  10  -3   83.59    9.70
   7  10  -3   78.19   10.10
 -10   7   3   79.19   10.10
  10  -7   3   72.09    8.40
   7  10   3   51.29   10.00
 -10   7   3   60.09    8.70
   7  10   3   73.49    9.40
  -7 -10   3   67.19    6.80
  10  -7   3   74.09    9.80
   7  10   3   70.49    8.40
  10  -7   3   70.79    8.30
   7  10   3   50.19    8.40
 -10   7   3   83.69   11.20
  -7 -10   3   76.39   10.40
  10  -9  -3  234.98   14.20
 -10   9  -3  238.48   15.90
   9  10  -3  223.48   16.60
  -9 -10  -3  207.08   16.40
 -10   9  -3  248.98   15.60
  10  -9  -3  204.88   14.00
   9  10  -3  200.28   13.90
   9  10  -3  214.08   14.60
   9  10  -3  201.48   10.30
  -9 -10  -3  205.78   15.20
 -10   9  -3  238.28   14.20
  -9 -10   3  231.88   15.50
   9  10   3  202.78   16.50
  10  -9   3  205.18   14.70
   9  10   3  212.38   16.20
   9  10   3  232.18   13.30
 -10   9   3  209.08   14.00
  -9 -10   3  230.18   10.80
  10  -9   3  210.58   17.20
 -10   9   3  212.48   17.30
 -10   9   3  219.38   16.50
  10  -9   3  210.38   15.50
  11  10  -3  557.24   21.30
  11  10  -3  588.04   28.10
 -11 -10  -3  638.34   27.00
 -11 -10  -3  585.54   26.40
 -10  11  -3  630.94   26.20
  10 -11  -3  586.64   25.60
 -10  11  -3  606.24   27.20
  10 -11  -3  604.64   25.10
 -10  11  -3  595.84   27.20
  11  10  -3  598.74   25.40
  11  10   3  592.84   27.70
 -11 -10   3  607.74   27.70
 -11 -10   3  565.04   21.70
  11  10   3  586.14   24.20
  11  10   3  617.34   28.80
 -10  11   3  604.04   27.90
  10 -11   3  585.84   27.00
  10 -11   3  574.44   25.70
 -10  11   3  595.34   25.20
 -10  11   3  551.84   27.50
  10 -11   3  615.44   25.40
  11  10   3  621.44   25.40
   8 -11  -3  261.57   15.80
  11   8  -3  275.37   16.30
  -8  11  -3  290.67   16.40
 -11  -8  -3  310.37   19.30
  11   8  -3  273.07   12.00
  11   8  -3  293.77   18.80
 -11  -8  -3  270.97   16.60
  -8  11  -3  287.37   16.80
  -8  11  -3  293.57   18.20
   8 -11  -3  280.07   15.90
  11   8   3  272.77   15.50
  11   8   3  272.87   18.50
 -11  -8   3  290.87   17.70
  11   8   3  291.87   16.20
 -11  -8   3  268.57   12.50
  -8  11   3  282.67   17.30
   8 -11   3  301.77   17.90
  -8  11   3  279.97   19.10
   8 -11   3  271.67   16.70
   8 -11   3  289.67   17.30
  -8  11   3  286.67   19.80
  -6  11  -3   81.79   10.30
  11   6  -3   63.99    7.00
  -6  11  -3   70.29    8.70
  -6  11  -3   69.89    8.70
 -11  -6  -3   70.79    9.40
 -11  -6  -3   79.09    9.10
   6 -11  -3   70.59    8.00
  11   6  -3   65.19    8.80
  11   6  -3   56.19    7.70
   6 -11  -3   54.19    7.70
  11   6   3   61.29    7.50
 -11  -6   3   53.59    9.00
  11   6   3   70.59    9.90
  -6  11   3   63.29    9.60
  -6  11   3   63.39    9.70
   6 -11   3   76.09    9.20
  11   6   3   61.39    7.90
 -11  -6   3   60.19    7.40
  -6  11   3   85.29    9.40
   6 -11   3   70.19    8.50
  11   6   3   75.49   10.10
   6 -11   3   61.69    8.20
 -11  -4  -3  319.27   16.00
  11   4  -3  305.67   12.30
  -4  11  -3  299.97   14.50
  11   4  -3  317.57   15.50
  11   4  -3  322.77   18.10
 -11  -4  -3  326.27   17.30
   4 -11  -3  308.57   15.30
  11   4  -3  332.47   13.60
  -4  11  -3  311.27   16.20
  -4  11  -3  312.37   16.80
 -11  -4  -3  317.87   13.10
  -4  11  -3  294.37   15.40
   4 -11  -3  311.87   14.90
  -4  11   3  321.77   17.00
 -11  -4   3  279.17   16.70
   4 -11   3  329.87   15.80
  -4  11   3  326.47   17.30
 -11  -4   3  311.07   13.60
  11   4   3  308.37   17.10
  11   4   3  307.97   13.90
   4 -11   3  322.67   15.50
 -11  -4   3  335.87   14.30
  -4  11   3  302.07   18.00
 -11  -4   3  306.77   13.10
  11   4   3  303.57   17.40
  11   4   3  298.47   15.60
  -4  11   3  333.27   13.40
 -11  -2  -3   84.69    9.00
  11   2  -3   90.69    8.60
   2 -11  -3   91.89   11.50
  11   2  -3   91.29    9.20
   2 -11  -3   77.09    6.90
  11   2  -3   77.49   10.80
  11   2  -3   82.89    9.40
  -2  11  -3   73.59   10.10
  11   2  -3   79.79    6.90
  -2  11  -3   79.29    8.20
  -2  11  -3   88.89   10.90
   2 -11  -3   80.99    9.20
 -11  -2  -3   78.89   10.10
  -2  11  -3   72.59    7.30
   2 -11  -3   90.59   10.00
 -11  -2  -3  100.79    8.30
 -11  -2  -3   76.49    9.10
 -11  -2   3   82.19    9.10
 -11  -2   3   97.09    9.90
  11   2   3   78.09   10.30
   2 -11   3   75.29    9.30
  -2  11   3   85.19    8.70
  11   2   3   77.59    9.60
  -2  11   3   58.29    8.20
  -2  11   3   89.79   11.20
  11   2   3   83.59    8.30
  -2  11   3   90.69   11.80
  11   2   3   61.39    8.20
 -11  -2   3   66.09    7.30
  11   2   3   58.29    9.40
   2 -11   3   74.69    8.70
  -2  11   3   85.49    9.20
   0  11  -3  160.58    9.50
   0 -11  -3  178.48   11.80
  11   0  -3  151.38    8.70
   0  11  -3  172.88   12.40
   0  11  -3  169.18   10.60
 -11   0  -3  157.28   10.40
   0 -11  -3  179.28    8.60
   0 -11  -3  178.58   12.00
   0  11  -3  167.78   12.90
 -11   0  -3  144.89   12.70
  11   0  -3  133.29   11.20
 -11   0  -3  158.48   13.70
   0 -11  -3  179.78   10.90
  11   0  -3  171.88   11.30
   0  11   3  152.28   13.10
  11   0   3  170.78    9.40
   0  11   3  152.98   10.90
 -11   0   3  162.08   11.50
   0 -11   3  146.19    9.30
   0 -11   3  143.59   10.70
   0  11   3  159.48   12.00
  11   0   3  190.58   14.00
  11   0   3  162.68   11.30
  11   0   3  143.79   11.50
   0  11   3  148.89   13.40
 -11   0   3  165.78    8.40
  11   0   3  193.98   12.40
   0  11   3  162.28   12.60
   0 -11   3  136.59    7.90
 -11   0   3  162.08    9.70
  11  -2  -3  851.51   31.30
  -2 -11  -3  871.81   31.20
 -11   2  -3  913.01   29.80
   2  11  -3  841.42   28.90
  11  -2  -3  869.51   29.40
 -11   2  -3  857.41   30.40
 -11   2  -3  932.61   32.40
  -2 -11  -3  829.42   30.60
   2  11  -3  851.81   31.80
  -2 -11  -3  932.41   31.20
   2  11  -3  850.61   31.80
   2  11  -3  922.21   29.30
  11  -2  -3  852.31   30.30
  -2 -11  -3  903.61   28.70
 -11   2  -3  911.61   31.20
 -11   2   3  863.91   28.50
  11  -2   3  897.31   29.30
 -11   2   3  859.31   31.20
  11  -2   3  941.91   32.60
   2  11   3  867.61   30.60
  11  -2   3  833.32   31.30
   2  11   3  876.71   31.00
 -11   2   3  871.11   29.90
  11  -2   3  862.51   31.30
  -2 -11   3  839.32   31.00
   2  11   3  885.41   32.40
   2  11   3  906.41   30.80
  11  -2   3  906.11   31.80
  -2 -11   3  868.91   29.00
  -2 -11   3  884.51   28.60
   2  11   3  890.81   31.60
 -11   4  -3 1164.78   40.70
   4  11  -3 1111.99   41.10
  -4 -11  -3 1204.28   40.50
  -4 -11  -3 1243.08   40.60
   4  11  -3 1207.28   40.70
 -11   4  -3 1269.97   38.90
 -11   4  -3 1221.58   41.80
   4  11  -3 1253.57   38.00
   4  11  -3 1129.19   37.90
  -4 -11  -3 1189.68   42.20
 -11   4  -3 1158.58   40.60
  11  -4  -3 1174.18   40.70
  11  -4  -3 1167.68   39.20
 -11   4  -3 1239.08   38.50
   4  11   3 1242.88   38.50
 -11   4   3 1180.18   41.20
  11  -4   3 1221.18   41.70
  -4 -11   3 1177.48   40.90
  -4 -11   3 1143.39   38.30
 -11   4   3 1170.28   40.00
   4  11   3 1203.88   41.90
   4  11   3 1197.48   41.60
  11  -4   3 1230.48   41.70
  11  -4   3 1162.38   40.80
   4  11   3 1263.47   39.40
   4  11   3 1217.98   40.20
 -11   4   3 1217.08   38.60
  11  -4   3 1245.38   40.90
   4  11   3 1154.28   41.10
 -11   6  -3   51.19    7.20
   6  11  -3   59.19    7.60
   6  11  -3   51.59    8.80
   6  11  -3   57.39    6.50
  11  -6  -3   67.19    7.90
  -6 -11  -3   48.50    7.60
  11  -6  -3   55.29    6.60
  11  -6  -3   43.70    7.10
 -11   6  -3   70.09   14.10
 -11   6  -3   56.39    8.70
  -6 -11  -3   59.39    9.90
   6  11  -3   56.49    7.70
  -6 -11   3   52.39    7.20
  11  -6   3   60.49   10.40
   6  11   3   56.19    6.00
  11  -6   3   52.39    8.00
   6  11   3   58.99    7.70
  11  -6   3   44.00    8.20
 -11   6   3   55.59    7.80
   6  11   3   51.49    8.90
 -11   6   3   41.70    8.80
  -6 -11   3   59.99    7.10
 -11   6   3   45.80    7.50
   6  11   3   49.90    8.80
  11  -8  -3   56.29    8.20
   8  11  -3   58.19    8.40
 -11   8  -3   49.00    7.30
   8  11  -3   65.49    8.60
 -11   8  -3   65.89    9.70
  -8 -11  -3   46.00    8.90
   8  11  -3   69.69    7.30
  11  -8  -3   54.69    7.60
   8  11  -3   63.79   10.50
  -8 -11  -3   56.79    8.60
  11  -8   3   55.89    8.90
  -8 -11   3   49.00    8.20
 -11   8   3   62.59   10.40
   8  11   3   62.49    7.00
   8  11   3   49.70    9.80
  11  -8   3   65.99    9.00
 -11   8   3   44.70    9.00
 -11   8   3   60.89    7.50
  -8 -11   3   59.79    8.10
  11  -8   3   49.80   10.30
   8  11   3   47.20    9.60
 -11  10  -3   69.79   11.20
 -11  10  -3   69.99    9.20
  10  11  -3   76.09    9.00
 -10 -11  -3   53.49   11.20
 -10 -11  -3   79.39   10.50
  11 -10  -3   69.29    9.40
  10  11  -3   54.89   11.10
  10  11  -3   55.59    6.10
  11 -10  -3   75.99    9.50
  10  11  -3   52.39    9.30
  10  11   3   80.09   10.00
 -11  10   3   61.39   11.10
 -11  10   3   72.59   12.00
 -10 -11   3   73.29    9.20
  10  11   3   77.09   11.90
  11 -10   3   53.89    9.80
  10  11   3  100.19   12.80
 -10 -11   3   54.89    9.90
 -11  10   3   59.09    9.00
  11 -10   3   56.99    9.80
  10  11   3   80.49   10.40
  11 -10   3   66.79   12.30
  12  11  -3   26.30    6.50
  12  11  -3   32.90    9.50
  11 -12  -3   28.10   14.40
 -12 -11  -3   37.50   11.10
 -11  12  -3   36.40   11.70
 -11  12  -3   17.00    8.80
  12  11  -3   47.90   13.00
 -12 -11  -3   23.20   12.10
  11 -12   3   25.10   10.60
 -11  12   3   28.60   12.40
 -11  12   3   47.20   13.20
 -11  12   3   27.30    9.60
 -12 -11   3   47.60   21.10
  11 -12   3   21.60   10.60
  12  11   3   23.90    9.30
 -12 -11   3   33.80    6.90
  12  11   3    8.80   11.70
  12   9  -3   58.99   11.80
  12   9  -3   38.70    9.00
  -9  12  -3   62.29   11.10
   9 -12  -3   42.10    9.00
 -12  -9  -3   56.79   10.10
  -9  12  -3   25.30    8.70
  -9  12  -3   47.50    9.50
 -12  -9  -3   44.30   11.30
   9 -12  -3   46.50    9.50
  12   9  -3   47.80    5.90
  -9  12   3   45.90    9.80
  12   9   3   39.40   10.80
 -12  -9   3   36.00   10.00
  12   9   3   33.10    8.30
  -9  12   3   43.60   11.50
   9 -12   3   34.50    9.80
  12   9   3   35.40    9.00
 -12  -9   3   38.30    6.10
   9 -12   3   43.20   10.90
  -9  12   3   41.40   10.60
   9 -12   3   37.50    9.70
  -7  12  -3   70.19    9.10
  12   7  -3   93.09   10.90
  -7  12  -3   78.69    9.70
  -7  12  -3   98.09   10.90
   7 -12  -3   83.89    9.40
 -12  -7  -3   73.99   11.00
   7 -12  -3   83.99    9.30
  12   7  -3   82.79    8.30
 -12  -7  -3   70.19    9.60
  12   7  -3  107.19   12.80
  -7  12   3   73.19   11.30
  12   7   3   71.39   10.50
 -12  -7   3   81.09   10.10
  -7  12   3   83.19    9.50
  -7  12   3   81.69   11.70
   7 -12   3   67.39    8.90
 -12  -7   3   86.39    8.50
   7 -12   3   69.99    9.80
   7 -12   3  110.79   13.90
  12   7   3   71.89    8.60
 -12  -5  -3  183.88   16.00
  12   5  -3  159.18   13.80
  -5  12  -3  167.48   14.00
   5 -12  -3  167.78   12.50
  12   5  -3  184.28   10.30
   5 -12  -3  182.58   13.40
 -12  -5  -3  171.88   13.90
  12   5  -3  160.88   14.50
  -5  12  -3  186.18   14.60
  -5  12  -3  200.68   12.80
  -5  12   3  198.68   15.00
  12   5   3  185.98   13.30
 -12  -5   3  183.18   13.80
   5 -12   3  172.08   13.60
 -12  -5   3  164.48   10.30
   5 -12   3  181.78   13.40
  -5  12   3  188.88   16.20
  -5  12   3  195.08   16.20
 -12  -5   3  171.78   14.90
  12   5   3  142.59   15.70
   5 -12   3  161.18   14.90
 -12  -3  -3 1111.29   39.70
  -3  12  -3 1077.29   39.40
   3 -12  -3 1148.69   38.00
  -3  12  -3 1107.39   37.50
  12   3  -3 1137.19   38.10
   3 -12  -3 1125.29   38.30
  -3  12  -3 1073.09   37.80
 -12  -3  -3 1083.09   38.50
 -12  -3  -3 1159.68   36.40
  12   3  -3 1079.99   35.90
  -3  12  -3 1069.29   38.70
  12   3  -3 1186.48   37.40
  12   3   3 1062.39   37.80
  12   3   3 1041.90   38.00
  12   3   3 1124.89   39.40
  -3  12   3 1137.09   39.60
  -3  12   3 1136.09   39.30
 -12  -3   3 1099.49   40.00
  -3  12   3 1116.29   39.30
   3 -12   3 1078.59   38.00
 -12  -3   3 1116.49   36.80
 -12  -3   3 1032.10   35.80
   3 -12   3 1109.79   37.40
  -3  12   3 1146.39   36.70
 -12  -1  -3  449.26   17.80
  -1  12  -3  448.66   17.60
   1 -12  -3  455.75   19.60
  12   1  -3  420.76   18.50
   1 -12  -3  428.56   24.40
   1 -12  -3  428.46   18.50
  12   1  -3  437.46   19.70
  -1  12  -3  443.16   19.70
  -1  12  -3  434.36   20.20
 -12  -1  -3  421.16   19.20
 -12  -1  -3  463.25   21.60
  12   1  -3  419.96   16.70
  -1  12  -3  443.06   18.10
   1 -12   3  438.66   19.10
 -12  -1   3  459.85   19.10
  -1  12   3  477.25   18.50
 -12  -1   3  434.56   17.50
  -1  12   3  446.56   20.90
  -1  12   3  457.65   20.70
  12   1   3  430.86   20.30
  -1  12   3  433.56   21.60
  12   1   3  446.26   20.20
  12   1   3  433.46   19.80
   1 -12   3  439.56   18.10
  -1 -12  -3  107.09   12.70
 -12   1  -3   64.49    7.80
  12  -1  -3   73.09    8.50
  12  -1  -3   61.79    7.30
   1  12  -3   59.29    6.80
 -12   1  -3   67.09    9.70
 -12   1  -3   70.49    9.30
  -1 -12  -3   62.59    7.70
  12  -1  -3   53.89    7.50
  -1 -12  -3   73.79    8.40
   1  12  -3   71.99    8.90
   1  12  -3   70.29    7.80
   1  12  -3   52.59    7.70
  -1 -12  -3   72.09    9.50
 -12   1  -3   71.89    7.40
  12  -1   3   73.69   10.10
  -1 -12   3   56.69    6.10
  12  -1   3   72.09    9.50
   1  12   3   69.09    9.10
   1  12   3   74.79    9.00
 -12   1   3   55.09    6.50
   1  12   3   80.09   10.40
   1  12   3   61.89    9.20
  -1 -12   3   63.19    7.90
  12  -1   3   78.29    8.60
  12  -1   3   88.79   10.60
  12  -1   3   71.09    8.40
 -12   1   3   77.09    8.50
  -1 -12   3   71.29    7.70
   1  12   3   60.59    8.20
  12  -3  -3  223.58   12.00
   3  12  -3  192.28   14.60
  -3 -12  -3  202.68   13.40
  12  -3  -3  222.98   14.20
 -12   3  -3  259.57   13.20
 -12   3  -3  231.18   13.80
  12  -3  -3  227.48   13.30
 -12   3  -3  276.77   17.30
   3  12  -3  187.18   14.60
   3  12  -3  225.98   11.60
   3  12  -3  205.68   10.90
 -12   3  -3  263.27   15.90
  -3 -12  -3  222.68   15.30
  12  -3   3  218.58   14.70
   3  12   3  235.08   14.40
  -3 -12   3  223.48   11.20
  -3 -12   3  231.68   14.70
  12  -3   3  233.68   17.40
  -3 -12   3  256.17   12.20
   3  12   3  233.38   19.00
 -12   3   3  200.88   15.30
  12  -3   3  205.28   14.20
   3  12   3  242.98   16.40
   3  12   3  240.48   15.20
 -12   3   3  220.28   12.70
  12  -3   3  228.48   12.00
   3  12   3  224.28   14.80
  12  -3   3  232.08   17.50
   5  12  -3   61.19    9.00
 -12   5  -3   63.69    7.90
 -12   5  -3   54.59    8.10
 -12   5  -3   70.99    9.90
  12  -5  -3   67.09    9.30
   5  12  -3   57.89    9.30
  -5 -12  -3   46.90    9.20
   5  12  -3   51.29    7.00
  12  -5  -3   63.99    7.30
  12  -5  -3   48.50    7.90
  -5 -12  -3   51.99    8.40
  -5 -12   3   56.99    8.00
  12  -5   3   49.20    8.20
   5  12   3   59.59    9.80
  -5 -12   3   55.79    6.00
   5  12   3   65.59    8.30
 -12   5   3   55.69    9.40
   5  12   3   70.39    9.00
  12  -5   3   56.79    8.40
 -12   5   3   36.90    7.20
   5  12   3   62.19    6.40
  -5 -12   3   67.09    7.20
  12  -5   3   30.10   10.00
   7  12  -3  315.17   19.60
  12  -7  -3  292.67   15.90
  -7 -12  -3  300.67   18.00
   7  12  -3  318.27   17.60
  12  -7  -3  268.87   16.60
   7  12  -3  284.17   16.50
   7  12  -3  301.27   13.00
  12  -7  -3  306.67   15.70
  -7 -12  -3  299.57   17.40
 -12   7  -3  275.67   17.80
 -12   7   3  299.27   18.90
   7  12   3  315.87   20.10
 -12   7   3  322.67   17.40
  12  -7   3  302.17   17.90
 -12   7   3  295.07   15.30
  -7 -12   3  300.47   16.70
  12  -7   3  331.47   20.80
  12  -7   3  334.07   17.90
  -7 -12   3  296.37   13.70
   7  12   3  307.87   15.00
   7  12   3  290.37   19.10
 -12   9  -3    3.50    9.40
  -9 -12  -3    0.60    8.30
 -12   9  -3   11.90    7.00
  -9 -12  -3    9.70    9.50
  12  -9  -3   -1.20    7.60
  12  -9  -3    4.50    7.60
   9  12  -3    9.60    8.10
   9  12  -3   -2.20    7.80
   9  12  -3   -0.60    9.90
   9  12  -3   -1.50    4.70
 -12   9   3    2.90    9.80
   9  12   3    6.20    6.80
   9  12   3  -14.10    8.90
  -9 -12   3    8.40    7.80
  12  -9   3   10.70    8.70
  -9 -12   3   -4.70    5.30
   9  12   3    8.90   10.00
  12  -9   3    3.30    8.60
 -12   9   3  -10.10    8.70
  11  12  -3  795.32   32.70
  11  12  -3  729.73   37.40
 -11 -12  -3  823.72   34.20
  12 -11  -3  813.02   31.60
 -12  11  -3  785.02   34.10
 -11 -12  -3  803.72   33.80
  11  12  -3  796.42   28.10
  11  12   3  752.92   34.70
 -11 -12   3  809.22   33.30
 -12  11   3  790.72   34.30
 -11 -12   3  808.52   28.30
 -12  11   3  782.52   35.10
  11  12   3  764.02   30.20
  12 -11   3  798.42   32.90
 -12  13  -3  249.38   23.00
 -13 -12  -3  279.27   24.60
  12 -13  -3  279.87   22.10
  13  12  -3  275.97   15.90
  13  12  -3  281.87   26.80
  13  12  -3  300.27   23.50
  13  12   3  267.47   26.30
  12 -13   3  270.37   23.30
 -12  13   3  284.97   25.70
 -12  13   3  294.97   26.70
  13  12   3  281.67   20.20
 -12  13   3  224.48   23.80
 -13 -12   3  231.08   23.00
 -13 -12   3  269.97   16.50
 -10  13  -3   71.09   11.10
  13  10  -3   55.09    7.40
 -13 -10  -3   37.10   11.80
  13  10  -3   66.59   11.30
 -10  13  -3   66.69   13.10
  13  10  -3   64.59   13.30
 -13 -10  -3   60.69   13.40
 -13 -10   3   62.29    7.80
  10 -13   3   72.39   11.70
  13  10   3   55.79   13.00
 -10  13   3   62.79   11.20
  10 -13   3   76.89   14.10
 -13 -10   3   92.99   13.20
 -10  13   3   66.49   14.10
 -10  13   3   46.50   13.50
  13  10   3   85.99   12.00
  10 -13   3   70.79   11.80
  13   8  -3  122.69   15.40
  13   8  -3  144.29   18.30
 -13  -8  -3  165.28   19.80
   8 -13  -3  119.29   15.80
  13   8  -3  148.99   10.70
   8 -13  -3  114.69   14.50
  -8  13  -3  149.39   17.20
 -13  -8  -3  134.39   17.10
  -8  13  -3  124.59   15.50
  -8  13  -3  144.19   15.60
   8 -13   3  155.68   16.30
 -13  -8   3  135.19   11.20
  -8  13   3  160.88   19.00
  13   8   3  137.39   16.50
  13   8   3  141.89   18.90
  -8  13   3  165.98   17.30
 -13  -8   3  165.88   17.20
  -8  13   3  182.28   21.20
  13   8   3  123.89   15.00
   8 -13   3  154.48   16.90
   8 -13   3  151.78   17.20
   6 -13  -3  696.63   27.30
  13   6  -3  731.83   28.80
  -6  13  -3  666.93   28.70
 -13  -6  -3  702.83   28.80
  13   6  -3  690.53   27.60
  13   6  -3  656.33   24.60
  -6  13  -3  732.33   27.60
  -6  13  -3  696.83   28.50
   6 -13  -3  754.42   34.80
 -13  -6  -3  706.23   29.60
  13   6   3  692.83   29.80
  -6  13   3  751.42   30.60
 -13  -6   3  646.54   24.70
  13   6   3  696.23   27.60
   6 -13   3  705.43   28.40
  -6  13   3  683.03   30.20
  -6  13   3  736.73   29.30
   6 -13   3  678.83   27.80
 -13  -6   3  655.63   29.00
  13   6   3  704.33   27.90
   6 -13   3  706.23   29.10
 -13  -4  -3  592.44   24.80
  -4  13  -3  483.35   23.90
  -4  13  -3  506.25   22.30
  -4  13  -3  495.85   22.50
  -4  13  -3  505.65   21.50
 -13  -4  -3  530.25   23.60
   4 -13  -3  500.55   21.60
  13   4  -3  535.65   22.40
  13   4  -3  569.14   22.90
  -4  13   3  496.35   24.10
 -13  -4   3  511.95   24.20
  -4  13   3  556.44   24.30
 -13  -4   3  465.35   21.00
   4 -13   3  516.15   22.40
 -13  -4   3  467.35   19.70
  13   4   3  534.15   24.40
   4 -13   3  558.64   22.40
  -4  13   3  588.84   25.90
  13   4   3  471.45   22.30
 -13  -2  -3  404.46   21.40
  -2  13  -3  365.56   17.80
 -13  -2  -3  383.56   19.30
  -2  13  -3  353.86   18.90
  13   2  -3  373.26   18.10
  13   2  -3  377.96   15.50
  -2  13  -3  353.16   19.60
   2 -13  -3  411.46   18.80
   2 -13  -3  376.96   17.70
  13   2  -3  398.86   19.40
  -2  13  -3  384.16   16.90
  13   2   3  380.26   19.20
  -2  13   3  384.86   21.30
 -13  -2   3  374.36   21.30
  13   2   3  397.66   20.30
   2 -13   3  399.26   17.80
  -2  13   3  393.26   20.80
  13   2   3  405.46   20.30
 -13  -2   3  358.66   16.20
  -2  13   3  381.06   22.40
   2 -13   3  375.06   18.50
  13   0  -3  454.55   18.20
   0  13  -3  449.56   18.50
   0  13  -3  448.16   21.50
   0  13  -3  492.85   19.20
   0 -13  -3  443.56   19.60
 -13   0  -3  465.95   19.20
 -13   0  -3  468.45   23.10
 -13   0  -3  450.25   20.40
   0 -13  -3  508.75   22.10
  13   0  -3  465.45   21.10
   0  13  -3  442.96   21.70
  13   0  -3  476.45   20.50
   0 -13   3  408.36   20.10
   0  13   3  480.05   19.90
  13   0   3  480.75   21.00
  13   0   3  468.65   21.50
 -13   0   3  481.15   20.70
   0  13   3  475.95   21.70
 -13   0   3  478.75   18.90
   0  13   3  444.86   22.80
   0 -13   3  453.85   19.10
  13   0   3  475.35   21.50
   0  13   3  456.55   22.90
 -13   2  -3  288.47   15.70
  13  -2  -3  285.07   13.60
  13  -2  -3  261.77   16.00
   2  13  -3  250.07   13.00
   2  13  -3  275.97   13.60
 -13   2  -3  314.67   15.90
  -2 -13  -3  291.57   16.60
   2  13  -3  244.68   16.80
  -2 -13  -3  242.48   15.00
 -13   2  -3  285.07   20.20
  -2 -13  -3  278.77   13.10
  13  -2  -3  300.07   18.20
   2  13  -3  264.17   17.10
   2  13   3  286.67   15.70
 -13   2   3  246.38   14.40
  -2 -13   3  276.67   15.90
  13  -2   3  247.18   15.90
   2  13   3  271.27   18.80
  13  -2   3  252.57   16.40
  -2 -13   3  270.47   13.40
 -13   2   3  276.77   16.70
   2  13   3  312.77   17.30
  13  -2   3  260.17   19.20
  -2 -13   3  305.47   13.50
  -4 -13  -3  116.29   14.80
   4  13  -3   77.79    8.20
   4  13  -3   94.59   10.60
  -4 -13  -3   89.29   12.20
  13  -4  -3   85.99    8.70
   4  13  -3   82.69   10.40
 -13   4  -3   98.19   12.70
  13  -4  -3   77.99    9.20
  13  -4  -3   97.89   10.20
   4  13   3   78.49   12.20
  -4 -13   3   97.99   13.00
   4  13   3  104.69   13.80
 -13   4   3   79.39    8.70
  13  -4   3  105.99   13.70
   4  13   3  107.49   13.90
  -4 -13   3  102.19    9.60
  13  -4   3   90.29   10.30
  -4 -13   3   90.29    9.50
 -13   4   3   98.89   10.90
  -6 -13  -3  125.49   16.40
   6  13  -3  113.09   15.00
   6  13  -3   99.89    9.30
  13  -6  -3  107.89   11.80
 -13   6  -3  108.19   14.30
  -6 -13  -3  119.09   14.60
   6  13  -3  107.19   12.50
  13  -6  -3   97.19   13.00
  13  -6  -3  127.69   12.70
  -6 -13   3  115.99   14.40
 -13   6   3  117.09   13.90
  -6 -13   3  121.79   11.70
  13  -6   3  118.49   14.20
   6  13   3  117.09   14.70
 -13   6   3  122.59   16.40
  -6 -13   3  125.49   10.40
  13  -6   3   97.09   13.70
   6  13   3  125.09   13.00
  13  -8  -3  345.97   19.50
  -8 -13  -3  343.87   19.80
 -13   8  -3  317.37   20.70
   8  13  -3  326.77   15.00
  -8 -13  -3  384.36   21.10
   8  13  -3  327.77   19.40
  13  -8  -3  305.67   18.00
   8  13  -3  325.77   22.20
   8  13  -3  361.06   19.50
   8  13   3  336.17   22.50
  13  -8   3  333.57   19.70
   8  13   3  321.67   22.20
  -8 -13   3  322.67   15.50
 -13   8   3  355.56   20.60
  -8 -13   3  331.97   18.60
  13  -8   3  325.57   19.90
 -13   8   3  366.26   21.80
 -13  10  -3  467.55   25.20
  13 -10  -3  452.35   22.50
 -10 -13  -3  410.36   23.60
 -10 -13  -3  434.46   25.30
  10  13  -3  395.36   18.00
  10  13  -3  397.96   25.80
  10  13  -3  395.76   23.30
  13 -10  -3  450.35   24.00
  13 -10   3  409.16   23.20
  10  13   3  401.86   25.40
 -10 -13   3  433.46   23.60
 -10 -13   3  426.66   18.70
  10  13   3  417.56   27.50
 -13  10   3  432.36   26.10
 -13  10   3  430.66   26.10
  12  13  -3   31.30   11.50
  12  13  -3   36.80    8.00
 -13  12  -3   51.29   14.10
  13 -12  -3   34.20   11.80
  12  13  -3   44.50   14.80
 -12 -13  -3   37.70   13.40
 -12 -13   3   46.30   13.20
 -13  12   3   44.50   15.00
  12  13   3   60.69   14.80
  12  13   3   40.80   10.00
  13 -12   3   28.80   12.20
 -12 -13   3   35.80    8.50
 -13  12   3   66.79   15.10
  13 -14  -3  307.57   23.40
 -13  14  -3  249.48   26.60
 -14 -13  -3  249.38   26.90
  14  13  -3  270.87   30.00
  14  13  -3  263.07   17.80
  14  13  -3  217.48   25.50
  13 -14   3  273.67   26.20
 -14 -13   3  273.47   18.50
 -13  14   3  233.98   29.20
  14  13   3  289.37   23.00
 -14 -13   3  263.67   25.90
  14  13   3  272.07   29.20
  14  11  -3   30.50   14.50
 -11  14  -3   30.70   11.10
 -14 -11  -3   33.50   13.40
 -11  14  -3   25.80   13.10
  14  11  -3   22.70    7.50
  11 -14  -3    4.40   11.10
  14  11  -3   -1.70   11.40
 -14 -11   3   24.70    8.10
 -14 -11   3   28.30   13.80
  14  11   3    9.80   11.80
  11 -14   3   18.20   12.30
 -11  14   3   18.30   14.40
  14  11   3   25.20   14.40
 -11  14   3   33.20   14.30
 -14  -9  -3   92.19   14.70
  -9  14  -3  110.39   12.50
  14   9  -3  103.59   14.40
  14   9  -3   99.69   12.50
  -9  14  -3  104.49   13.20
  14   9  -3   97.99   11.50
 -14  -9  -3  106.29   13.40
   9 -14  -3   90.29   12.20
  14   9   3   82.29   11.50
  -9  14   3   98.59   14.70
   9 -14   3  108.09   12.60
  14   9   3   85.59   13.80
   9 -14   3  134.09   14.60
   9 -14   3   95.59   12.60
 -14  -9   3   83.99    8.50
 -14  -9   3   99.89   14.70
  -9  14   3   91.29   16.00
 -14  -7  -3   83.39   13.60
   7 -14  -3   55.49   13.50
  -7  14  -3   79.19   11.80
   7 -14  -3   82.49   10.70
  -7  14  -3   71.09   10.50
 -14  -7  -3   85.99   13.10
  -7  14  -3   91.69   11.80
  14   7  -3   77.19   11.20
  14   7  -3   85.39   12.10
  -7  14   3   86.29   11.90
  -7  14   3   74.79   13.30
  14   7   3   82.99   12.80
   7 -14   3   59.99   11.70
  -7  14   3   80.49   14.20
 -14  -7   3   57.89   10.10
   7 -14   3   74.29   11.30
  14   7   3   65.89   10.40
 -14  -5  -3  183.68   17.80
  -5  14  -3  260.67   18.30
 -14  -5  -3  211.68   19.10
  14   5  -3  204.88   18.00
  -5  14  -3  224.48   17.30
  14   5  -3  196.08   12.60
  -5  14  -3  226.58   16.20
   5 -14  -3  262.37   16.20
  14   5  -3  194.38   16.70
  -5  14   3  203.78   21.50
   5 -14   3  197.18   17.10
  14   5   3  236.38   17.00
 -14  -5   3  198.48   13.30
  14   5   3  245.48   19.20
   5 -14   3  181.58   16.30
   5 -14   3  187.98   18.30
  -5  14   3  195.68   20.10
  -5  14   3  221.98   18.70
 -14  -5   3  234.28   18.90
  -3  14  -3  169.28   13.40
   3 -14  -3  160.38   14.20
 -14  -3  -3  207.18   18.10
  -3  14  -3  172.48   16.60
  -3  14  -3  163.58   14.60
  14   3  -3  170.68   14.70
  14   3  -3  167.68   11.00
 -14  -3  -3  189.18   17.00
  -3  14  -3  171.18   15.70
  -3  14   3  172.68   17.00
  14   3   3  140.79   14.60
  14   3   3  196.68   17.40
  -3  14   3  186.48   18.50
   3 -14   3  160.28   14.80
 -14  -3   3  144.69   16.80
   3 -14   3  182.28   14.10
 -14  -1  -3   69.99   10.00
  -1  14  -3   74.69   10.20
  -1  14  -3   77.29   10.20
  -1  14  -3   90.19   11.10
   1 -14  -3   93.69   11.40
  14   1  -3   72.69    9.90
 -14  -1  -3   84.29   12.20
  -1  14  -3   85.89    8.90
  14   1  -3   91.69    9.80
  14   1  -3   79.29    9.50
  -1  14   3   86.29   11.60
  14   1   3   70.09   10.00
   1 -14   3   78.29    8.60
  -1  14   3   75.69   10.80
  14   1   3   89.69   10.90
   1 -14   3   83.69    9.50
 -14  -1   3   77.39    7.90
  -1  14   3   79.19    8.60
   1  14  -3  175.08   16.20
   1  14  -3  186.38   16.10
 -14   1  -3  194.98   20.30
 -14   1  -3  195.18   14.20
 -14   1  -3  201.38   15.10
   1  14  -3  170.48   12.20
  14  -1  -3  172.48   12.00
  14  -1  -3  191.88   15.40
  14  -1  -3  204.18   15.20
   1  14  -3  186.88   13.00
  -1 -14  -3  178.78   13.60
   1  14   3  216.18   17.90
  14  -1   3  187.88   16.30
   1  14   3  193.18   14.80
   1  14   3  194.18   16.50
  -1 -14   3  217.28   14.90
  14  -1   3  179.88   15.60
  14  -1   3  200.98   17.70
  -1 -14   3  191.18   12.80
 -14   1   3  191.08   15.70
 -14   1   3  167.58   13.30
 -14   3  -3  234.98   18.70
   3  14  -3  190.28   17.60
 -14   3  -3  218.18   15.80
   3  14  -3  186.98   12.40
  14  -3  -3  240.58   15.90
   3  14  -3  221.18   17.60
  14  -3  -3  236.18   15.70
  14  -3  -3  199.48   13.10
  -3 -14  -3  217.38   15.20
   3  14   3  228.48   18.70
 -14   3   3  214.58   14.60
  14  -3   3  181.58   16.20
  14  -3   3  221.18   16.10
  -3 -14   3  211.08   12.50
  -3 -14   3  199.18   15.70
 -14   3   3  190.38   17.20
   3  14   3  208.58   16.40
   5  14  -3   38.70    9.80
 -14   5  -3   39.50    9.50
  -5 -14  -3   44.80   10.70
  -5 -14  -3   32.20    8.60
  14  -5  -3   44.90    9.00
   5  14  -3   30.50    6.10
  14  -5  -3   42.00    7.30
   5  14  -3   20.30    9.10
  14  -5  -3   36.70    8.30
   5  14   3   33.30   11.00
  -5 -14   3   37.90    6.70
  -5 -14   3   36.10    7.10
  14  -5   3   46.80    9.50
  -5 -14   3   30.20    9.10
   5  14   3   28.40    9.60
 -14   5   3   36.80   10.10
  14  -5   3   36.50    9.10
 -14   5   3   36.60    8.80
 -14   7  -3  248.58   19.10
  14  -7  -3  230.78   17.80
  -7 -14  -3  179.18   24.10
  14  -7  -3  226.48   15.40
   7  14  -3  203.68   18.10
   7  14  -3  202.98   15.60
  -7 -14  -3  253.77   21.10
   7  14   3  263.47   25.40
  14  -7   3  225.48   22.30
   7  14   3  203.18   23.70
  -7 -14   3  289.77   16.50
   7  14   3  249.68   22.20
  -7 -14   3  239.28   20.40
  -7 -14   3  198.08   15.50
  14  -7   3  277.57   18.20
 -14   7   3  246.88   22.70
 -14   7   3  244.18   19.10
  -9 -14  -3  241.38   20.80
   9  14  -3  226.48   14.30
   9  14  -3  241.58   22.90
  -9 -14  -3  238.48   31.30
  14  -9  -3  210.68   19.00
 -14   9  -3  194.48   20.90
  14  -9  -3  259.67   18.90
   9  14  -3  238.28   19.30
   9  14  -3  241.78   19.70
 -14   9   3  220.18   23.00
   9  14   3  243.28   23.00
  14  -9   3  237.58   20.20
  -9 -14   3  235.38   18.50
   9  14   3  188.48   22.50
 -14   9   3  231.58   24.80
  -9 -14   3  221.68   14.80
  14 -11  -3   50.59   12.60
  11  14  -3   41.40   14.90
  11  14  -3   43.90    8.00
 -14  11  -3   48.80   14.40
  11  14  -3   51.89   13.00
 -11 -14  -3   56.59   13.40
  14 -11  -3   65.99   11.70
 -14  11   3   54.79   15.00
 -11 -14   3   45.40   12.90
  14 -11   3   29.40   12.20
 -11 -14   3   48.30    8.70
 -14  11   3   53.49   15.00
  11  14   3   50.19   14.90
  13  14  -3   70.19   15.20
  13  14  -3  109.79   19.30
  13  14  -3   79.19   10.60
  14 -13  -3   94.49   14.30
 -14  13  -3   84.69   16.90
 -13 -14  -3  114.89   17.20
  13  14   3  105.69   18.20
 -14  13   3   74.79   18.20
 -13 -14   3   63.29   15.60
  13  14   3   79.19   13.30
  14 -13   3   77.79   15.60
 -13 -14   3   81.09   10.40
 -15 -12  -3   89.59   17.40
 -12  15  -3   85.59   17.00
  15  12  -3   83.49   15.40
  15  12  -3   53.69   17.50
 -12  15  -3   63.49   13.50
  12 -15  -3   87.09   14.10
  15  12  -3   97.29   10.30
  12 -15   3   81.49   15.70
 -12  15   3   67.99   18.10
  15  12   3   93.09   18.30
 -15 -12   3   95.29   11.10
  15  12   3   82.79   14.50
 -15 -12   3  105.29   17.80
  15  10  -3  466.85   28.00
 -10  15  -3  488.35   29.30
  10 -15  -3  507.35   25.50
 -15 -10  -3  496.35   29.60
  15  10  -3  472.35   21.10
 -10  15  -3  485.25   27.00
  15  10  -3  460.45   29.40
  10 -15   3  519.65   28.40
 -15 -10   3  479.95   29.90
  15  10   3  482.45   27.20
 -15 -10   3  498.85   22.40
 -10  15   3  498.45   27.40
 -10  15   3  549.65   31.60
  15  10   3  424.36   30.10
  15   8  -3  413.56   25.70
  -8  15  -3  424.66   24.40
  15   8  -3  392.46   23.50
 -15  -8  -3  376.16   26.40
  -8  15  -3  426.36   24.90
   8 -15  -3  403.66   22.50
 -15  -8  -3  362.86   25.20
  15   8  -3  372.26   18.30
   8 -15   3  400.76   25.90
  -8  15   3  412.66   26.10
 -15  -8   3  423.36   19.50
  15   8   3  395.06   26.20
  -8  15   3  388.96   27.70
   8 -15   3  438.46   25.00
   8 -15   3  361.86   22.90
  15   8   3  382.96   23.70
 -15  -8   3  409.66   26.00
  -6  15  -3  245.58   20.50
   6 -15  -3  233.18   18.40
  -6  15  -3  212.48   21.90
  -6  15  -3  226.68   17.90
  15   6  -3  215.68   14.30
  15   6  -3  170.08   19.40
 -15  -6  -3  232.78   28.30
 -15  -6  -3  203.08   21.90
  15   6   3  189.38   20.70
  -6  15   3  254.97   23.40
 -15  -6   3  216.48   15.30
  -6  15   3  209.78   20.80
   6 -15   3  231.88   18.80
   6 -15   3  243.68   19.70
   6 -15   3  208.28   21.10
 -15  -6   3  249.58   21.90
 -15  -4  -3  180.18   22.00
  -4  15  -3  157.78   23.40
   4 -15  -3  188.48   16.00
  -4  15  -3  156.78   17.20
  -4  15  -3  201.68   17.70
  -4  15  -3  176.78   15.60
  15   4  -3  153.68   16.80
 -15  -4  -3  164.58   19.00
  15   4   3  173.48   17.70
  -4  15   3  168.58   18.10
   4 -15   3  181.98   17.20
  15   4   3  169.88   19.40
   4 -15   3  171.18   18.50
  -4  15   3  176.18   20.90
  15   2  -3  326.77   15.60
  -2  15  -3  302.97   18.20
  -2  15  -3  321.77   19.70
  15   2  -3  351.56   19.50
   2 -15  -3  326.97   18.20
 -15  -2  -3  344.27   20.80
  -2  15  -3  309.27   21.00
 -15  -2  -3  340.07   24.60
  -2  15  -3  333.07   18.10
 -15  -2   3  334.87   21.50
  15   2   3  327.37   19.80
  -2  15   3  324.77   22.10
 -15  -2   3  309.37   16.90
   2 -15   3  334.37   18.40
  -2  15   3  315.57   21.60
   2 -15   3  324.47   18.90
  15   2   3  321.27   21.50
   0  15  -3   26.10    8.00
  15   0  -3   23.10    9.90
  15   0  -3   25.10    9.10
 -15   0  -3   36.50    9.60
   0  15  -3   46.20   10.40
   0  15  -3   24.60    9.20
 -15   0  -3   20.00   15.30
   0 -15  -3   37.60    8.60
  15   0  -3   37.50    6.90
   0  15  -3   32.10    7.20
 -15   0   3   28.70    7.30
   0 -15   3   22.50    7.80
  15   0   3   18.30    9.90
 -15   0   3   34.10    8.70
  15   0   3   33.20   10.20
   0  15   3   38.00   10.80
   0  15   3   30.70   10.50
   0 -15   3   36.10    8.40
   0  15   3   39.20   13.50
 -15   2  -3  232.78   16.40
   2  15  -3  235.28   19.50
  15  -2  -3  217.68   17.40
   2  15  -3  235.78   14.20
  15  -2  -3  232.58   17.40
  15  -2  -3  228.38   14.40
  -2 -15  -3  251.17   15.90
   2  15  -3  219.78   18.60
 -15   2  -3  243.88   16.80
  15  -2   3  246.88   18.00
  -2 -15   3  251.37   15.20
  15  -2   3  222.18   18.40
 -15   2   3  249.28   16.00
  -2 -15   3  245.78   20.80
   2  15   3  225.98   17.40
 -15   2   3  221.78   17.80
   2  15   3  208.68   19.80
  15  -4  -3  600.64   24.70
   4  15  -3  629.74   28.20
  15  -4  -3  615.84   26.20
  -4 -15  -3  634.44   28.10
  15  -4  -3  632.44   27.00
 -15   4  -3  616.34   27.00
 -15   4   3  658.53   29.00
 -15   4   3  644.04   26.90
  15  -4   3  683.03   27.50
   4  15   3  620.54   30.00
   4  15   3  600.34   28.10
   6  15  -3  983.30   37.70
  15  -6  -3  974.70   36.70
   6  15  -3  923.21   33.30
  15  -6  -3  918.01   36.10
   6  15  -3  939.11   38.80
  -6 -15  -3 1016.10   37.00
  -6 -15   3  936.31   34.00
   6  15   3  951.60   37.90
 -15   6   3  845.92   38.60
  -6 -15   3  952.30   37.10
   6  15   3  932.51   38.80
 -15   6   3  907.91   41.20
  -6 -15   3  958.60   33.30
  15  -6   3 1003.20   36.80
 -15   8  -3   68.29   12.80
   8  15  -3   53.29   13.80
  15  -8  -3   52.69   11.40
  -8 -15  -3   64.89   12.80
   8  15  -3   63.89   12.30
  15  -8  -3   29.20   10.10
   8  15  -3   65.79    8.30
 -15   8   3   84.19   14.50
 -15   8   3   83.39   13.20
  15  -8   3   59.49   11.90
  -8 -15   3   65.39   13.00
  -8 -15   3   54.19    8.80
   8  15   3   52.89   13.80
  15 -10  -3  155.68   20.10
  15 -10  -3  195.78   21.10
  10  15  -3  181.38   21.60
 -15  10  -3  210.98   22.40
  10  15  -3  182.98   15.20
  10  15  -3  214.38   26.40
 -10 -15  -3  197.28   23.90
 -15  10   3  240.18   26.00
 -15  10   3  231.28   25.60
  10  15   3  203.28   26.10
 -10 -15   3  188.38   16.10
 -10 -15   3  237.88   20.90
  15 -10   3  257.27   22.80
 -12 -15  -3   80.09   16.30
 -15  12  -3   94.19   17.10
  12  15  -3  100.49   15.70
  15 -12  -3  111.89   16.00
  12  15  -3   92.89   19.10
  12  15  -3   92.59   10.80
  15 -12  -3  119.99   15.10
 -12 -15   3  120.89   16.50
  12  15   3   95.49   18.70
 -15  12   3  107.39   19.00
 -15  12   3   79.89   18.30
 -12 -15   3  130.49   16.10
  15 -12   3  102.89   15.70
 -16 -11  -3   64.99   17.10
 -11  16  -3   57.89   16.50
  11 -16  -3   63.79   13.90
  16  11  -3   71.09   10.40
 -11  16  -3   47.50   13.30
  16  11  -3   69.39   15.50
 -11  16   3   79.19   14.80
 -11  16   3   90.69   19.10
 -16 -11   3   92.99   16.20
  16  11   3   68.89   15.30
  16  11   3   59.79   17.60
 -16 -11   3   53.19   10.90
  11 -16   3   73.89   16.20
  16   9  -3   77.39   14.80
  16   9  -3   78.79    9.60
  -9  16  -3   89.09   15.50
  -9  16  -3   97.09   14.40
 -16  -9  -3   87.29   15.60
   9 -16  -3   98.79   13.50
  -9  16   3   73.49   17.40
   9 -16   3   68.29   14.10
 -16  -9   3   74.19   16.60
 -16  -9   3   64.79    9.80
  -9  16   3   92.69   15.20
  16   9   3   88.99   16.40
  16   9   3   75.69   13.90
 -16  -7  -3  152.28   16.50
   7 -16  -3  168.48   18.80
  -7  16  -3  199.38   21.50
  -7  16  -3  136.99   18.80
  16   7  -3  125.59   14.10
  -7  16  -3  159.98   20.60
  16   7  -3  167.28   21.10
 -16  -7   3  165.18   22.80
  -7  16   3  129.49   15.90
 -16  -7   3  156.18   14.90
  16   7   3  180.18   23.20
  16   7   3  192.38   20.30
   7 -16   3  166.68   19.70
   7 -16   3  170.18   22.80
   7 -16   3  169.78   21.50
  -7  16   3  148.99   18.00
 -16  -5  -3   27.50   12.30
 -16  -5  -3   19.10   14.50
  -5  16  -3   36.80   12.50
   5 -16  -3   17.30   10.30
  -5  16  -3   15.80   10.80
  16   5  -3   29.00    7.80
  -5  16  -3   17.20   14.20
  16   5  -3   14.10   10.80
   5 -16   3   30.20   10.70
  16   5   3   17.80   11.00
   5 -16   3   29.00   17.50
  16   5   3    8.60   12.00
  -5  16   3   30.90   12.40
 -16  -5   3   16.00    8.00
   5 -16   3    3.80   12.90
 -16  -5   3   17.90   12.40
  -3  16  -3  459.95   27.20
  -3  16  -3  405.96   35.80
  16   3  -3  492.95   31.70
  -3  16  -3  489.45   23.40
   3 -16  -3  417.06   32.90
 -16  -3  -3  513.25   25.90
  16   3  -3  501.95   21.20
  16   3   3  489.25   25.60
  16   3   3  460.95   26.70
 -16  -3   3  474.25   27.80
   3 -16   3  523.85   25.00
  -3  16   3  504.85   27.70
 -16  -3   3  483.85   22.70
  -3  16   3  555.04   28.00
  -1  16  -3  282.77   24.60
  -1  16  -3  331.27   18.60
 -16  -1  -3  350.06   21.80
  -1  16  -3  331.47   23.00
  16   1  -3  316.27   16.90
  16   1  -3  319.27   21.20
 -16  -1   3  318.87   18.40
  -1  16   3  339.57   24.00
  16   1   3  328.27   21.10
  16   1   3  279.27   21.90
 -16  -1   3  326.37   23.10
   1 -16   3  312.07   20.40
  -1  16   3  348.07   22.80
 -16   1  -3   88.09   11.80
   1  16  -3  119.79   13.90
   1  16  -3  108.99   13.70
  16  -1  -3   80.69    9.30
  16  -1  -3   89.49   12.50
   1  16  -3   80.59    9.30
  -1 -16  -3  101.49   13.20
  16  -1  -3   82.99   12.00
  16  -1   3  101.29   12.40
  -1 -16   3   84.09   11.30
  16  -1   3  111.79   13.30
   1  16   3   98.59   11.20
   1  16   3   77.99   13.40
 -16   1   3  109.99   14.50
  -1 -16   3  104.19   13.90
  16  -3  -3    8.00    9.60
   3  16  -3    6.60   11.40
 -16   3  -3   17.20    9.70
  16  -3  -3   20.40   10.00
  16  -3  -3    8.10    7.50
  -3 -16  -3   14.40    8.80
   3  16  -3    8.90   11.20
   3  16  -3   10.80    7.20
  -3 -16   3   17.10   10.10
 -16   3   3   -4.80   11.20
   3  16   3   14.00   12.00
  16  -3   3    1.70    9.60
   3  16   3    5.20   10.30
 -16   3   3    8.60    8.60
  16  -3   3   -2.50   10.10
  -3 -16   3   11.60    7.70
  -5 -16  -3   70.69   12.00
  16  -5  -3   60.29    9.70
   5  16  -3   62.59   13.90
   5  16  -3   68.39   13.20
  16  -5  -3   69.79   12.20
  16  -5  -3   42.90   10.90
 -16   5  -3   58.69   12.10
   5  16  -3   64.59    8.90
  16  -5   3   54.89   11.00
  -5 -16   3   63.89   11.50
 -16   5   3   52.99   10.60
 -16   5   3   34.30   13.10
   5  16   3   50.29   12.30
  -5 -16   3   50.19    8.70
   5  16   3   68.69   14.80
  16  -7  -3   50.79   12.10
 -16   7  -3   59.29   13.20
   7  16  -3   66.69    9.10
   7  16  -3   65.89   12.60
  16  -7  -3   54.89   10.90
   7  16  -3   72.49   15.10
  -7 -16  -3   63.39   12.50
  -7 -16   3   42.40   12.70
   7  16   3   70.89   15.50
 -16   7   3   58.79   14.50
   7  16   3   57.99   14.40
 -16   7   3   70.69   12.80
  -7 -16   3   69.19    9.50
  16  -7   3   69.69   12.90
   9  16  -3   21.80   14.30
  -9 -16  -3   33.00   13.80
 -16   9  -3   12.20   13.80
  16  -9  -3   13.00   11.90
   9  16  -3   23.80    8.90
  16  -9  -3   25.90   12.00
  16  -9   3   28.80   13.10
   9  16   3   17.70   14.50
 -16   9   3   20.80   14.30
 -16   9   3   28.20   15.10
   9  16   3   21.80   14.80
  -9 -16   3   11.20    9.00
  -9 -16   3   -1.90   12.70
  16 -11  -3   45.60   13.90
 -16  11  -3   55.49   16.30
  16 -11  -3   48.20   13.50
  11  16  -3   53.19   15.30
  11  16  -3   53.79   10.50
 -11 -16  -3   51.99   16.20
  11  16  -3   59.79   17.60
 -16  11   3   40.80   16.70
  16 -11   3   41.30   14.70
 -11 -16   3   45.40   11.20
 -16  11   3   57.49   17.80
 -11 -16   3   48.30   15.00
  11  16   3   47.30   17.60
  10 -17  -3  122.29   15.50
  17  10  -3   94.99   17.10
  17  10  -3  119.09   15.80
 -10  17  -3   91.69   16.00
 -10  17  -3   83.79   17.90
 -17 -10  -3  111.59   18.90
 -17 -10   3  101.09   19.10
 -17 -10   3  103.99   12.30
  17  10   3   98.29   18.90
 -10  17   3  140.39   16.90
 -10  17   3  132.59   19.90
  17  10   3   71.89   15.60
  10 -17   3  103.49   17.60
   8 -17  -3  114.79   14.10
  -8  17  -3   98.49   16.60
 -17  -8  -3  113.09   17.10
  -8  17  -3  124.99   16.20
  17   8  -3  135.09   16.00
  17   8  -3  114.79   15.60
  -8  17   3  108.39   16.60
   8 -17   3  122.99   15.30
  17   8   3   93.69   14.90
  -8  17   3  124.79   20.20
  17   8   3   97.09   17.40
 -17  -8   3  113.49   11.50
 -17  -8   3  125.49   17.90
  17   6  -3   65.29   13.80
  -6  17  -3   76.79   14.70
  17   6  -3   83.79   10.40
  -6  17  -3   79.79   12.60
  -6  17  -3   72.59   15.10
   6 -17  -3   84.29   13.00
 -17  -6  -3   79.59   15.70
  17   6   3   89.39   13.70
   6 -17   3   55.39   13.40
 -17  -6   3   65.09   10.40
   6 -17   3  100.59   15.50
  -6  17   3   67.39   15.50
 -17  -6   3   98.09   16.90
  -6  17   3  100.99   17.80
   6 -17   3   96.09   15.80
  17   6   3   62.49   15.50
 -17  -4  -3   38.70   13.00
  -4  17  -3   32.90   11.90
  -4  17  -3   32.90   12.20
  17   4  -3   20.40    8.80
  -4  17  -3   26.10   14.00
   4 -17  -3   34.40   11.40
  17   4  -3   28.20   12.30
  -4  17  -3   36.70   11.20
   4 -17   3   42.40   12.30
   4 -17   3   36.30   11.50
  17   4   3   33.40   12.90
  -4  17   3    8.00   13.30
 -17  -4   3   36.50    9.60
  17   4   3   40.00   11.90
 -17  -4   3   50.59   14.00
  -4  17   3   26.80   15.50
   2 -17  -3   62.09   11.90
  -2  17  -3   64.79   11.20
  -2  17  -3   56.39   12.60
 -17  -2  -3   64.89   22.00
  17   2  -3   74.59   12.40
  -2  17  -3   49.70   10.60
  -2  17  -3   77.29   14.40
 -17  -2   3   75.89   10.60
   2 -17   3   59.39   11.70
   2 -17   3   58.99   11.70
  17   2   3   77.69   12.80
 -17  -2   3   55.69   13.80
  -2  17   3   61.99   14.90
  17   0  -3  300.87   24.00
 -17   0  -3  340.67   23.40
  17   0  -3  323.67   18.60
   0  17  -3  348.07   19.90
   0 -17  -3  308.97   20.30
   0  17  -3  321.27   23.40
   0  17  -3  346.07   24.40
  17   0   3  325.57   23.30
   0 -17   3  332.87   20.50
  17   0   3  344.97   23.50
   0  17   3  386.16   26.20
 -17   0   3  294.17   25.20
 -17   0   3  317.17   19.90
   0 -17   3  292.37   21.70
  17  -2  -3  454.85   25.20
  -2 -17  -3  392.46   23.20
   2  17  -3  361.96   20.50
  17  -2  -3  413.66   28.90
  17  -2  -3  437.16   21.10
   2  17  -3  403.46   26.90
   2  17  -3  370.36   26.60
  17  -2   3  399.36   25.20
  -2 -17   3  419.46   23.90
   2  17   3  414.76   27.70
   2  17   3  405.46   23.50
 -17   2   3  403.96   22.20
  -2 -17   3  414.46   22.20
  -4 -17  -3  104.59   13.30
   4  17  -3   81.09   14.70
  17  -4  -3  116.79   15.50
  17  -4  -3   99.79   13.90
 -17   4  -3   91.89   13.10
   4  17  -3   87.39   10.60
   4  17  -3  103.99   15.20
  17  -4  -3  112.29   13.60
   4  17   3  102.89   16.50
  -4 -17   3   90.69   13.70
  -4 -17   3   81.99   10.80
 -17   4   3   98.49   12.70
  17  -4   3   55.79   12.30
 -17   4   3  110.79   14.70
   4  17   3  102.89   14.50
   6  17  -3  153.08   16.20
  17  -6  -3  140.49   15.20
 -17   6  -3  181.58   21.70
   6  17  -3  147.39   16.40
   6  17  -3  152.68   17.90
  -6 -17  -3  179.28   20.60
  17  -6  -3  211.48   18.90
   6  17   3  165.38   22.90
 -17   6   3  198.98   24.30
 -17   6   3  163.08   15.50
  -6 -17   3  163.98   21.80
   6  17   3  142.79   18.30
  17  -6   3  153.88   20.80
  -6 -17   3  176.18   16.80
  17  -8  -3  111.19   13.80
   8  17  -3   96.19   11.40
   8  17  -3  117.59   15.80
  17  -8  -3  124.09   15.10
   8  17  -3  105.29   18.00
 -17   8  -3  127.69   16.30
  -8 -17  -3  100.19   15.00
  -8 -17   3  117.29   16.20
   8  17   3  136.29   18.70
  17  -8   3  108.69   14.90
 -17   8   3  143.89   19.60
 -17   8   3  112.09   16.20
  -8 -17   3  129.49   17.60
   8  17   3  131.69   18.20
  17 -10  -3   -6.10   13.70
 -17  10  -3   11.30   15.30
  17 -10  -3   18.60   12.90
  10  17  -3   15.60    9.90
 -10 -17  -3   -0.30   15.60
  10  17  -3   17.30   17.80
 -17  10   3   31.50   16.80
 -17  10   3   11.40   17.40
  10  17   3   10.00   17.70
 -10 -17   3    0.30   14.40
 -10 -17   3   11.40   10.30
  17 -10   3    8.00   14.20
  18   7  -3  401.76   29.70
   7 -18  -3  421.76   25.60
  18   7  -3  414.56   22.80
  -7  18  -3  408.86   30.00
  -7  18  -3  423.26   30.50
 -18  -7  -3  428.96   32.50
 -18  -7   3  393.76   23.40
   7 -18   3  436.06   28.40
  -7  18   3  427.26   31.40
   7 -18   3  455.15   33.50
  -7  18   3  460.05   32.90
  18   7   3  452.15   28.50
 -18  -7   3  428.96   31.40
  18   7   3  360.26   30.70
  -5  18  -3   62.59   13.30
   5 -18  -3   55.89   12.80
  -5  18  -3   79.49   14.70
  18   5  -3   68.59   11.20
 -18  -5  -3   78.89   15.70
  -5  18  -3   79.69   16.90
  18   5  -3   74.29   15.30
  -5  18   3   90.99   16.90
   5 -18   3   57.79   17.00
  18   5   3   93.29   15.50
   5 -18   3   88.79   14.60
  18   5   3   88.09   16.10
  -5  18   3   57.79   17.20
 -18  -5   3   67.99   16.10
 -18  -5   3   56.29   11.40
   5 -18   3   82.39   15.40
  -3  18  -3  109.49   16.70
  -3  18  -3   85.19   14.90
  -3  18  -3   60.89   13.00
  18   3  -3   87.49   11.60
  18   3  -3   81.19   14.30
 -18  -3  -3   96.39   15.40
   3 -18  -3   80.59   13.40
   3 -18   3   67.79   14.20
  -3  18   3   86.79   16.80
  18   3   3   87.39   15.10
 -18  -3   3   69.29   11.40
   3 -18   3   63.89   13.10
 -18  -3   3  106.89   17.00
  18   3   3   66.79   14.00
   1 -18  -3  203.18   21.20
  -1  18  -3  219.98   22.80
  -1  18  -3  209.88   25.40
  -1  18  -3  193.98   20.30
  18   1  -3  230.08   22.10
 -18  -1  -3  191.38   24.30
  18   1   3  192.68   19.10
  -1  18   3  181.88   19.40
   1 -18   3  202.78   21.50
 -18  -1   3  189.08   19.20
   1 -18   3  172.68   21.00
  18   1   3  190.68   22.10
   1  18  -3   15.40   13.30
   1  18  -3   24.30   10.20
  -1 -18  -3   37.70   12.00
  18  -1  -3   38.60   13.00
   1  18  -3    9.40   14.10
  18  -1  -3   54.99   10.00
  -1 -18   3   29.10   11.40
 -18   1   3   46.40   15.00
 -18   1   3   47.60   11.30
   1  18   3   27.50   14.90
  18  -1   3   38.00   13.00
  -1 -18   3   38.20   12.80
  18  -3  -3  239.18   18.50
   3  18  -3  246.28   26.50
  18  -3  -3  222.18   22.60
  -3 -18  -3  206.48   21.10
   3  18  -3  220.38   18.90
   3  18  -3  212.68   26.00
 -18   3   3  259.17   21.90
   3  18   3  251.37   22.90
 -18   3   3  242.78   27.80
  18  -3   3  210.48   23.50
  -3 -18   3  225.18   19.60
   3  18   3  219.58   26.80
  -3 -18   3  247.88   22.70
 -18   5  -3    5.70   12.70
  18  -5  -3    4.60   10.80
   5  18  -3   -4.80   14.90
   5  18  -3   17.20    9.90
   5  18  -3   34.00   15.90
  18  -5  -3   19.80   14.70
  -5 -18  -3   18.30   13.00
  -5 -18   3   12.10   10.60
   5  18   3   -7.90   16.60
   5  18   3    2.70   13.70
 -18   5   3    9.70   14.60
 -18   5   3    8.30   12.30
  18  -5   3   24.40   12.50
  -5 -18   3   -4.30   12.70
   7  18  -3  219.78   28.00
  -7 -18  -3  199.48   24.10
  18  -7  -3  181.18   18.00
  18  -7  -3  252.27   21.90
 -18   7  -3  210.28   25.00
   7  18  -3  186.68   19.00
   7  18  -3  190.18   18.80
  -7 -18   3  201.98   20.10
 -18   7   3  195.18   19.00
   7  18   3  226.68   30.40
  18  -7   3  215.58   24.40
 -18   7   3  217.28   27.90
   7  18   3  224.18   27.10
  -7 -18   3  218.18   25.20
 -19  -4  -3  122.39   17.60
  -4  19  -3  113.79   15.00
   4 -19  -3  140.99   15.60
  19   4  -3   98.79   17.00
  -4  19  -3  117.59   18.60
  19   4  -3  123.29   13.40
  19   4   3  106.89   16.20
  19   4   3  132.69   27.50
   4 -19   3  102.89   16.20
 -19  -4   3  109.89   13.10
   4 -19   3   85.59   17.30
  -4  19   3  117.69   18.60
   4 -19   3   99.49   18.60
 -19  -4   3   89.49   17.20
   2 -19  -3   48.70   13.50
  19   2  -3   47.00   14.60
  19   2  -3   70.59   12.40
  -2  19  -3   60.89   16.30
  -2  19  -3   73.49   13.60
  -2  19  -3   52.99   16.90
  -2  19   3   52.89   17.60
   2 -19   3   44.10   14.60
   2 -19   3   82.09   15.70
 -19  -2   3   82.59   13.00
  19   2   3   72.99   15.40
 -19  -2   3   71.99   16.80
   0  19  -3  109.89   14.40
   0 -19  -3   96.59   14.20
   0  19  -3  108.59   16.70
  19   0  -3  115.49   14.90
   0  19  -3   72.89   17.00
  19   0   3  131.89   16.80
   0 -19   3   88.09   15.20
   0  19   3  114.09   18.30
   0 -19   3  111.59   15.60
 -19   0   3  121.19   18.40
   2  19  -3   70.19   16.00
  19  -2  -3   90.79   15.10
  19  -2  -3   96.69   12.40
  -2 -19  -3   74.99   14.50
   2  19  -3   73.29   17.50
   2  19  -3   82.69   12.60
  -2 -19   3   91.49   14.60
  -2 -19   3   78.99   13.60
 -19   2   3   51.69   13.10
   2  19   3   78.49   18.50
   2  19   3  103.09   14.60
  19  -2   3   71.39   14.80
 -19   2   3   68.89   17.80
  -4 -19  -3   94.99   15.60
   4  19  -3   76.89   18.00
   4  19  -3  102.09   18.00
   4  19  -3   97.19   13.30
 -19   4  -3   80.69   18.10
  19  -4  -3   87.89   12.80
   4  19   3  100.29   19.20
  -4 -19   3   98.89   13.50
 -19   4   3  104.49   19.10
 -19   4   3   94.69   18.70
   4  19   3   90.19   16.80
 -19   4   3   87.49   15.20
  19  -4   3   87.99   15.90
  -4 -19   3   90.29   15.20
   0   0  -4 6086.69  183.68
   0   0  -4 6216.58  182.58
   0   0  -4 5772.22  182.78
   0   0  -4 6332.37  183.28
   0   0   4 5954.60  181.58
   0   0   4 6047.99  180.38
   0   0   4 5948.41  181.88
   0   0   4 6111.19  180.18
   1   1  -4  221.18    9.60
  -1   1  -4  231.78    8.70
  -1  -1  -4  210.28    9.50
  -1   1  -4  210.78    8.80
   1   1  -4  214.28    7.80
  -1  -1  -4  198.08    9.00
  -1  -1  -4  209.58    8.80
  -1   1  -4  208.98   10.30
   1   1  -4  205.58    9.30
   1   1  -4  194.48   10.00
   1  -1  -4  219.18    8.30
   1  -1  -4  215.18    9.70
   1  -1  -4  211.28    9.50
   1   1  -4  208.28    8.00
   1  -1  -4  193.88    8.70
  -1   1  -4  226.48    9.00
   1   1   4  212.78    8.40
  -1   1   4  192.88    7.70
  -1  -1   4  198.48   10.40
   1  -1   4  205.68    8.80
   1  -1   4  191.58   10.60
  -1  -1   4  214.08    8.40
   1  -1   4  208.18    8.80
   1  -1   4  202.78    8.60
  -1  -1   4  217.68    7.90
   1   1   4  201.68    8.70
  -1   1   4  190.18    9.00
  -1   1   4  215.18   10.20
  -1  -1   4  210.28    7.90
  -1   1   4  203.08   10.00
   1   1   4  214.18    9.00
   1   1   4  194.18   10.50
  -1   1   4  197.18    8.20
   1   1   4  202.28    9.90
   0  -2  -4  480.85   17.70
   2   0  -4  543.25   18.60
   0  -2  -4  477.65   18.40
   0   2  -4  535.25   17.10
   2   0  -4  584.14   17.10
  -2   0  -4  563.94   18.30
   2   0  -4  550.84   17.00
   0   2  -4  494.15   18.40
   0  -2  -4  487.95   19.70
   0   2  -4  528.25   19.20
  -2   0  -4  538.85   18.20
   0   2  -4  504.95   17.70
  -2   0  -4  537.05   18.60
   2   0  -4  545.05   18.60
   0   2  -4  505.65   17.50
  -2   0  -4  566.64   17.80
  -2   0   4  506.65   18.60
   0   2   4  556.14   17.60
   0   2   4  527.15   18.90
  -2   0   4  489.45   16.70
   2   0   4  498.85   17.80
   0   2   4  542.25   16.40
   0   2   4  545.85   17.60
   0   2   4  511.45   16.20
   2   0   4  483.05   17.70
   2   0   4  493.75   17.60
   0  -2   4  531.35   17.60
  -2   0   4  494.35   16.80
   2   0   4  481.05   18.80
   0  -2   4  525.25   17.20
  -2   0   4  499.05   16.70
  -2   0   4  501.35   18.70
   2   0   4  508.95   19.40
   0  -2   4  544.05   17.10
   0   2   4  501.55   20.90
   0  -2   4  560.64   19.70
  -2  -2  -4  513.25   17.50
  -2   2  -4  490.35   16.20
   2  -2  -4  501.05   16.50
   2  -2  -4  480.15   16.50
  -2   2  -4  509.15   16.90
  -2  -2  -4  510.55   17.00
  -2  -2  -4  468.85   17.10
   2   2  -4  503.55   15.40
   2   2  -4  492.25   18.00
   2  -2  -4  498.55   17.70
  -2   2  -4  449.76   17.00
   2   2  -4  508.85   17.50
   2   2  -4  495.45   15.70
  -2  -2  -4  484.85   17.40
  -2   2  -4  491.65   18.20
  -2   2  -4  493.85   17.70
  -2  -2  -4  486.35   17.10
   2  -2  -4  462.65   17.60
   2   2  -4  502.55   17.30
   2   2   4  485.55   17.20
  -2  -2   4  481.05   15.10
  -2  -2   4  476.55   16.30
   2   2   4  473.15   18.20
  -2   2   4  479.85   14.70
   2   2   4  483.95   17.90
   2   2   4  472.15   16.80
   2   2   4  468.75   16.20
  -2  -2   4  470.85   17.90
   2   2   4  463.55   15.80
   2  -2   4  450.45   16.60
  -2   2   4  448.66   16.60
   2  -2   4  481.05   18.70
   2  -2   4  473.15   16.70
  -2   2   4  488.75   14.60
  -2   2   4  463.35   17.50
  -2  -2   4  480.65   15.30
   2  -2   4  473.15   16.70
  -2   2   4  464.45   17.20
  -2   2   4  475.25   16.10
   3   1  -4  175.68    8.50
   1  -3  -4  161.98    8.90
  -1   3  -4  174.38    7.80
  -3  -1  -4  172.18    8.70
  -1   3  -4  178.38    7.80
   3   1  -4  171.58    6.20
  -1   3  -4  160.18    8.50
  -1   3  -4  165.18    9.10
   1  -3  -4  166.88    8.80
  -1   3  -4  178.68    7.20
   1  -3  -4  173.28    7.80
  -3  -1  -4  161.88    8.70
  -3  -1  -4  173.48    7.90
  -3  -1  -4  168.48    9.40
   3   1  -4  164.68    8.70
   3   1  -4  166.78    6.10
  -3  -1  -4  159.78    8.30
   3   1   4  170.88    9.30
   3   1   4  164.68    8.00
   1  -3   4  159.28    8.10
  -1   3   4  167.98    8.00
  -3  -1   4  154.98    9.10
  -1   3   4  171.78    8.30
  -3  -1   4  155.78    8.70
   3   1   4  152.48   10.40
  -3  -1   4  167.28    6.20
  -3  -1   4  168.08    6.20
   3   1   4  172.68   10.30
  -1   3   4  150.88    8.60
   1  -3   4  165.88   10.20
  -3  -1   4  170.18    7.60
   3   1   4  158.38    9.30
   3   1   4  165.28    8.50
   1  -3   4  171.18    8.00
  -1   3   4  164.68    9.10
   1   3  -4  696.03   22.30
   1   3  -4  688.13   24.30
  -3   1  -4  757.02   23.60
  -1  -3  -4  697.63   23.70
   3  -1  -4  728.33   24.10
  -1  -3  -4  689.43   22.00
   1   3  -4  690.23   23.10
  -3   1  -4  744.23   25.50
   3  -1  -4  718.13   22.40
  -1  -3  -4  703.13   23.60
  -1  -3  -4  660.03   23.50
  -3   1  -4  714.83   24.50
   1   3  -4  693.33   22.00
  -1  -3  -4  671.93   23.40
  -3   1  -4  718.83   23.10
  -3   1  -4  719.73   24.00
   3  -1  -4  697.53   24.10
   3  -1  -4  737.83   22.50
  -3   1  -4  716.13   22.70
  -1  -3  -4  691.73   23.20
  -3   1   4  668.93   23.60
   1   3   4  710.13   23.00
   3  -1   4  628.84   24.60
   1   3   4  693.13   24.10
  -1  -3   4  684.73   21.90
   1   3   4  707.43   24.00
  -3   1   4  672.23   21.50
  -1  -3   4  693.43   22.70
   1   3   4  698.33   23.20
   1   3   4  717.53   21.30
   3  -1   4  683.33   23.20
   3  -1   4  681.03   23.20
   3  -1   4  660.13   22.90
  -3   1   4  658.93   21.90
   1   3   4  697.93   22.40
  -1  -3   4  723.73   21.70
  -3   1   4  665.93   21.80
  -1  -3   4  688.63   24.60
  -3   1   4  672.43   23.30
   3  -3  -4  370.36   13.10
  -3  -3  -4  356.96   13.70
   3  -3  -4  331.57   12.90
   3   3  -4  357.06   13.80
  -3   3  -4  375.56   11.90
   3   3  -4  352.16   13.70
   3  -3  -4  374.06   14.60
  -3  -3  -4  352.16   13.70
   3   3  -4  359.96   15.10
  -3   3  -4  373.36   14.10
   3   3  -4  368.06   14.40
  -3  -3  -4  341.77   13.90
  -3   3  -4  342.57   14.30
  -3   3  -4  367.46   14.80
  -3   3  -4  362.06   14.00
   3  -3   4  324.07   11.70
  -3  -3   4  340.47   11.00
  -3   3   4  335.57   12.80
  -3   3   4  345.87   12.80
  -3  -3   4  360.56   13.20
   3   3   4  338.57   13.80
   3  -3   4  350.26   13.60
  -3   3   4  354.36   13.30
   3   3   4  359.36   13.30
  -3  -3   4  347.17   10.90
   3   3   4  356.86   12.30
   3   3   4  360.86   14.50
   3  -3   4  346.07   13.90
  -3   3   4  324.57   14.00
   3   3   4  369.46   15.20
   3  -3   4  340.47   13.60
   3  -3   4  313.57   15.50
  -3   3   4  325.97   14.70
   4   2  -4  365.06   14.40
   2  -4  -4  369.56   13.90
  -2   4  -4  369.26   11.80
   4   2  -4  371.96   13.40
  -4  -2  -4  362.36   14.00
  -4  -2  -4  384.56   13.80
   4   2  -4  355.76   14.60
  -2   4  -4  369.86   13.50
   2  -4  -4  368.16   13.60
  -2   4  -4  363.56   15.70
  -4  -2  -4  407.66   15.00
   2  -4  -4  368.16   14.60
  -2   4  -4  306.97   16.30
   4   2  -4  386.66   14.30
  -4  -2  -4  359.76   14.40
   2  -4   4  309.87   17.20
   4   2   4  328.57   15.80
  -2   4   4  360.46   13.90
  -4  -2   4  354.96   14.70
   2  -4   4  367.46   14.10
   2  -4   4  365.06   11.50
  -2   4   4  352.26   13.50
   4   2   4  366.36   14.30
  -2   4   4  363.46   14.80
  -2   4   4  368.66   15.20
   4   2   4  365.96   13.70
   2  -4   4  354.46   13.60
  -2   4   4  384.16   14.10
   4   2   4  350.96   14.90
   4   2   4  358.26   13.50
   0  -4  -4  667.23   23.10
   0  -4  -4  662.03   22.40
   4   0  -4  719.23   21.20
   0   4  -4  688.73   23.00
   4   0  -4  706.03   21.20
  -4   0  -4  678.03   23.30
  -4   0  -4  690.93   23.20
  -4   0  -4  685.33   22.10
   0  -4  -4  671.33   23.20
   4   0  -4  638.94   23.00
   4   0  -4  693.63   21.70
   0   4  -4  658.53   21.90
   0   4  -4  669.03   21.60
   4   0  -4  690.43   23.40
  -4   0  -4  642.14   23.10
   0   4  -4  657.83   23.80
   0  -4  -4  664.83   22.90
   0   4  -4  676.53   21.70
  -4   0  -4  716.13   22.90
   0  -4  -4  647.84   22.70
   0   4   4  668.03   21.80
   4   0   4  634.64   23.40
   0  -4   4  654.43   21.40
   0   4   4  664.43   22.30
   0  -4   4  690.33   24.40
  -4   0   4  647.14   22.60
  -4   0   4  655.53   22.70
  -4   0   4  674.23   20.80
   0   4   4  668.43   23.00
   4   0   4  641.84   21.90
   4   0   4  645.84   24.10
  -4   0   4  676.63   20.80
   0   4   4  650.23   23.30
   0  -4   4  644.94   21.50
   4   0   4  635.44   22.80
   4   0   4  638.64   22.30
   0  -4   4  681.33   22.40
   4   0   4  671.73   23.20
   0   4   4  663.63   22.70
   2   4  -4 1969.00   59.89
  -2  -4  -4 1821.52   59.69
  -4   2  -4 2056.79   59.39
  -2  -4  -4 1951.10   60.09
  -4   2  -4 1902.01   60.19
   2   4  -4 1946.51   58.09
   4  -2  -4 1796.12   59.89
  -4   2  -4 1814.62   60.39
   2   4  -4 1974.00   59.39
  -4   2  -4 1912.71   60.59
  -2  -4  -4 1911.01   60.09
   2   4  -4 1943.41   61.19
   4  -2  -4 1966.20   58.89
   4  -2  -4 1912.51   60.39
   2   4  -4 2044.70   57.99
  -4   2  -4 1947.11   58.49
   2   4  -4 1910.81   60.49
   4  -2   4 1874.21   59.39
  -2  -4   4 1885.71   57.49
   2   4   4 1951.40   60.29
   4  -2   4 1921.71   58.19
  -4   2   4 1905.41   57.39
   2   4   4 1964.70   58.49
   2   4   4 1897.41   59.19
  -4   2   4 1746.93   62.09
   2   4   4 1942.21   57.39
   4  -2   4 1902.21   59.19
  -2  -4   4 1941.01   57.39
  -4   2   4 1867.71   58.09
  -4   2   4 1936.51   57.29
   4  -2   4 1900.11   59.39
  -4   2   4 1878.51   59.49
  -2  -4   4 1908.41   58.89
   2   4   4 1858.01   59.89
  -4   2   4 1899.21   58.69
   4  -4  -4   92.09    8.10
  -4  -4  -4   89.99    6.80
  -4   4  -4   88.69    8.60
   4  -4  -4   85.69    7.90
   4   4  -4  105.89    8.90
  -4  -4  -4   97.59    7.40
   4   4  -4   93.89    6.70
   4  -4  -4   86.69    6.10
   4   4  -4   94.29    7.40
  -4   4  -4   89.09    8.20
   4   4  -4   97.09    6.90
   4   4  -4   95.29    7.90
  -4   4  -4   87.59    7.30
  -4  -4  -4   96.39    8.20
  -4  -4  -4   83.29    7.40
  -4   4  -4   88.79    8.00
  -4   4   4   92.79    8.00
  -4   4   4  103.69    9.40
   4   4   4   88.29    9.80
   4   4   4   84.89    7.90
   4  -4   4   70.99   10.40
   4  -4   4  103.69    9.20
   4   4   4   89.69    7.70
  -4   4   4   95.69    8.50
   4  -4   4  100.19    8.20
  -4   4   4   85.09    6.20
   4   4   4   88.79    8.90
   4  -4   4   92.19    8.00
   4   4   4   92.29    6.10
  -4   4   4   92.79    6.60
   3  -5  -4  533.05   19.80
  -3   5  -4  513.95   19.00
   3  -5  -4  527.45   18.70
  -5  -3  -4  524.85   18.70
   3  -5  -4  535.75   19.20
  -3   5  -4  500.75   19.90
  -5  -3  -4  532.45   19.00
   5   3  -4  555.34   18.90
   5   3  -4  529.85   19.50
  -5  -3  -4  538.35   19.60
  -3   5  -4  543.35   19.50
   5   3  -4  522.75   18.50
   5   3  -4  535.75   19.20
   5   3  -4  552.24   20.00
   3  -5   4  515.05   19.50
  -3   5   4  519.25   19.00
   5   3   4  481.85   18.70
   5   3   4  536.75   19.30
  -3   5   4  510.25   19.50
   5   3   4  514.75   19.50
  -3   5   4  537.95   18.50
   5   3   4  499.35   18.00
   3  -5   4  528.45   20.50
   3  -5   4  505.45   18.70
  -3   5   4  537.55   18.10
   5   3   4  481.05   20.40
  -3   5   4  496.15   19.20
  -5  -1  -4  144.29    9.00
  -5  -1  -4  157.78    9.80
  -5  -1  -4  165.28    8.60
   1  -5  -4  171.38    9.70
   5   1  -4  169.78    6.10
  -5  -1  -4  163.78    8.20
   5   1  -4  160.58    9.50
   1  -5  -4  172.18    9.10
   5   1  -4  160.48    7.70
   1  -5  -4  169.78    8.50
  -1   5  -4  167.08    8.00
   5   1  -4  161.08    9.00
  -1   5  -4  140.59   12.50
  -1   5  -4  162.78    7.90
   1  -5   4  150.38    8.50
  -1   5   4  151.18    9.80
  -1   5   4  156.98    8.90
   1  -5   4  160.28    8.30
  -5  -1   4  153.18    5.80
  -1   5   4  160.18    9.80
   1  -5   4  162.18   11.00
   5   1   4  152.78    9.40
   5   1   4  153.38    9.70
   1  -5   4  154.48    6.10
   5   1   4  154.68    9.10
  -1   5   4  160.48    9.10
  -1   5   4  165.48    8.80
  -5  -1   4  159.58    9.30
   1  -5   4  141.49    7.70
  -1   5   4  141.59   10.80
   5   1   4  154.78    8.70
   5   1   4  161.28   10.80
  -5  -1   4  159.18    8.50
  -5  -1   4  155.58    6.00
  -1  -5  -4 1187.38   38.10
  -5   1  -4 1214.78   36.70
   1   5  -4 1112.59   40.00
  -1  -5  -4 1191.78   37.90
  -5   1  -4 1217.58   37.70
   1   5  -4 1199.98   36.60
  -5   1  -4 1056.79   39.00
  -1  -5  -4 1198.08   37.80
  -5   1  -4 1151.18   38.50
  -5   1  -4 1123.79   38.20
   5  -1  -4 1224.88   36.50
   1   5  -4 1239.98   36.30
   1   5  -4 1091.39   37.20
   5  -1  -4 1162.98   38.50
   1   5  -4 1259.97   37.90
   5  -1  -4 1185.28   36.30
  -5   1   4 1134.09   36.60
  -5   1   4 1129.29   37.10
  -5   1   4 1106.09   35.70
  -5   1   4 1182.68   35.70
   5  -1   4 1157.68   38.70
   1   5   4 1146.29   37.20
   5  -1   4 1164.88   36.50
  -1  -5   4 1192.08   35.90
   1   5   4 1187.58   36.80
   5  -1   4 1123.19   38.00
   5  -1   4 1109.79   37.50
   1   5   4 1139.19   37.80
   5  -1   4 1144.29   37.20
  -1  -5   4 1177.68   37.20
   5  -3  -4  873.21   29.40
  -5   3  -4  881.11   34.10
  -3  -5  -4  842.42   28.80
  -5   3  -4  920.71   26.40
  -5   3  -4  869.11   26.40
   5  -3  -4  800.62   29.20
  -5   3  -4  843.12   29.10
   5  -3  -4  846.32   27.50
  -3  -5  -4  869.81   28.30
   5  -3  -4  839.82   26.20
  -3  -5  -4  899.51   28.60
  -5   3  -4  816.22   29.00
   3   5  -4  902.91   28.10
  -5   3  -4  772.52   33.00
  -5   3  -4  860.51   28.50
   3   5  -4  847.12   28.20
  -5   3   4  835.22   28.40
  -5   3   4  842.32   26.70
   3   5   4  843.72   27.20
  -3  -5   4  812.52   27.50
   5  -3   4  828.22   29.20
   3   5   4  825.52   28.50
  -3  -5   4  753.52   25.80
  -5   3   4  855.51   26.40
   3   5   4  818.22   27.90
   5  -3   4  798.22   29.00
  -3  -5   4  851.01   25.40
   3   5   4  796.72   30.40
  -5   3   4  844.72   26.80
   3   5   4  853.41   25.80
  -5   3   4  791.92   25.50
  -5   3   4  784.52   27.70
   5  -3   4  812.52   28.00
   5  -3   4  808.02   27.10
  -5  -5  -4  970.20   31.50
   5  -5  -4  927.71   31.60
  -5  -5  -4  952.10   31.30
   5   5  -4  879.91   31.50
   5  -5  -4  917.91   30.20
  -5  -5  -4  962.00   30.40
   5   5  -4  939.01   31.00
  -5   5  -4  888.41   31.20
   5   5  -4  916.41   32.40
   5  -5  -4  946.11   31.50
  -5   5  -4  904.81   31.60
  -5   5  -4  890.31   31.20
  -5  -5  -4  945.31   31.20
   5   5  -4  930.61   32.40
   5   5  -4  922.11   30.20
   5  -5   4  947.81   31.90
   5   5   4  943.61   32.10
  -5   5   4  909.31   31.80
   5  -5   4  956.90   32.30
  -5   5   4  935.01   31.70
   5   5   4  962.40   31.60
   5   5   4  962.20   30.30
  -5   5   4  964.10   29.70
  -5   5   4  945.91   31.00
   5   5   4  889.61   33.00
   5  -5   4  906.51   33.00
   5   5   4  959.40   32.70
  -5   5   4  977.40   32.60
   4  -6  -4  638.14   22.10
  -6  -4  -4  660.03   23.50
   6   4  -4  646.14   23.60
  -4   6  -4  643.94   23.00
  -6  -4  -4  579.84   23.60
   6   4  -4  656.93   22.50
   4  -6  -4  639.14   23.10
  -6  -4  -4  630.04   21.90
  -4   6  -4  636.04   22.70
  -6  -4  -4  641.84   23.40
   6   4  -4  647.94   22.10
   6   4  -4  654.43   22.50
  -4   6  -4  611.64   23.30
   6   4   4  647.04   21.90
  -4   6   4  637.54   22.40
  -4   6   4  649.43   23.80
   4  -6   4  627.24   24.20
   4  -6   4  625.54   22.90
   4  -6   4  639.54   23.00
  -4   6   4  650.63   21.30
   6   4   4  648.34   22.80
  -4   6   4  613.24   23.20
   6   4   4  631.34   23.30
  -2   6  -4 1143.49   37.60
  -6  -2  -4 1147.49   37.10
   2  -6  -4 1152.58   37.90
  -2   6  -4 1139.99   37.00
   6   2  -4 1195.18   37.60
   6   2  -4 1143.69   37.20
  -2   6  -4 1117.59   38.30
   2  -6  -4 1115.89   37.20
  -6  -2  -4 1170.58   38.10
  -2   6  -4 1226.48   37.10
   2  -6  -4 1181.78   37.20
   6   2  -4 1134.79   36.60
  -6  -2  -4 1140.29   37.00
  -6  -2  -4 1162.28   37.80
   2  -6   4 1067.29   35.90
  -2   6   4 1127.69   36.40
   6   2   4 1119.89   36.80
   6   2   4 1127.29   36.80
   6   2   4 1124.79   36.20
  -6  -2   4 1159.78   36.20
  -6  -2   4 1137.29   33.80
   2  -6   4 1109.09   36.50
  -2   6   4 1111.89   37.10
  -2   6   4 1109.59   36.70
  -2   6   4 1109.09   37.20
  -2   6   4 1135.69   36.00
  -2   6   4 1101.69   37.20
   6   2   4 1065.59   38.00
   6   2   4 1164.78   36.70
   2  -6   4 1126.29   38.20
   2  -6   4 1041.20   36.40
  -6   0  -4  422.16   16.60
   6   0  -4  426.16   14.90
   6   0  -4  423.86   14.30
  -6   0  -4  429.96   16.90
  -6   0  -4  409.26   15.10
   0  -6  -4  447.66   16.30
   0   6  -4  439.66   17.90
   0   6  -4  441.16   15.20
   0   6  -4  428.26   17.20
   6   0  -4  414.76   13.90
   6   0  -4  402.76   17.20
   0   6  -4  433.86   14.90
   0  -6  -4  432.06   16.60
  -6   0   4  449.46   16.00
   6   0   4  436.66   16.60
  -6   0   4  440.56   14.30
   0   6   4  411.16   16.80
   0  -6   4  413.86   15.50
   0  -6   4  396.86   15.00
   0   6   4  423.66   16.70
   6   0   4  420.56   18.00
   6   0   4  429.06   16.30
   0   6   4  423.16   17.20
  -6   0   4  432.96   16.10
   6   0   4  434.16   17.00
   0   6   4  417.56   16.30
  -6   0   4  419.86   16.90
   0   6   4  404.06   16.30
   0  -6   4  417.66   14.00
   6   0   4  438.46   16.70
  -6   0   4  428.26   14.10
   6  -2  -4   90.29    6.70
   6  -2  -4   84.89    5.30
   6  -2  -4   82.29    8.40
  -6   2  -4   96.19   10.90
   2   6  -4   87.69    9.40
   2   6  -4   80.19    7.10
   6  -2  -4   76.69    5.20
  -2  -6  -4   93.09    7.40
  -2  -6  -4   83.19    7.40
  -6   2  -4  100.29    9.00
   2   6  -4   83.29    4.70
   2   6  -4   94.49    8.60
  -2  -6  -4   81.59    8.60
  -2  -6  -4   72.29    7.40
   2   6  -4   90.19    5.10
  -6   2  -4   88.89    5.60
  -6   2  -4   86.79    8.00
   6  -2   4   62.29   10.20
  -2  -6   4   77.59    5.60
  -6   2   4   79.79    8.70
  -6   2   4   87.89    6.30
  -6   2   4   82.49    5.70
  -2  -6   4   85.59    6.60
   6  -2   4   86.59    9.10
   6  -2   4   90.49    9.00
  -2  -6   4   83.99    6.50
  -2  -6   4   68.19    7.70
   2   6   4   91.09    8.00
  -6   2   4   81.49    7.10
   2   6   4   56.79   11.20
   2   6   4   83.39    8.80
  -6   2   4   78.69    6.10
   6  -2   4   82.99    8.50
   2   6   4   92.99    8.70
   2   6   4   80.99    4.30
   6  -4  -4  513.15   15.10
   4   6  -4  453.85   19.40
   4   6  -4  463.15   18.00
  -6   4  -4  470.65   18.30
   4   6  -4  438.56   18.70
  -4  -6  -4  452.85   18.20
  -4  -6  -4  442.36   17.30
   6  -4  -4  495.25   16.90
  -6   4  -4  492.45   18.50
  -6   4  -4  495.65   18.40
   6  -4  -4  527.45   17.90
   6  -4  -4  499.25   18.80
  -4  -6  -4  458.65   18.20
  -4  -6  -4  465.35   18.40
   4   6  -4  469.85   17.30
   4   6   4  517.35   18.70
  -6   4   4  460.85   15.70
   4   6   4  466.55   19.60
  -6   4   4  438.56   17.00
  -4  -6   4  494.45   15.00
  -6   4   4  412.86   18.80
   6  -4   4  427.86   18.20
   6  -4   4  465.95   19.10
   4   6   4  491.15   18.10
  -4  -6   4  509.15   15.50
   4   6   4  509.75   16.10
  -6   4   4  454.15   18.20
   6  -4   4  434.86   19.40
  -4  -6   4  500.65   17.90
   4   6   4  482.85   19.20
  -6   6  -4  314.37   14.20
   6   6  -4  302.17   15.50
   6  -6  -4  301.47   12.80
  -6   6  -4  315.57   14.30
   6  -6  -4  273.67   14.30
  -6   6  -4  305.97   14.20
  -6  -6  -4  299.17   12.60
   6   6  -4  321.37   14.20
  -6  -6  -4  289.27   14.00
  -6  -6  -4  303.77   15.00
   6   6  -4  309.47   12.70
  -6  -6  -4  311.37   14.70
   6   6  -4  293.17   13.70
  -6   6   4  282.87   13.30
   6  -6   4  302.77   14.30
   6  -6   4  295.47   15.30
  -6   6   4  271.17   11.80
   6   6   4  301.37   15.20
   6   6   4  286.07   15.60
   6   6   4  318.97   14.70
   6  -6   4  291.27   14.70
  -6  -6   4  325.67   14.60
   6   6   4  322.87   15.50
  -6   6   4  272.77   13.70
  -6   6   4  290.97   14.90
   6   6   4  304.57   12.10
   7   5  -4  339.87   15.40
  -5   7  -4  347.97   15.00
   7   5  -4  322.77   14.30
   5  -7  -4  332.97   15.20
   7   5  -4  333.07   13.90
   7   5  -4  317.87   14.40
  -7  -5  -4  336.97   14.90
  -7  -5  -4  359.86   15.90
  -5   7  -4  343.97   15.20
  -5   7  -4  338.17   15.50
  -7  -5  -4  337.07   13.50
  -7  -5  -4  322.27   15.20
   5  -7  -4  322.67   13.80
   7   5  -4  328.37   16.30
   5  -7   4  340.47   16.40
   5  -7   4  320.87   15.20
   7   5   4  338.97   15.40
   5  -7   4  341.27   15.10
  -5   7   4  337.87   14.50
   7   5   4  299.87   16.60
  -5   7   4  351.06   16.10
  -5   7   4  321.87   15.10
   7   5   4  346.97   16.10
   7   5   4  328.27   15.80
   7   5   4  335.87   13.90
  -5   7   4  341.17   12.50
  -7  -3  -4  846.72   27.80
  -3   7  -4  809.22   28.00
   3  -7  -4  806.22   28.10
   7   3  -4  863.21   29.20
   7   3  -4  853.31   28.70
  -7  -3  -4  835.22   28.50
   7   3  -4  863.11   27.90
   3  -7  -4  801.82   28.70
  -3   7  -4  806.82   29.20
  -3   7  -4  808.82   28.60
  -7  -3  -4  871.71   29.20
  -7  -3  -4  817.42   29.10
  -3   7   4  835.52   28.60
   7   3   4  795.52   27.60
   7   3   4  781.42   28.30
  -3   7   4  833.22   28.90
   3  -7   4  807.02   28.10
  -3   7   4  811.72   27.90
  -3   7   4  853.51   26.70
   3  -7   4  814.62   27.50
  -7  -3   4  833.92   27.30
   7   3   4  802.12   28.50
   7   3   4  771.22   29.20
   3  -7   4  792.92   29.50
  -7  -3   4  739.23   28.90
   7   3   4  833.52   28.00
   7   1  -4  642.44   20.40
   7   1  -4  655.93   21.70
  -1   7  -4  650.83   22.70
   1  -7  -4  641.64   23.00
  -1   7  -4  626.74   23.60
  -1   7  -4  628.54   21.60
  -1   7  -4  631.24   24.30
   7   1  -4  637.74   23.60
  -7  -1  -4  649.64   23.40
   7   1  -4  632.74   20.10
   1  -7  -4  652.53   22.70
  -7  -1  -4  645.24   22.00
  -7  -1  -4  639.54   23.30
  -7  -1   4  630.34   20.20
  -7  -1   4  655.73   21.90
   7   1   4  662.13   23.50
  -7  -1   4  667.83   22.90
  -7  -1   4  661.53   22.30
  -1   7   4  587.24   23.30
  -1   7   4  619.44   24.00
   7   1   4  643.84   22.60
  -1   7   4  599.14   22.80
   1  -7   4  605.04   21.50
   7   1   4  608.74   23.80
   7   1   4  647.14   22.80
  -1   7   4  632.44   22.30
  -7  -1   4  628.34   20.00
  -1   7   4  635.94   23.40
   1  -7   4  638.04   22.90
   7   1   4  634.34   22.80
   1  -7   4  609.24   22.50
   1   7  -4  592.44   21.80
   1   7  -4  551.34   18.90
  -7   1  -4  574.94   21.50
   7  -1  -4  570.64   19.10
  -1  -7  -4  597.14   21.00
  -7   1  -4  550.24   20.60
   1   7  -4  572.14   19.40
   1   7  -4  578.34   20.70
   7  -1  -4  569.44   19.40
   1   7  -4  585.54   22.40
  -1  -7  -4  606.84   21.10
  -7   1  -4  576.44   21.50
   7  -1  -4  571.24   18.80
  -1  -7  -4  549.74   20.80
  -7   1  -4  559.04   19.30
   7  -1  -4  571.34   21.70
   7  -1   4  554.04   20.50
  -7   1   4  555.14   18.80
   1   7   4  556.34   20.80
   1   7   4  565.84   20.60
  -1  -7   4  542.15   20.40
  -7   1   4  544.75   18.50
   7  -1   4  548.85   21.70
   7  -1   4  599.24   21.40
   1   7   4  549.85   21.20
   7  -1   4  562.04   20.70
   7  -1   4  560.34   20.70
  -1  -7   4  555.14   18.20
   1   7   4  543.95   20.50
  -1  -7   4  532.45   18.60
  -7   1   4  552.44   18.60
  -7   1   4  558.04   19.90
   1   7   4  538.05   21.30
  -7   1   4  549.05   20.80
  -1  -7   4  547.85   19.30
   3   7  -4  911.21   31.00
  -3  -7  -4  912.01   31.90
  -7   3  -4  985.70   29.40
   3   7  -4  910.71   33.10
  -7   3  -4  965.20   33.60
   7  -3  -4  937.41   32.40
  -7   3  -4  945.61   32.10
   3   7  -4  917.41   32.20
  -7   3  -4  985.00   32.60
  -7   3  -4  915.31   32.00
   7  -3  -4  982.30   29.70
   7  -3  -4  985.20   31.00
  -3  -7  -4  953.00   31.80
  -3  -7  -4  933.11   32.00
   3   7  -4  919.21   29.30
   3   7  -4  957.40   29.70
   7  -3  -4  963.00   30.40
   3   7   4  965.60   29.10
   3   7   4  963.80   32.60
  -3  -7   4  893.41   29.00
  -7   3   4  910.41   30.20
   7  -3   4  917.11   31.70
   3   7   4  918.61   32.40
  -3  -7   4  967.80   29.60
  -3  -7   4  939.81   31.70
   3   7   4  973.10   31.30
   3   7   4  963.00   31.30
  -7   3   4  912.91   28.80
  -7   3   4  882.81   32.10
  -7   3   4  909.11   30.60
   7  -3   4  915.41   32.30
  -7   3   4  897.51   31.00
  -3  -7   4  958.30   30.40
   3   7   4  954.50   32.00
   7  -3   4  908.21   32.70
  -5  -7  -4 1119.69   37.10
  -7   5  -4 1125.29   37.10
   7  -5  -4 1122.19   33.80
  -5  -7  -4 1118.69   37.00
   5   7  -4 1124.39   37.00
   5   7  -4 1100.39   33.70
   7  -5  -4 1113.69   37.40
   5   7  -4 1144.59   34.00
  -5  -7  -4 1116.89   37.20
  -7   5  -4 1108.09   37.30
   7  -5  -4 1089.99   35.80
   5   7  -4 1082.79   36.60
  -5  -7  -4 1108.29   35.70
   5   7  -4 1058.99   35.40
  -7   5  -4 1058.99   37.10
   5   7  -4 1104.99   38.30
  -5  -7   4 1104.49   33.70
  -7   5   4 1028.30   37.40
   7  -5   4 1094.09   37.50
  -5  -7   4 1122.89   36.40
   7  -5   4 1091.99   37.10
  -7   5   4 1107.89   36.00
   5   7   4 1101.79   37.10
   5   7   4 1087.39   38.10
   7  -5   4 1085.79   37.80
   5   7   4 1118.09   36.60
   5   7   4 1134.39   34.80
  -7   5   4 1074.09   36.40
   5   7   4 1096.69   37.60
  -5  -7   4 1093.19   33.60
  -7   7  -4  520.15   20.80
   7  -7  -4  478.05   20.90
   7   7  -4  494.45   16.30
  -7   7  -4  505.35   20.70
  -7  -7  -4  537.25   18.50
   7   7  -4  512.15   18.70
  -7   7  -4  507.85   21.00
   7   7  -4  525.65   20.20
   7   7  -4  532.95   16.40
  -7  -7  -4  516.45   21.00
  -7  -7  -4  516.05   21.80
   7   7  -4  500.65   20.00
  -7  -7  -4  519.25   20.80
   7   7  -4  500.85   21.90
   7  -7  -4  519.65   19.30
   7   7   4  505.75   21.20
   7  -7   4  508.65   21.40
   7   7   4  477.05   19.90
   7   7   4  519.45   21.70
   7   7   4  476.75   22.30
  -7   7   4  517.35   20.40
  -7  -7   4  520.15   20.90
  -7  -7   4  494.15   16.20
  -7  -7   4  496.25   16.20
   7  -7   4  500.85   20.70
  -7   7   4  518.05   20.10
   7   7   4  510.35   20.90
   7  -7   4  513.05   21.10
  -7   7   4  480.55   21.20
   8   6  -4  109.99   10.10
  -8  -6  -4  120.29   12.90
  -8  -6  -4  103.89    8.00
   6  -8  -4  102.29   10.50
  -8  -6  -4  108.69   11.00
   8   6  -4  121.49   12.40
   8   6  -4  105.79    5.20
   6  -8  -4   96.69    9.20
   8   6  -4  108.59    9.90
  -6   8  -4   92.69   10.80
  -6   8  -4  114.49   11.20
  -6   8  -4  100.79   10.30
  -8  -6  -4   86.59   11.60
  -6   8   4  103.39   12.00
  -8  -6   4   79.89    5.90
   8   6   4   72.39    9.40
   8   6   4  105.89   12.00
   6  -8   4  110.49   10.60
   6  -8   4   96.09   10.60
   8   6   4  103.79   11.80
  -8  -6   4   96.99    5.10
  -8  -6   4   91.79    9.20
   6  -8   4  111.59   11.50
  -8  -6   4   92.19   10.90
   8   6   4   97.59   12.60
  -6   8   4  121.39   11.00
   8   6   4   77.89    9.00
  -6   8   4  109.79   10.00
   8   4  -4  148.99   11.70
  -8  -4  -4  137.09   10.60
  -8  -4  -4  153.38   12.00
  -4   8  -4  140.69   10.60
  -8  -4  -4  145.89    9.10
  -4   8  -4  149.29   11.40
   4  -8  -4  138.79   10.40
   8   4  -4  146.19    9.90
   4  -8  -4  131.19    9.40
   8   4  -4  142.79    9.70
  -4   8  -4  137.59    9.80
  -8  -4  -4  163.08   11.50
   8   4  -4  136.69   11.50
  -4   8   4  139.39    8.30
   8   4   4  119.29   11.10
   8   4   4  142.09   11.60
   4  -8   4  148.89    9.70
  -4   8   4  156.18   11.60
   4  -8   4  132.99   11.80
   4  -8   4  137.49   10.40
   8   4   4  117.29   11.70
  -8  -4   4  124.49    5.80
  -4   8   4  129.69   10.70
  -8  -4   4  126.29    5.60
  -4   8   4  147.09   10.20
   8   4   4  124.09   10.10
   8   4   4  129.29   12.20
   8   2  -4   34.50    5.90
   8   2  -4   41.30    3.60
  -2   8  -4   47.70    6.40
  -8  -2  -4   38.20    7.10
  -2   8  -4   42.40    6.70
  -8  -2  -4   36.10    6.10
   8   2  -4   40.40    5.00
  -2   8  -4   41.20    5.90
   8   2  -4   40.30    5.70
  -8  -2  -4   46.70    5.60
   2  -8  -4   43.80    5.60
  -8  -2  -4   37.30    6.20
   2  -8  -4   43.20    5.50
   8   2  -4   41.50    4.50
  -8  -2   4   44.10    5.90
   2  -8   4   29.20    5.40
  -2   8   4   33.50    5.90
   8   2   4   48.30    6.10
  -2   8   4   44.00    5.00
   8   2   4   47.80    6.00
  -8  -2   4   46.10    5.10
  -8  -2   4   47.20    4.30
  -2   8   4   47.40    6.20
  -2   8   4   38.70    6.50
   2  -8   4   44.60    5.20
  -8  -2   4   46.90    4.50
   8   2   4   51.09    6.70
   8   2   4   38.30    6.70
   8   2   4   38.10    6.70
   2  -8   4   34.90    6.80
   0  -8  -4  580.64   21.90
  -8   0  -4  590.04   22.90
   0   8  -4  610.44   23.20
  -8   0  -4  561.04   21.50
  -8   0  -4  612.04   22.80
   8   0  -4  579.24   22.80
   8   0  -4  569.84   19.30
   0   8  -4  621.84   21.00
   0   8  -4  596.54   22.80
   0  -8  -4  619.44   22.00
   0   8  -4  582.44   20.20
   8   0  -4  598.14   20.50
   0   8  -4  598.94   21.50
   8   0  -4  596.54   20.00
   0  -8  -4  608.74   22.30
  -8   0  -4  609.04   20.70
   0  -8   4  587.84   21.60
  -8   0   4  563.04   21.70
   0   8   4  559.94   22.30
   0  -8   4  576.14   18.30
   8   0   4  599.34   21.70
  -8   0   4  604.94   20.50
   8   0   4  610.74   22.80
   0   8   4  573.94   22.00
   0   8   4  553.44   26.70
  -8   0   4  570.34   19.20
   8   0   4  583.54   21.40
   0  -8   4  572.84   21.50
  -8   0   4  620.74   20.20
   0   8   4  571.04   22.30
   8   0   4  576.24   22.90
   0   8   4  580.34   21.70
  -8   0   4  597.54   19.50
   0  -8   4  547.75   20.00
   8   0   4  581.44   22.00
   2   8  -4  628.54   21.30
   2   8  -4  667.53   23.00
  -8   2  -4  624.14   23.50
  -2  -8  -4  640.54   23.70
   2   8  -4  636.44   25.10
   2   8  -4  676.13   22.10
  -8   2  -4  650.73   24.80
  -8   2  -4  598.04   24.80
   8  -2  -4  671.73   22.60
  -2  -8  -4  701.83   24.00
  -8   2  -4  659.73   24.80
   8  -2  -4  645.44   24.50
   8  -2  -4  682.23   22.00
  -2  -8  -4  688.83   24.00
   8  -2  -4  620.84   21.60
   2   8  -4  645.34   24.40
  -8   2  -4  683.43   21.70
  -8   2   4  607.14   23.70
   2   8   4  621.54   24.00
   2   8   4  632.14   20.10
   2   8   4  651.43   23.50
   2   8   4  631.94   24.30
  -2  -8   4  635.44   23.20
  -2  -8   4  657.83   21.30
  -8   2   4  625.84   21.60
  -8   2   4  640.24   22.20
  -2  -8   4  654.33   22.00
   2   8   4  669.63   24.00
  -8   2   4  666.73   22.40
   2   8   4  604.34   23.40
   8  -2   4  660.13   23.70
  -2  -8   4  617.04   21.10
   8  -2   4  631.44   24.80
  -8   2   4  633.24   20.40
   4   8  -4  265.27   10.60
  -4  -8  -4  297.47   13.70
   8  -4  -4  237.48   13.80
  -4  -8  -4  280.87   13.60
   4   8  -4  272.97    9.70
  -4  -8  -4  267.47   13.90
  -8   4  -4  267.17   13.20
   4   8  -4  262.77   15.00
   4   8  -4  286.17   14.10
   8  -4  -4  245.98   11.30
   8  -4  -4  262.57   10.60
  -8   4  -4  241.18   14.00
   4   8  -4  258.67   12.10
  -8   4  -4  258.37   13.60
   4   8   4  243.28   13.70
   4   8   4  255.47   14.50
  -8   4   4  247.28   11.60
   4   8   4  256.97   10.20
   8  -4   4  260.37   14.50
  -4  -8   4  249.88   13.40
   4   8   4  249.58   14.30
   4   8   4  236.48   12.50
  -4  -8   4  257.07    9.60
   8  -4   4  255.27   13.50
   8  -4   4  261.67   14.90
  -4  -8   4  244.28   10.00
  -8   4   4  255.67   12.80
   4   8   4  242.28   14.20
  -8   4   4  254.67   14.00
  -4  -8   4  264.07   11.90
  -6  -8  -4   37.80    6.60
   8  -6  -4   30.10    6.90
  -8   6  -4   14.90    6.00
   6   8  -4   24.30    6.00
  -6  -8  -4   20.00    6.90
   6   8  -4   17.30    2.70
  -8   6  -4   20.10    5.90
   8  -6  -4   26.80    4.60
   6   8  -4   26.20    3.20
   6   8  -4   23.40    5.00
  -8   6  -4   14.00    6.20
  -6  -8  -4   20.50    6.10
   6   8  -4   21.10    6.00
   6   8  -4   20.40    7.20
   6   8   4   43.10    7.60
   6   8   4   21.50    7.60
   8  -6   4   17.90    7.10
   6   8   4   27.70    7.20
  -8   6   4   19.80    6.80
  -6  -8   4   22.90    3.10
  -8   6   4   24.00    5.60
  -6  -8   4   24.60    5.90
   6   8   4   28.50    6.00
   8  -6   4   21.00    7.20
   6   8   4   28.40    4.30
   6   8   4   24.60    7.00
   8  -6   4   37.20    6.60
  -6  -8   4   23.90    2.90
  -8   6   4   16.80    5.70
   8   8  -4  202.78   13.10
  -8  -8  -4  187.58   14.30
   8   8  -4  217.38   13.40
   8  -8  -4  204.88   12.20
   8   8  -4  213.78    8.80
   8   8  -4  202.08    8.40
  -8  -8  -4  183.18   15.60
   8  -8  -4  197.48   13.80
   8   8  -4  211.68   16.30
  -8  -8  -4  236.98   15.70
  -8   8  -4  206.88   13.80
  -8   8  -4  217.28   14.30
  -8   8  -4  219.98   14.60
   8  -8   4  227.98   15.30
  -8   8   4  179.98   15.20
  -8  -8   4  202.58   11.90
   8   8   4  214.98   15.70
   8   8   4  211.78   12.80
   8   8   4  186.88   15.30
   8   8   4  235.88   16.90
   8   8   4  200.08   11.30
  -8  -8   4  196.68    8.40
  -8  -8   4  195.38    9.10
   8  -8   4  188.78   13.60
   8   8   4  198.58   15.90
  -8   8   4  215.18   13.90
  -8   8   4  190.58   13.80
   8  -8   4  204.08   14.40
  -8  -8   4  197.38   13.70
   7  -9  -4  385.86   17.10
  -7   9  -4  401.16   18.80
   9   7  -4  373.86   13.40
  -9  -7  -4  393.16   18.70
  -7   9  -4  361.16   18.30
   9   7  -4  403.86   20.10
  -9  -7  -4  382.36   15.90
   9   7  -4  380.56   13.40
  -9  -7  -4  367.16   19.50
   9   7  -4  380.66   16.80
   9   7  -4  387.96   17.60
  -7   9  -4  402.46   18.20
   7  -9  -4  396.86   18.30
   7  -9   4  366.26   18.80
  -9  -7   4  346.17   14.40
  -7   9   4  386.46   18.00
   9   7   4  378.36   19.10
   7  -9   4  374.46   18.20
   9   7   4  381.76   16.30
  -7   9   4  365.66   19.50
  -9  -7   4  367.46   13.10
  -7   9   4  393.86   18.60
   7  -9   4  387.06   19.00
   9   7   4  378.96   18.70
  -9  -7   4  394.86   16.50
   9   7   4  387.76   21.80
   9   7   4  382.46   20.20
  -9  -7   4  362.86   18.30
  -9  -5  -4  815.22   28.90
   5  -9  -4  773.82   27.50
   9   5  -4  766.42   24.20
  -5   9  -4  715.43   27.70
  -9  -5  -4  774.12   28.90
   9   5  -4  798.72   24.20
   9   5  -4  778.02   27.50
  -9  -5  -4  763.42   27.90
   9   5  -4  791.12   26.70
   5  -9  -4  715.33   27.90
   9   5  -4  809.52   29.20
  -5   9  -4  758.32   27.70
  -5   9  -4  714.93   28.40
  -9  -5  -4  799.22   26.10
   9   5   4  761.82   28.80
   9   5   4  734.43   26.70
   5  -9   4  729.93   27.60
   9   5   4  715.93   29.30
  -5   9   4  791.52   28.20
   9   5   4  751.32   27.80
   5  -9   4  740.43   28.80
   9   5   4  749.13   27.80
   5  -9   4  749.23   27.40
  -9  -5   4  751.32   29.00
  -5   9   4  781.92   28.90
  -9  -5   4  739.93   23.70
  -5   9   4  767.32   27.90
  -9  -5   4  765.92   26.60
   3  -9  -4  403.86   16.70
  -9  -3  -4  407.66   15.90
   3  -9  -4  376.16   17.00
  -3   9  -4  410.56   17.00
   9   3  -4  383.66   16.70
   9   3  -4  386.06   13.20
   9   3  -4  377.16   13.40
  -9  -3  -4  410.36   17.90
  -3   9  -4  423.06   18.70
   9   3  -4  377.66   17.80
  -9  -3  -4  385.56   18.80
   9   3  -4  374.96   16.20
  -9  -3  -4  367.56   16.50
  -3   9  -4  389.56   16.20
  -9  -3   4  403.06   16.70
  -3   9   4  413.36   15.20
  -3   9   4  371.06   17.50
   3  -9   4  373.96   18.80
   3  -9   4  370.66   17.20
   9   3   4  395.76   18.70
   3  -9   4  380.36   16.30
   9   3   4  401.96   18.00
  -9  -3   4  379.26   13.60
   9   3   4  379.76   16.80
  -9  -3   4  395.76   13.50
  -3   9   4  383.26   18.10
  -3   9   4  390.16   18.20
   9   3   4  383.36   18.60
  -9  -3   4  400.96   15.10
  -1   9  -4  660.43   25.70
  -9  -1  -4  702.83   23.80
  -9  -1  -4  707.13   25.30
  -1   9  -4  648.04   23.20
  -9  -1  -4  699.23   26.00
  -1   9  -4  623.74   23.90
  -1   9  -4  657.63   25.90
   1  -9  -4  648.74   24.60
   9   1  -4  709.33   23.80
   1  -9  -4  688.13   24.60
   9   1  -4  645.84   21.70
  -9  -1  -4  691.93   24.00
   9   1  -4  671.63   25.40
   9   1  -4  690.33   22.40
   1  -9   4  640.84   23.20
   9   1   4  696.63   26.10
   9   1   4  675.23   25.00
   9   1   4  645.04   24.00
   9   1   4  650.03   24.30
  -9  -1   4  677.73   22.10
  -9  -1   4  655.93   22.80
   1  -9   4  661.43   24.40
   9   1   4  636.14   25.90
  -9  -1   4  649.34   22.00
  -1   9   4  681.33   25.20
  -9  -1   4  702.33   23.30
  -9  -1   4  683.43   24.60
  -1   9   4  683.73   25.10
  -1   9   4  631.74   25.30
  -1   9   4  694.23   23.90
   9  -1  -4  388.36   14.00
   9  -1  -4  371.06   17.60
   9  -1  -4  394.26   15.10
  -9   1  -4  376.16   18.70
   1   9  -4  417.66   16.00
  -9   1  -4  387.16   16.50
   1   9  -4  384.46   18.10
   1   9  -4  365.76   17.80
   9  -1  -4  395.36   15.40
  -9   1  -4  367.76   19.30
  -1  -9  -4  372.76   16.90
   1   9  -4  408.66   16.10
  -9   1  -4  400.66   15.20
  -1  -9  -4  392.86   16.60
   1   9  -4  383.06   14.30
   1   9   4  373.16   17.60
  -1  -9   4  372.36   13.40
   1   9   4  353.46   16.50
  -9   1   4  393.16   17.00
   9  -1   4  415.86   18.30
  -1  -9   4  380.46   16.20
  -9   1   4  367.36   15.10
  -1  -9   4  357.56   14.20
  -9   1   4  386.46   14.80
   1   9   4  357.46   20.60
   1   9   4  385.46   17.10
  -1  -9   4  363.06   16.60
   9  -1   4  384.56   17.80
  -9   1   4  373.76   13.80
   9  -1   4  390.56   17.90
   9  -1   4  366.96   16.40
  -9   1   4  369.36   14.20
  -9   3  -4  534.05   21.40
  -9   3  -4  557.34   21.20
  -9   3  -4  550.44   22.50
  -3  -9  -4  545.75   21.70
   9  -3  -4  517.05   19.50
   3   9  -4  573.84   18.80
  -9   3  -4  548.55   18.90
   3   9  -4  589.64   19.60
  -3  -9  -4  600.34   21.90
   9  -3  -4  554.64   19.50
  -3  -9  -4  562.54   22.30
   3   9  -4  589.04   20.60
   3   9  -4  544.85   22.70
   9  -3  -4  552.84   22.20
   3   9  -4  563.84   22.20
  -3  -9   4  553.54   19.40
  -3  -9   4  518.45   18.50
   3   9   4  533.25   21.30
  -9   3   4  604.34   20.20
   3   9   4  530.75   18.50
  -3  -9   4  545.15   21.50
   9  -3   4  577.54   21.80
   3   9   4  524.15   22.50
   3   9   4  543.75   22.20
   9  -3   4  576.84   23.00
  -3  -9   4  535.15   19.60
   3   9   4  549.05   22.20
   3   9   4  513.55   21.80
  -9   3   4  548.55   22.30
  -9   3   4  575.34   20.10
   9  -3   4  558.44   22.80
  -5  -9  -4  391.26   17.80
   5   9  -4  359.76   18.40
  -9   5  -4  356.66   17.50
  -5  -9  -4  373.16   17.40
   9  -5  -4  390.46   14.60
   9  -5  -4  377.26   17.50
  -9   5  -4  389.66   18.00
   5   9  -4  366.56   16.60
   5   9  -4  372.06   13.20
   9  -5  -4  376.56   15.40
   5   9  -4  352.56   17.50
  -5  -9  -4  373.76   17.80
  -9   5  -4  386.06   16.70
   5   9  -4  385.76   13.90
   9  -5   4  378.66   17.60
   5   9   4  397.16   18.50
   9  -5   4  391.06   18.60
   9  -5   4  378.16   18.40
   5   9   4  390.46   14.60
   5   9   4  366.26   16.50
   5   9   4  380.46   18.00
   5   9   4  359.56   18.80
   5   9   4  376.66   18.70
  -9   5   4  371.86   16.40
  -5  -9   4  356.46   13.80
  -5  -9   4  385.96   16.10
  -9   5   4  390.86   16.30
  -5  -9   4  353.76   13.30
  -5  -9   4  391.56   17.70
  -9   5   4  369.26   18.50
   7   9  -4  679.63   25.20
   9  -7  -4  629.04   24.10
  -7  -9  -4  633.84   25.60
   7   9  -4  687.03   23.00
  -7  -9  -4  673.43   27.20
  -9   7  -4  651.33   26.10
   7   9  -4  636.64   21.40
  -7  -9  -4  695.13   26.20
   7   9  -4  652.73   25.40
  -9   7  -4  650.43   26.00
   7   9  -4  663.33   21.60
   7   9  -4  689.23   27.50
   9  -7  -4  606.34   25.30
  -9   7  -4  664.13   25.30
   7   9   4  666.73   27.00
  -7  -9   4  659.63   21.70
  -9   7   4  642.94   26.90
  -9   7   4  661.53   25.40
   7   9   4  644.94   26.00
   9  -7   4  650.53   26.70
   7   9   4  625.94   27.50
   7   9   4  666.93   24.60
  -9   7   4  652.93   24.80
   7   9   4  654.93   26.80
  -7  -9   4  619.54   21.40
   9  -7   4  675.03   26.70
  -7  -9   4  672.03   25.10
   9  -7   4  641.54   25.70
   7   9   4  665.63   23.10
   9  -9  -4  158.08   14.20
  -9  -9  -4  179.08   15.30
  -9   9  -4  182.78   15.20
  -9   9  -4  176.98   15.60
   9   9  -4  178.18   14.00
   9   9  -4  208.48   13.90
   9  -9  -4  170.58   12.70
  -9   9  -4  197.98   14.70
   9   9  -4  185.48   17.00
   9   9  -4  173.78    8.70
  -9   9   4  203.38   15.00
   9  -9   4  192.18   15.20
  -9  -9   4  174.18    9.00
  -9   9   4  160.38   17.00
   9   9   4  185.98   12.20
  -9   9   4  195.98   15.60
  -9  -9   4  191.78   15.20
   9   9   4  190.08   17.00
   9  -9   4  202.48   18.10
   9   9   4  212.58   16.50
   9  -9   4  174.88   15.50
  10   8  -4  174.58    8.80
  -8  10  -4  203.18   15.90
   8 -10  -4  194.58   14.70
 -10  -8  -4  218.38   16.10
  10   8  -4  204.28   14.40
  10   8  -4  174.08   12.80
   8 -10  -4  195.58   13.90
  -8  10  -4  176.88   15.30
  10   8  -4  197.88   18.30
  -8  10  -4  189.48   14.60
  10   8   4  155.88   16.90
   8 -10   4  210.98   15.40
  -8  10   4  172.98   17.30
   8 -10   4  184.08   16.10
 -10  -8   4  172.58   15.60
  -8  10   4  194.18   15.50
  10   8   4  176.48   12.70
  10   8   4  194.48   15.70
   8 -10   4  198.38   16.10
 -10  -8   4  164.78    8.70
  -8  10   4  210.88   17.00
  10   6  -4  133.79   14.90
 -10  -6  -4  117.39   11.40
  -6  10  -4  117.89   13.20
  10   6  -4  110.89   12.20
 -10  -6  -4  108.09   10.40
  10   6  -4  107.09   12.60
  10   6  -4  117.89    7.10
   6 -10  -4  119.29   12.10
  10   6  -4  124.49    7.20
 -10  -6  -4  126.79   12.70
  -6  10  -4  101.69   11.30
   6 -10  -4  104.69   10.80
  -6  10  -4  111.69   12.40
  10   6   4  111.39   11.00
  -6  10   4  124.19   12.80
  -6  10   4  136.19   14.20
  10   6   4  100.99   14.10
  -6  10   4  112.79   14.90
 -10  -6   4  135.49   13.40
  10   6   4  117.89   13.00
   6 -10   4  134.69   12.10
 -10  -6   4  101.59    8.60
   6 -10   4  129.99   12.50
 -10  -6   4  115.09    7.10
   6 -10   4   94.39   13.50
 -10  -6   4  127.19   11.00
  10   6   4  119.89   14.40
 -10  -4  -4  358.66   14.80
  10   4  -4  345.07   17.40
 -10  -4  -4  345.37   18.00
  10   4  -4  343.97   17.30
  -4  10  -4  328.27   16.30
  -4  10  -4  331.67   18.10
   4 -10  -4  320.57   16.50
  10   4  -4  331.87   15.90
  10   4  -4  336.17   12.40
  10   4  -4  353.76   12.70
 -10  -4  -4  344.37   17.10
  -4  10  -4  355.16   15.70
   4 -10  -4  348.17   16.20
   4 -10   4  330.67   15.90
  10   4   4  368.26   18.10
  10   4   4  324.17   18.70
   4 -10   4  336.77   18.20
  10   4   4  368.96   16.90
  -4  10   4  343.37   14.40
 -10  -4   4  337.47   12.80
  10   4   4  339.77   15.90
   4 -10   4  332.37   16.70
 -10  -4   4  341.07   14.40
 -10  -4   4  333.87   13.00
  -4  10   4  349.57   17.80
 -10  -4   4  356.76   15.90
  -4  10   4  322.57   17.20
  -4  10   4  353.06   18.50
  10   4   4  335.17   18.70
 -10  -2  -4 1094.49   35.50
  -2  10  -4  987.20   36.70
 -10  -2  -4 1099.69   37.10
  10   2  -4 1039.90   32.80
  -2  10  -4 1025.20   35.40
  -2  10  -4  962.40   36.70
  10   2  -4 1042.80   35.00
   2 -10  -4  974.70   35.60
  10   2  -4 1111.69   34.70
 -10  -2  -4 1070.39   34.70
  10   2  -4 1063.29   36.60
 -10  -2  -4 1093.89   36.70
   2 -10  -4 1000.20   35.60
  -2  10  -4  978.60   34.50
  10   2  -4 1081.09   33.20
  -2  10   4  995.50   36.40
  -2  10   4 1041.20   36.10
  -2  10   4 1057.29   35.80
  10   2   4 1001.40   35.20
  -2  10   4 1086.59   34.20
  10   2   4 1037.90   36.00
 -10  -2   4 1007.90   32.70
 -10  -2   4 1049.30   33.30
   2 -10   4 1019.60   34.30
  10   2   4 1011.10   34.70
  10   2   4 1019.40   36.70
 -10  -2   4  992.10   32.70
 -10  -2   4  987.30   34.70
  10   2   4  999.10   36.70
   2 -10   4 1055.99   35.50
 -10   0  -4  422.16   18.50
   0  10  -4  378.46   16.40
   0  10  -4  357.26   15.30
  10   0  -4  428.16   17.20
  10   0  -4  432.86   15.80
 -10   0  -4  448.06   21.10
   0 -10  -4  330.37   16.70
   0  10  -4  376.76   18.80
 -10   0  -4  429.66   16.50
  10   0  -4  401.76   14.50
 -10   0  -4  418.96   16.80
  10   0  -4  429.16   18.50
   0  10  -4  378.16   18.60
   0 -10  -4  384.86   17.80
   0 -10   4  389.26   15.50
   0  10   4  415.76   18.30
   0  10   4  417.76   19.00
  10   0   4  378.26   17.00
  10   0   4  358.96   17.40
  10   0   4  388.46   19.20
   0  10   4  406.46   18.60
   0  10   4  429.16   17.30
  10   0   4  370.76   18.60
 -10   0   4  381.46   17.30
   0 -10   4  404.96   17.40
 -10   0   4  371.06   15.00
 -10   0   4  379.16   14.90
 -10   0   4  374.66   15.80
 -10   2  -4  159.98   12.90
   2  10  -4  165.08    8.40
   2  10  -4  182.78   13.00
 -10   2  -4  131.89   11.30
 -10   2  -4  148.99    9.60
  10  -2  -4  149.39    8.80
  -2 -10  -4  168.08   11.50
  -2 -10  -4  165.68   19.30
   2  10  -4  159.38   10.50
  10  -2  -4  158.68   10.40
  10  -2  -4  145.39   12.30
   2  10  -4  164.48   12.90
   2  10   4  152.78   11.90
 -10   2   4  183.18    9.70
 -10   2   4  153.48   12.70
  10  -2   4  187.48   21.70
  10  -2   4  158.58   12.00
  -2 -10   4  142.69    8.70
  -2 -10   4  140.39   11.50
   2  10   4  143.19   12.70
 -10   2   4  165.18    9.70
   2  10   4  137.69   13.80
  10  -2   4  148.99   12.70
 -10   4  -4   41.00    7.00
  10  -4  -4   50.79    5.60
  -4 -10  -4   29.20    6.50
  10  -4  -4   52.59    7.50
  -4 -10  -4   49.40    8.20
   4  10  -4   28.40    7.70
   4  10  -4   46.30    6.20
 -10   4  -4   46.60    6.50
 -10   4  -4   49.00    7.60
  10  -4  -4   52.09    5.90
   4  10  -4   34.60    4.00
   4  10  -4   31.30    7.40
  -4 -10   4   48.10    6.00
   4  10   4   50.79    8.80
   4  10   4   69.99    7.50
  10  -4   4   36.00    8.60
 -10   4   4   28.80    5.80
  -4 -10   4   49.20    6.00
 -10   4   4   42.30    6.20
   4  10   4   50.79    9.00
  10  -4   4   32.60    7.10
  -4 -10   4   41.80    7.10
  -4 -10   4   48.80    8.40
   4  10   4   42.30    7.90
 -10   4   4   36.80    7.50
   4  10   4   62.79    8.00
  10  -4   4   35.20    7.60
   6  10  -4  231.98   10.10
  -6 -10  -4  265.47   19.20
   6  10  -4  241.78   12.40
   6  10  -4  242.48   14.70
   6  10  -4  236.58   17.20
 -10   6  -4  255.27   14.00
  10  -6  -4  209.38   14.60
 -10   6  -4  238.18   15.70
 -10   6  -4  236.68   15.20
  -6 -10  -4  249.28   14.90
   6  10  -4  256.57   15.50
  10  -6  -4  250.67   13.10
   6  10   4  211.78   17.80
  10  -6   4  246.18   16.10
  10  -6   4  272.27   17.20
   6  10   4  254.47   17.30
  -6 -10   4  237.38   10.50
 -10   6   4  259.47   13.70
 -10   6   4  232.78   16.90
  10  -6   4  226.68   15.20
 -10   6   4  227.48   14.20
   6  10   4  232.58   16.20
   6  10   4  239.48   17.80
  -6 -10   4  243.48   13.70
   8  10  -4   -4.60    7.30
 -10   8  -4    2.30    7.30
  -8 -10  -4    4.80    7.60
   8  10  -4    4.70    3.60
 -10   8  -4   11.00    8.80
  10  -8  -4   -2.30    7.10
   8  10  -4    9.70    9.00
   8  10  -4   11.10    7.20
  10  -8  -4   10.60    6.10
 -10   8  -4   11.70    7.30
   8  10   4    6.50    8.80
  -8 -10   4    8.40    3.90
   8  10   4    5.60    8.80
  10  -8   4    2.50    8.00
  10  -8   4    0.00    7.60
 -10   8   4   -0.30    7.60
 -10   8   4   14.30    7.00
 -10   8   4    7.40    8.70
  -8 -10   4   14.80    7.70
  10  -8   4    6.50    9.40
  10  10  -4  151.98    9.20
  10  10  -4  169.18   15.90
  10  10  -4  195.78   15.50
 -10  10  -4  147.29   15.60
  10 -10  -4  136.69   14.60
  10  10  -4  161.88   18.90
 -10 -10  -4  183.08   17.30
 -10  10  -4  140.19   17.10
  10 -10  -4  149.49   15.60
 -10  10  -4  146.59   16.30
 -10  10   4  171.68   15.50
 -10 -10   4  158.78   16.70
 -10  10   4  161.88   19.60
  10  10   4  141.19   18.30
 -10 -10   4  126.99    9.20
  10  10   4  171.68   18.30
  10 -10   4  171.38   16.70
  10  10   4  144.49   14.20
 -10  10   4  165.68   18.10
  10 -10   4  196.08   20.20
  10 -10   4  194.68   18.00
  11   9  -4  441.56   17.10
  -9  11  -4  487.55   23.60
  -9  11  -4  483.85   24.20
   9 -11  -4  453.75   22.40
  11   9  -4  471.95   23.30
  11   9  -4  489.65   26.20
   9 -11  -4  477.35   22.20
 -11  -9  -4  472.75   23.80
  -9  11  -4  469.35   23.00
 -11  -9   4  452.15   17.00
  -9  11   4  447.96   26.20
   9 -11   4  442.06   25.30
  -9  11   4  475.15   25.50
  11   9   4  479.25   23.30
   9 -11   4  468.35   23.80
  -9  11   4  447.56   22.90
 -11  -9   4  501.85   24.20
  11   9   4  436.56   20.40
  11   9   4  450.95   25.00
   9 -11   4  450.05   22.70
  11   7  -4  411.86   15.50
   7 -11  -4  430.66   20.30
  -7  11  -4  422.76   20.60
  11   7  -4  442.96   23.10
 -11  -7  -4  433.06   21.60
  11   7  -4  452.35   20.40
  -7  11  -4  428.76   21.30
  -7  11  -4  409.06   20.90
   7 -11  -4  422.26   20.10
  11   7   4  438.26   20.70
  -7  11   4  440.76   22.60
  -7  11   4  436.26   21.40
 -11  -7   4  404.56   21.20
  -7  11   4  416.96   22.60
   7 -11   4  425.26   21.80
   7 -11   4  406.86   20.40
  11   7   4  410.66   23.20
  11   7   4  425.76   19.50
 -11  -7   4  427.26   15.50
   7 -11   4  458.45   21.20
  -5  11  -4  175.58   14.60
  11   5  -4  187.38   14.10
 -11  -5  -4  219.18   17.70
 -11  -5  -4  185.18   15.20
   5 -11  -4  192.18   13.90
  -5  11  -4  182.18   13.10
  -5  11  -4  177.78   14.00
  11   5  -4  176.48    9.00
  11   5  -4  185.58   15.50
   5 -11  -4  195.98   13.60
 -11  -5   4  179.28    9.50
  11   5   4  203.18   14.10
   5 -11   4  201.28   15.40
   5 -11   4  196.68   14.10
  11   5   4  177.08   16.10
  11   5   4  261.17   24.70
 -11  -5   4  165.48   15.30
   5 -11   4  185.78   13.70
  -5  11   4  178.58   16.50
  -5  11   4  194.08   16.80
  -5  11   4  190.18   15.50
  11   5   4  212.58   14.50
 -11  -5   4  196.28   13.20
  11   3  -4   31.70    6.90
  11   3  -4   26.30    6.90
 -11  -3  -4   22.10    5.70
  -3  11  -4   18.40    5.50
 -11  -3  -4   33.10    9.00
   3 -11  -4   20.60    6.50
  11   3  -4   25.60    4.00
  -3  11  -4   15.70    8.10
  11   3  -4   29.80    6.20
  11   3  -4   23.90    7.90
  -3  11  -4   22.80    6.60
 -11  -3  -4   31.30    7.70
   3 -11  -4   17.70    6.30
 -11  -3  -4   25.80    9.00
   3 -11   4   22.20    8.50
  -3  11   4   34.00    6.20
   3 -11   4   18.70    7.40
  -3  11   4   30.30    8.20
  11   3   4   27.50   10.20
  11   3   4   28.90    9.30
 -11  -3   4   28.30    6.50
  -3  11   4   16.60    8.40
 -11  -3   4   18.70    4.40
  11   3   4   21.10    8.10
   3 -11   4   24.90    6.30
 -11  -3   4   30.90    5.30
  11   3   4   35.50    7.20
  -3  11   4   25.90    8.30
  -1  11  -4  300.97   17.20
   1 -11  -4  304.47   16.00
  -1  11  -4  281.07   14.90
 -11  -1  -4  349.47   15.90
  -1  11  -4  296.37   14.00
 -11  -1  -4  306.87   18.40
   1 -11  -4  305.87   15.80
  -1  11  -4  286.27   17.40
  11   1  -4  321.87   16.90
 -11  -1  -4  315.17   15.00
  11   1  -4  306.27   12.50
  11   1  -4  348.77   15.70
  11   1   4  306.27   15.30
 -11  -1   4  292.47   13.30
  -1  11   4  300.87   17.40
  11   1   4  313.17   19.10
  -1  11   4  327.37   17.50
 -11  -1   4  305.07   13.20
  11   1   4  291.87   17.40
 -11  -1   4  313.27   16.10
   1 -11   4  290.47   14.10
  11   1   4  305.47   16.20
  -1  11   4  319.47   15.00
   1 -11   4  324.37   15.90
  -1  11   4  342.67   17.70
   1  11  -4   72.69    7.70
 -11   1  -4   96.39   12.50
  11  -1  -4   67.19    7.30
  -1 -11  -4   75.09    8.50
  -1 -11  -4   80.29   10.10
  11  -1  -4   88.39   10.70
   1  11  -4   73.29    9.70
 -11   1  -4   72.09    7.80
  11  -1  -4   59.29    8.10
 -11   1  -4   96.89    9.80
   1  11  -4   82.59    9.80
   1  11  -4   82.89   11.80
  11  -1   4   74.39    9.40
  11  -1   4   77.39    9.40
   1  11   4   81.39   10.00
   1  11   4   72.19    8.20
  -1 -11   4   58.99    7.40
  11  -1   4   87.69   10.60
 -11   1   4   74.79    8.80
   1  11   4   70.59    9.30
  -1 -11   4   86.99    8.40
 -11   1   4   64.49    8.20
 -11   1   4   66.09    8.30
   1  11   4   92.29    9.50
 -11   3  -4  170.58   12.40
  -3 -11  -4  117.69   12.00
   3  11  -4  144.39   10.80
   3  11  -4  136.09    8.60
 -11   3  -4  162.68   13.20
   3  11  -4  120.29   13.50
   3  11  -4  135.89   14.10
  11  -3  -4  153.78   11.20
  11  -3  -4  146.19   13.10
  11  -3  -4  142.09    9.50
  -3 -11  -4  103.89   12.20
 -11   3   4  127.39   13.00
   3  11   4  170.48   14.80
 -11   3   4  125.19   10.60
  -3 -11   4  143.69    9.00
  -3 -11   4  161.78   13.00
  11  -3   4  126.89   12.40
  11  -3   4  124.89   13.20
  11  -3   4  141.59   15.40
   3  11   4  118.29   13.70
 -11   3   4  132.49   11.00
  11  -3   4  134.19   12.10
   3  11   4  160.48   12.70
  -3 -11   4  157.18   10.60
   5  11  -4  392.16   20.80
   5  11  -4  424.66   16.80
  11  -5  -4  391.86   16.90
   5  11  -4  422.86   19.90
 -11   5  -4  387.06   19.10
  11  -5  -4  369.26   18.90
   5  11  -4  392.96   15.00
 -11   5  -4  392.26   17.80
  -5 -11  -4  415.66   19.30
  -5 -11   4  375.56   19.30
  11  -5   4  427.46   20.20
  -5 -11   4  390.36   16.70
  11  -5   4  409.76   19.70
  11  -5   4  435.46   21.50
 -11   5   4  426.06   17.20
   5  11   4  397.16   21.30
   5  11   4  366.96   20.20
 -11   5   4  398.06   20.80
  -5 -11   4  385.96   15.30
 -11   5   4  389.36   18.10
 -11   7  -4  975.10   34.70
   7  11  -4  918.11   30.20
 -11   7  -4  902.61   34.70
  11  -7  -4  900.51   34.20
   7  11  -4  930.21   36.50
  -7 -11  -4  891.31   34.50
   7  11  -4  917.21   33.90
   7  11  -4  977.10   34.00
  11  -7  -4  923.41   32.90
 -11   7  -4  924.21   32.80
  -7 -11   4  910.01   30.10
   7  11   4  916.41   35.40
  11  -7   4  945.41   34.60
  11  -7   4  934.11   35.30
  -7 -11   4  942.61   33.00
   7  11   4  867.31   36.80
 -11   7   4  879.91   35.40
  11  -7   4  915.01   34.40
 -11   7   4  896.91   33.40
 -11   7   4  943.61   32.60
  11  -9  -4  232.58   16.30
  11  -9  -4  236.88   17.10
 -11   9  -4  234.98   19.20
   9  11  -4  239.88   17.80
 -11   9  -4  279.37   18.30
 -11   9  -4  265.37   17.10
   9  11  -4  261.07   17.20
   9  11  -4  275.77   21.70
   9  11  -4  244.18   11.90
  -9 -11  -4  239.08   18.10
 -11   9   4  253.77   20.60
 -11   9   4  250.17   16.60
   9  11   4  234.38   21.00
 -11   9   4  274.57   19.10
  -9 -11   4  251.77   12.20
  -9 -11   4  249.58   17.20
  11  -9   4  254.27   18.30
   9  11   4  221.98   20.10
  11  -9   4  260.07   21.40
  11  -9   4  270.67   18.70
 -11  11  -4   35.60   12.70
  11 -11  -4   59.99   17.00
  11  11  -4   40.40   10.90
  11  11  -4   42.90    6.20
 -11  11  -4   50.69   10.30
 -11 -11  -4   38.70   11.70
  11  11  -4   52.59   21.00
  11 -11  -4   44.90   11.30
 -11  11   4   51.39   13.40
  11  11   4   47.10   13.40
 -11 -11   4   40.90   11.90
  11 -11   4   53.09   11.30
  11 -11   4   44.00   11.60
 -11  11   4   48.50   19.60
  11 -11   4   39.90   13.10
 -11 -11   4   38.60    6.30
  12  10  -4  345.77   15.70
 -12 -10  -4  391.86   24.30
  10 -12  -4  418.56   21.90
  10 -12  -4  405.76   22.30
  12  10  -4  358.66   26.70
  12  10  -4  375.06   22.60
 -10  12  -4  381.26   24.20
 -12 -10   4  367.26   24.30
  12  10   4  370.06   19.80
 -10  12   4  373.66   26.00
  12  10   4  392.46   26.40
 -10  12   4  407.16   26.00
  10 -12   4  379.36   23.60
 -12 -10   4  388.76   16.10
  10 -12   4  427.86   26.80
  10 -12   4  353.56   23.10
 -10  12   4  398.26   22.90
  -8  12  -4   70.59   10.60
  12   8  -4   75.49   11.50
  -8  12  -4   83.19   11.80
  12   8  -4   84.49   12.50
   8 -12  -4   82.69   10.80
  -8  12  -4   82.09   10.60
   8 -12  -4   64.59    9.90
 -12  -8  -4   70.29   11.40
  12   8  -4   81.59    8.20
  -8  12   4   61.99   13.00
 -12  -8   4   60.29    8.10
 -12  -8   4   50.39   11.00
  -8  12   4   74.79   12.60
   8 -12   4   70.19   11.80
  12   8   4   78.69    9.60
  -8  12   4   71.99   11.30
   8 -12   4   71.49   11.50
  12   8   4   81.49   16.60
  12   6  -4  839.62   29.60
  12   6  -4  974.30   34.80
  12   6  -4  877.41   33.60
  -6  12  -4  927.01   33.70
 -12  -6  -4  866.91   34.20
   6 -12  -4  916.41   33.60
   6 -12  -4  956.60   34.10
  -6  12  -4  913.41   34.50
  -6  12  -4  924.61   34.10
 -12  -6   4  944.41   35.90
   6 -12   4  904.81   34.80
   6 -12   4  920.11   34.30
  12   6   4  909.11   33.60
  -6  12   4  898.61   35.90
  -6  12   4  888.21   35.90
   6 -12   4  885.81   33.80
  12   6   4  943.71   36.40
 -12  -6   4  906.01   29.80
  -6  12   4  890.01   34.80
   4 -12  -4  124.69   12.70
   4 -12  -4  111.89   12.60
  -4  12  -4  110.69   11.70
  12   4  -4  130.09   13.60
  12   4  -4  116.49   13.80
  -4  12  -4  129.39   13.40
 -12  -4  -4  125.99   14.50
  12   4  -4  114.29    8.20
  -4  12  -4   99.39   11.50
  -4  12   4  115.99   12.20
   4 -12   4  116.59   12.50
  12   4   4   90.09   11.30
   4 -12   4  117.29   13.60
   4 -12   4  121.09   15.40
 -12  -4   4  127.19    9.30
  12   4   4  106.89   13.20
 -12  -4   4  113.19   15.20
  -4  12   4  107.49   12.00
  -4  12   4   88.59   10.90
  -2  12  -4  414.36   17.50
  12   2  -4  388.56   20.00
  -2  12  -4  408.06   20.50
   2 -12  -4  411.36   19.20
  -2  12  -4  388.76   20.60
 -12  -2  -4  408.46   17.60
  12   2  -4  404.06   15.50
  12   2  -4  412.96   19.00
  -2  12  -4  411.96   18.90
   2 -12  -4  385.56   18.90
 -12  -2  -4  432.76   19.30
 -12  -2   4  414.96   18.80
  12   2   4  415.06   20.90
  -2  12   4  421.86   21.70
  12   2   4  402.06   18.50
   2 -12   4  397.36   18.20
  -2  12   4  414.76   21.40
   2 -12   4  373.56   19.30
  -2  12   4  428.16   21.60
  12   2   4  402.86   19.90
 -12  -2   4  402.76   16.10
  12   0  -4  113.99   12.90
   0  12  -4  129.79   11.90
 -12   0  -4  128.99   16.50
   0  12  -4  113.99   13.50
 -12   0  -4  119.49   11.30
  12   0  -4   98.49    8.60
   0 -12  -4  111.29   11.90
  12   0  -4  129.69   12.20
 -12   0  -4  145.99   12.30
   0  12  -4  104.19   13.80
   0  12  -4  110.09    9.80
  12   0   4   92.39   10.40
 -12   0   4  101.79    9.80
  12   0   4  123.89   11.40
 -12   0   4  122.89   13.10
   0  12   4  122.99   12.50
   0  12   4  123.19   15.60
  12   0   4  125.29   13.30
   0  12   4  132.59   14.70
  12   0   4  110.29   12.70
   0  12   4  129.19   15.20
   0 -12   4  117.39   12.50
   0 -12   4  120.49   10.40
 -12   2  -4  275.07   16.60
  12  -2  -4  224.08   11.90
   2  12  -4  229.98   11.90
  12  -2  -4  234.68   15.70
  -2 -12  -4  219.38   14.40
  12  -2  -4  237.58   14.10
 -12   2  -4  257.47   14.70
  -2 -12  -4  251.07   16.10
   2  12  -4  232.08   17.40
   2  12  -4  244.38   13.60
   2  12  -4  229.08   16.30
   2  12   4  252.97   18.20
   2  12   4  236.48   17.20
  12  -2   4  231.58   14.30
 -12   2   4  218.38   15.60
  -2 -12   4  249.68   15.80
   2  12   4  230.48   15.50
  12  -2   4  226.98   15.90
  12  -2   4  214.28   14.90
  12  -2   4  233.58   19.90
 -12   2   4  215.78   12.60
  -2 -12   4  224.98   12.30
   2  12   4  249.48   16.60
  -4 -12  -4  391.56   19.10
  12  -4  -4  374.46   19.90
   4  12  -4  382.56   19.90
   4  12  -4  376.56   16.70
   4  12  -4  376.16   21.50
   4  12  -4  393.76   15.50
  12  -4  -4  393.26   17.00
  12  -4  -4  421.36   18.00
 -12   4  -4  380.96   18.90
  -4 -12   4  379.16   15.90
  12  -4   4  394.76   19.70
  -4 -12   4  382.86   19.90
 -12   4   4  392.06   20.40
  12  -4   4  389.66   21.60
 -12   4   4  392.36   17.80
   4  12   4  375.96   19.80
   4  12   4  411.36   22.20
  12  -4   4  417.66   20.10
 -12   6  -4   38.60    8.10
   6  12  -4   41.00   10.70
  12  -6  -4   45.80    7.40
   6  12  -4   46.90    5.50
  12  -6  -4   41.00    9.20
 -12   6  -4   49.70    9.30
  -6 -12  -4   50.99    9.50
   6  12  -4   51.99    9.60
  -6 -12   4   42.80    5.70
  12  -6   4   48.30   10.10
  12  -6   4   43.80    9.00
 -12   6   4   61.69    8.70
   6  12   4   39.90    9.60
 -12   6   4   50.69   11.20
  12  -6   4   53.39   11.70
   6  12   4   30.10   10.80
  -6 -12   4   45.10    9.60
  -6 -12   4   42.30    7.60
  12  -8  -4  711.73   29.40
   8  12  -4  688.33   24.90
   8  12  -4  715.93   29.00
   8  12  -4  749.53   32.50
   8  12  -4  679.33   29.80
  12  -8  -4  717.83   27.90
 -12   8  -4  662.93   32.30
 -12   8   4  759.72   34.60
   8  12   4  736.13   32.70
   8  12   4  710.03   33.50
 -12   8   4  729.13   36.30
  12  -8   4  779.42   32.10
  -8 -12   4  681.83   27.20
  12  -8   4  774.12   30.90
  -8 -12   4  692.73   28.20
 -12   8   4  816.72   44.00
  10  12  -4  186.68   23.00
  12 -10  -4  184.08   17.80
  10  12  -4  157.48   18.40
  10  12  -4  159.58   10.80
 -10 -12  -4  152.08   19.40
  12 -10  -4  164.08   19.00
 -12  10  -4  150.08   16.00
  12 -10   4  153.18   18.80
 -10 -12   4  134.29   11.20
  10  12   4  135.69   15.80
 -12  10   4  159.18   20.40
 -10 -12   4  145.09   17.30
  12 -10   4  173.68   19.50
 -12  10   4  141.79   16.20
  10  12   4  171.58   20.80
  12 -12  -4   79.79   13.30
  12  12  -4   70.99   12.80
  12 -12  -4   89.79   12.70
 -12  12  -4   67.39   15.20
  12  12  -4  100.59   17.70
  12  12  -4   84.39    8.30
 -12 -12  -4   67.99   14.20
 -12 -12   4   95.69   11.80
  12  12   4   70.29   15.40
  12 -12   4   90.79   20.00
 -12  12   4   62.99   15.10
  12  12   4   56.19   15.70
 -12 -12   4  101.09   14.00
  12 -12   4  108.09   14.70
 -12  12   4   69.09   15.40
  13  11  -4  214.28   26.40
  13  11  -4  141.29   12.50
 -11  13  -4  164.18   19.90
 -11  13  -4  165.78   22.30
  13  11  -4  170.98   20.90
 -13 -11  -4  157.38   17.10
  11 -13  -4  222.08   21.50
 -13 -11   4  177.38   13.30
  11 -13   4  187.48   23.40
 -13 -11   4  191.18   24.10
  13  11   4  201.98   25.20
 -11  13   4  208.28   24.80
  11 -13   4  161.88   22.10
 -11  13   4  199.28   26.70
  13   9  -4  189.38   23.20
  13   9  -4  192.08   19.00
  -9  13  -4  187.58   19.50
  -9  13  -4  193.48   19.30
   9 -13  -4  199.48   18.70
 -13  -9  -4  185.08   21.30
  -9  13  -4  153.88   20.40
  13   9  -4  167.68   11.50
   9 -13   4  188.68   21.30
 -13  -9   4  153.28   15.90
  13   9   4  181.98   17.70
  -9  13   4  195.68   19.90
  -9  13   4  181.38   24.40
   9 -13   4  172.78   21.80
 -13  -9   4  177.78   11.60
   9 -13   4  181.38   19.80
  13   9   4  150.28   21.50
  -9  13   4  151.38   16.40
  -7  13  -4   63.39   12.80
  -7  13  -4   49.30   17.70
  13   7  -4   80.59   12.20
  -7  13  -4   54.99    9.90
 -13  -7  -4   76.69   12.10
  13   7  -4   72.39   11.10
  13   7   4   71.99   17.00
   7 -13   4   72.79   11.60
 -13  -7   4   51.79   12.90
   7 -13   4   56.69   11.40
  13   7   4   72.09   10.10
  -7  13   4   97.49   13.70
  -7  13   4   55.69   13.90
  -7  13   4   91.29   12.50
   7 -13   4   78.49   10.80
   5 -13  -4   53.99    9.10
  13   5  -4   54.89    6.30
  -5  13  -4   59.19   10.10
  -5  13  -4   54.59    8.60
  -5  13  -4   55.19   10.70
 -13  -5  -4   53.09   14.00
   5 -13  -4   45.40    8.80
  13   5  -4   72.59    9.70
   5 -13   4   50.49    9.30
  13   5   4   47.00    9.60
 -13  -5   4   43.60    6.20
 -13  -5   4   52.79   10.60
  13   5   4   40.20   11.20
  -5  13   4   63.59   11.00
  -5  13   4   66.09   12.60
  -5  13   4   79.09   12.50
   5 -13   4   80.09   10.40
   5 -13   4   56.29   10.70
  13   3  -4  153.58   10.10
  -3  13  -4  140.59   14.30
 -13  -3  -4  146.39   15.60
  -3  13  -4  138.29   16.90
   3 -13  -4  168.88   13.90
  13   3  -4  179.28   15.00
  -3  13  -4  163.28   15.70
  -3  13  -4  166.38   13.10
   3 -13  -4  168.28   22.90
  -3  13   4  149.99   14.20
 -13  -3   4  149.39   17.60
  -3  13   4  173.28   18.90
  13   3   4  145.49   17.00
  -3  13   4  150.68   16.90
   3 -13   4  152.38   15.70
  13   3   4  178.08   14.80
 -13  -3   4  166.78   10.80
   3 -13   4  156.38   13.70
  -1  13  -4    5.90    9.00
  13   1  -4    9.70    4.70
  -1  13  -4    9.50    7.40
 -13  -1  -4    6.80    7.90
  13   1  -4   10.60    8.10
  -1  13  -4   15.70    6.00
  13   1  -4   18.00    7.60
  -1  13  -4    6.10    8.20
 -13  -1  -4    8.70    6.80
 -13  -1   4    5.00    7.40
  -1  13   4   13.10    9.40
   1 -13   4    4.10    6.20
  -1  13   4   -1.80    9.80
  13   1   4   -8.00    7.40
 -13  -1   4   14.20    5.70
  -1  13   4    6.20    6.60
  -1  13   4    0.20    9.70
  13   1   4   15.60    8.80
   1 -13   4   13.70    7.00
  -1 -13  -4  296.77   25.60
  -1 -13  -4  267.47   16.60
   1  13  -4  272.07   19.10
  13  -1  -4  266.07   17.40
   1  13  -4  288.27   14.40
  13  -1  -4  289.17   13.60
   1  13  -4  291.37   15.50
  13  -1  -4  300.87   16.50
 -13   1  -4  307.87   16.50
 -13   1  -4  281.67   16.10
   1  13  -4  276.67   18.80
  13  -1   4  293.97   18.30
  -1 -13   4  285.97   14.50
 -13   1   4  281.47   14.90
   1  13   4  303.97   20.40
   1  13   4  287.87   19.80
 -13   1   4  279.37   17.60
  13  -1   4  242.68   16.70
  -1 -13   4  278.87   17.00
   1  13   4  311.27   19.10
   1  13   4  280.37   16.70
  13  -3  -4  597.14   23.60
  13  -3  -4  590.14   25.50
   3  13  -4  568.34   21.80
   3  13  -4  604.74   26.40
   3  13  -4  632.34   22.90
 -13   3  -4  567.94   24.70
   3  13  -4  587.04   26.70
  13  -3  -4  587.24   22.80
  -3 -13  -4  604.44   25.00
   3  13   4  618.44   29.50
  13  -3   4  616.54   26.60
  13  -3   4  563.94   25.30
   3  13   4  614.24   26.10
 -13   3   4  556.74   23.20
 -13   3   4  602.54   26.30
  -3 -13   4  561.94   22.00
  -3 -13   4  603.24   25.50
  13  -5  -4  284.27   15.40
 -13   5  -4  254.57   18.30
  -5 -13  -4  275.67   17.90
   5  13  -4  264.97   13.20
   5  13  -4  297.07   20.70
  13  -5  -4  269.47   18.70
   5  13  -4  304.67   22.00
 -13   5   4  302.47   20.00
   5  13   4  275.97   18.80
   5  13   4  277.87   21.70
  13  -5   4  268.97   18.50
  -5 -13   4  270.37   13.70
  13  -5   4  271.47   18.90
  -5 -13   4  241.88   18.70
 -13   5   4  299.17   16.70
  13  -7  -4   49.70   12.90
   7  13  -4   61.39    6.80
  13  -7  -4   69.39   14.10
   7  13  -4   65.69   11.10
   7  13  -4   74.79   22.30
  -7 -13  -4   66.49   11.20
  -7 -13   4   86.59    9.70
  -7 -13   4   53.19   10.80
   7  13   4   71.89   13.30
  13  -7   4   60.49   11.00
 -13   7   4   55.99   15.10
  13  -7   4   58.69   10.70
  -7 -13   4   75.89   10.10
   9  13  -4  152.38   19.20
  13  -9  -4  176.78   19.10
   9  13  -4  169.38   11.90
   9  13  -4  173.38   18.80
  -9 -13  -4  162.88   19.20
 -13   9  -4  191.78   20.60
  13  -9  -4  199.48   17.40
   9  13  -4  163.48   22.70
   9  13   4  195.48   22.50
  13  -9   4  166.88   19.90
  -9 -13   4  193.68   13.30
   9  13   4  213.38   23.30
  13  -9   4  205.48   20.20
 -13   9   4  178.28   20.30
 -13   9   4  213.18   23.00
  13 -11  -4   36.50   12.50
  13 -11  -4   48.20   11.80
  11  13  -4   42.00   12.30
  11  13  -4   44.50    7.60
 -11 -13  -4   56.99   14.10
 -13  11  -4   39.90   14.80
  11  13  -4   46.40   16.00
 -11 -13   4   60.79    8.20
 -13  11   4   49.00   14.50
 -11 -13   4   42.10   11.90
  11  13   4   46.80   15.80
 -13  11   4   64.39   15.30
  13 -11   4   34.70   12.50
  13  13  -4  146.79   14.50
 -13 -13  -4  160.88   19.00
  13 -13  -4   90.19   15.80
 -13  13  -4  128.59   17.30
  13 -13  -4  126.69   15.80
  13  13  -4  126.19   17.70
  13  13  -4  132.99   20.20
  13  13   4  116.69   19.40
 -13 -13   4   91.99   15.50
  13 -13   4  139.79   16.50
 -13 -13   4  121.49   14.60
 -13  13   4  141.49   19.20
 -13  13   4  162.98   20.30
  12 -14  -4    4.00   13.90
  14  12  -4   14.10   13.80
 -14 -12  -4  -18.70   15.00
 -12  14  -4  -15.10   14.50
  14  12  -4   -1.00    7.70
  14  12  -4   10.70   17.60
 -12  14  -4   19.70   13.20
  14  12   4    7.10   16.60
 -12  14   4   -6.40   16.60
  12 -14   4   15.80   14.40
 -14 -12   4   -4.80   14.20
 -14 -12   4    6.40    8.10
 -10  14  -4  265.77   25.00
 -14 -10  -4  296.67   25.20
  10 -14  -4  309.47   23.30
  14  10  -4  270.27   15.10
 -10  14  -4  295.47   23.20
  14  10  -4  288.17   23.70
  14  10  -4  274.67   28.30
 -14 -10   4  323.57   15.90
 -14 -10   4  295.17   27.60
  14  10   4  301.07   27.60
  10 -14   4  315.87   24.70
  10 -14   4  293.77   28.10
 -10  14   4  304.77   27.90
 -10  14   4  255.57   25.10
  10 -14   4  313.57   24.80
  14  10   4  282.37   21.40
 -10  14   4  269.47   29.40
  14   8  -4  109.29   13.20
  -8  14  -4   86.59   12.50
  14   8  -4  124.79   21.30
  14   8  -4   90.79   10.50
   8 -14  -4  100.09   12.30
  -8  14  -4  102.39   13.60
 -14  -8  -4  112.89   14.60
  -8  14  -4   78.19   13.20
  14   8   4   91.09   14.90
  -8  14   4  111.69   15.90
  14   8   4   78.69   12.20
  -8  14   4  124.39   14.90
  -8  14   4  122.79   16.80
 -14  -8   4   95.39   11.30
   8 -14   4  103.99   13.30
   8 -14   4  115.59   14.10
   8 -14   4  126.99   14.80
 -14  -8   4  102.49   14.80
  14   6  -4  356.66   25.90
  -6  14  -4  367.86   24.30
  -6  14  -4  328.47   21.90
  14   6  -4  307.97   15.40
  -6  14  -4  299.47   23.90
 -14  -6  -4  337.97   23.50
   6 -14  -4  341.97   20.20
  14   6   4  317.47   21.00
   6 -14   4  313.17   20.40
 -14  -6   4  355.36   22.60
 -14  -6   4  326.47   15.80
  -6  14   4  324.67   26.30
  14   6   4  338.47   23.90
   6 -14   4  313.37   22.70
  -6  14   4  322.97   23.40
   6 -14   4  308.37   24.20
  -4  14  -4  232.68   16.60
   4 -14  -4  224.38   18.00
  -4  14  -4  209.28   17.30
 -14  -4  -4  193.98   18.90
  14   4  -4  214.28   18.30
 -14  -4   4  206.48   27.60
  14   4   4  225.98   17.90
   4 -14   4  214.38   24.00
   4 -14   4  194.68   18.90
  14   4   4  234.98   20.30
  -4  14   4  237.28   22.10
   4 -14   4  140.09   17.10
  -4  14   4  216.48   23.00
  -2  14  -4  311.17   19.30
  14   2  -4  296.47   18.90
   2 -14  -4  300.07   18.50
  14   2  -4  290.97   19.70
  -2  14  -4  278.97   21.10
 -14  -2  -4  277.87   19.30
  -2  14  -4  264.47   15.90
  14   2  -4  284.27   14.30
  -2  14  -4  277.67   17.90
   2 -14   4  314.07   19.10
  -2  14   4  299.77   22.80
  14   2   4  304.67   21.60
  -2  14   4  261.57   34.50
  14   2   4  306.17   19.70
 -14  -2   4  293.07   15.60
  -2  14   4  325.47   22.70
 -14  -2   4  286.07   22.50
   2 -14   4  266.07   17.00
  14   0  -4 1145.49   41.80
   0 -14  -4 1149.48   40.90
  14   0  -4 1187.48   40.30
   0  14  -4 1121.39   42.40
 -14   0  -4 1156.88   40.20
   0  14  -4 1118.99   42.60
  14   0  -4 1121.09   38.20
   0  14  -4 1150.58   39.20
 -14   0  -4 1144.89   39.30
   0  14  -4 1164.48   39.40
 -14   0   4 1196.78   40.90
  14   0   4 1138.29   41.40
   0 -14   4 1109.09   40.90
 -14   0   4 1144.19   38.70
   0 -14   4 1117.49   39.10
   0  14   4 1137.39   40.10
  14   0   4 1182.98   42.20
   0  14   4 1117.59   43.50
   0  14   4 1126.29   42.40
  14  -2  -4  132.49   14.70
   2  14  -4  134.19   16.90
   2  14  -4  135.49   13.00
 -14   2  -4  124.29   14.40
  -2 -14  -4  117.39   15.20
  14  -2  -4  139.59   11.60
  14  -2  -4  127.39   16.20
   2  14  -4  103.99   12.50
   2  14  -4  105.69   11.40
 -14   2   4  126.89   12.80
   2  14   4  105.19   14.00
  14  -2   4  134.89   17.00
  -2 -14   4  124.79   11.60
  14  -2   4  107.09   11.20
   2  14   4  102.09   11.30
 -14   2   4  126.99   12.80
  -2 -14   4   83.89   10.40
   4  14  -4  375.56   22.80
   4  14  -4  460.95   24.00
 -14   4  -4  403.66   21.80
  -4 -14  -4  418.56   28.90
   4  14  -4  438.16   35.30
  -4 -14   4  452.75   32.60
 -14   4   4  470.35   25.20
   4  14   4  469.75   24.00
  14  -4   4  457.35   24.10
   4  14   4  441.96   26.00
  -4 -14   4  397.86   22.40
   6  14  -4   70.29   13.30
 -14   6  -4   60.49   11.60
  14  -6  -4   77.89    9.40
  -6 -14  -4   57.69   10.80
  14  -6  -4   70.59   11.70
   6  14  -4   78.49   12.30
   6  14  -4   52.49    6.90
  -6 -14   4   70.19    7.90
   6  14   4   67.19   19.40
   6  14   4   43.70   12.00
  14  -6   4   79.99   11.60
  -6 -14   4   62.49   11.50
 -14   6   4   43.60   12.30
  14  -6   4   66.79   11.90
 -14   6   4   50.39   10.10
   8  14  -4  221.78   13.50
  -8 -14  -4  219.08   20.70
  14  -8  -4  201.78   17.50
  14  -8  -4  262.27   20.80
   8  14  -4  224.68   24.70
   8  14  -4  189.68   21.60
 -14   8  -4  249.68   22.00
  -8 -14   4  270.37   21.40
  14  -8   4  228.08   21.00
   8  14   4  204.88   21.90
 -14   8   4  224.78   23.10
  14  -8   4  237.18   20.90
   8  14   4  244.38   25.50
 -14   8   4  243.08   21.00
  -8 -14   4  236.58   14.60
  10  14  -4   66.79   17.00
  10  14  -4   20.00    7.40
  14 -10  -4   31.00   13.00
 -14  10  -4    4.50   13.60
  10  14  -4   10.10   12.00
 -10 -14  -4   37.00   13.90
  14 -10  -4   26.80   11.60
 -14  10   4    2.90   14.80
  14 -10   4   34.30   12.00
 -14  10   4   48.80   14.10
 -10 -14   4   25.20   12.30
 -10 -14   4   17.80    7.90
  10  14   4   34.60   15.30
  12  14  -4  147.99   21.70
  14 -12  -4  119.79   16.80
  14 -12  -4  134.79   15.50
  12  14  -4  193.28   24.70
 -14  12  -4  119.39   17.70
 -12 -14  -4  150.48   18.00
  12  14  -4  112.19   14.40
  12  14   4  120.09   19.60
 -14  12   4  176.18   20.40
  14 -12   4  130.69   16.80
 -14  12   4   98.19   17.90
 -12 -14   4   99.09   15.50
 -12 -14   4  102.89   10.40
 -15 -11  -4   39.90   17.30
  11 -15  -4   39.60   14.00
 -11  15  -4   28.30   17.00
  15  11  -4   25.70   14.80
  15  11  -4   31.40    8.20
 -11  15  -4   50.09   13.80
 -15 -11   4   35.50   16.40
 -15 -11   4   29.70    8.80
 -11  15   4   24.60   17.20
  15  11   4   71.49   13.70
 -11  15   4   31.00   15.10
  11 -15   4   24.40   15.40
  15  11   4    9.90   17.00
 -15  -9  -4  180.18   23.90
  -9  15  -4  172.58   22.50
  15   9  -4  151.68   13.60
  -9  15  -4  168.18   22.70
  15   9  -4  170.78   22.80
   9 -15  -4  163.18   21.80
 -15  -9   4  151.88   14.00
  15   9   4  144.29   18.70
  -9  15   4  193.28   25.50
 -15  -9   4  159.68   18.40
   9 -15   4  148.49   16.40
   9 -15   4  191.98   24.90
  -9  15   4  195.68   20.00
  15   9   4  157.88   21.30
   9 -15   4  150.28   17.40
  -7  15  -4  256.07   21.90
  15   7  -4  228.58   14.50
 -15  -7  -4  265.37   24.70
  -7  15  -4  246.18   21.60
  -7  15  -4  184.58   21.10
   7 -15  -4  213.28   19.80
  15   7  -4  250.07   22.00
  15   7   4  232.48   21.60
  15   7   4  246.78   24.30
   7 -15   4  199.58   23.30
   7 -15   4  230.88   22.70
  -7  15   4  230.98   25.40
 -15  -7   4  203.28   14.60
 -15  -7   4  243.28   23.60
  -7  15   4  264.07   24.60
   7 -15   4  209.68   21.10
  15   5  -4   87.09   12.30
  -5  15  -4  102.09   14.10
  -5  15  -4   91.09   12.70
   5 -15  -4  131.19   18.10
  -5  15  -4   86.19   11.80
  15   5  -4  103.09   12.20
  -5  15   4  105.59   15.70
   5 -15   4   90.99   12.80
 -15  -5   4  118.09   15.10
  15   5   4   93.39   12.70
  15   5   4   95.99   14.40
 -15  -5   4   85.89    8.90
  -5  15   4  153.18   20.20
   5 -15   4  105.79   14.80
   5 -15   4   87.09   12.30
  -3  15  -4   26.90   12.60
   3 -15  -4   30.00    9.60
  -3  15  -4   16.10   11.00
  15   3  -4   26.30   10.40
  -3  15  -4   17.60    8.70
  -3  15  -4   25.80   10.50
 -15  -3  -4   24.50   11.10
  15   3  -4   30.80    6.60
   3 -15   4   36.10    9.60
  15   3   4   34.60   10.90
  -3  15   4   41.40   13.50
 -15  -3   4   24.30   11.80
  -3  15   4   18.80   12.00
   3 -15   4   26.60   10.30
  -1  15  -4  134.39   17.30
  -1  15  -4  129.99   14.10
  15   1  -4  112.39   11.70
  15   1  -4  143.29   17.00
 -15  -1  -4  134.59   17.40
   1 -15  -4   95.29   11.30
  15   1  -4  147.39   17.40
  -1  15  -4  117.89   11.50
  -1  15  -4  106.79   13.60
  -1  15   4  126.59   14.80
 -15  -1   4  114.29   13.40
   1 -15   4  140.79   16.10
  15   1   4  116.99   14.40
  -1  15   4  170.98   20.60
   1 -15   4  123.79   14.20
  15   1   4  111.09   13.30
  15  -1  -4  153.78   16.70
  15  -1  -4  147.09   12.60
  -1 -15  -4  154.88   17.30
   1  15  -4  144.79   18.80
   1  15  -4  143.49   18.50
  15  -1  -4  139.89   17.10
   1  15  -4  132.29   13.60
   1  15  -4  161.58   16.20
   1  15   4  152.68   16.20
 -15   1   4  139.89   18.10
   1  15   4  124.09   15.30
  15  -1   4  160.08   19.60
 -15   1   4  151.68   13.90
  -1 -15   4  109.99   12.20
  -1 -15   4  127.29   14.00
  15  -1   4  154.98   17.30
   3  15  -4   62.99    8.30
  15  -3  -4   55.49    8.30
   3  15  -4   45.30   11.70
   3  15  -4   69.29   12.70
  -3 -15  -4   52.59   10.60
  15  -3  -4   50.39   11.40
 -15   3  -4   51.39   10.40
 -15   3   4   50.69   11.90
 -15   3   4   61.79    9.40
   3  15   4   47.30   11.00
  15  -3   4   55.99   11.40
   3  15   4   51.49   13.60
  15  -3   4   57.49   11.80
  -3 -15   4   43.50   10.60
  -3 -15   4   51.69    8.30
 -15   5  -4   12.40   10.60
   5  15  -4   24.60   12.30
  15  -5  -4    4.40   10.80
   5  15  -4   17.80   12.00
  -5 -15  -4   20.30   10.40
   5  15  -4   28.80    7.20
  15  -5  -4   17.20    7.90
   5  15   4   24.70   11.80
  15  -5   4    4.70   10.20
   5  15   4    0.50   13.10
  -5 -15   4   19.20   10.50
  15  -5   4   25.90   11.50
 -15   5   4   20.70    9.40
 -15   5   4   10.60   12.00
  -5 -15   4    7.00    7.60
   7  15  -4  122.09   14.70
 -15   7  -4  139.49   14.60
   7  15  -4  116.69   16.40
   7  15  -4  128.69   12.70
  15  -7  -4  154.38   16.80
  15  -7  -4  163.88   19.00
  -7 -15  -4  133.59   14.70
  15  -7   4  128.09   17.20
   7  15   4  182.28   22.80
  -7 -15   4  142.29   14.00
 -15   7   4  128.39   16.00
  -7 -15   4  133.49   15.10
   7  15   4  158.48   17.60
  15  -7   4  161.78   20.60
 -15   7   4  117.19   13.50
   9  15  -4  156.48   19.70
  15  -9  -4  148.59   15.30
  15  -9  -4  202.98   20.10
  -9 -15  -4  175.88   22.60
 -15   9  -4  159.68   16.70
   9  15  -4  154.38   14.00
  -9 -15   4  160.98   16.90
 -15   9   4  144.39   18.10
  15  -9   4  126.69   15.40
  -9 -15   4  155.78   15.00
   9  15   4  163.98   18.50
 -15   9   4  186.08   23.60
   9  15   4  164.98   18.70
 -11 -15  -4   37.30   16.20
  15 -11  -4   54.39   15.10
  11  15  -4   52.39    9.40
 -15  11  -4   77.99   16.10
  15 -11  -4   69.59   13.50
  11  15  -4   44.00   18.30
  11  15   4   10.10   17.70
 -11 -15   4   45.90    9.80
 -11 -15   4   44.60   15.00
  15 -11   4   62.89   14.30
 -15  11   4   77.19   17.30
 -15  11   4   62.69   18.60
 -16 -10  -4   42.90   18.10
  16  10  -4   46.90    9.20
 -10  16  -4   24.40   14.40
  16  10  -4   14.60   14.80
 -10  16  -4   49.40   16.00
  10 -16  -4   36.40   14.20
  16  10   4   11.40   13.40
  10 -16   4   25.10   15.20
 -10  16   4   51.49   19.10
 -10  16   4   31.70   15.50
 -16 -10   4   30.60    9.00
 -16 -10   4   26.10   18.10
  16  10   4   27.30   17.10
  16   8  -4   90.49   15.40
  -8  16  -4   86.19   14.30
  16   8  -4   90.99    9.40
   8 -16  -4   98.79   14.90
  -8  16  -4   89.79   15.70
 -16  -8  -4   72.59   17.10
  -8  16  -4   73.59   15.00
  16   8   4   99.49   14.80
   8 -16   4   99.29   15.00
  -8  16   4   78.99   16.40
 -16  -8   4   88.99    9.90
  -8  16   4  122.29   19.30
  16   8   4  109.59   18.20
   8 -16   4   97.29   16.30
   8 -16   4   74.99   15.80
 -16  -8   4   80.09   16.90
  -6  16  -4  148.59   20.80
   6 -16  -4  136.89   14.70
  -6  16  -4  125.49   16.10
  16   6  -4  135.79   14.40
 -16  -6  -4  142.49   17.10
  16   6  -4  149.49   15.50
  -6  16  -4  130.79   15.60
   6 -16   4  135.99   14.70
   6 -16   4  148.89   16.80
  -6  16   4  119.29   18.00
 -16  -6   4  125.09   14.50
   6 -16   4  144.39   16.20
  16   6   4  141.19   15.60
  -6  16   4  151.98   17.30
 -16  -6   4  139.59   16.70
  16   6   4  101.29   16.00
 -16  -4  -4  628.44   30.40
  -4  16  -4  595.34   27.60
  -4  16  -4  585.14   31.60
  16   4  -4  564.54   24.10
  -4  16  -4  559.94   28.20
   4 -16  -4  577.44   28.00
  16   4  -4  574.94   29.30
 -16  -4   4  524.45   31.10
  16   4   4  573.54   30.00
   4 -16   4  555.34   28.70
  -4  16   4  585.14   31.20
  -4  16   4  586.24   33.20
   4 -16   4  609.54   28.30
  16   4   4  586.14   28.80
 -16  -4   4  575.14   24.20
   4 -16   4  580.84   30.60
  -2  16  -4   25.20   12.70
   2 -16  -4   35.40   10.60
  -2  16  -4   27.70   12.00
 -16  -2  -4   33.80   12.30
  16   2  -4   36.40    7.40
  -2  16  -4   25.30    9.80
  -2  16  -4   34.40   10.80
  -2  16   4   23.20   13.80
  16   2   4   30.40   13.50
   2 -16   4   44.90   12.30
   2 -16   4   28.90   10.30
  -2  16   4   33.90   13.80
  16   2   4   34.90   11.80
 -16  -2   4   31.70    9.00
 -16  -2   4   45.20   14.10
  16   0  -4  290.27   20.80
   0 -16  -4  247.58   19.90
   0  16  -4  232.38   22.30
  16   0  -4  272.97   21.40
   0  16  -4  246.78   22.80
   0  16  -4  249.68   17.50
  16   0  -4  253.67   16.00
   0  16   4  248.28   24.00
   0 -16   4  249.08   20.00
 -16   0   4  248.28   17.30
  16   0   4  287.27   21.40
   0 -16   4  250.87   18.50
  16   0   4  230.58   25.80
  -2 -16  -4   70.99   11.90
  16  -2  -4   70.39   12.80
   2  16  -4   75.09    9.90
  16  -2  -4   69.39    9.20
   2  16  -4   90.29   14.20
   2  16  -4   54.59   13.40
   2  16   4   77.19   13.60
  -2 -16   4   63.49    9.70
 -16   2   4   79.19   13.70
  16  -2   4   57.09   12.30
 -16   2   4   55.79    9.60
  -2 -16   4   53.99   11.80
   2  16   4   42.00   14.40
  -4 -16  -4  134.59   14.70
   4  16  -4  121.99   14.40
 -16   4  -4  164.98   20.00
   4  16  -4  115.39   14.90
  16  -4  -4  155.48   15.40
  16  -4  -4  150.98   20.60
   4  16  -4  119.49   16.20
   4  16   4  159.68   20.60
   4  16   4  161.08   17.50
 -16   4   4  118.39   12.70
  -4 -16   4  140.99   14.20
 -16   4   4  121.19   15.50
  -4 -16   4  151.98   15.10
  16  -4   4  172.88   20.30
   6  16  -4   79.59    9.50
  -6 -16  -4   85.59   14.30
  16  -6  -4   66.89   13.40
 -16   6  -4   52.29   13.70
   6  16  -4   75.89   15.00
  16  -6  -4   72.79   10.80
   6  16  -4   65.79   16.50
   6  16   4   57.99   14.60
  16  -6   4   69.89   14.10
 -16   6   4   55.29   15.10
 -16   6   4   48.80   12.00
  -6 -16   4   47.20    9.80
   6  16   4   56.39   16.80
  -6 -16   4   82.19   14.30
 -16   8  -4  108.19   16.00
  -8 -16  -4  114.69   16.40
  16  -8  -4   94.99   13.10
   8  16  -4   93.69   15.70
   8  16  -4   88.39   18.30
   8  16  -4   87.29   10.00
  16  -8  -4  106.19   14.40
 -16   8   4   91.39   17.50
   8  16   4   98.79   18.00
  16  -8   4   93.79   15.20
  -8 -16   4   84.69   15.50
 -16   8   4  115.09   15.60
   8  16   4   91.59   17.10
  -8 -16   4   92.39   10.60
  10  16  -4  449.46   21.40
  10  16  -4  431.16   34.90
  16 -10  -4  416.16   26.80
 -10 -16  -4  419.86   30.60
  16 -10  -4  390.66   29.50
 -16  10  -4  481.55   29.90
 -10 -16   4  433.26   22.60
 -16  10   4  441.96   33.30
 -10 -16   4  390.46   29.80
 -16  10   4  462.15   32.90
  10  16   4  406.96   33.00
  16 -10   4  482.85   29.90
   7 -17  -4   64.79   14.40
  17   7  -4   47.80   15.40
  -7  17  -4   29.70   15.30
  -7  17  -4   46.60   15.20
  17   7  -4   50.89    9.60
  -7  17  -4   39.50   13.80
 -17  -7  -4   59.79   17.50
  -7  17   4   48.40   16.50
  -7  17   4   36.90   18.40
   7 -17   4   33.10   14.40
 -17  -7   4   35.90    9.60
   7 -17   4   51.29   15.30
   7 -17   4   40.70   15.70
 -17  -7   4   64.29   17.00
  17   7   4   58.79   16.80
  17   7   4   34.90   13.80
 -17  -5  -4  198.38   25.70
  17   5  -4  132.89   11.50
   5 -17  -4  122.09   15.30
  -5  17  -4  120.79   17.20
  -5  17  -4  110.59   15.30
  -5  17  -4  138.99   15.00
  17   5  -4  137.89   16.00
   5 -17   4  151.58   18.40
 -17  -5   4  161.68   16.60
  -5  17   4  154.28   19.10
  -5  17   4  150.78   19.50
   5 -17   4  139.09   15.50
   5 -17   4  140.49   16.30
  17   5   4  145.19   17.00
 -17  -5   4  117.49   18.00
  17   5   4  120.39   17.50
  -3  17  -4   64.49   16.00
  17   3  -4   56.69    9.60
  17   3  -4   68.59   13.30
 -17  -3  -4   54.59   14.70
  -3  17  -4   64.49   13.20
  -3  17  -4   60.19   11.90
   3 -17  -4   65.89   13.10
 -17  -3   4   65.09   15.90
   3 -17   4   56.19   13.70
   3 -17   4   56.79   15.70
  -3  17   4   64.49   16.60
  17   3   4   74.49   13.90
 -17  -3   4   71.29   10.70
  17   3   4   78.59   15.00
  -3  17   4   51.29   17.20
   3 -17   4   76.39   13.10
  -1  17  -4   83.09   14.90
  17   1  -4   72.89    9.50
   1 -17  -4   72.59   13.20
  17   1  -4   96.89   13.80
  -1  17  -4   85.89   15.60
  -1  17  -4   85.39   11.80
 -17  -1   4  102.99   16.60
   1 -17   4   80.19   13.40
  -1  17   4   55.49   16.20
 -17  -1   4   86.99   10.80
  17   1   4   92.59   16.00
   1 -17   4   73.69   12.10
  17   1   4   74.29   13.40
   1  17  -4  161.98   17.60
  -1 -17  -4  151.68   15.40
  17  -1  -4  192.58   16.40
   1  17  -4  183.78   24.30
   1  17  -4  185.48   17.30
  17  -1  -4  170.08   22.70
 -17   1   4  172.78   18.10
  -1 -17   4  170.58   18.50
  -1 -17   4  212.48   22.30
  17  -1   4  173.58   17.30
   1  17   4  192.68   25.50
  17  -1   4  172.88   23.00
   3  17  -4  298.47   19.60
  17  -3  -4  319.27   19.80
  17  -3  -4  358.36   25.90
   3  17  -4  340.27   27.00
  -3 -17  -4  360.16   24.20
   3  17  -4  332.27   26.30
  17  -3   4  344.47   25.50
  -3 -17   4  327.77   24.20
 -17   3   4  295.97   21.70
  -3 -17   4  344.97   20.50
   3  17   4  313.77   29.20
   3  17   4  345.17   24.30
 -17   3   4  360.46   25.50
 -17   5  -4  141.39   15.20
   5  17  -4  149.39   17.50
  17  -5  -4  186.68   23.30
   5  17  -4  156.18   18.80
  -5 -17  -4  155.28   21.50
  17  -5  -4  183.58   18.10
   5  17  -4  173.88   16.50
  -5 -17   4  185.38   17.20
   5  17   4  165.38   20.30
  -5 -17   4  146.79   16.30
   5  17   4  180.38   23.30
  17  -5   4  212.28   23.30
 -17   5   4  164.08   18.30
 -17   5   4  156.78   20.60
   7  17  -4   52.79   10.40
 -17   7  -4   81.49   14.90
   7  17  -4   61.39   17.80
   7  17  -4   35.60   15.10
  -7 -17  -4   58.79   15.20
  17  -7  -4   74.69   15.00
  17  -7  -4   58.99   12.50
  -7 -17   4   40.70   10.90
   7  17   4   49.90   16.60
  -7 -17   4   37.60   14.70
 -17   7   4   66.59   18.10
  17  -7   4   80.19   15.10
   7  17   4   25.00   18.70
 -17   7   4   69.49   14.60
 -18  -6  -4   15.00   17.60
  -6  18  -4   35.10   15.70
  18   6  -4   35.00   16.10
  -6  18  -4   33.80   16.00
  -6  18  -4   20.30   13.90
   6 -18  -4   64.19   16.20
  18   6  -4   42.30   11.20
  18   6   4   25.90   15.20
 -18  -6   4   47.90   18.10
   6 -18   4   33.10   16.70
 -18  -6   4   40.10   11.40
   6 -18   4   53.19   16.50
   6 -18   4   37.40   15.10
  -6  18   4   61.99   20.00
  -6  18   4   21.50   16.90
  18   6   4   60.79   17.80
   4 -18  -4  188.08   17.90
  -4  18  -4  171.48   20.00
  18   4  -4  164.98   17.40
  18   4  -4  149.99   17.60
  -4  18  -4  166.78   17.20
  -4  18  -4  170.58   22.80
  18   4   4  164.08   18.90
  18   4   4  161.08   17.70
   4 -18   4  141.59   20.10
 -18  -4   4  139.99   18.20
 -18  -4   4  177.58   20.30
  -4  18   4  163.58   20.20
   4 -18   4  148.49   17.50
   4 -18   4  159.48   17.90
  -2  18  -4  153.88   20.90
  18   2  -4  165.88   17.90
  -2  18  -4  151.38   18.60
  -2  18  -4  172.48   24.70
  18   2  -4  124.89   16.40
   2 -18  -4  156.28   21.40
   2 -18   4  181.58   22.30
 -18  -2   4  151.88   19.00
 -18  -2   4  159.58   19.20
  18   2   4  160.18   17.40
   2 -18   4  120.39   16.00
  -2  18   4  170.78   20.20
  18   2   4  155.28   18.60
   0  18  -4   89.29   12.50
   0 -18  -4   55.79   13.60
  18   0  -4   86.79   10.80
   0  18  -4   65.29   16.50
   0  18  -4   96.89   17.10
   0  18   4  110.19   18.60
 -18   0   4   90.29   11.70
   0 -18   4   85.39   13.30
  18   0   4   90.89   14.80
   0 -18   4  114.89   15.40
 -18   0   4   80.79   16.80
  18   0   4   72.69   16.30
   2  18  -4  124.79   18.10
  18  -2  -4  141.29   17.40
   2  18  -4  145.89   18.30
  -2 -18  -4  145.69   16.30
   2  18  -4  139.59   18.30
 -18   2   4  181.38   20.30
  -2 -18   4  135.49   16.40
 -18   2   4  156.08   19.40
   2  18   4  127.59   17.70
  -2 -18   4  159.38   20.20
   2  18   4  147.39   20.30
  18  -2   4  128.89   16.60
  18  -4  -4   19.30   14.50
   4  18  -4    3.20   10.10
   4  18  -4   20.30   16.10
  -4 -18  -4   29.30   13.80
  18  -4  -4   13.50   10.20
   4  18  -4   14.90   16.60
  -4 -18   4   22.30   10.90
  -4 -18   4   20.00   13.70
 -18   4   4  -25.60   14.60
   4  18   4   -3.50   13.70
  18  -4   4    3.30   13.90
   4  18   4   -1.70   17.90
 -18   4   4   20.50   12.00
 -18   6  -4  282.87   26.10
   6  18  -4  251.37   29.60
  18  -6  -4  343.77   23.10
  18  -6  -4  295.37   27.40
   6  18  -4  321.67   21.90
   6  18  -4  273.07   32.10
  -6 -18  -4  309.77   28.10
  -6 -18   4  297.27   27.50
 -18   6   4  280.27   24.80
  18  -6   4  261.37   28.30
   6  18   4  339.57   29.20
  -6 -18   4  301.77   22.40
 -18   6   4  319.57   30.40
   6  18   4  241.98   27.60
  -1  19  -4  126.39   21.80
  -1  19  -4  115.99   18.20
  -1  19  -4  172.98   22.90
   1 -19  -4  126.79   17.10
  19   1  -4  124.89   15.20
  -1  19   4  131.19   22.80
   1 -19   4   88.59   18.10
 -19  -1   4  104.19   18.40
 -19  -1   4  156.38   26.30
  19   1   4  145.39   17.80
   1 -19   4   95.89   15.80
  19  -1  -4  187.18   22.30
   1  19  -4  123.99   14.90
   1  19  -4  159.48   21.40
   1  19  -4  118.99   19.60
  -1 -19  -4  137.79   16.50
   1  19   4  148.79   21.40
 -19   1   4  122.69   16.40
  19  -1   4  114.19   17.20
  -1 -19   4  126.99   17.90
  -1 -19   4  133.49   15.60
 -19   1   4  123.19   21.30
   1   0  -5  114.89    7.00
   1   0  -5  103.49    8.10
   0  -1  -5  137.29    7.90
  -1   0  -5  117.89    7.20
   0   1  -5  126.89    7.10
   0  -1  -5  126.29    8.50
   1   0  -5  107.79    8.20
   1   0  -5  108.19    6.30
   0  -1  -5  130.69    8.60
   0   1  -5  130.19    8.00
   0   1  -5  113.59    8.30
  -1   0  -5  118.99    7.90
   0  -1  -5  119.69    6.80
  -1   0  -5  120.59    8.00
   0   1  -5  123.59    6.80
   0  -1   5  117.59    7.60
   0  -1   5  116.69    7.50
   1   0   5  123.09    7.30
   0  -1   5  110.89   10.10
  -1   0   5  126.89    9.90
  -1   0   5  117.99    6.50
   1   0   5  119.59    9.00
   1   0   5  118.09    9.90
  -1   0   5  129.59    6.90
  -1   0   5  120.09    7.20
   0  -1   5  109.99    9.20
   0   1   5   99.49   11.30
   1   0   5  122.59    7.30
   0   1   5  104.29    6.70
   0   1   5  119.19    6.70
   0   1   5   98.79    8.70
   1   0   5  132.09    9.50
  -1   0   5   97.79    9.30
   0  -1   5  106.49    6.70
   0   1   5  103.59    8.80
  -2  -1  -5  623.84   21.50
  -2  -1  -5  613.74   20.90
  -2  -1  -5  580.74   20.90
   2   1  -5  590.44   19.60
   2   1  -5  623.24   21.50
   1  -2  -5  565.34   20.30
   1  -2  -5  577.94   21.70
   2   1  -5  608.34   21.60
   2   1  -5  643.74   19.60
   1  -2  -5  619.34   20.70
  -1   2  -5  594.24   21.50
  -2  -1  -5  580.24   21.50
  -1   2  -5  589.94   20.60
  -1   2  -5  584.04   22.10
  -1   2  -5  628.34   20.50
  -1   2  -5  582.34   22.30
   1  -2  -5  614.84   21.80
  -1   2   5  590.54   22.30
  -1   2   5  579.34   18.60
   2   1   5  596.44   22.30
   2   1   5  578.44   22.80
   2   1   5  611.04   20.10
   1  -2   5  593.94   20.50
  -2  -1   5  568.54   21.90
  -2  -1   5  585.14   19.40
   2   1   5  552.44   20.60
  -1   2   5  576.04   20.20
  -1   2   5  584.74   22.10
   2   1   5  580.44   21.90
  -1   2   5  599.84   20.60
   1  -2   5  590.04   23.00
  -2  -1   5  608.74   19.40
  -2  -1   5  604.64   19.90
   1  -2   5  605.54   20.70
   1  -2   5  609.34   20.70
  -2  -1   5  607.24   22.70
  -2   1  -5  951.90   33.50
   1   2  -5 1025.80   32.10
  -1  -2  -5 1017.60   33.00
  -2   1  -5  972.60   33.00
  -2   1  -5 1015.00   32.50
  -1  -2  -5 1042.40   33.40
   2  -1  -5  995.70   32.00
   2  -1  -5  986.40   32.10
  -2   1  -5 1037.30   33.90
   1   2  -5 1012.90   34.30
  -1  -2  -5 1034.10   33.60
   1   2  -5 1052.89   32.90
   2  -1  -5  979.40   33.60
   1   2  -5 1054.69   31.80
   2  -1  -5 1020.90   33.70
  -1  -2  -5 1053.09   33.10
   1   2  -5  992.80   33.50
  -1  -2   5  988.00   34.00
  -2   1   5  978.20   33.30
   2  -1   5 1023.10   32.10
   1   2   5  919.51   32.50
  -1  -2   5  956.20   31.10
  -1  -2   5 1026.20   31.20
   1   2   5  969.80   30.70
   1   2   5  952.60   33.40
  -2   1   5 1049.40   30.70
   2  -1   5  996.20   33.60
   1   2   5  951.80   33.70
  -1  -2   5  996.40   31.80
   2  -1   5  983.30   32.10
   1   2   5  954.20   32.10
  -2   1   5  956.70   31.20
  -2   1   5 1022.60   31.40
   2  -1   5  973.50   32.50
   2  -1   5  957.10   34.40
  -2   1   5 1013.30   33.40
  -2   3  -5  636.44   20.90
  -2   3  -5  634.34   22.70
  -2   3  -5  657.23   22.10
  -2   3  -5  639.94   23.80
   3   2  -5  650.83   22.60
   2  -3  -5  600.44   21.40
   3   2  -5  642.44   22.40
   2  -3  -5  613.94   21.70
  -3  -2  -5  615.14   22.40
   2  -3  -5  610.04   22.70
   2  -3  -5  644.74   23.20
   3   2  -5  630.64   20.30
   3   2  -5  658.93   20.00
  -2   3  -5  635.04   22.10
  -3  -2  -5  647.64   22.10
  -3  -2  -5  649.83   22.70
   3   2   5  592.84   23.70
   2  -3   5  633.14   22.20
  -2   3   5  638.34   21.90
   3   2   5  570.64   23.30
  -2   3   5  647.74   22.50
  -3  -2   5  613.74   19.90
   2  -3   5  617.64   22.10
   3   2   5  601.44   22.20
  -2   3   5  619.94   23.00
  -3  -2   5  556.44   22.60
   3   2   5  634.74   21.00
   2  -3   5  611.44   21.60
  -2   3   5  641.74   21.30
  -3  -2   5  642.04   21.30
   2  -3   5  637.84   24.30
  -3  -2   5  651.53   19.90
   3   0  -5  382.66   13.10
   0   3  -5  389.86   13.70
   3   0  -5  372.36   13.30
   0  -3  -5  372.46   15.20
   0  -3  -5  417.06   18.00
  -3   0  -5  354.06   14.70
   0   3  -5  345.77   14.70
   0   3  -5  378.96   16.20
   0  -3  -5  365.46   14.20
  -3   0  -5  359.66   14.90
   0  -3  -5  368.76   16.70
  -3   0  -5  364.86   14.00
   3   0  -5  355.56   15.50
   0   3  -5  359.86   13.50
   0   3  -5  392.26   14.00
   3   0  -5  359.06   15.10
  -3   0   5  374.26   12.90
   0  -3   5  376.16   13.80
   0   3   5  347.67   16.10
   0  -3   5  349.67   16.60
  -3   0   5  353.66   12.80
   0  -3   5  369.36   14.40
  -3   0   5  398.76   15.90
  -3   0   5  382.76   13.00
   3   0   5  362.76   16.00
   0   3   5  345.07   14.40
   3   0   5  372.36   14.20
   0   3   5  348.77   15.80
   3   0   5  358.46   16.60
   0  -3   5  342.07   13.40
   3   0   5  367.76   14.70
   0   3   5  344.67   15.90
  -3   0   5  363.96   15.50
  -2  -3  -5  747.03   26.30
  -3   2  -5  762.12   26.40
   3  -2  -5  807.92   25.40
  -3   2  -5  731.03   26.70
   3  -2  -5  777.32   26.70
  -2  -3  -5  738.63   26.60
   2   3  -5  785.02   26.60
   2   3  -5  769.42   24.70
   2   3  -5  816.32   24.30
   2   3  -5  805.62   26.10
   3  -2  -5  758.32   27.00
  -3   2  -5  753.52   27.50
   3  -2  -5  768.42   25.20
  -2  -3  -5  761.22   27.70
   2   3  -5  764.72   27.20
  -3   2  -5  824.52   25.20
   3  -2   5  799.22   26.40
   2   3   5  753.12   27.40
   2   3   5  788.32   24.30
   2   3   5  764.72   26.30
   3  -2   5  771.32   27.10
   2   3   5  721.23   27.60
   3  -2   5  782.02   26.30
  -2  -3   5  793.82   28.00
  -3   2   5  734.03   25.00
  -2  -3   5  735.63   24.40
  -2  -3   5  780.02   25.80
   3  -2   5  732.33   28.20
  -3   2   5  804.22   26.60
  -3   2   5  782.32   25.40
  -3   2   5  743.33   26.70
  -2  -3   5  762.42   24.30
   4   3  -5  665.23   23.50
  -3   4  -5  668.53   24.50
   3  -4  -5  682.53   25.10
   4   3  -5  655.23   23.10
  -4  -3  -5  670.93   23.70
  -4  -3  -5  651.13   23.10
   4   3  -5  639.14   20.40
   3  -4  -5  632.04   22.30
   4   3  -5  655.93   23.80
  -3   4  -5  619.24   22.90
  -3   4  -5  672.43   23.70
   3  -4   5  633.84   25.60
  -4  -3   5  671.53   23.00
  -4  -3   5  684.33   25.00
   4   3   5  679.23   25.60
   4   3   5  669.93   24.00
  -4  -3   5  649.54   20.60
  -4  -3   5  675.23   20.70
  -3   4   5  684.73   23.20
   3  -4   5  643.44   23.30
   4   3   5  656.83   24.70
   4   3   5  688.43   22.20
   3  -4   5  644.74   23.60
  -3   4   5  636.14   24.40
  -3   4   5  641.34   22.70
  -3   4   5  658.13   24.30
  -4  -1  -5 1107.49   34.50
  -4  -1  -5 1077.69   35.40
  -1   4  -5  994.30   36.00
   4   1  -5 1120.59   35.50
   4   1  -5 1132.89   33.00
  -1   4  -5 1097.09   33.40
   1  -4  -5 1073.99   35.70
  -1   4  -5 1014.70   34.30
  -1   4  -5 1037.70   35.30
  -4  -1  -5 1052.79   35.30
   4   1  -5 1098.19   33.00
   1  -4  -5 1039.90   35.30
   1  -4  -5 1026.40   34.60
  -1   4   5 1076.79   34.20
  -4  -1   5 1041.30   32.40
   4   1   5  997.70   34.60
   4   1   5  986.40   35.30
   4   1   5 1001.90   36.20
  -4  -1   5 1052.29   32.30
  -4  -1   5 1058.29   33.20
  -1   4   5 1119.49   35.30
   1  -4   5 1027.80   35.60
  -4  -1   5 1059.79   35.30
  -4  -1   5  992.80   34.80
   1  -4   5 1098.19   34.10
   4   1   5 1074.39   33.90
   1  -4   5 1034.00   36.40
  -1   4   5 1029.50   35.30
   1  -4   5 1040.30   33.80
  -4   1  -5   28.70    4.40
  -4   1  -5   25.50    4.70
   4  -1  -5   19.80    5.50
   1   4  -5   32.00    4.50
   4  -1  -5   23.50    3.60
  -1  -4  -5   18.20    4.20
  -1  -4  -5   30.60    5.40
   1   4  -5   26.40    3.50
  -4   1  -5   23.20    4.80
   1   4  -5   26.40    3.50
  -1  -4  -5   24.80    5.00
   4  -1  -5   14.00    4.50
   1   4  -5   19.10    4.50
   4  -1  -5   26.00    3.20
   1   4  -5   28.00    5.70
   4  -1   5   20.20    6.00
  -4   1   5   26.30    3.50
  -1  -4   5   18.90    4.50
  -4   1   5   25.00    5.20
  -1  -4   5   26.40    3.60
  -4   1   5   22.70    3.20
   1   4   5   21.10    4.60
  -4   1   5   21.50    4.90
   4  -1   5   19.40    4.90
  -4   1   5   17.20    3.60
  -1  -4   5   27.90    6.40
   4  -1   5   25.60    4.90
  -1  -4   5   25.40    3.60
   1   4   5   16.60    5.60
   1   4   5   19.60    5.40
   4  -1   5   16.80    5.60
   3   4  -5  545.85   19.30
   3   4  -5  536.75   20.50
   4  -3  -5  539.55   20.60
  -3  -4  -5  532.95   19.60
  -4   3  -5  509.15   19.60
   3   4  -5  550.54   16.70
  -3  -4  -5  530.25   19.80
   4  -3  -5  485.95   19.70
   3   4  -5  543.35   17.10
  -3  -4  -5  542.75   19.80
  -4   3  -5  542.35   17.30
  -4   3  -5  504.95   20.00
   4  -3  -5  508.65   18.20
  -4   3  -5  510.75   20.70
   3   4  -5  523.25   19.50
   3   4   5  528.65   19.70
  -3  -4   5  500.15   21.20
   4  -3   5  518.55   19.70
  -3  -4   5  525.05   16.80
   4  -3   5  559.84   21.90
  -3  -4   5  516.95   19.20
  -4   3   5  523.45   20.50
  -3  -4   5  495.45   16.80
  -4   3   5  515.15   18.10
   3   4   5  517.85   20.70
   3   4   5  493.35   21.00
   3   4   5  515.75   17.20
  -4   3   5  490.45   18.80
  -4   3   5  519.65   19.90
   4  -3   5  515.25   19.60
  -4   3   5  548.25   19.00
  -4   5  -5  146.79   10.40
   5   4  -5  151.98   10.10
  -5  -4  -5  144.99    9.40
   4  -5  -5  158.98    8.90
  -5  -4  -5  143.09   10.40
   4  -5  -5  168.78   10.80
  -4   5  -5  153.78   10.30
   5   4  -5  145.39   11.00
  -5  -4  -5  142.79   10.20
   5   4  -5  153.28   11.60
  -4   5  -5  164.08   11.00
  -5  -4   5  145.49   11.60
   5   4   5  158.78   11.80
   4  -5   5  160.38   10.70
   5   4   5  153.88    8.40
  -4   5   5  137.99   11.40
   5   4   5  149.49   11.90
  -4   5   5  153.88    9.00
   5   4   5  154.78   11.20
  -4   5   5  157.38   11.90
  -4   5   5  137.69   10.80
   4  -5   5  153.58   12.60
  -5  -4   5  144.29   12.00
   4  -5   5  144.19   10.40
   5   2  -5  101.29    4.50
  -5  -2  -5   87.99    8.10
  -2   5  -5  100.79    8.90
  -2   5  -5   96.09    9.50
   5   2  -5  111.19   10.60
   2  -5  -5   91.99    7.40
  -2   5  -5  102.29    7.90
   5   2  -5   83.89    8.50
   2  -5  -5   98.79    9.20
  -5  -2  -5  101.59    8.90
   5   2  -5   95.59    4.60
  -5  -2  -5  103.79    8.30
  -2   5   5  103.89    9.60
   5   2   5  103.89    7.80
   5   2   5  104.69   10.20
  -2   5   5  105.09    9.00
  -5  -2   5  106.29    4.70
  -5  -2   5   90.99    9.20
  -5  -2   5   88.59   10.20
  -2   5   5  101.59    9.90
   5   2   5   94.39    9.90
   5   2   5  104.69   10.60
  -2   5   5   83.29    7.90
   2  -5   5   98.89   10.50
  -5  -2   5   99.19    4.60
   2  -5   5   89.29    8.10
   2  -5   5  110.19    9.10
  -5  -2   5  116.09    7.60
   2  -5   5  107.79   11.20
   0   5  -5  616.74   21.30
   0   5  -5  658.73   21.10
   5   0  -5  644.14   23.60
   0   5  -5  667.13   20.60
   0  -5  -5  614.94   22.10
  -5   0  -5  613.84   22.70
   0   5  -5  614.84   23.30
   0   5  -5  604.14   22.50
   0  -5  -5  613.84   22.80
   5   0  -5  620.04   22.80
   5   0  -5  614.54   20.20
   0  -5  -5  610.74   22.70
   5   0  -5  640.24   20.40
  -5   0  -5  628.54   22.90
  -5   0  -5  638.44   21.40
   0  -5   5  602.44   20.90
   0  -5   5  601.54   24.00
   5   0   5  587.74   24.00
   0   5   5  613.54   23.20
   5   0   5  570.84   22.50
   0  -5   5  643.24   21.30
   0   5   5  608.34   22.10
  -5   0   5  590.44   22.40
   5   0   5  606.54   22.00
   5   0   5  616.94   23.20
   0  -5   5  624.74   21.90
  -5   0   5  633.24   20.40
   0   5   5  628.84   23.00
  -5   0   5  589.04   19.80
  -5   0   5  616.94   19.90
  -5   0   5  624.74   22.40
   2   5  -5   70.89    5.50
   2   5  -5   78.39    7.40
   5  -2  -5   67.49    6.80
  -5   2  -5   71.29    8.40
  -5   2  -5   71.19    6.90
   5  -2  -5   64.39    5.20
  -5   2  -5   85.29    8.30
   2   5  -5   70.59    5.40
  -2  -5  -5   78.19    7.90
  -5   2  -5   61.59    7.00
  -2  -5  -5   90.19    8.40
  -2  -5  -5   69.79    7.80
   5  -2  -5   74.29    9.20
   2   5  -5   75.59    7.90
   2   5  -5   79.09    9.30
   5  -2   5   81.29    8.80
   2   5   5   70.49    9.10
   2   5   5   58.69    6.90
   5  -2   5   74.69    8.70
  -5   2   5   66.09    5.70
  -2  -5   5   66.39    5.70
  -5   2   5   83.79    7.70
  -5   2   5   66.59    7.40
  -5   2   5   62.59    8.10
   5  -2   5   55.59    7.50
  -2  -5   5   67.49    5.60
   2   5   5   66.49    8.70
  -5   2   5   73.49    5.50
  -2  -5   5   70.69    7.90
  -5   2   5   81.69    7.60
  -2  -5   5   61.19    7.90
  -5   4  -5  636.94   23.30
  -4  -5  -5  649.24   22.80
   5  -4  -5  630.24   23.60
  -5   4  -5  655.83   24.10
   4   5  -5  613.84   23.40
   5  -4  -5  608.64   21.60
   4   5  -5  633.24   22.70
   4   5  -5  585.04   22.30
  -5   4  -5  638.54   23.50
  -4  -5  -5  653.33   23.40
  -4  -5  -5  632.34   23.10
   4   5   5  594.84   24.20
  -4  -5   5  615.14   24.80
  -5   4   5  617.84   23.80
   4   5   5  637.24   20.50
  -5   4   5  589.54   21.60
  -4  -5   5  607.24   19.50
   4   5   5  641.04   24.00
   5  -4   5  607.44   24.60
  -5   4   5  562.64   22.90
   4   5   5  608.74   23.00
   5  -4   5  591.54   22.90
  -4  -5   5  650.43   19.50
  -5   4   5  644.94   21.30
   5  -4   5  604.74   23.00
  -4  -5   5  658.93   22.60
   6   5  -5  723.43   28.00
   6   5  -5  765.32   26.80
  -6  -5  -5  726.93   27.20
  -5   6  -5  749.33   27.00
   5  -6  -5  773.32   27.50
   6   5  -5  733.73   26.30
   6   5  -5  718.93   25.90
   5  -6  -5  768.02   25.70
  -6  -5  -5  740.73   26.70
   6   5  -5  693.83   26.90
  -6  -5  -5  740.83   26.00
  -5   6  -5  730.33   27.40
  -5   6  -5  754.42   27.30
   6   5   5  724.43   27.50
   5  -6   5  702.03   26.70
   6   5   5  771.42   24.70
  -5   6   5  691.63   27.60
   5  -6   5  692.63   28.40
   5  -6   5  706.73   26.50
   6   5   5  755.62   27.90
  -5   6   5  736.03   24.40
   6   5   5  719.33   28.40
  -5   6   5  742.73   25.80
  -5   6   5  725.93   26.80
  -6  -3  -5   87.69    9.50
  -3   6  -5   56.89    7.10
   6   3  -5   80.19   10.00
  -3   6  -5   80.29    9.00
   6   3  -5   84.69    9.30
   3  -6  -5   85.39    7.60
  -3   6  -5   90.19    8.50
  -6  -3  -5   93.59    8.50
   3  -6  -5   77.89    9.70
  -6  -3  -5   75.79    9.70
   6   3  -5   92.29    8.80
  -3   6   5   75.79    9.60
  -6  -3   5   79.29    8.70
   6   3   5   77.39   10.10
   6   3   5   79.19    8.20
   3  -6   5   83.99    9.40
   3  -6   5   58.19    7.90
   6   3   5   82.49   10.90
  -3   6   5   97.19    8.20
  -3   6   5   87.79   10.80
   6   3   5   82.19   11.20
   3  -6   5   79.49    8.90
  -3   6   5   74.59    8.40
  -6  -3   5   77.09    8.40
   1  -6  -5 1255.47   43.40
  -1   6  -5 1344.57   44.90
  -6  -1  -5 1307.37   44.30
   6   1  -5 1336.97   41.20
  -1   6  -5 1431.66   45.10
   6   1  -5 1352.26   41.30
  -1   6  -5 1391.56   44.10
  -6  -1  -5 1358.86   43.80
   1  -6  -5 1347.67   44.30
  -6  -1  -5 1404.16   43.10
  -1   6  -5 1291.97   42.90
   6   1  -5 1381.36   44.70
   6   1  -5 1369.86   42.60
   6   1   5 1289.97   44.90
  -1   6   5 1324.27   44.10
  -1   6   5 1343.07   43.60
   1  -6   5 1347.57   42.80
   6   1   5 1327.47   44.00
  -6  -1   5 1358.26   43.20
  -6  -1   5 1366.16   43.60
  -6  -1   5 1274.47   40.40
   6   1   5 1253.87   43.40
   6   1   5 1372.86   43.10
   1  -6   5 1254.27   42.20
  -6  -1   5 1356.76   43.10
   1  -6   5 1287.57   45.00
  -1   6   5 1356.36   43.00
   1  -6   5 1321.77   43.10
  -6  -1   5 1336.37   40.50
  -1   6   5 1282.77   43.70
  -1  -6  -5  415.86   17.20
   1   6  -5  410.86   18.00
  -6   1  -5  401.46   17.40
  -6   1  -5  441.36   17.30
   1   6  -5  414.46   16.90
  -1  -6  -5  394.06   16.60
   1   6  -5  443.86   15.20
  -6   1  -5  450.15   15.50
   6  -1  -5  423.36   14.50
   1   6  -5  388.16   14.90
   6  -1  -5  417.26   17.90
   6  -1  -5  434.06   15.00
   1   6   5  421.06   18.20
   1   6   5  419.46   17.00
   6  -1   5  410.36   17.10
  -1  -6   5  445.76   15.70
  -1  -6   5  447.66   15.30
  -6   1   5  418.46   16.20
   1   6   5  414.66   18.00
  -6   1   5  412.26   16.80
  -6   1   5  393.86   14.50
  -1  -6   5  390.76   14.90
  -1  -6   5  398.36   19.00
  -6   1   5  396.66   17.60
   6  -1   5  405.96   17.50
   1   6   5  400.86   17.80
   6  -1   5  404.36   18.90
  -6   1   5  406.36   14.90
   6  -1   5  411.66   17.80
  -6   1   5  412.96   15.00
  -1  -6   5  404.26   16.70
   3   6  -5  357.76   12.50
   6  -3  -5  344.67   13.50
   3   6  -5  380.76   12.60
  -3  -6  -5  352.96   15.20
   3   6  -5  341.57   16.30
   6  -3  -5  365.36   16.60
  -6   3  -5  362.26   15.90
  -3  -6  -5  351.76   15.80
  -6   3  -5  371.16   16.60
   3   6  -5  368.56   17.80
  -6   3  -5  371.56   16.20
  -3  -6  -5  361.26   15.70
   3   6  -5  360.86   15.20
   3   6   5  358.26   16.50
  -3  -6   5  374.96   12.90
  -6   3   5  369.96   14.10
   6  -3   5  366.56   15.80
  -3  -6   5  370.76   15.40
  -6   3   5  335.97   13.70
  -3  -6   5  346.77   12.60
  -6   3   5  343.27   15.60
  -3  -6   5  371.76   14.80
  -6   3   5  332.27   16.40
   3   6   5  356.16   17.00
   3   6   5  351.06   17.10
   6  -3   5  368.16   16.50
   6  -3   5  332.57   17.50
  -5  -6  -5  394.26   16.00
   5   6  -5  376.06   17.30
   6  -5  -5  382.96   17.60
  -6   5  -5  373.66   17.20
  -5  -6  -5  385.16   17.40
  -6   5  -5  364.66   16.90
  -5  -6  -5  384.26   16.90
   6  -5  -5  377.66   15.20
  -6   5  -5  394.56   17.60
   5   6  -5  382.56   15.90
   5   6  -5  381.46   18.80
   5   6   5  386.76   18.40
  -6   5   5  387.86   17.10
   6  -5   5  344.57   18.40
  -5  -6   5  411.66   16.90
   5   6   5  399.16   14.50
   6  -5   5  379.36   17.30
   5   6   5  389.16   18.60
   6  -5   5  381.96   17.10
  -5  -6   5  371.26   17.30
  -6   5   5  374.86   18.20
  -6   5   5  377.96   15.50
   5   6   5  381.86   18.80
  -7  -6  -5  314.47   14.60
   7   6  -5  317.57   16.10
   6  -7  -5  331.17   16.70
  -7  -6  -5  303.37   16.80
  -6   7  -5  324.57   16.90
  -6   7  -5  302.67   16.70
  -6   7  -5  302.87   16.00
   6  -7  -5  320.17   14.50
   7   6  -5  333.67   18.60
   7   6  -5  329.37   15.00
   7   6  -5  329.87   15.70
  -7  -6  -5  333.17   16.50
   7   6   5  288.97   18.00
   6  -7   5  308.97   18.20
  -6   7   5  326.27   15.40
   6  -7   5  307.87   16.10
   7   6   5  332.17   18.40
  -6   7   5  339.87   16.40
  -7  -6   5  328.27   16.90
   7   6   5  314.67   17.80
   6  -7   5  333.07   17.00
  -6   7   5  345.27   17.50
  -4   7  -5  325.87   15.00
  -7  -4  -5  325.77   14.50
  -7  -4  -5  299.87   16.00
   4  -7  -5  326.47   14.20
   7   4  -5  323.17   17.00
  -4   7  -5  324.07   16.40
  -4   7  -5  320.17   15.70
  -7  -4  -5  321.27   15.50
   4  -7  -5  309.97   15.60
   7   4  -5  335.47   14.90
   7   4  -5  313.07   16.00
   7   4  -5  313.97   14.70
   7   4   5  345.37   17.30
   4  -7   5  323.07   17.50
  -7  -4   5  330.77   15.00
  -4   7   5  309.37   16.00
   7   4   5  319.87   15.80
   7   4   5  312.87   17.30
   7   4   5  347.37   16.70
   4  -7   5  299.77   15.20
  -4   7   5  325.47   13.70
   4  -7   5  285.07   15.20
  -4   7   5  302.37   14.80
  -4   7   5  313.17   16.80
  -2   7  -5  111.79   11.00
  -7  -2  -5   91.29    9.40
  -2   7  -5  107.49    8.40
  -7  -2  -5  109.79    9.40
   7   2  -5  105.89   11.30
   2  -7  -5   99.99    8.70
  -2   7  -5  109.39    9.60
   7   2  -5   94.39    4.60
   2  -7  -5  107.79   10.20
  -7  -2  -5   95.59   10.70
   7   2  -5  106.39    9.20
  -7  -2   5  116.69   10.40
   7   2   5   95.09   10.60
  -2   7   5   91.79   10.40
   7   2   5   93.39   12.20
  -2   7   5  101.49    9.40
   2  -7   5   90.79   12.10
   7   2   5  102.89   12.10
   7   2   5   91.39    9.70
  -7  -2   5  118.29    9.70
  -2   7   5  109.19    9.60
   2  -7   5  112.19   10.10
  -7  -2   5   92.69    9.20
  -2   7   5   93.19   11.10
  -7  -2   5  102.79    5.00
   2  -7   5   93.79    8.90
  -7  -2   5  105.49    5.30
  -7   0  -5   27.60    5.20
  -7   0  -5    9.90    5.30
   0   7  -5   26.80    6.60
   0  -7  -5   36.40    6.40
   0   7  -5   26.00    4.30
   7   0  -5   21.80    3.70
   7   0  -5   28.50    4.60
   7   0  -5   26.70    3.10
   0  -7  -5   24.50    5.40
  -7   0  -5   31.40    6.00
   0   7  -5   24.60    5.50
   7   0  -5   22.80    6.50
   0   7  -5   24.40    6.40
   7   0   5   20.40    5.80
   0  -7   5   21.60    5.40
   0  -7   5   19.80    7.00
   0  -7   5   28.90    6.20
   0   7   5   15.50    5.70
  -7   0   5   28.20    6.10
   0   7   5   17.20    6.30
   0   7   5   19.90    6.30
  -7   0   5   32.80    5.50
   7   0   5   33.40    6.90
   7   0   5   23.90    7.10
   0   7   5   30.40    6.30
  -7   0   5   21.50    3.30
  -7   0   5   23.60    3.70
   7   0   5   17.90    6.20
  -7   0   5   30.70    5.50
   0  -7   5   19.70    4.20
  -7   2  -5  398.56   17.30
   2   7  -5  375.46   14.00
  -2  -7  -5  394.86   16.70
   7  -2  -5  398.66   14.00
   2   7  -5  393.76   14.40
  -7   2  -5  386.56   16.80
   7  -2  -5  396.96   17.80
   2   7  -5  393.86   17.80
   7  -2  -5  378.56   14.20
   2   7  -5  393.56   18.90
  -2  -7  -5  388.96   16.90
  -7   2  -5  393.16   14.40
   2   7  -5  394.76   16.30
  -7   2   5  374.16   16.20
   7  -2   5  390.66   16.90
   2   7   5  403.56   17.80
   2   7   5  398.76   17.30
  -7   2   5  374.36   15.40
   7  -2   5  399.46   17.90
  -2  -7   5  384.26   15.00
  -2  -7   5  376.16   14.10
   2   7   5  396.26   17.10
   2   7   5  386.96   18.10
  -7   2   5  381.96   15.30
  -2  -7   5  384.16   15.10
  -7   2   5  378.16   17.70
   7  -2   5  376.16   17.70
  -2  -7   5  387.46   16.50
  -7   2   5  380.76   14.40
   7  -2   5  379.36   18.70
  -4  -7  -5  320.97   15.20
   4   7  -5  315.77   11.20
   4   7  -5  296.57   13.70
  -7   4  -5  271.37   15.20
  -4  -7  -5  308.87   15.10
   4   7  -5  301.17   10.70
  -7   4  -5  287.27   15.50
  -4  -7  -5  319.17   14.30
   4   7  -5  294.67   16.80
   4   7  -5  294.27   15.50
  -7   4  -5  289.27   15.20
   7  -4  -5  289.77   15.50
   7  -4  -5  290.47   12.60
  -4  -7   5  306.17   13.80
  -7   4   5  307.07   14.40
  -7   4   5  305.87   13.10
   7  -4   5  289.97   16.90
  -4  -7   5  275.47   14.30
  -7   4   5  303.97   16.40
   7  -4   5  320.77   15.50
   4   7   5  284.87   16.60
   4   7   5  287.57   16.50
  -4  -7   5  282.37   10.80
   4   7   5  315.67   16.50
  -4  -7   5  297.77   11.40
   7  -4   5  290.37   16.00
  -7   6  -5  152.88   12.90
   6   7  -5  154.18   11.30
   7  -6  -5  143.19   10.00
  -7   6  -5  146.49   12.10
  -6  -7  -5  176.38   13.10
  -6  -7  -5  172.08   12.60
   6   7  -5  143.99   12.60
  -7   6  -5  142.39   12.60
   6   7  -5  177.48   14.90
   7  -6  -5  144.39   12.60
  -6  -7  -5  156.08   10.60
   6   7   5  156.58   14.50
  -6  -7   5  144.09    6.20
  -6  -7   5  148.69   12.10
  -7   6   5  169.08   11.30
  -6  -7   5  152.58    6.30
  -7   6   5  147.09   12.10
   6   7   5  167.98    9.90
   6   7   5  161.58   14.50
   6   7   5  142.79   14.40
  -6  -7   5  150.58   12.40
   7  -6   5  156.38   14.00
   7  -6   5  154.78   12.80
  -7   6   5  182.98   13.80
   7  -6   5  171.38   12.30
  -7   8  -5  124.19   12.80
   7  -8  -5   99.89   13.00
   8   7  -5  112.49   12.70
   8   7  -5  121.89   12.60
  -7   8  -5  117.39   13.10
   8   7  -5  112.39   15.50
  -7   8  -5   97.99   13.30
  -8  -7  -5  134.99   13.60
   7  -8  -5  105.79   10.40
   8   7   5  107.09   11.20
   7  -8   5  127.09   14.60
  -7   8   5  104.29   12.40
   8   7   5  120.39   16.40
  -7   8   5  125.09   13.00
  -7   8   5  108.19   14.30
   7  -8   5  103.29   13.20
   8   7   5   81.99   10.90
  -8  -7   5  115.99   13.70
   7  -8   5  115.79   12.90
  -5   8  -5  962.90   34.50
  -5   8  -5  974.10   34.30
   8   5  -5  995.00   35.40
  -8  -5  -5  996.00   33.00
   8   5  -5  962.60   35.00
  -5   8  -5  976.20   35.50
  -8  -5  -5 1019.10   35.10
   5  -8  -5  943.91   33.40
   8   5  -5 1006.50   34.00
  -8  -5  -5  999.10   34.50
   5  -8  -5  961.20   34.70
  -5   8   5  955.20   34.60
  -5   8   5  975.70   35.50
  -8  -5   5  976.20   33.10
   5  -8   5  938.51   34.20
   5  -8   5  954.80   34.30
   8   5   5  973.60   35.80
  -8  -5   5  969.70   33.40
   8   5   5  979.50   32.70
   5  -8   5  984.40   36.00
   8   5   5  940.41   36.30
   8   5   5  997.30   34.90
  -5   8   5  972.50   33.90
   3  -8  -5  528.65   21.90
   8   3  -5  562.54   20.50
  -8  -3  -5  556.34   22.40
  -3   8  -5  524.25   22.40
   8   3  -5  552.24   22.50
  -3   8  -5  501.55   20.40
  -8  -3  -5  524.45   20.50
   3  -8  -5  519.05   21.70
  -3   8  -5  517.15   21.20
  -8  -3  -5  553.44   21.20
  -8  -3   5  510.85   20.80
  -8  -3   5  510.05   16.80
   8   3   5  528.15   22.90
   8   3   5  520.95   20.40
  -3   8   5  508.35   22.30
  -8  -3   5  537.15   21.60
  -3   8   5  581.34   20.20
   3  -8   5  540.65   21.30
   3  -8   5  527.75   23.30
   3  -8   5  544.55   20.80
  -3   8   5  514.85   22.10
  -8  -3   5  522.65   16.90
  -8  -3   5  533.15   20.20
  -3   8   5  527.35   21.00
   8   3   5  529.55   22.00
   8   3   5  488.15   22.80
   8   1  -5  454.95   19.80
  -1   8  -5  430.26   17.40
   8   1  -5  483.65   17.70
  -8  -1  -5  451.85   18.60
   8   1  -5  468.55   15.90
  -8  -1  -5  485.95   20.10
  -1   8  -5  450.95   18.70
   1  -8  -5  457.25   18.70
   8   1  -5  451.25   15.30
  -1   8  -5  440.26   20.00
  -8  -1  -5  475.85   18.30
   1  -8  -5  458.45   19.40
  -1   8   5  452.55   19.60
   1  -8   5  438.16   21.00
  -1   8   5  456.75   18.50
  -8  -1   5  421.76   18.70
   1  -8   5  430.16   18.50
  -1   8   5  468.05   19.30
   8   1   5  442.06   18.40
   8   1   5  422.56   20.30
  -8  -1   5  423.86   15.00
  -8  -1   5  465.25   18.00
  -1   8   5  434.56   19.90
  -8  -1   5  450.25   15.30
   8   1   5  461.85   19.40
  -8  -1   5  431.06   18.10
   1  -8   5  429.16   17.10
   8   1   5  439.46   20.50
   8  -1  -5  689.43   22.10
  -8   1  -5  648.84   25.10
  -8   1  -5  652.93   22.40
   8  -1  -5  665.43   25.00
  -1  -8  -5  633.04   24.40
   1   8  -5  671.83   23.70
   1   8  -5  657.13   22.10
  -1  -8  -5  640.14   24.20
   1   8  -5  643.34   25.40
   1   8  -5  646.94   26.30
  -8   1  -5  622.74   24.10
   8  -1  -5  637.64   22.30
   8  -1  -5  618.94   21.40
  -1  -8   5  624.74   26.40
   1   8   5  620.74   24.40
   8  -1   5  662.73   24.20
  -1  -8   5  619.94   23.90
   8  -1   5  644.44   25.40
  -8   1   5  627.54   21.40
  -8   1   5  622.54   24.40
   8  -1   5  630.94   25.90
   1   8   5  613.84   25.20
   1   8   5  633.34   24.30
   8  -1   5  645.94   24.50
   1   8   5  626.34   24.40
  -8   1   5  652.43   22.10
  -1  -8   5  609.84   21.90
  -8   1   5  659.93   22.40
  -1  -8   5  631.24   23.70
  -8   1   5  641.64   23.20
   8  -3  -5  155.68    8.50
   3   8  -5  145.39   12.50
  -3  -8  -5  149.99   11.70
  -3  -8  -5  131.19   11.40
  -8   3  -5  159.88   12.40
   3   8  -5  139.19   13.30
   3   8  -5  140.29    7.40
  -8   3  -5  121.39   11.40
  -8   3  -5  160.18   12.10
   3   8  -5  140.79    8.70
   3   8  -5  155.28   11.00
   8  -3  -5  145.89   12.50
  -8   3   5  140.69   10.70
   8  -3   5  137.79   13.50
  -3  -8   5  143.49   11.40
  -3  -8   5  143.59    7.80
   3   8   5  142.89   12.80
   8  -3   5  124.19   11.60
   3   8   5  150.88   13.10
  -8   3   5  125.49   12.10
  -8   3   5  144.89    9.00
  -3  -8   5  131.59   10.00
   3   8   5  158.08   12.90
  -3  -8   5  157.98    9.50
   8  -3   5  159.78   13.90
   3   8   5  154.48   13.60
  -8   5  -5  543.65   22.40
   8  -5  -5  551.74   22.40
   5   8  -5  531.15   17.20
   5   8  -5  531.95   20.40
   5   8  -5  495.45   23.90
   5   8  -5  525.05   18.50
   5   8  -5  541.15   22.20
  -5  -8  -5  514.25   21.80
  -8   5  -5  519.15   21.90
   8  -5  -5  510.25   19.60
  -5  -8  -5  535.15   21.90
  -8   5  -5  520.85   22.40
  -5  -8   5  521.85   17.60
   5   8   5  539.75   23.40
   5   8   5  560.94   23.30
   8  -5   5  511.95   22.30
  -5  -8   5  559.14   20.60
   8  -5   5  508.95   23.40
  -5  -8   5  538.95   22.10
  -8   5   5  514.55   20.40
   5   8   5  541.75   21.70
   5   8   5  540.75   23.60
  -8   5   5  519.55   21.40
  -8   5   5  512.35   22.90
   8  -5   5  533.95   22.80
  -5  -8   5  519.25   17.70
  -8   7  -5   21.70    7.20
   7   8  -5   21.30    8.90
   8  -7  -5   24.30    5.80
  -8   7  -5   21.10    7.20
   7   8  -5   22.00    6.20
   7   8  -5   18.60    7.80
   8  -7  -5   23.10    7.80
   7   8  -5   22.80    3.30
   7   8  -5   21.60    7.30
  -7  -8  -5   19.40    7.60
  -8   7  -5   13.20    7.60
  -7  -8   5   21.10    2.90
   7   8   5   30.10    9.80
   8  -7   5   15.70    7.60
  -8   7   5   16.80    6.70
  -7  -8   5   37.50    7.50
   7   8   5   24.00    9.00
   8  -7   5   27.70    8.80
   7   8   5   14.70    5.30
   8  -7   5   31.00    8.60
   7   8   5   22.70    8.40
  -8   7   5   21.60    8.70
  -8   7   5   22.50    7.50
   7   8   5   32.00    8.20
  -9  -8  -5  771.12   30.70
  -8   9  -5  788.82   30.20
   9   8  -5  757.52   24.20
   8  -9  -5  725.83   30.50
   9   8  -5  791.72   32.50
  -8   9  -5  706.13   30.40
   9   8  -5  750.82   24.10
   8  -9  -5  755.42   28.60
   9   8  -5  754.82   28.90
  -8   9  -5  801.42   30.70
   9   8  -5  796.82   29.70
   9   8   5  734.13   32.40
   8  -9   5  774.92   31.40
  -9  -8   5  735.73   24.00
  -8   9   5  771.22   31.90
   8  -9   5  770.22   30.80
   8  -9   5  765.22   30.30
  -9  -8   5  777.92   30.40
   9   8   5  768.72   31.30
  -8   9   5  792.12   30.40
  -8   9   5  757.62   29.80
   9   6  -5  534.55   24.40
   9   6  -5  541.65   21.80
  -9  -6  -5  543.15   22.50
   6  -9  -5  491.45   22.10
   6  -9  -5  458.35   20.60
  -6   9  -5  493.65   22.50
  -6   9  -5  467.05   21.80
  -6   9  -5  479.55   22.10
  -6   9   5  492.35   23.60
   6  -9   5  513.45   23.30
   6  -9   5  504.45   22.40
  -6   9   5  477.35   22.30
   9   6   5  481.95   23.00
  -6   9   5  544.85   22.10
   6  -9   5  542.65   22.90
   9   6   5  488.85   19.80
   9   6   5  474.45   24.70
  -9  -6   5  442.76   23.00
   9   6   5  498.95   25.10
   4  -9  -5   80.39    8.90
  -4   9  -5   93.79   11.60
   4  -9  -5   85.69   10.10
   9   4  -5   94.59   12.90
  -9  -4  -5   76.29    9.70
   9   4  -5   80.19    9.80
   9   4  -5   76.69    8.00
  -4   9  -5   73.09   10.20
  -9  -4  -5   74.09    8.50
  -4   9  -5   48.40    8.60
   4  -9   5   67.49    8.40
   4  -9   5   48.70    9.00
   4  -9   5   87.39   11.40
  -9  -4   5   94.09    9.80
  -4   9   5   73.59    9.40
  -9  -4   5   74.79    5.10
   9   4   5   77.89    8.20
   9   4   5   85.99   10.90
  -9  -4   5   79.59   10.60
   9   4   5   79.89    9.20
  -4   9   5   85.39   10.10
  -4   9   5   75.19    8.60
   9   4   5   91.49   10.90
  -2   9  -5   15.40    5.40
   9   2  -5   34.60    6.40
   9   2  -5   23.50    4.20
  -9  -2  -5   33.50    7.50
   9   2  -5   29.70    3.20
   2  -9  -5   25.00    6.60
   9   2  -5   13.80    7.00
   2  -9  -5   30.30    6.10
  -2   9  -5   28.20    8.10
  -9  -2  -5   27.40    6.30
  -9  -2  -5   33.10    6.70
  -2   9  -5   23.90    6.50
   9   2   5   27.50    8.20
   2  -9   5   25.40    6.50
   9   2   5   26.10    8.90
  -9  -2   5   27.30    7.00
  -2   9   5   34.70    8.30
  -9  -2   5   28.50    6.90
  -2   9   5   31.20    7.30
   9   2   5   29.50    6.70
   2  -9   5   35.50    5.80
  -2   9   5   28.50    7.70
  -2   9   5   41.60    6.40
   9   2   5   26.60    7.40
  -9  -2   5   27.40    5.70
  -9  -2   5   23.00    3.60
   2  -9   5   25.20    8.10
   0  -9  -5  356.26   17.00
   0   9  -5  321.97   14.20
   9   0  -5  387.36   15.00
  -9   0  -5  326.17   16.30
   0   9  -5  348.37   16.10
   0   9  -5  334.47   18.40
  -9   0  -5  354.76   17.60
  -9   0  -5  388.06   15.60
   9   0  -5  338.27   15.00
   9   0  -5  367.56   18.00
   0  -9  -5  335.37   16.50
   9   0  -5  350.36   12.90
   9   0   5  348.37   18.60
  -9   0   5  323.37   14.80
  -9   0   5  312.97   16.90
   0   9   5  362.06   16.40
  -9   0   5  352.36   15.20
   0  -9   5  362.36   19.10
   0  -9   5  350.06   14.60
   0  -9   5  348.67   16.40
   9   0   5  338.07   17.50
  -9   0   5  312.67   13.30
   9   0   5  322.77   18.20
   0   9   5  387.76   18.40
   0   9   5  362.06   18.00
   0   9   5  370.76   17.90
   9   0   5  343.87   16.70
   9  -2  -5   52.29    8.10
   2   9  -5   28.70    8.00
  -9   2  -5   36.60    7.50
  -2  -9  -5   38.10    7.00
  -9   2  -5   47.60    7.90
   9  -2  -5   44.00    4.60
   2   9  -5   46.50    7.00
  -2  -9  -5   29.70    6.90
   2   9  -5   30.50    7.50
   2   9  -5   48.80    6.50
   9  -2   5   41.10    7.20
  -9   2   5   35.10    5.00
   9  -2   5   37.10    8.90
  -9   2   5   37.20    6.10
   9  -2   5   36.00    8.30
  -2  -9   5   49.99    7.50
   2   9   5   51.09    8.30
  -2  -9   5   37.60    5.00
   2   9   5   35.80    7.80
   2   9   5   45.20    8.20
  -9   2   5   38.40    7.70
   9  -2   5   44.00    8.00
   2   9   5   51.49    7.90
  -9   4  -5  219.38   15.40
   4   9  -5  228.48   14.90
   4   9  -5  220.48   16.70
  -4  -9  -5  222.18   14.30
  -9   4  -5  222.98   14.50
  -9   4  -5  220.48   14.60
   4   9  -5  226.18    9.80
  -4  -9  -5  243.98   14.90
   9  -4  -5  219.08   11.20
   4   9  -5  232.88   13.30
   9  -4  -5  205.08   14.90
  -9   4   5  254.77   13.90
  -4  -9   5  185.08   14.10
   9  -4   5  263.77   17.40
   4   9   5  220.48   16.20
  -4  -9   5  230.78   13.10
   9  -4   5  246.98   16.10
  -9   4   5  234.58   12.20
  -4  -9   5  226.98   11.30
   4   9   5  232.28   15.30
  -4  -9   5  210.28    9.90
  -9   4   5  215.18   15.20
   4   9   5  192.38   15.70
   9  -4   5  241.68   14.90
   4   9   5  218.48   16.40
   6   9  -5  475.55   16.30
  -9   6  -5  498.25   21.70
   6   9  -5  487.35   19.70
   9  -6  -5  481.05   21.90
  -9   6  -5  495.85   22.20
  -6  -9  -5  487.05   21.70
   6   9  -5  483.65   21.80
   6   9  -5  456.95   23.70
   6   9  -5  505.15   16.90
  -9   6  -5  468.25   22.20
   9  -6  -5  475.65   19.30
  -9   6   5  451.05   22.70
   9  -6   5  486.25   22.80
  -6  -9   5  483.85   19.80
   6   9   5  463.95   23.00
  -6  -9   5  487.35   21.40
   6   9   5  460.15   23.20
   6   9   5  465.45   23.80
   6   9   5  457.35   20.90
   9  -6   5  494.55   22.80
  -9   6   5  465.15   20.70
  -9   6   5  470.05   19.90
   9  -6   5  464.45   21.40
  -6  -9   5  475.15   16.10
   8   9  -5  285.37   17.60
   8   9  -5  287.47   11.10
   9  -8  -5  294.07   15.60
  -9   8  -5  302.07   17.80
  -8  -9  -5  275.67   18.60
   8   9  -5  300.07   20.90
  -9   8  -5  310.87   18.60
  -9   8  -5  295.67   18.40
   9  -8  -5  281.97   18.80
   8   9  -5  299.97   18.10
   9  -8   5  304.77   19.80
   9  -8   5  287.97   19.30
  -8  -9   5  300.27   11.20
  -8  -9   5  285.57   17.60
  -9   8   5  292.77   17.80
   8   9   5  289.57   20.20
  -9   8   5  331.37   20.70
  -9   8   5  287.17   17.90
   8   9   5  337.97   21.60
   9  -8   5  296.77   18.70
  -9  10  -5   61.39   10.90
  -9  10  -5   41.20   10.40
   9 -10  -5   60.69   11.20
 -10  -9  -5   33.70   12.60
  10   9  -5   41.20    4.70
  -9  10  -5   35.60   10.00
  10   9  -5   36.10    9.80
  10   9  -5   41.90   13.20
   9 -10  -5   44.90    8.90
 -10  -9   5   57.69   10.60
   9 -10   5   47.20   12.00
   9 -10   5   40.70   10.40
  -9  10   5   45.10   12.00
  10   9   5   43.40   13.20
   9 -10   5   53.29   11.50
  -9  10   5   48.60   10.60
  -9  10   5   47.10   11.30
  10   9   5   36.80   11.20
 -10  -9   5   50.09    6.70
  -7  10  -5  290.27   19.30
 -10  -7  -5  321.77   19.50
   7 -10  -5  285.47   18.40
  10   7  -5  340.77   21.00
  10   7  -5  295.27   18.40
  -7  10  -5  294.77   18.70
   7 -10  -5  301.87   16.60
  -7  10  -5  304.17   18.20
  10   7  -5  298.57   11.20
  10   7  -5  304.67   11.50
 -10  -7   5  305.97   11.10
  10   7   5  324.97   20.30
  -7  10   5  300.07   18.90
   7 -10   5  337.97   20.40
   7 -10   5  309.17   19.90
   7 -10   5  285.67   19.00
 -10  -7   5  311.17   20.00
  -7  10   5  277.87   21.00
  -7  10   5  301.87   19.70
  10   7   5  316.47   21.10
  10   5  -5  153.38   14.70
  10   5  -5  165.48   15.80
  -5  10  -5  156.08   13.20
 -10  -5  -5  151.08   14.90
 -10  -5  -5  172.28   22.60
   5 -10  -5  146.19   12.80
  -5  10  -5  142.39   14.90
   5 -10  -5  137.99   13.80
  -5  10  -5  140.59   13.80
  10   5  -5  158.58    7.40
  10   5   5  144.89   18.00
 -10  -5   5  144.59    7.40
  10   5   5  158.58   15.40
   5 -10   5  149.79   14.00
 -10  -5   5  137.49   16.50
  10   5   5  164.78   12.80
  -5  10   5  147.89   16.50
   5 -10   5  155.88   15.60
  10   5   5  134.89   16.70
  -5  10   5  158.88   15.20
  -5  10   5  161.58   14.70
   5 -10   5  153.18   14.00
 -10  -3  -5  344.37   15.90
  -3  10  -5  300.87   18.60
  10   3  -5  326.97   12.30
 -10  -3  -5  349.07   17.40
  10   3  -5  340.67   19.10
   3 -10  -5  342.77   17.60
  10   3  -5  340.27   16.50
  -3  10  -5  330.07   16.20
  10   3  -5  330.67   13.10
   3 -10  -5  340.57   17.10
  -3  10  -5  336.47   17.40
  -3  10   5  329.97   19.20
   3 -10   5  328.37   19.50
 -10  -3   5  333.87   16.90
  10   3   5  323.07   19.40
 -10  -3   5  350.56   16.30
  10   3   5  342.57   18.30
  -3  10   5  324.57   18.40
 -10  -3   5  323.17   16.90
 -10  -3   5  328.47   12.60
  10   3   5  342.27   20.40
   3 -10   5  319.17   17.40
   3 -10   5  306.47   16.10
  10   3   5  346.37   17.50
  -3  10   5  325.17   19.20
  -3  10   5  334.57   16.30
 -10  -1  -5   72.79    8.30
  -1  10  -5   88.89   11.10
  10   1  -5   78.69    6.60
  -1  10  -5   67.69    9.00
 -10  -1  -5   92.09   11.00
   1 -10  -5   97.99   11.70
  -1  10  -5   79.89    9.10
  10   1  -5  105.69   12.80
  10   1  -5   80.99   10.50
   1 -10  -5   96.99   11.50
 -10  -1  -5   80.19    9.80
  -1  10   5   90.99   10.40
 -10  -1   5   87.89    7.50
  10   1   5   82.29   10.50
  10   1   5   77.19    8.90
   1 -10   5   83.69   11.30
  -1  10   5   82.09    9.70
   1 -10   5   69.69   10.00
   1 -10   5   80.79    9.70
 -10  -1   5   78.39    9.50
  10   1   5   74.49    9.00
 -10  -1   5   83.49    9.00
  -1  10   5   96.19   13.50
  10   1   5   82.19   10.60
  -1  10   5   96.99   10.20
 -10  -1   5   95.09   12.20
  -1 -10  -5  918.61   31.70
  10  -1  -5  882.81   29.30
   1  10  -5  836.72   29.00
  -1 -10  -5  848.82   31.50
   1  10  -5  850.41   32.60
 -10   1  -5  888.51   31.20
  10  -1  -5  833.42   28.30
   1  10  -5  860.01   30.60
 -10   1  -5  893.01   32.50
   1  10  -5  827.32   32.90
  10  -1  -5  888.81   32.50
  -1 -10   5  825.22   29.40
  10  -1   5  855.41   33.20
  10  -1   5  880.81   31.70
 -10   1   5  862.11   29.60
 -10   1   5  848.82   31.80
   1  10   5  908.31   32.00
   1  10   5  911.01   34.20
  10  -1   5  861.11   31.90
   1  10   5  869.01   32.50
  10  -1   5  961.90   33.70
 -10   1   5  829.82   29.00
  -1 -10   5  837.52   31.50
   1  10   5  859.81   33.10
 -10   3  -5  168.78   13.30
  -3 -10  -5  145.09   15.00
   3  10  -5  147.59   15.20
   3  10  -5  161.78   14.90
   3  10  -5  171.98   12.40
  10  -3  -5  131.49   13.90
  -3 -10  -5  168.18   13.30
 -10   3  -5  165.18   14.40
   3  10  -5  151.28    9.00
  10  -3  -5  143.29    9.50
  10  -3   5  152.28   14.90
  10  -3   5  162.68   13.50
   3  10   5  173.28   16.40
  10  -3   5  163.38   14.80
  -3 -10   5  125.59   13.30
   3  10   5  111.19   14.10
 -10   3   5  169.38   11.50
   3  10   5  167.78   15.20
 -10   3   5  161.28   14.90
  -3 -10   5  145.99    9.40
  10  -3   5  169.08   16.60
   3  10   5  167.88   15.20
 -10   3   5  166.88   10.80
  10  -5  -5  441.36   17.70
   5  10  -5  355.16   22.50
 -10   5  -5  456.65   19.90
   5  10  -5  407.16   15.40
   5  10  -5  431.56   21.30
 -10   5  -5  420.26   21.00
  10  -5  -5  460.35   21.20
  -5 -10  -5  404.46   20.60
 -10   5  -5  443.96   21.00
   5  10  -5  416.26   17.90
   5  10   5  426.16   22.60
 -10   5   5  408.36   21.90
   5  10   5  443.46   20.30
  -5 -10   5  429.16   15.70
  10  -5   5  434.56   21.80
   5  10   5  419.86   22.80
  -5 -10   5  462.15   18.50
  10  -5   5  422.56   22.50
  10  -5   5  424.16   20.80
 -10   5   5  430.96   18.90
   5  10   5  454.75   22.30
 -10   5   5  382.76   18.80
  -5 -10   5  436.56   21.80
   7  10  -5  175.78   16.20
   7  10  -5  178.68   18.50
 -10   7  -5  179.78   16.90
  -7 -10  -5  192.18   16.00
 -10   7  -5  173.18   15.00
  10  -7  -5  172.78   12.70
 -10   7  -5  171.78   16.60
   7  10  -5  152.28    8.50
  10  -7  -5  139.49   15.60
 -10   7   5  160.78   14.20
   7  10   5  156.88   17.30
  10  -7   5  178.08   15.90
 -10   7   5  155.58   14.30
  10  -7   5  168.08   18.60
  -7 -10   5  153.78   16.10
  -7 -10   5  160.88    8.70
  10  -7   5  155.48   17.20
 -10   7   5  147.29   17.80
  -7 -10   5  167.38   13.80
   7  10   5  167.78   18.20
 -10   9  -5  284.37   19.60
   9  10  -5  263.57   19.70
  10  -9  -5  309.27   20.30
  10  -9  -5  236.28   26.50
   9  10  -5  263.07   23.30
   9  10  -5  251.07   18.30
 -10   9  -5  295.27   18.50
 -10   9  -5  226.98   19.40
   9  10  -5  267.37   11.80
  10  -9   5  243.88   19.30
   9  10   5  277.87   21.80
  10  -9   5  269.07   22.10
 -10   9   5  281.87   18.80
 -10   9   5  222.88   21.80
   9  10   5  257.87   22.70
  10  -9   5  261.57   20.60
  -9 -10   5  277.77   13.00
 -10   9   5  243.98   23.10
  -9 -10   5  285.17   18.30
  11  10  -5  288.47   21.90
  11  10  -5  247.18   25.90
  11  10  -5  292.17   13.10
  10 -11  -5  276.07   20.30
  10 -11  -5  260.07   22.30
 -10  11  -5  322.17   22.20
 -11 -10  -5  282.27   23.80
 -10  11  -5  315.17   22.60
 -10  11  -5  313.67   21.10
  10 -11   5  250.27   23.20
  10 -11   5  256.97   27.40
 -10  11   5  228.28   24.40
 -10  11   5  277.47   23.90
 -11 -10   5  280.47   12.20
  10 -11   5  275.57   22.00
 -10  11   5  213.68   22.40
 -11 -10   5  287.17   21.60
  11  10   5  260.77   25.30
  11   8  -5  235.18   22.40
  -8  11  -5  239.78   18.60
   8 -11  -5  238.38   17.30
  11   8  -5  203.68   10.90
  11   8  -5  236.08   18.90
 -11  -8  -5  232.98   20.30
   8 -11  -5  240.48   19.50
  -8  11  -5  207.08   27.00
  -8  11  -5  248.38   19.20
  -8  11   5  196.68   19.90
  11   8   5  238.78   20.70
  -8  11   5  213.08   21.20
  11   8   5  210.68   21.10
 -11  -8   5  247.18   20.10
 -11  -8   5  232.68   11.30
   8 -11   5  222.48   19.40
   8 -11   5  232.48   21.10
  -8  11   5  227.68   21.40
   8 -11   5  218.88   21.00
  -6  11  -5   23.60    9.70
  -6  11  -5   40.40    9.60
   6 -11  -5   45.40    9.70
   6 -11  -5   50.09    8.80
  -6  11  -5   32.70    8.50
  11   6  -5   44.80    9.80
  11   6  -5   48.30    6.60
 -11  -6  -5   41.70   10.50
  11   6  -5   45.40   10.90
  11   6   5   41.70    8.40
  -6  11   5   46.60   10.40
 -11  -6   5   27.50   10.20
 -11  -6   5   35.30    4.20
  11   6   5   43.80   11.50
   6 -11   5   28.60    9.20
  -6  11   5   43.00   10.20
  -6  11   5   27.10   11.00
  11   6   5   45.70   10.10
   6 -11   5   44.20    9.70
   6 -11   5   25.60   10.00
  11   4  -5  461.45   21.40
 -11  -4  -5  453.55   21.70
  11   4  -5  449.16   15.80
  -4  11  -5  430.76   22.50
   4 -11  -5  420.86   21.20
  11   4  -5  458.95   22.90
  11   4  -5  445.96   20.90
  -4  11  -5  442.86   20.40
   4 -11  -5  433.26   20.40
  -4  11  -5  484.45   21.20
   4 -11   5  407.86   22.60
   4 -11   5  433.76   20.40
  11   4   5  453.95   20.20
 -11  -4   5  416.86   15.60
   4 -11   5  431.46   21.20
  11   4   5  440.36   23.70
 -11  -4   5  414.16   19.70
  -4  11   5  450.75   22.90
  -4  11   5  438.16   21.90
  -4  11   5  433.96   22.70
  11   4   5  431.16   21.00
  11   2  -5   76.99    8.70
   2 -11  -5   73.29    9.10
 -11  -2  -5   83.29    9.10
  -2  11  -5   74.09   10.50
   2 -11  -5   79.59    9.30
  11   2  -5   78.49    7.20
 -11  -2  -5  102.29   11.40
  11   2  -5   97.79   11.10
  -2  11  -5   96.29   12.00
  -2  11  -5   72.79   10.30
   2 -11   5   80.39   10.90
 -11  -2   5  102.39   12.90
  -2  11   5   76.59   10.70
  11   2   5   81.39   11.60
  -2  11   5   86.99   11.00
  11   2   5   92.39   11.60
   2 -11   5   74.69    9.60
 -11  -2   5   89.49    8.20
  11   2   5   92.29   10.00
   2 -11   5   99.19   12.00
  11   2   5   95.69    9.60
  -2  11   5   93.79   11.20
  11   0  -5  168.48   15.10
 -11   0  -5  167.78   13.30
   0 -11  -5  197.08   14.60
   0  11  -5  171.48   15.80
   0  11  -5  171.68   11.20
  11   0  -5  190.48   12.80
  11   0  -5  174.78    9.70
   0  11  -5  172.28   13.70
 -11   0  -5  174.08   13.90
   0  11  -5  180.68   16.00
   0 -11  -5  172.88   13.90
   0  11   5  164.18   16.20
  11   0   5  197.18   17.90
   0  11   5  195.18   17.40
 -11   0   5  178.28   15.10
   0  11   5  162.58   13.60
   0  11   5  191.78   16.70
 -11   0   5  167.78   10.40
  11   0   5  174.08   14.10
   0 -11   5  193.18   14.10
  11   0   5  169.88   16.10
   0 -11   5  173.88   11.60
  11   0   5  166.78   14.20
 -11   0   5  162.78   11.50
   2  11  -5  483.65   23.50
   2  11  -5  498.25   20.90
  -2 -11  -5  526.35   22.00
  11  -2  -5  481.85   22.70
 -11   2  -5  505.45   23.10
   2  11  -5  485.35   18.70
   2  11  -5  490.05   23.90
 -11   2  -5  525.75   22.10
  11  -2  -5  477.95   18.60
   2  11   5  511.25   24.00
  11  -2   5  486.35   23.40
 -11   2   5  477.85   19.40
  -2 -11   5  484.05   18.80
 -11   2   5  483.85   22.20
  11  -2   5  476.75   24.50
  11  -2   5  515.65   21.80
   2  11   5  440.16   23.90
  11  -2   5  464.75   22.20
   2  11   5  492.75   22.30
  -2 -11   5  500.85   21.90
   2  11   5  481.55   22.70
  -4 -11  -5  598.94   25.90
  11  -4  -5  597.74   22.90
  11  -4  -5  636.44   26.50
   4  11  -5  605.74   27.60
   4  11  -5  597.14   26.20
 -11   4  -5  654.03   26.20
 -11   4  -5  643.34   26.70
   4  11  -5  593.64   21.50
   4  11  -5  600.04   23.60
   4  11   5  601.44   28.10
   4  11   5  613.24   26.50
  11  -4   5  621.34   27.50
   4  11   5  589.84   27.50
  -4 -11   5  647.44   25.50
 -11   4   5  581.44   23.30
  11  -4   5  618.44   25.30
  11  -4   5  581.94   25.60
 -11   4   5  567.04   26.00
  11  -4   5  614.14   26.90
   4  11   5  578.84   25.20
  -4 -11   5  589.74   21.40
  11  -6  -5  113.89   11.90
  11  -6  -5  127.89   15.50
   6  11  -5  101.19    8.40
   6  11  -5  115.09   13.80
 -11   6  -5  124.49   15.60
 -11   6  -5  134.49   15.90
   6  11  -5  114.79   12.10
 -11   6  -5  123.89   14.80
  -6 -11  -5   94.59   11.10
  11  -6   5  116.59   15.10
  11  -6   5  107.99   12.40
   6  11   5  115.29   13.10
 -11   6   5  152.28   17.20
 -11   6   5  109.99   13.60
  -6 -11   5  116.29    8.90
   6  11   5  129.29   17.70
  11  -6   5  117.49   13.00
  -6 -11   5  131.39   15.40
   8  11  -5   20.60    6.90
 -11   8  -5   19.80   10.30
   8  11  -5   24.00   10.10
 -11   8  -5   20.00    9.40
  -8 -11  -5   19.60   10.00
  11  -8  -5   21.70    7.80
   8  11  -5   31.00   14.20
  11  -8  -5    9.90   10.50
  11  -8   5   22.20   10.70
  -8 -11   5    6.80    8.50
  11  -8   5   22.30   10.40
 -11   8   5   17.40    9.60
 -11   8   5   18.70   12.00
   8  11   5   11.40   11.30
  -8 -11   5   19.80    5.50
  -8 -11   5   20.90   10.50
  11  -8   5   13.80   12.00
   8  11   5   16.50   12.00
 -11  10  -5   75.19   11.50
 -10 -11  -5   78.69   14.00
  10  11  -5   67.69    8.80
 -11  10  -5   68.09   13.40
  11 -10  -5   91.79   13.30
  10  11  -5   65.39   15.60
  11 -10  -5   73.39   10.60
  10  11  -5   71.69   12.30
 -10 -11   5   72.09    9.10
 -11  10   5   82.19   15.20
  11 -10   5   64.79   14.80
  11 -10   5   75.19   13.80
  11 -10   5   87.49   13.40
 -11  10   5   74.19   13.10
  10  11   5   96.39   15.00
  10  11   5   56.49   14.60
  12  11  -5   59.89   17.00
 -11  12  -5   93.99   15.20
  12  11  -5   84.89    7.80
  12  11  -5   68.99   13.90
  11 -12  -5   92.69   13.30
 -12 -11  -5   61.89   15.90
 -11  12  -5   87.99   13.20
  11 -12  -5   71.49   14.40
  11 -12   5   96.99   14.80
  11 -12   5  110.49   16.60
  11 -12   5   81.79   15.50
 -12 -11   5   71.49   14.60
 -11  12   5   83.69   15.10
 -11  12   5   80.09   16.60
 -11  12   5   66.39   15.80
 -12 -11   5   73.19    7.30
  12  11   5   77.59   16.90
  -9  12  -5   33.40   12.00
  12   9  -5   38.70   11.90
  12   9  -5   38.80   20.80
   9 -12  -5   26.20   11.70
  -9  12  -5   15.10   11.10
  -9  12  -5   25.30   11.70
   9 -12  -5   22.60   10.90
 -12  -9  -5   19.50   12.80
  12   9  -5   35.00    5.60
   9 -12   5   28.00   13.70
  12   9   5   25.10   13.60
  -9  12   5   22.70   13.90
  -9  12   5   52.49   13.20
  -9  12   5   39.70   14.00
 -12  -9   5   23.50    5.10
   9 -12   5   25.80   12.50
 -12  -9   5   27.90   12.80
   9 -12   5   48.20   12.90
  12   7  -5    9.60   10.30
  -7  12  -5    4.70   10.30
  12   7  -5   22.60    6.10
   7 -12  -5   38.40   10.50
 -12  -7  -5   17.00   11.70
  12   7  -5   15.80   11.50
  -7  12  -5   20.50   11.30
   7 -12  -5   21.00    9.50
  -7  12   5   18.00   12.00
   7 -12   5   18.80   11.40
  12   7   5   23.90   12.50
  -7  12   5   16.50   13.30
 -12  -7   5   25.00    4.80
  -7  12   5   28.70   12.90
   7 -12   5   21.10   10.10
  -5  12  -5   58.49   10.70
  -5  12  -5   67.89   13.10
   5 -12  -5   87.89   10.40
  -5  12  -5   86.19   11.70
  12   5  -5   94.99   10.90
 -12  -5  -5   96.19   12.20
   5 -12   5   82.89   10.80
 -12  -5   5   85.59   12.20
  -5  12   5   76.99   12.90
   5 -12   5   76.29   12.10
  12   5   5   74.29    9.90
 -12  -5   5   72.59    7.90
  12   5   5   82.39   17.20
  -5  12   5   90.59   16.30
  -5  12   5   84.79   12.60
   3 -12  -5  540.65   24.80
  -3  12  -5  558.34   26.50
  -3  12  -5  517.35   22.90
  12   3  -5  574.64   24.10
 -12  -3  -5  587.84   24.60
  12   3  -5  533.95   25.90
  12   3  -5  559.24   19.60
  -3  12  -5  534.75   23.70
   3 -12  -5  550.54   24.00
  -3  12   5  559.74   27.00
  12   3   5  552.54   24.40
  -3  12   5  536.25   26.10
  12   3   5  549.65   31.80
  -3  12   5  532.45   26.80
   3 -12   5  550.54   26.80
   3 -12   5  550.24   24.80
 -12  -3   5  551.24   23.60
  12   3   5  545.65   27.30
 -12  -3   5  533.45   19.60
   3 -12   5  539.85   23.20
  -1  12  -5  554.94   22.00
  -1  12  -5  546.35   26.50
   1 -12  -5  579.64   24.60
 -12  -1  -5  561.24   23.40
  12   1  -5  527.85   23.00
 -12  -1  -5  563.84   23.20
  12   1  -5  508.85   25.10
  12   1  -5  559.64   20.20
   1 -12  -5  598.24   24.40
  -1  12  -5  568.74   23.50
   1 -12   5  547.15   26.90
  12   1   5  575.54   23.80
   1 -12   5  526.15   24.60
 -12  -1   5  572.64   20.70
  -1  12   5  513.05   26.40
  -1  12   5  523.45   26.10
  12   1   5  567.54   35.50
  12   1   5  573.54   24.70
  12   1   5  544.75   26.00
   1 -12   5  544.85   22.30
 -12  -1   5  590.74   24.50
  -1  12   5  534.05   25.90
  -1 -12  -5   79.29    9.90
  12  -1  -5   85.49    9.00
   1  12  -5   87.99   11.50
   1  12  -5  106.49   13.30
  12  -1  -5   79.79   11.20
   1  12  -5   76.79   11.20
 -12   1  -5   81.79    9.80
   1  12  -5  100.59   10.00
 -12   1   5  104.19   11.70
  12  -1   5   67.89    9.40
   1  12   5   78.79   11.70
   1  12   5  110.39   12.20
   1  12   5   90.89   11.90
  -1 -12   5   62.69    9.40
  -1 -12   5   84.29   10.50
  12  -1   5   89.09    9.80
  12  -1   5   94.79   11.80
   1  12   5  101.29   13.40
 -12   1   5   76.69    7.50
  12  -1   5   89.49   13.50
  -3 -12  -5  192.88   15.70
  12  -3  -5  182.98   12.30
   3  12  -5  196.98   22.10
  -3 -12  -5  184.38   23.90
   3  12  -5  202.68   17.60
  12  -3  -5  178.68   17.10
 -12   3  -5  195.68   16.50
   3  12  -5  195.78   14.40
   3  12  -5  179.08   13.70
  12  -3   5  195.58   20.00
   3  12   5  235.38   18.10
   3  12   5  212.98   18.70
  12  -3   5  202.78   16.30
  12  -3   5  165.18   17.00
 -12   3   5  214.48   17.10
  -3 -12   5  188.38   16.30
   3  12   5  216.08   20.60
 -12   3   5  179.88   13.50
  12  -3   5  165.28   17.80
   3  12   5  203.28   17.10
  -3 -12   5  182.08   12.20
   5  12  -5  114.99   11.00
   5  12  -5  110.89   15.00
   5  12  -5  106.69   12.10
 -12   5  -5  117.89   14.10
  12  -5   5   92.59   14.00
  -5 -12   5  116.49   12.30
  -5 -12   5  166.48   16.50
  12  -5   5  133.69   16.90
   5  12   5  139.29   14.50
   5  12   5  125.89   17.60
  12  -5   5  129.89   17.60
  12  -5   5  120.59   16.00
 -12   5   5  114.09   14.40
 -12   7  -5  142.49   17.90
   7  12  -5  141.79   10.10
   7  12  -5  138.29   13.60
   7  12  -5  149.29   21.00
  12  -7  -5  162.08   17.60
  12  -7  -5  159.98   14.50
  -7 -12  -5  125.49   13.20
  -7 -12   5  146.89   10.50
   7  12   5  144.09   15.80
   7  12   5  114.69   14.60
  12  -7   5  163.08   18.20
 -12   7   5  137.59   16.70
  12  -7   5  140.29   19.30
 -12   7   5  176.88   20.90
  -7 -12   5  123.39   13.30
  12  -7   5  122.99   14.90
 -12   9  -5   -5.20   11.60
   9  12  -5    9.10    5.50
   9  12  -5  -12.50   12.90
   9  12  -5    2.60   10.90
  -9 -12  -5   -3.70   11.30
  12  -9  -5    5.80    8.80
  12  -9  -5   -1.30   11.70
  12  -9   5   33.00   14.10
  12  -9   5    1.40   10.80
  -9 -12   5   16.50   11.50
  -9 -12   5    5.10    5.80
   9  12   5   -0.10   13.60
  12  -9   5    1.10   12.60
   9  12   5  -20.00   14.70
 -12   9   5  -12.00   12.90
 -12   9   5    2.40   10.80
  11  12  -5  364.26   30.50
  12 -11  -5  370.56   25.90
  12 -11  -5  317.97   24.20
  11  12  -5  340.77   15.90
  11  12  -5  330.27   26.00
 -12  11  -5  335.47   23.90
 -11 -12  -5  342.77   26.30
 -12  11  -5  310.07   25.70
  11  12   5  348.77   28.30
  12 -11   5  348.77   26.60
  12 -11   5  325.17   26.10
 -12  11   5  341.57   28.00
 -11 -12   5  367.36   25.20
 -11 -12   5  336.07   15.70
 -12  11   5  308.97   27.80
 -13 -12  -5  303.17   30.40
 -12  13  -5  204.68   24.50
  12 -13  -5  251.67   24.50
  13  12  -5  254.17   27.60
 -12  13  -5  249.08   26.10
  12 -13  -5  296.67   25.70
  13  12  -5  272.07   15.50
  13  12  -5  254.77   32.90
  12 -13   5  270.67   26.80
 -13 -12   5  212.68   27.00
 -12  13   5  186.68   20.70
  13  12   5  242.08   31.20
 -13 -12   5  204.38   14.10
 -12  13   5  234.98   30.50
  10 -13  -5   60.19   14.10
  13  10  -5   33.90   16.50
  10 -13  -5   36.40   12.30
 -10  13  -5   47.50   13.70
 -10  13  -5   39.00   13.40
 -10  13  -5   69.49   14.70
  13  10  -5   43.20   14.00
 -13 -10  -5   43.70   15.50
  13  10  -5   41.50    6.80
 -13 -10   5   45.30    6.70
 -10  13   5   42.70   13.70
  10 -13   5   31.80   14.30
  13  10   5   43.90   16.70
 -10  13   5   60.79   16.20
 -13 -10   5   43.80   14.60
 -10  13   5   34.00   16.00
  10 -13   5   38.90   15.40
  10 -13   5   37.90   13.50
   8 -13  -5  312.47   22.90
  13   8  -5  313.97   14.30
  -8  13  -5  338.67   23.90
   8 -13  -5  349.77   22.30
  -8  13  -5  327.97   23.10
  13   8  -5  331.97   24.00
  -8  13  -5  328.77   23.20
 -13  -8  -5  365.26   26.10
  -8  13   5  360.26   25.90
  -8  13   5  309.87   27.10
   8 -13   5  353.76   24.20
   8 -13   5  340.27   26.40
 -13  -8   5  337.87   14.40
  13   8   5  322.67   27.20
  -8  13   5  357.16   25.90
   8 -13   5  321.37   26.10
 -13  -8   5  357.56   26.20
  13   6  -5  236.58   12.30
  -6  13  -5  235.18   20.90
  13   6  -5  261.57   24.60
  -6  13  -5  263.27   19.60
  -6  13  -5  241.28   20.40
   6 -13  -5  265.87   19.80
 -13  -6  -5  241.58   22.60
   6 -13   5  241.08   20.20
  -6  13   5  257.77   22.20
 -13  -6   5  235.18   12.00
   6 -13   5  277.77   20.20
  -6  13   5  270.97   24.30
 -13  -6   5  239.28   22.30
   6 -13   5  208.98   21.80
  -6  13   5  288.97   24.50
  13   6   5  238.08   22.90
  13   6   5  222.68   19.20
  13   4  -5  210.38   13.70
 -13  -4  -5  243.58   19.80
  -4  13  -5  245.48   21.60
  -4  13  -5  217.88   18.50
   4 -13  -5  251.37   19.30
  -4  13  -5  260.57   17.00
  13   4  -5  245.28   18.80
  -4  13   5  233.68   21.30
 -13  -4   5  254.27   22.10
  -4  13   5  256.17   22.70
   4 -13   5  245.78   18.70
  -4  13   5  240.98   23.00
  13   4   5  249.88   18.70
  13   4   5  242.68   22.10
   4 -13   5  224.78   20.00
   4 -13   5  215.58   17.30
   2 -13  -5  241.68   21.70
 -13  -2  -5  214.28   18.40
  13   2  -5  251.07   17.60
  -2  13  -5  207.68   21.70
  -2  13  -5  229.78   17.30
  -2  13   5  270.17   29.30
  13   2   5  238.78   20.70
  -2  13   5  212.68   22.30
  -2  13   5  238.68   21.00
  13   2   5  241.38   18.90
   2 -13   5  230.78   22.90
   2 -13   5  177.78   26.00
 -13   0  -5  222.28   15.90
  13   0  -5  196.48   25.90
   0  13  -5  196.18   16.00
  13   0   5  213.88   17.70
   0 -13   5  232.98   25.00
 -13   0   5  191.68   17.50
   0  13   5  195.98   20.60
   0  13   5  202.28   21.30
  13   0   5  203.28   20.70
   2  13  -5  314.77   17.60
   2  13  -5  324.57   26.60
 -13   2  -5  342.97   19.40
   2  13  -5  270.57   20.70
   2  13  -5  247.28   17.00
  -2 -13  -5  297.07   20.50
  13  -2  -5  282.57   15.70
  13  -2  -5  318.07   24.30
   2  13   5  336.97   19.80
   2  13   5  356.76   22.30
 -13   2   5  271.07   17.20
  13  -2   5  288.37   21.40
 -13   2   5  308.77   21.30
  13  -2   5  277.87   19.90
  -2 -13   5  322.57   17.50
  -4 -13  -5   35.20    9.80
 -13   4  -5   44.90   13.10
   4  13  -5   39.60    6.30
  13  -4  -5   35.10   10.80
  13  -4  -5   42.50    7.60
   4  13  -5   47.50   17.20
   4  13  -5   33.30   11.50
  13  -4   5   51.69   11.90
 -13   4   5   42.20    8.40
   4  13   5   52.59   11.60
  13  -4   5   44.20   10.50
  -4 -13   5   50.69   10.60
  -4 -13   5   54.39    7.30
   4  13   5   42.50   13.90
  13  -6  -5  274.37   17.30
  13  -6  -5  267.77   21.10
 -13   6  -5  289.57   20.90
   6  13  -5  259.67   23.40
  -6 -13  -5  274.77   21.20
   6  13  -5  278.57   14.10
   6  13   5  249.48   22.20
  13  -6   5  256.27   21.30
  -6 -13   5  293.47   14.70
 -13   6   5  271.67   19.10
 -13   6   5  297.87   22.70
  -6 -13   5  318.67   21.50
   6  13   5  287.27   25.10
  13  -8  -5  188.08   17.40
   8  13  -5  173.08   24.50
   8  13  -5  191.38   12.30
  -8 -13  -5  178.38   20.50
 -13   8  -5  168.58   21.20
  13  -8  -5  166.88   21.80
   8  13  -5  177.08   21.10
  13  -8   5  183.98   22.20
   8  13   5  199.08   26.10
  -8 -13   5  195.78   13.00
 -13   8   5  181.98   18.50
 -13   8   5  179.28   19.50
   8  13   5  205.48   23.80
  13  -8   5  173.88   21.00
  -8 -13   5  173.88   21.80
  10  13  -5  225.28   29.60
  10  13  -5  234.18   14.10
 -13  10  -5  204.28   23.60
  13 -10  -5  223.98   21.10
 -10 -13  -5  255.77   24.10
  13 -10  -5  228.68   23.20
  13 -10   5  238.68   23.40
  10  13   5  236.58   27.00
 -10 -13   5  221.78   14.60
 -10 -13   5  251.87   24.80
  13 -10   5  241.98   24.80
 -13  10   5  262.67   24.70
 -13  10   5  217.58   27.40
  13 -12  -5   -3.50   12.60
  13 -12  -5   24.70   14.10
 -13  12  -5    9.90   14.70
 -12 -13  -5   14.10   17.00
  12  13  -5   13.30    7.70
  12  13  -5   22.10   18.70
 -13  12   5   16.60   17.40
 -12 -13   5   38.70   15.10
 -13  12   5   30.50   16.80
 -12 -13   5   26.60    7.70
  12  13   5   10.00   17.60
  13 -12   5   30.40   14.70
  14  11  -5   14.70   16.00
  11 -14  -5   26.40   21.40
  11 -14  -5   11.10   14.90
  14  11  -5   23.40    8.00
 -11  14  -5   27.00   15.70
 -14 -11  -5   33.20   17.60
 -11  14  -5   43.30   14.80
  14  11   5   22.50   17.80
 -14 -11   5   27.20    7.50
  11 -14   5   22.50   25.20
 -14 -11   5   28.60   16.00
 -11  14   5   -4.60   18.50
 -11  14   5   21.60   18.30
  11 -14   5   37.20   15.70
 -11  14   5   23.40   17.20
  14   9  -5  100.59   15.50
 -14  -9  -5  122.59   18.00
  14   9  -5  116.59   11.50
  -9  14  -5  119.69   16.30
  -9  14  -5  108.09   14.90
   9 -14  -5   94.19   14.00
   9 -14  -5  118.69   15.80
  -9  14  -5   87.49   15.10
   9 -14   5  111.19   15.90
  -9  14   5  105.69   18.20
   9 -14   5   98.89   16.50
  -9  14   5  105.19   15.90
 -14  -9   5   92.19   11.00
  14   9   5  131.09   18.30
  -9  14   5   76.59   18.30
 -14  -9   5   82.69   16.80
   9 -14   5  122.49   16.90
  14   7  -5   55.59   13.30
  -7  14  -5   63.19   14.30
  -7  14  -5   65.69   13.70
 -14  -7  -5   63.69   15.00
   7 -14  -5   41.60   12.40
  -7  14  -5   50.19   12.20
  14   7  -5   57.89    7.00
   7 -14   5   62.19   14.20
  -7  14   5   72.49   14.50
  14   7   5   40.50   15.50
   7 -14   5   53.79   12.70
  -7  14   5   62.89   16.30
  14   7   5   46.40   15.40
 -14  -7   5   29.20   14.00
  -7  14   5   34.50   16.40
   7 -14   5   61.19   13.80
 -14  -7   5   53.89    6.60
  14   5  -5  187.98   22.40
  -5  14  -5  257.27   20.90
  14   5  -5  238.48   13.90
   5 -14  -5  232.08   19.70
  -5  14  -5  235.28   19.20
  -5  14  -5  300.37   23.30
   5 -14   5  246.18   19.80
   5 -14   5  216.58   21.50
  -5  14   5  260.77   24.70
  -5  14   5  197.08   26.00
 -14  -5   5  267.27   23.30
   5 -14   5  225.78   22.70
 -14  -5   5  232.98   13.40
  14   5   5  271.57   24.80
  14   5   5  252.97   20.40
  -5  14   5  258.07   24.00
  -3  14  -5  129.69   15.00
   3 -14  -5  107.09   12.40
  14   3  -5   99.89   12.60
  -3  14  -5   85.19   13.80
  -3  14  -5  104.79   17.40
 -14  -3  -5  142.19   19.40
  14   3  -5  111.19   10.50
   3 -14   5  110.89   11.50
  14   3   5   99.29   12.70
 -14  -3   5  103.09   14.70
  -3  14   5   96.39   14.70
 -14  -3   5   83.89   11.20
   3 -14   5   85.69   14.10
  -3  14   5   96.79   15.70
   3 -14   5   90.89   12.70
  -3  14   5   92.69   17.10
  14   3   5  101.99   14.70
  14   1  -5  109.79   13.70
  14   1  -5   87.39   11.60
  -1  14  -5   85.99   11.10
  -1  14  -5   82.89   13.60
  14   1  -5   91.99   10.90
   1 -14  -5  100.99   12.70
  -1  14  -5   89.09   10.10
   1 -14   5  103.69   12.30
  -1  14   5   76.09   14.10
  -1  14   5   84.99   14.40
   1 -14   5   89.29   10.10
  14   1   5   76.99   13.40
  14   1   5   94.69   12.90
   1 -14   5   79.59   13.80
 -14  -1   5   94.79   11.80
   1  14  -5   62.69    8.50
  14  -1  -5   80.49   12.40
  14  -1  -5   71.39    7.60
   1  14  -5   69.89   12.90
  -1 -14  -5   59.39   11.50
   1  14  -5   63.99   13.00
   1  14  -5   66.99   10.10
 -14   1  -5   45.70   10.40
  14  -1   5   60.89   12.90
  14  -1   5   52.19   11.30
 -14   1   5   50.09   11.70
  -1 -14   5   63.99    8.80
  -1 -14   5   83.29   11.90
 -14   1   5   60.89    8.50
   1  14   5   95.09   14.50
   1  14   5   67.89   14.00
  -3 -14  -5  145.49   17.70
   3  14  -5  126.69   14.70
  14  -3  -5  107.99   13.70
  14  -3  -5  118.59   12.70
   3  14  -5  114.09   15.10
   3  14  -5  102.39   11.90
 -14   3  -5  138.79   17.80
  14  -3   5  100.79   12.70
 -14   3   5  101.99   13.90
   3  14   5  131.99   17.10
  -3 -14   5  135.29   17.40
  -3 -14   5  110.99   13.30
 -14   3   5  118.89   14.10
   3  14   5  103.09   15.20
  14  -3   5   93.09   13.90
  14  -5  -5   34.10    8.30
   5  14  -5   51.49   13.20
  -5 -14  -5   32.90   11.40
 -14   5  -5   30.20   11.40
   5  14  -5   49.99   13.40
  14  -5  -5   54.89   13.10
   5  14  -5   30.40    7.20
 -14   5   5   34.20    9.50
  -5 -14   5   11.70   11.70
   5  14   5   42.70   15.00
 -14   5   5   69.19   13.60
   5  14   5   53.59   13.20
  -5 -14   5   35.30    7.60
  14  -5   5   45.10   11.90
  14  -5   5   33.90   12.70
   7  14  -5  130.39   15.10
   7  14  -5   98.49   12.00
   7  14  -5  103.49   16.80
  14  -7  -5  115.39   15.00
  -7 -14  -5  133.29   15.00
 -14   7  -5  109.79   15.00
  14  -7  -5  123.09   16.00
 -14   7   5  127.69   17.10
 -14   7   5  111.79   12.90
  -7 -14   5  126.09   15.30
   7  14   5  115.69   15.80
  14  -7   5   97.09   14.10
  14  -7   5  113.59   15.10
   7  14   5  118.69   18.30
  -7 -14   5  121.29   13.00
  -9 -14  -5  171.88   23.40
   9  14  -5  227.38   14.20
   9  14  -5  238.58   29.40
  14  -9  -5  207.58   20.10
  14  -9  -5  205.28   24.10
 -14   9  -5  194.68   23.90
   9  14   5  233.08   30.00
   9  14   5  214.68   26.30
 -14   9   5  206.08   22.90
 -14   9   5  233.88   27.90
  -9 -14   5  185.98   18.50
  14  -9   5  183.98   24.50
  14  -9   5  249.48   24.00
  -9 -14   5  192.58   14.80
 -11 -14  -5  155.58   18.60
  14 -11  -5  116.39   17.20
  11  14  -5   95.19    9.90
  11  14  -5  114.39   21.50
 -14  11  -5   84.89   17.60
  14 -11  -5  117.39   15.30
  11  14   5  117.29   20.20
  14 -11   5  119.99   16.90
 -14  11   5   84.49   17.30
 -11 -14   5   98.89   16.60
 -11 -14   5   93.49    9.70
 -14  11   5   69.79   18.10
  -8  15  -5  293.97   25.60
  -8  15  -5  244.48   26.10
  15   8  -5  226.68   14.70
  -8  15  -5  219.38   24.90
   8 -15  -5  231.58   24.80
  15   8  -5  224.28   26.80
 -15  -8  -5  290.27   29.00
  15   8   5  204.78   23.10
   8 -15   5  227.78   27.50
  15   8   5  206.58   27.10
   8 -15   5  246.98   24.90
 -15  -8   5  222.68   13.80
 -15  -8   5  215.88   29.00
  -8  15   5  216.88   21.50
  -8  15   5  277.17   27.90
   8 -15   5  223.88   19.90
  -6  15  -5  133.89   17.20
 -15  -6  -5  126.09   16.80
  15   6  -5  105.09   12.70
  -6  15  -5  122.89   15.90
  -6  15  -5  127.29   14.30
  15   6  -5  111.49   14.90
   6 -15  -5  127.99   15.60
 -15  -6   5   97.49   12.10
  15   6   5  127.39   14.60
   6 -15   5  123.59   16.50
   6 -15   5  102.49   15.30
  -6  15   5  103.79   16.20
  15   6   5  111.19   16.50
   6 -15   5   98.49   14.60
  -6  15   5   78.79   18.00
 -15  -6   5   84.99   15.40
  -4  15  -5   90.19   15.60
  -4  15  -5   83.79   11.80
  -4  15  -5   84.99   13.60
   4 -15  -5   85.69   13.50
 -15  -4  -5   95.49   15.00
  15   4  -5  102.99   13.60
   4 -15   5  100.49   15.20
  -4  15   5   93.39   16.80
   4 -15   5   92.59   12.60
 -15  -4   5   78.69    8.60
  -4  15   5   85.29   15.60
  15   4   5   89.19   13.80
 -15  -4   5   84.49   15.60
  15   4   5   84.09   15.30
   4 -15   5   97.79   13.80
  15   2  -5  264.87   15.30
  -2  15  -5  259.27   20.10
  -2  15  -5  313.77   25.20
  15   2  -5  288.17   22.20
  -2  15  -5  245.38   18.60
   2 -15  -5  272.17   20.70
 -15  -2   5  258.07   15.90
 -15  -2   5  209.18   24.70
  -2  15   5  308.07   26.10
   2 -15   5  269.77   23.30
  15   2   5  294.97   25.10
   2 -15   5  261.87   19.10
  -2  15   5  208.18   23.30
  15   2   5  247.18   22.00
   2 -15   5  272.27   25.30
   0  15  -5   24.50   13.00
  15   0  -5   25.70    7.00
  15   0  -5   41.70   12.90
   0 -15  -5   13.60   11.00
   0  15  -5   20.80   12.40
   0  15  -5   18.20    8.60
   0  15  -5   30.30   10.40
   0 -15   5   28.60   11.80
   0  15   5   15.40   14.00
  15   0   5    8.90   13.00
  15   0   5   31.60   12.20
 -15   0   5   26.40    8.20
   0 -15   5   27.60    8.80
  15  -2  -5  266.77   16.50
  -2 -15  -5  280.97   22.80
   2  15  -5  281.17   23.50
 -15   2  -5  270.37   20.80
   2  15  -5  284.47   17.10
   2  15  -5  297.47   24.50
  15  -2  -5  262.77   23.20
  15  -2   5  298.87   24.30
 -15   2   5  290.07   18.40
  -2 -15   5  270.37   22.10
   2  15   5  271.97   26.10
 -15   2   5  280.47   24.50
  -2 -15   5  242.58   17.30
  15  -2   5  309.37   23.10
   4  15  -5  454.95   28.30
  15  -4  -5  399.76   21.10
 -15   4  -5  427.76   25.60
  -4 -15  -5  456.85   26.20
   4  15  -5  457.85   28.60
  15  -4  -5  385.56   26.40
   4  15  -5  436.46   20.00
  -4 -15   5  422.46   25.80
 -15   4   5  460.15   29.10
   4  15   5  422.16   27.20
   4  15   5  409.36   30.50
  15  -4   5  408.46   27.30
  15  -4   5  458.65   26.10
  -4 -15   5  415.56   21.10
 -15   4   5  444.56   22.60
   6  15  -5  481.25   31.10
   6  15  -5  461.15   20.90
   6  15  -5  455.35   29.30
  -6 -15  -5  430.26   27.00
  15  -6  -5  470.65   23.10
  15  -6  -5  464.45   28.20
 -15   6  -5  480.55   27.40
  -6 -15   5  431.26   21.30
  15  -6   5  438.46   27.80
 -15   6   5  505.95   30.10
  -6 -15   5  445.66   27.10
 -15   6   5  447.56   25.30
   6  15   5  501.85   34.40
  15  -6   5  454.95   28.40
   6  15   5  453.95   29.40
  -8 -15  -5   53.99   14.80
  15  -8  -5   52.29   11.40
   8  15  -5   49.60    8.80
  15  -8  -5   29.10   14.50
   8  15  -5   43.20   15.60
 -15   8  -5   48.00   15.00
   8  15  -5   65.49   18.20
  -8 -15   5   41.30   14.90
  15  -8   5   41.00   14.70
   8  15   5   74.49   18.30
  -8 -15   5   35.60    9.00
 -15   8   5   61.79   13.50
   8  15   5   36.80   15.90
 -15   8   5   52.59   17.60
   7 -16  -5  101.49   15.20
  -7  16  -5   98.39   15.00
  -7  16  -5   70.89   17.10
  16   7  -5  106.49   17.60
 -16  -7  -5   78.69   18.20
  16   7  -5   88.49    9.20
  -7  16  -5   91.39   17.10
 -16  -7   5   85.29   17.60
   7 -16   5   64.19   16.20
  -7  16   5  118.09   21.30
   7 -16   5   62.59   15.70
 -16  -7   5   80.79    8.60
  16   7   5   70.39   14.20
  -7  16   5   79.79   18.20
   7 -16   5  101.19   17.80
  16   7   5   78.09   17.80
  -5  16  -5   -4.40   15.10
   5 -16  -5   25.40   13.60
 -16  -5  -5   20.50   20.20
  16   5  -5   12.80    7.90
  -5  16  -5   24.80   12.30
  -5  16  -5   21.20   13.80
  16   5  -5   14.70   13.40
   5 -16   5    8.60   12.80
   5 -16   5   10.90   14.90
  -5  16   5   22.10   15.60
  16   5   5    8.50   13.20
  16   5   5   39.30   16.40
 -16  -5   5   -5.90   14.50
   5 -16   5   12.30   13.90
 -16  -5   5   29.30    8.40
  -5  16   5   14.70   17.30
  -3  16  -5  263.47   21.00
  -3  16  -5  197.28   25.60
   3 -16  -5  301.47   23.80
  -3  16  -5  260.47   22.30
  16   3  -5  224.88   29.60
  -3  16   5  211.58   27.10
   3 -16   5  261.87   26.90
  16   3   5  268.67   25.10
 -16  -3   5  227.98   28.10
  -3  16   5  241.38   30.10
 -16  -3   5  255.87   16.80
   3 -16   5  242.88   21.60
  16   3   5  247.58   27.30
   3 -16   5  283.07   23.60
  -1  16  -5  141.59   14.60
  -1  16  -5  130.29   17.20
  16   1  -5  155.18   14.40
   1 -16  -5  147.39   16.00
  -1  16  -5  175.58   23.80
 -16  -1   5  114.69   17.60
  16   1   5  151.08   17.70
   1 -16   5  154.78   17.70
  16   1   5  122.79   15.60
   1 -16   5  147.09   17.90
   1 -16   5  124.39   15.70
  -1  16   5  127.19   17.60
 -16  -1   5  146.39   16.30
  16  -1  -5  110.59   15.80
   1  16  -5  137.89   16.60
   1  16  -5  140.89   17.30
   1  16  -5  156.08   17.80
  16  -1  -5  120.19   14.40
  -1 -16  -5  132.59   15.30
 -16   1   5  154.48   16.50
  16  -1   5  142.59   17.40
  16  -1   5  124.49   15.20
   1  16   5  135.89   18.20
  -1 -16   5  145.59   17.10
  -1 -16   5  142.59   16.60
  -3 -16  -5  -11.60   12.80
 -16   3  -5    0.70   11.50
   3  16  -5    7.00   14.70
   3  16  -5    3.80   14.80
  16  -3  -5   13.80    8.50
  16  -3  -5    5.40   13.30
   3  16  -5  -13.90    8.50
 -16   3   5   10.50    9.70
 -16   3   5   18.50   13.80
  16  -3   5   15.30   14.40
   3  16   5   -9.50   12.20
  16  -3   5   17.40   13.10
  -3 -16   5    0.30    9.20
  -3 -16   5   -4.20   11.70
   3  16   5  -15.80   15.40
   5  16  -5  109.99   17.20
  16  -5  -5  119.79   16.80
   5  16  -5  100.39   17.30
  16  -5  -5  161.58   22.20
   5  16  -5  120.49   15.00
  -5 -16  -5  124.99   16.10
 -16   5  -5  123.89   15.80
  -5 -16   5  125.19   16.40
   5  16   5  145.59   20.20
  16  -5   5  134.39   16.60
 -16   5   5  141.09   18.80
   5  16   5   96.29   17.00
 -16   5   5  125.49   13.60
  -5 -16   5  131.39   16.50
  16  -5   5   99.59   15.00
  16  -7  -5   25.40   11.30
 -16   7  -5   47.60   15.50
   7  16  -5    7.50   17.80
   7  16  -5   34.80   15.70
   7  16  -5   39.00    9.60
  16  -7  -5   33.70   14.70
  -7 -16  -5   23.20   14.30
   7  16   5   25.90   19.10
 -16   7   5   37.10   13.30
  -7 -16   5   13.10   14.60
   7  16   5   30.10   17.00
 -16   7   5   48.80   17.00
  -7 -16   5   40.30    9.70
  16  -7   5   21.40   13.70
  -4  17  -5   39.00   13.00
  -4  17  -5   43.00   17.50
  -4  17  -5    9.60   14.30
   4 -17  -5   27.70   14.40
  17   4  -5   16.90   10.20
   4 -17   5   36.80   13.70
 -17  -4   5   28.30    9.30
 -17  -4   5   25.00   16.00
   4 -17   5   19.70   14.30
   4 -17   5   -1.60   15.90
  17   4   5   18.40   17.30
  -4  17   5  -20.80   18.00
  -4  17   5   40.20   17.60
  17   4   5    8.10   14.60
  -2  17  -5  101.79   17.70
  -2  17  -5  113.99   13.60
  17   2  -5  113.59   10.70
   2 -17  -5  147.59   16.50
  17   2   5  117.29   17.10
   2 -17   5  140.29   19.90
  -2  17   5  157.98   20.60
   2 -17   5  136.99   15.20
  17   2   5  141.89   19.30
 -17  -2   5  109.69   18.40
   2 -17   5  137.39   17.40
   0 -17  -5  121.49   16.20
   0  17  -5  129.79   18.30
   0  17  -5   94.59   17.60
  17   0  -5  116.09   15.40
   0  17  -5  128.29   13.30
   0  17   5  121.49   19.20
 -17   0   5  114.29   19.50
 -17   0   5  117.49   12.50
   0 -17   5  143.79   19.40
  17   0   5  153.58   18.90
   0 -17   5  133.29   16.40
  17   0   5  134.79   16.60
   2  17  -5  232.08   28.30
   2  17  -5  226.58   19.30
  -2 -17  -5  254.17   24.10
  17  -2  -5  237.28   25.20
  17  -2  -5  223.88   18.00
   2  17  -5  248.28   27.20
   2  17   5  201.28   21.70
  17  -2   5  245.98   26.90
  -2 -17   5  224.08   19.80
 -17   2   5  206.58   19.90
  17  -2   5  213.38   25.70
  -2 -17   5  221.48   26.00
  -4 -17  -5   65.79   15.90
  17  -4  -5   82.99   11.60
   4  17  -5   84.29   11.50
  17  -4  -5   83.79   16.50
   4  17  -5   88.09   18.10
   4  17  -5   59.99   18.10
 -17   4  -5   96.19   15.10
  -4 -17   5   62.39   11.90
   4  17   5   73.99   15.60
 -17   4   5   65.49   17.00
  -4 -17   5   91.99   16.00
   4  17   5  116.19   20.10
 -17   4   5  103.49   13.20
  17  -4   5  109.79   16.10
   0   0  -6 1430.96   46.60
   0   0  -6 1386.56   45.70
   0   0  -6 1386.66   44.50
   0   0   6 1347.47   46.80
   0   0   6 1505.05   44.50
   0   0   6 1368.16   44.70
   0   0   6 1401.16   47.30
  -1  -1  -6  176.98   11.20
  -1   1  -6  175.38    9.70
   1   1  -6  186.18   11.30
  -1  -1  -6  192.78   10.00
   1   1  -6  177.78    8.80
  -1  -1  -6  199.98   13.20
   1  -1  -6  179.58   11.60
   1  -1  -6  173.08    9.30
  -1   1  -6  173.88   11.10
   1  -1  -6  167.88   12.00
  -1   1  -6  171.58   11.40
   1   1  -6  187.48   11.80
  -1  -1   6  190.28   10.10
   1   1   6  147.69   12.90
   1  -1   6  181.28   12.80
   1  -1   6  175.88    9.70
  -1   1   6  166.68    9.20
  -1  -1   6  171.18    8.90
  -1   1   6  171.88   12.60
  -1  -1   6  161.68   13.20
   1   1   6  171.18    9.70
   1  -1   6  176.48   13.70
  -1   1   6  192.68   12.80
  -1  -1   6  183.28   13.20
   1   1   6  171.08   13.10
  -1  -1   6  153.88   12.30
  -1   1   6  178.98   13.80
   1   1   6  175.38   10.20
   1  -1   6  192.98   10.20
   0  -2  -6  233.18   11.40
   2   0  -6  241.78   10.40
  -2   0  -6  231.18   12.80
   0  -2  -6  238.18   13.40
   0   2  -6  257.17   12.50
   0   2  -6  235.48   10.80
   0  -2  -6  228.28   13.00
  -2   0  -6  252.17   12.70
   0   2  -6  225.28   12.60
   2   0  -6  271.87   14.00
  -2   0  -6  237.88   11.70
   2   0  -6  238.18   13.20
   2   0   6  234.58   11.70
   2   0   6  226.78   11.20
  -2   0   6  227.58   14.10
  -2   0   6  256.77   14.30
   0   2   6  236.98   14.20
   2   0   6  242.28   14.20
   0  -2   6  232.28   11.70
   2   0   6  245.68   14.60
   0   2   6  215.48   13.40
  -2   0   6  232.48   13.50
   0  -2   6  221.68   14.20
  -2   0   6  226.38   11.20
   0   2   6  228.38   11.30
  -2   0   6  219.08   10.30
   0  -2   6  233.28   14.50
   0  -2   6  220.78   10.60
  -2   2  -6  453.95   17.80
  -2  -2  -6  449.95   19.00
   2   2  -6  428.06   18.80
   2  -2  -6  472.45   19.00
  -2  -2  -6  452.35   18.00
   2   2  -6  473.25   20.60
  -2   2  -6  458.85   18.80
   2  -2  -6  468.15   17.00
   2   2  -6  464.95   16.30
   2  -2  -6  485.55   19.10
  -2   2  -6  496.75   17.40
  -2  -2  -6  445.76   20.20
   2   2  -6  433.66   16.10
  -2  -2   6  455.65   19.60
  -2   2   6  450.85   17.00
   2   2   6  460.75   16.60
  -2  -2   6  452.35   20.20
   2  -2   6  431.16   19.90
   2  -2   6  454.25   17.60
  -2  -2   6  470.95   16.70
   2   2   6  449.86   17.80
  -2  -2   6  482.85   17.20
   2   2   6  459.05   20.20
  -2   2   6  427.46   19.20
  -2  -2   6  443.26   16.00
   2   2   6  423.46   20.00
   2  -2   6  427.16   22.80
  -2   2   6  435.76   19.20
   1  -3  -6   46.60    6.60
   1  -3  -6   53.79    7.10
   3   1  -6   45.30    6.30
  -3  -1  -6   39.00    6.60
   3   1  -6   41.80    7.20
  -1   3  -6   41.70    5.20
  -1   3  -6   44.40    7.60
  -1   3  -6   52.19    6.70
   3   1  -6   39.40    6.50
  -3  -1  -6   53.29    8.00
  -3  -1  -6   45.40    6.40
   1  -3  -6   51.59    7.20
   3   1  -6   45.00    5.30
  -1   3  -6   50.19    5.40
  -1   3   6   51.19    7.40
   3   1   6   57.09    6.10
  -3  -1   6   53.99    5.30
  -3  -1   6   45.10    5.60
  -1   3   6   44.30    7.40
   3   1   6   42.20    7.60
  -3  -1   6   52.79    7.30
   1  -3   6   43.30    6.30
  -1   3   6   43.00    5.40
   3   1   6   35.70    7.60
  -3  -1   6   57.99    5.90
  -3  -1   6   51.29    7.80
   3   1   6   44.20    6.30
   1  -3   6   45.50    8.40
   1  -3   6   52.49    5.60
   1   3  -6  255.87   15.20
  -1  -3  -6  236.88   14.30
  -1  -3  -6  245.48   12.20
  -3   1  -6  276.27   12.60
   3  -1  -6  245.78   13.30
   1   3  -6  243.28   11.10
   1   3  -6  263.57   12.90
   3  -1  -6  266.37   11.00
   1   3  -6  281.27   13.60
  -3   1  -6  279.97   13.00
  -1  -3  -6  237.18   14.00
   1   3  -6  250.47   13.30
  -3   1  -6  259.07   13.40
   3  -1  -6  279.87   14.50
   3  -1   6  256.57   12.90
  -1  -3   6  275.17   12.60
  -1  -3   6  289.87   16.40
  -3   1   6  255.47   14.40
  -1  -3   6  262.87   10.90
   3  -1   6  224.48   15.20
   3  -1   6  214.38   14.50
   1   3   6  253.67   14.80
   1   3   6  259.67   15.00
  -1  -3   6  246.88   15.10
   3  -1   6  241.78   12.70
   1   3   6  263.07   12.70
  -3   1   6  215.28   13.90
  -3   1   6  231.38   10.90
  -3   3  -6  212.28   14.10
   3   3  -6  197.58    8.80
   3   3  -6  203.08    9.00
   3   3  -6  214.98   13.40
  -3  -3  -6  217.58   12.60
  -3  -3  -6  202.58   12.20
  -3   3  -6  191.18   12.30
  -3   3  -6  206.98   11.60
  -3  -3  -6  188.78   11.80
   3  -3  -6  222.88   13.10
   3  -3  -6  206.38   10.20
   3   3  -6  190.28   12.30
  -3   3   6  205.68   12.90
  -3   3   6  185.78   12.90
   3   3   6  205.08   12.30
  -3   3   6  192.08   13.80
   3  -3   6  188.18   15.00
   3   3   6  219.08   14.40
  -3  -3   6  227.78   14.40
  -3  -3   6  209.38   13.00
  -3  -3   6  209.98    9.60
   3   3   6  186.78   14.00
   3  -3   6  197.78   12.30
  -3   3   6  185.38   10.30
   3  -3   6  170.78   11.40
  -3  -3   6  196.68    8.60
   4   2  -6  460.95   19.30
   4   2  -6  452.15   15.70
   2  -4  -6  487.85   20.00
   4   2  -6  482.05   20.00
   2  -4  -6  456.85   17.60
  -4  -2  -6  462.95   19.00
  -2   4  -6  459.35   20.50
  -4  -2  -6  449.56   18.80
  -4  -2  -6  459.45   18.80
   4   2  -6  479.65   15.80
  -2   4  -6  465.35   18.00
  -2   4  -6  451.05   19.40
   2  -4   6  429.36   17.80
   4   2   6  435.76   20.40
  -2   4   6  468.75   19.10
   2  -4   6  459.25   18.70
   4   2   6  455.15   21.00
   2  -4   6  448.16   21.30
   4   2   6  459.45   19.20
  -2   4   6  422.16   19.90
  -4  -2   6  444.56   15.40
  -2   4   6  420.36   17.60
  -4  -2   6  463.55   17.60
  -4  -2   6  470.75   20.70
  -2   4   6  438.96   20.40
  -4  -2   6  474.15   16.00
  -4  -2   6  464.65   19.80
   4   2   6  506.55   17.70
   0   4  -6  461.95   18.30
   0   4  -6  513.45   18.40
   4   0  -6  518.05   17.50
  -4   0  -6  554.34   19.80
  -4   0  -6  524.05   20.40
  -4   0  -6  517.15   20.00
   0  -4  -6  466.55   20.10
   0   4  -6  506.15   21.40
   4   0  -6  538.05   20.80
   4   0  -6  512.15   20.30
   0  -4  -6  489.55   20.30
   0   4  -6  483.45   20.30
   0  -4  -6  476.55   19.10
   4   0  -6  543.45   18.00
   4   0   6  511.95   19.20
   0   4   6  524.85   21.30
   0  -4   6  483.95   18.10
   0  -4   6  512.75   19.40
   4   0   6  473.05   21.30
  -4   0   6  451.95   17.00
  -4   0   6  489.65   17.90
  -4   0   6  460.25   20.30
   4   0   6  503.75   19.90
  -4   0   6  489.05   20.80
   0   4   6  513.55   21.10
   0  -4   6  514.95   22.50
   4   0   6  511.55   22.50
  -4   0   6  468.25   18.40
   0   4   6  497.45   19.20
   2   4  -6 1005.20   31.00
   2   4  -6  963.40   31.30
   2   4  -6 1020.30   32.70
   2   4  -6  964.20   33.50
  -2  -4  -6  980.60   33.60
   4  -2  -6  982.30   34.10
   4  -2  -6  933.01   31.50
  -2  -4  -6  976.90   33.50
  -4   2  -6  947.01   33.20
  -4   2  -6  980.80   34.00
   2   4  -6  997.60   34.60
  -2  -4  -6  950.40   33.10
   4  -2   6  977.40   35.60
  -4   2   6  966.00   33.70
   2   4   6  925.81   33.00
  -4   2   6  930.91   31.30
  -4   2   6  949.80   34.50
  -2  -4   6  990.20   32.50
   2   4   6  956.90   34.60
   4  -2   6  949.31   33.20
  -2  -4   6  977.10   30.90
  -4   2   6 1023.70   34.30
   2   4   6  942.21   34.70
   4  -2   6  962.60   32.90
   4  -2   6  960.00   34.70
  -2  -4   6  958.80   35.20
  -4  -4  -6  165.88   11.70
  -4  -4  -6  167.88   12.50
  -4   4  -6  154.48   11.50
  -4   4  -6  138.69   13.00
   4   4  -6  182.78   13.70
   4   4  -6  183.78    7.70
  -4   4  -6  148.89   12.30
   4   4  -6  173.78    7.60
   4  -4  -6  161.78   12.80
   4  -4  -6  148.09    9.60
   4   4  -6  167.78   11.70
   4   4  -6  166.38   13.00
  -4  -4  -6  195.98   12.00
   4   4   6  150.98   13.90
  -4   4   6  173.08   12.50
  -4   4   6  184.38   13.50
  -4  -4   6  147.49    7.00
   4   4   6  126.69   13.10
  -4  -4   6  149.49   13.90
   4  -4   6  180.18   14.80
  -4  -4   6  144.19   12.90
  -4   4   6  164.68   12.70
   4  -4   6  179.38   12.50
  -4   4   6  169.88    9.80
   4   4   6  131.59   12.30
   4  -4   6  158.68   11.60
  -4  -4   6  145.69   10.60
  -5  -3  -6  725.03   26.80
  -3   5  -6  683.53   26.80
  -3   5  -6  744.33   28.10
  -5  -3  -6  726.93   26.40
   5   3  -6  699.93   26.40
   5   3  -6  723.83   22.80
   5   3  -6  764.82   23.50
   5   3  -6  758.42   27.30
  -5  -3  -6  740.93   26.60
   3  -5  -6  685.83   25.30
  -3   5  -6  697.73   26.00
   3  -5  -6  700.43   27.20
   3  -5   6  696.63   28.80
   5   3   6  709.83   24.50
   5   3   6  687.73   27.70
   5   3   6  677.63   28.30
  -3   5   6  657.93   26.80
   3  -5   6  707.63   26.20
  -5  -3   6  697.43   27.40
  -5  -3   6  706.03   22.30
  -3   5   6  730.13   25.20
  -5  -3   6  721.23   25.00
  -3   5   6  689.33   27.50
  -5  -3   6  649.04   26.50
   3  -5   6  708.13   25.70
  -3   5   6  781.72   25.80
   5   3   6  694.33   26.70
   5   1  -6    6.90    3.50
   5   1  -6    6.10    6.60
  -1   5  -6    4.40    6.70
   1  -5  -6    3.40    4.60
   5   1  -6    6.80    5.70
   1  -5  -6    9.60    6.10
  -1   5  -6    9.10    4.30
   5   1  -6    6.30    2.90
  -5  -1  -6   11.70    5.70
  -5  -1  -6    5.10    5.60
  -1   5  -6    2.40    5.90
   1  -5   6    2.40    7.10
  -5  -1   6    5.20    4.90
  -1   5   6    4.10    6.30
  -5  -1   6    1.10    5.80
  -5  -1   6    8.20    6.40
   5   1   6    6.40    7.10
   5   1   6    1.20    7.00
  -1   5   6    2.00    5.80
  -1   5   6    7.10    5.10
   1  -5   6    2.40    5.50
  -1   5   6    6.00    7.10
   1  -5   6    3.10    4.40
  -5  -1   6   11.60    4.00
  -5  -1   6    4.50    2.90
   5   1   6    9.20    6.20
  -1  -5  -6  654.03   24.00
   1   5  -6  701.73   24.80
   1   5  -6  650.73   22.60
  -5   1  -6  662.63   24.70
  -1  -5  -6  657.53   25.00
  -5   1  -6  695.43   23.30
   1   5  -6  684.73   23.00
   1   5  -6  666.43   26.10
  -1  -5  -6  643.44   24.40
  -5   1  -6  641.74   24.80
   5  -1  -6  618.44   25.20
   5  -1  -6  611.84   21.80
  -5   1   6  659.63   25.40
  -1  -5   6  613.24   26.40
   1   5   6  594.34   25.00
  -5   1   6  642.24   24.40
   1   5   6  596.04   25.60
   5  -1   6  658.23   24.50
  -5   1   6  639.24   24.10
   5  -1   6  644.24   25.60
  -5   1   6  644.74   21.60
   5  -1   6  684.33   24.20
   5  -1   6  651.23   26.80
  -1  -5   6  642.74   23.60
  -1  -5   6  635.94   25.90
  -1  -5   6  605.84   21.80
   1   5   6  623.44   23.90
   3   5  -6  356.56   12.60
   3   5  -6  347.37   15.50
   5  -3  -6  317.37   13.30
  -5   3  -6  302.17   15.60
  -3  -5  -6  339.77   15.90
   3   5  -6  318.07   16.90
  -3  -5  -6  338.47   16.20
   3   5  -6  323.27   12.50
  -5   3  -6  337.07   17.70
  -5   3  -6  312.87   16.10
  -3  -5  -6  326.17   15.80
   3   5  -6  322.87   15.70
   5  -3  -6  321.87   17.40
  -3  -5   6  319.77   18.20
  -3  -5   6  322.77   12.90
  -5   3   6  320.07   16.30
   5  -3   6  312.77   18.00
   5  -3   6  348.17   18.20
   5  -3   6  311.57   15.90
  -3  -5   6  323.57   15.10
  -5   3   6  315.97   13.40
  -5   3   6  326.07   15.30
   3   5   6  302.47   17.90
   3   5   6  318.87   17.90
  -5   3   6  313.27   17.20
  -3  -5   6  312.17   11.90
   5  -3   6  303.67   15.90
   3   5   6  304.17   16.10
  -5   5  -6  375.06   18.30
   5  -5  -6  355.66   15.90
   5  -5  -6  384.96   19.40
  -5  -5  -6  397.06   18.80
  -5   5  -6  400.06   19.70
   5   5  -6  399.26   13.30
  -5  -5  -6  408.36   18.10
  -5  -5  -6  394.46   18.20
   5   5  -6  426.76   18.50
   5   5  -6  430.66   19.40
   5   5  -6  400.76   18.00
  -5   5  -6  360.06   17.60
  -5  -5   6  385.66   24.50
  -5   5   6  373.36   16.30
   5  -5   6  358.16   17.80
  -5   5   6  404.76   19.80
  -5  -5   6  361.66   12.60
  -5   5   6  368.76   18.40
   5  -5   6  407.96   18.40
   5   5   6  375.46   20.10
   5  -5   6  364.66   20.60
   5   5   6  374.26   18.70
   5   5   6  384.76   20.20
  -5  -5   6  405.06   17.70
  -6  -4  -6  156.58   12.60
  -6  -4  -6  163.18   13.40
   4  -6  -6  165.28   10.70
   6   4  -6  181.58   21.00
  -4   6  -6  173.48   11.90
  -6  -4  -6  173.88   13.40
   6   4  -6  172.18   12.50
  -4   6  -6  146.39   12.90
   4  -6  -6  151.78   13.40
  -4   6  -6  157.58   14.00
   6   4   6  160.38   14.80
   4  -6   6  142.89   12.20
   4  -6   6  151.38   13.20
  -6  -4   6  156.38   14.20
  -6  -4   6  141.59   12.70
   4  -6   6  169.98   15.40
   6   4   6  163.98   11.40
  -4   6   6  166.08   12.90
  -4   6   6  138.19   13.30
   6   4   6  162.48   14.80
  -4   6   6  149.88   14.60
   6   4   6  163.88   14.70
  -4   6   6  149.59   11.60
  -6  -4   6  147.99   11.60
  -6  -2  -6  335.37   16.00
  -2   6  -6  325.77   15.10
   6   2  -6  330.47   16.00
  -6  -2  -6  348.07   16.00
   2  -6  -6  305.37   16.90
  -2   6  -6  315.57   17.80
   6   2  -6  340.17   12.10
   2  -6  -6  347.87   15.20
   6   2  -6  331.27   11.70
  -6  -2  -6  343.37   16.90
  -2   6  -6  304.27   16.40
   6   2  -6  348.77   17.80
   6   2   6  343.67   17.70
  -2   6   6  329.17   17.70
  -6  -2   6  330.37   12.00
   6   2   6  343.17   15.30
   2  -6   6  324.67   16.20
  -2   6   6  349.27   16.10
   2  -6   6  306.77   18.60
  -6  -2   6  332.07   16.20
  -6  -2   6  326.37   11.70
   6   2   6  325.07   17.50
  -2   6   6  329.07   15.50
  -6  -2   6  325.57   16.30
  -6  -2   6  337.77   17.00
   6   2   6  317.07   19.30
  -2   6   6  335.87   17.30
   2  -6   6  328.17   15.40
  -6   0  -6  299.77   14.00
   0   6  -6  305.67   13.30
   0   6  -6  329.77   15.50
   0  -6  -6  318.97   14.80
   6   0  -6  286.87   11.50
  -6   0  -6  314.87   15.80
   0   6  -6  304.87   16.70
   6   0  -6  287.57   16.60
   0  -6  -6  298.27   16.00
  -6   0  -6  294.77   15.50
   6   0   6  311.27   16.60
   0   6   6  287.97   16.50
   6   0   6  314.07   18.50
   0   6   6  303.97   15.10
   6   0   6  325.17   15.00
   0   6   6  290.77   16.60
  -6   0   6  308.67   15.60
   0  -6   6  296.97   15.20
  -6   0   6  312.37   16.10
   0   6   6  312.97   16.40
  -6   0   6  280.37   11.50
   0  -6   6  280.77   13.40
  -6   0   6  320.47   12.70
  -6   0   6  297.27   17.20
   6   0   6  318.87   17.40
   0  -6   6  272.77   18.20
  -2  -6  -6   53.29    7.20
  -2  -6  -6   54.69    7.00
   6  -2  -6   56.99    8.50
  -2  -6  -6   52.79    7.80
  -6   2  -6   53.89    7.70
   2   6  -6   48.30    5.10
   2   6  -6   58.19    7.60
  -6   2  -6   61.09    7.60
   2   6  -6   37.80    8.10
   6  -2  -6   56.69    6.30
   2   6   6   46.60    8.40
  -6   2   6   47.40    5.30
   6  -2   6   67.79    9.90
  -2  -6   6   47.50    7.00
  -2  -6   6   50.09    6.90
   6  -2   6   58.69    8.70
  -2  -6   6   55.79    6.30
  -2  -6   6   42.20    8.40
  -6   2   6   75.79   10.70
   6  -2   6   64.29    8.20
   6  -2   6   60.69    7.80
  -6   2   6   48.10    7.50
   2   6   6   65.69    8.90
  -6   2   6   58.49    8.70
   2   6   6   52.79    7.90
  -6   4  -6  336.17   17.80
   6  -4  -6  311.47   13.70
  -6   4  -6  326.87   16.90
  -4  -6  -6  321.17   16.00
   4   6  -6  336.47   16.20
   6  -4  -6  308.27   17.30
  -4  -6  -6  303.57   16.70
  -6   4  -6  320.37   16.30
   4   6  -6  312.77   17.80
  -4  -6  -6  314.37   17.00
   4   6  -6  324.67   12.10
   4   6  -6  335.87   12.10
  -4  -6   6  303.37   18.40
   6  -4   6  317.57   16.90
  -4  -6   6  321.07   11.90
   6  -4   6  292.17   18.30
  -4  -6   6  336.37   15.90
   4   6   6  323.67   17.10
   6  -4   6  313.07   17.20
  -6   4   6  302.37   16.00
  -6   4   6  308.67   14.00
  -4  -6   6  343.07   16.10
  -6   4   6  318.87   18.00
   4   6   6  314.07   18.40
   4   6   6  314.87   18.80
   6  -6  -6  178.58   14.70
  -6  -6  -6  178.98   15.10
  -6   6  -6  201.88   14.40
  -6   6  -6  165.58   13.20
   6  -6  -6  174.58   11.60
   6   6  -6  188.68   15.20
  -6  -6  -6  177.38   13.00
   6   6  -6  178.98   13.50
  -6  -6  -6  175.08   15.20
  -6   6  -6  167.68   14.80
   6   6   6  186.48   16.40
   6  -6   6  188.98   16.90
  -6   6   6  182.58   13.70
   6   6   6  161.88   16.90
  -6   6   6  169.08   12.00
  -6  -6   6  167.88   13.80
   6  -6   6  170.28   14.50
  -6  -6   6  159.18   16.60
  -6  -6   6  160.48   14.10
   6   6   6  182.88   16.90
   6  -6   6  180.78   14.60
  -6   6   6  169.38   15.70
  -7  -5  -6   75.59    8.30
   5  -7  -6   80.29    9.90
  -7  -5  -6   60.29    9.10
  -7  -5  -6   60.49    9.00
  -5   7  -6   84.29   10.00
  -5   7  -6   68.89    8.20
   7   5  -6   68.19    8.60
   7   5  -6   67.89   10.00
   5  -7  -6   74.59    9.80
  -5   7  -6   95.59   12.50
  -5   7   6   70.59    8.20
  -7  -5   6   89.19    9.30
  -7  -5   6   68.09   10.20
   7   5   6  110.49   15.50
   7   5   6   68.79   10.40
  -5   7   6   70.19   10.50
   5  -7   6   70.99    9.00
  -7  -5   6   95.59   11.80
   5  -7   6   53.19    9.80
   7   5   6   64.19   10.60
   5  -7   6   85.89    9.20
  -5   7   6   80.69   10.00
   7   3  -6  709.23   27.20
  -3   7  -6  674.73   25.30
  -3   7  -6  629.24   26.00
  -3   7  -6  649.04   27.40
   3  -7  -6  644.14   26.30
  -7  -3  -6  674.73   26.70
   7   3  -6  712.43   21.30
  -7  -3  -6  702.73   25.70
   3  -7  -6  657.13   25.00
  -7  -3  -6  670.13   25.60
  -7  -3   6  639.64   25.00
   7   3   6  613.24   27.80
   3  -7   6  668.23   25.70
  -3   7   6  728.93   26.50
  -3   7   6  693.83   25.30
   3  -7   6  651.23   27.80
  -7  -3   6  642.74   26.10
  -3   7   6  642.04   26.40
   3  -7   6  662.93   24.90
  -7  -3   6  654.93   25.80
  -7  -3   6  640.14   20.60
   7   3   6  620.54   26.90
   7   3   6  622.14   26.80
  -3   7   6  664.53   27.10
   7   1  -6  193.08    8.30
   7   1  -6  201.88    9.10
  -7  -1  -6  205.18   13.10
   1  -7  -6  180.78   13.90
   7   1  -6  197.78   15.60
  -7  -1  -6  199.78   13.10
  -1   7  -6  206.08   14.70
  -1   7  -6  172.68   11.30
  -7  -1  -6  202.28   14.30
  -1   7  -6  178.78   13.40
   1  -7  -6  200.28   12.50
  -7  -1   6  188.88    8.50
  -1   7   6  192.98   14.90
   1  -7   6  190.98   13.20
   7   1   6  179.48   12.50
  -7  -1   6  188.48   13.40
  -7  -1   6  187.48   12.30
   1  -7   6  183.18   11.70
  -1   7   6  191.48   13.20
   7   1   6  191.58   15.60
  -1   7   6  178.08   15.00
  -7  -1   6  229.18   20.60
   7   1   6  189.48   15.60
   1  -7   6  185.28   16.40
  -7  -1   6  194.08   13.80
   7   1   6  183.28   15.30
  -1   7   6  199.88   13.20
   7  -1  -6  144.29    8.00
  -7   1  -6  148.29   12.60
   7  -1  -6  164.18   13.60
  -1  -7  -6  151.18   11.80
   1   7  -6  148.29   13.90
  -1  -7  -6  153.78   13.10
   1   7  -6  153.58   12.00
   1   7  -6  151.58    9.60
  -7   1  -6  132.79   12.10
  -1  -7   6  129.59   14.50
   1   7   6  159.88   14.10
   7  -1   6  164.78   14.20
   1   7   6  145.89   13.70
   1   7   6  158.68   14.00
  -7   1   6  156.38   12.80
  -7   1   6  135.49    8.50
   7  -1   6  148.59   14.90
   1   7   6  154.58   13.10
   7  -1   6  173.28   12.90
  -1  -7   6  148.89   10.00
   7  -1   6  170.28   14.70
  -7   1   6  156.48   13.90
  -1  -7   6  157.58   14.00
  -7   1   6  164.58   12.70
   7  -3  -6  483.65   17.90
  -3  -7  -6  493.95   21.10
  -7   3  -6  440.96   20.80
  -7   3  -6  488.05   21.20
   7  -3  -6  486.55   22.30
   3   7  -6  493.45   22.10
   3   7  -6  497.15   20.40
   3   7  -6  484.15   17.50
  -3  -7  -6  511.95   21.10
  -7   3   6  505.25   21.10
   7  -3   6  502.45   22.00
   3   7   6  496.75   22.20
   7  -3   6  470.65   22.90
   7  -3   6  470.55   21.10
   7  -3   6  462.85   22.20
   3   7   6  506.05   22.10
   3   7   6  457.75   22.70
   3   7   6  495.75   22.50
  -7   3   6  449.46   22.00
  -3  -7   6  474.65   20.60
  -3  -7   6  464.65   17.20
  -3  -7   6  473.55   24.00
  -7   3   6  463.45   18.10
  -5  -7  -6  432.06   19.50
  -7   5  -6  446.86   20.70
  -7   5  -6  431.86   21.30
   7  -5  -6  422.86   17.80
  -5  -7  -6  442.16   20.80
   7  -5  -6  458.15   21.20
   5   7  -6  431.96   15.30
   5   7  -6  446.56   21.30
  -5  -7  -6  441.66   21.00
   5   7  -6  450.45   15.40
   5   7  -6  472.35   19.80
  -7   5  -6  451.25   20.70
   5   7   6  447.96   22.10
  -7   5   6  413.56   18.00
   5   7   6  449.76   22.60
   7  -5   6  433.66   20.60
  -5  -7   6  416.16   22.30
  -5  -7   6  415.96   19.70
  -7   5   6  440.06   21.70
  -5  -7   6  435.86   19.00
  -7   5   6  438.76   20.50
   7  -5   6  442.76   22.30
   5   7   6  439.26   22.70
  -5  -7   6  412.46   14.80
   7  -5   6  459.25   20.80
   7  -7  -6  535.85   21.80
   7   7  -6  532.95   24.20
  -7  -7  -6  561.44   24.70
  -7   7  -6  556.04   24.20
   7   7  -6  544.45   22.60
  -7  -7  -6  549.45   24.50
  -7   7  -6  575.04   24.50
  -7   7  -6  541.85   24.70
  -7  -7  -6  503.45   25.10
   7  -7  -6  565.44   24.50
  -7   7   6  526.95   25.00
  -7   7   6  481.75   23.50
   7   7   6  525.35   26.30
  -7  -7   6  518.75   26.10
  -7  -7   6  552.34   23.40
   7  -7   6  523.25   25.70
   7  -7   6  524.85   23.80
   7   7   6  549.74   25.40
   7   7   6  565.24   26.00
   7  -7   6  509.95   23.90
  -7   7   6  521.35   22.10
  -7  -7   6  527.45   23.30
  -8  -6  -6  112.39   13.20
   6  -8  -6   98.89   11.40
  -6   8  -6  111.69   13.80
  -8  -6  -6  111.69   11.60
  -6   8  -6   92.79   11.30
  -8  -6  -6  115.59   15.60
  -6   8  -6   96.09   13.20
   6  -8  -6   99.69   11.60
  -8  -6   6   89.59   11.40
   6  -8   6  124.59   15.20
   8   6   6   98.89   12.30
  -6   8   6  101.09   13.30
  -8  -6   6  110.79   16.20
  -8  -6   6  105.79   13.10
  -6   8   6  116.09   14.10
  -6   8   6   93.69   11.60
   6  -8   6   88.69   11.90
   6  -8   6  113.29   14.80
  -8  -6   6  109.09   13.50
  -8  -6   6  116.19   13.70
   8   6   6  106.89   13.10
   8   6   6  113.39   13.00
   8   4  -6  169.38   17.00
  -8  -4  -6  177.78   15.00
   4  -8  -6  160.38   15.10
  -8  -4  -6  145.99   12.80
  -4   8  -6  172.28   18.30
  -4   8  -6  156.68   13.40
  -4   8  -6  174.28   14.30
   4  -8  -6  174.98   12.50
  -8  -4  -6  155.58   14.60
  -4   8   6  155.08   13.90
   4  -8   6  174.08   14.10
   8   4   6  151.68   16.50
  -8  -4   6  184.98   14.90
   4  -8   6  149.39   13.60
  -8  -4   6  161.28   13.60
   8   4   6  183.78   17.00
  -8  -4   6  174.68   13.00
   4  -8   6  171.88   16.60
  -4   8   6  136.39   14.80
  -8  -4   6  146.19   13.50
   8   4   6  175.38   16.80
  -4   8   6  156.78   16.20
  -2   8  -6   75.09    9.30
  -8  -2  -6   73.89    8.40
  -8  -2  -6   74.29    9.50
   2  -8  -6   75.59   10.60
  -8  -2  -6   69.59    8.60
   8   2  -6   75.19    5.40
  -2   8  -6   59.69    7.10
  -2   8  -6   63.99    8.30
   2  -8  -6   75.99    9.40
   8   2  -6   71.49   10.20
   8   2  -6   78.49    6.50
   8   2   6   80.99   10.70
   2  -8   6   59.49   10.20
   2  -8   6   82.59   10.90
   2  -8   6   68.09    8.60
  -2   8   6   68.19    9.50
   8   2   6   78.59    8.20
  -8  -2   6   70.69    5.80
   8   2   6   78.59   10.50
  -8  -2   6   81.69    9.20
   8   2   6   62.79    9.80
  -8  -2   6   86.99   11.70
  -2   8   6   74.39    8.90
  -2   8   6   69.69   10.00
   0  -8  -6  559.84   23.30
   0   8  -6  514.45   23.70
   8   0  -6  528.65   18.30
   0   8  -6  537.05   22.50
   8   0  -6  567.54   24.40
   0  -8  -6  550.44   22.10
  -8   0  -6  563.64   23.50
   0   8  -6  520.05   20.40
  -8   0  -6  523.75   22.40
   0  -8   6  532.35   22.40
   0   8   6  543.35   22.70
  -8   0   6  521.65   18.50
  -8   0   6  544.65   22.80
   0   8   6  540.45   23.70
   0   8   6  537.15   22.60
  -8   0   6  522.15   21.70
   0  -8   6  495.35   20.20
   8   0   6  523.35   23.60
   8   0   6  484.45   24.40
   0  -8   6  548.25   25.00
   8   0   6  557.64   24.30
   0   8   6  487.45   23.70
   8   0   6  554.44   22.50
   2   8  -6  260.17   14.80
   2   8  -6  210.38   16.00
  -8   2  -6  214.88   14.80
   8  -2  -6  226.58   15.90
   8  -2  -6  216.48   10.70
  -8   2  -6  230.48   15.80
   2   8  -6  229.88   11.40
  -2  -8  -6  236.28   15.10
  -2  -8  -6  229.48   15.10
   8  -2   6  239.38   15.60
  -8   2   6  229.28   15.70
   2   8   6  240.78   16.70
  -8   2   6  235.98   14.80
   2   8   6  218.08   17.00
  -2  -8   6  238.18   15.10
   8  -2   6  212.18   16.50
  -2  -8   6  196.08   11.60
  -8   2   6  243.48   11.50
   2   8   6  210.78   16.50
   2   8   6  223.68   16.40
  -2  -8   6  199.68   18.20
   8  -2   6  216.78   17.20
   8  -2   6  221.18   17.10
   4   8  -6   66.59    9.80
  -8   4  -6   71.29    9.30
  -4  -8  -6   78.39    9.50
   8  -4  -6   72.29    9.90
  -8   4  -6   94.99   13.40
   4   8  -6   71.99    8.50
   4   8  -6   72.09    7.10
   8  -4  -6   64.49    8.50
  -4  -8  -6   84.89    9.90
   8  -4   6   70.59   10.30
  -8   4   6   74.19    9.60
  -8   4   6   72.59   10.60
  -8   4   6   94.89   12.80
  -4  -8   6   78.59    9.00
  -4  -8   6   87.09   11.80
   8  -4   6   71.09    9.30
   8  -4   6   56.59   10.50
   4   8   6   83.49   10.80
   4   8   6   90.59   11.00
   4   8   6   71.59   10.90
  -4  -8   6   85.29    7.50
   4   8   6   78.89   10.40
   8  -4   6   76.09   10.90
   8  -6  -6   15.00    9.20
  -8   6  -6   20.90    8.40
  -8   6  -6   28.40    9.30
  -6  -8  -6   26.50    8.50
  -6  -8  -6   20.10    9.10
  -8   6  -6   13.70    8.50
   6   8  -6   17.20    9.00
   6   8  -6    2.60    7.50
   8  -6  -6   16.00    6.00
  -6  -8   6   12.20    7.40
  -8   6   6   14.60    9.30
  -6  -8   6   26.60   10.90
  -8   6   6   17.10    8.10
   6   8   6   15.30    9.70
   8  -6   6   21.10    9.40
   6   8   6   17.90   10.00
  -6  -8   6   14.80    3.50
   8  -6   6   11.70    8.40
   8  -6   6   28.70    9.40
  -6  -8   6   16.90    8.30
   6   8   6   20.10   10.90
  -8   6   6   18.00    6.80
   6   8   6    7.80    9.90
   8   8  -6  107.59   14.40
   8   8  -6   90.59   11.20
  -8   8  -6   78.69   11.50
  -8   8  -6   75.49   11.00
  -8  -8  -6   92.09   12.10
   8  -8  -6   91.59   12.30
  -8   8  -6   92.99   11.90
  -8  -8   6   78.89   10.90
   8  -8   6  101.39   14.80
  -8   8   6   78.39   11.30
  -8  -8   6   82.49   10.90
   8  -8   6   71.09   11.40
   8   8   6   80.69   13.00
   8   8   6   84.09   13.10
  -8   8   6   75.79   12.60
  -7   9  -6  186.08   17.70
   7  -9  -6  187.88   17.60
  -9  -7  -6  168.48   18.50
  -7   9  -6  164.88   16.80
  -7   9  -6  174.78   21.40
   9   7   6  178.38   20.80
  -7   9   6  159.98   18.50
   7  -9   6  186.18   18.30
   7  -9   6  164.78   21.10
  -9  -7   6  173.28   17.30
  -9  -7   6  188.78   17.70
  -7   9   6  165.78   19.70
   9   7   6  159.08   21.10
  -9  -7   6  176.28   19.80
  -9  -5  -6  183.58   17.10
   5  -9  -6  181.28   16.50
  -5   9  -6  177.38   15.10
  -9  -5  -6  184.58   14.50
   5  -9  -6  191.58   14.00
  -5   9  -6  183.98   15.80
  -5   9  -6  185.98   16.90
  -9  -5   6  176.98   14.20
  -9  -5   6  201.48   15.30
   5  -9   6  181.38   18.70
   5  -9   6  184.28   16.70
  -5   9   6  179.28   15.80
  -5   9   6  190.78   17.70
   9   5   6  210.28   19.70
  -5   9   6  199.48   17.20
  -9  -5   6  159.98   18.80
   9   5   6  215.28   18.90
   9   5   6  241.08   20.60
   5  -9   6  156.38   15.40
  -9  -5   6  178.98   14.70
  -3   9  -6  154.08   13.20
   3  -9  -6  191.38   15.10
  -9  -3  -6  182.38   15.20
  -3   9  -6  153.48   14.20
   9   3  -6  162.98   17.00
   9   3  -6  164.68   14.10
  -9  -3  -6  183.98   16.10
  -9  -3  -6  156.88   13.80
   3  -9  -6  174.18   13.50
  -3   9  -6  150.78   16.10
   9   3  -6  164.58    7.30
   3  -9   6  157.08   13.30
  -3   9   6  140.09   16.80
  -9  -3   6  134.19   14.20
   3  -9   6  163.88   17.60
   3  -9   6  155.38   14.80
   9   3   6  162.08   17.20
  -3   9   6  180.58   14.70
  -9  -3   6  162.28    7.70
   9   3   6  168.28   15.30
   9   3   6  182.28   17.20
  -3   9   6  153.78   16.20
  -9  -3   6  168.08   13.40
   9   3   6  171.08   17.40
   1  -9  -6  457.05   20.10
  -1   9  -6  455.25   20.40
   9   1  -6  441.96   21.80
  -1   9  -6  426.26   18.50
  -9  -1  -6  438.66   20.50
   9   1  -6  425.06   15.40
  -1   9  -6  443.56   22.20
   1  -9  -6  441.96   20.90
  -9  -1  -6  433.96   22.00
   9   1   6  405.76   22.70
  -9  -1   6  474.75   19.50
   9   1   6  445.56   23.50
  -1   9   6  441.86   21.80
  -1   9   6  429.96   21.80
  -9  -1   6  436.46   15.80
   1  -9   6  422.96   20.70
  -9  -1   6  429.76   20.70
  -1   9   6  416.26   22.00
   9   1   6  468.35   22.00
   1  -9   6  414.06   23.50
   9   1   6  443.26   19.70
   1  -9   6  408.26   18.70
  -1  -9  -6  299.57   19.80
   1   9  -6  330.27   19.10
   1   9  -6  309.87   14.60
  -1  -9  -6  356.36   17.50
   1   9  -6  332.07   17.20
  -9   1  -6  336.47   20.40
  -9   1  -6  326.37   17.80
   9  -1  -6  327.47   19.20
   9  -1  -6  303.77   13.10
   1   9   6  348.77   19.60
   1   9   6  282.77   19.30
   1   9   6  304.07   18.20
   9  -1   6  355.76   19.70
  -9   1   6  324.77   13.80
  -1  -9   6  311.67   15.00
   9  -1   6  337.17   21.20
  -9   1   6  325.57   18.40
  -9   1   6  343.17   17.00
  -1  -9   6  305.27   21.40
  -1  -9   6  307.87   17.70
   1   9   6  320.87   19.20
   9  -1   6  295.87   19.40
   9  -1   6  347.87   19.50
  -9   3  -6  714.33   28.70
   3   9  -6  685.03   24.50
  -3  -9  -6  749.33   28.70
   9  -3  -6  743.63   29.20
   3   9  -6  739.13   29.40
  -3  -9  -6  696.93   28.40
  -9   3  -6  722.53   29.00
   9  -3  -6  718.93   25.10
   3   9  -6  724.43   27.80
   3   9   6  725.83   29.80
   9  -3   6  699.93   29.50
  -3  -9   6  729.83   31.00
  -3  -9   6  716.33   28.20
   3   9   6  712.63   29.30
   3   9   6  699.43   30.00
  -3  -9   6  673.13   24.30
   9  -3   6  721.93   30.50
  -9   3   6  758.22   29.80
   3   9   6  702.63   30.50
   9  -3   6  698.33   30.60
   9  -3   6  720.93   28.80
  -9   3   6  706.03   25.70
  -9   3   6  725.63   27.20
   5   9  -6  224.18   10.70
   9  -5  -6  243.88   18.30
  -9   5  -6  230.78   17.70
  -5  -9  -6  222.08   17.30
  -9   5  -6  230.38   17.00
  -5  -9  -6  224.98   16.90
  -9   5  -6  243.88   18.00
   9  -5  -6  209.98   12.90
   5   9  -6  207.88   20.60
   5   9  -6  236.58   18.20
   5   9  -6  223.38   15.40
  -9   5   6  216.18   18.60
  -5  -9   6  224.48   10.50
   5   9   6  234.58   19.00
  -9   5   6  226.58   15.60
  -9   5   6  203.98   14.00
   5   9   6  200.28   18.80
   5   9   6  212.58   19.80
   9  -5   6  218.38   18.40
   9  -5   6  188.88   18.80
  -5  -9   6  205.28   16.80
   9  -5   6  217.88   16.80
   5   9   6  231.08   18.10
  -9   7  -6  329.17   21.00
   7   9  -6  325.77   21.10
  -9   7  -6  302.67   20.30
  -9   7  -6  329.37   20.30
   7   9  -6  310.07   17.70
  -7  -9  -6  300.07   19.90
   9  -7  -6  310.57   16.40
   7   9  -6  301.87   23.10
   9  -7  -6  316.47   20.90
  -9   7   6  335.27   20.10
   7   9   6  338.97   23.10
  -9   7   6  301.87   21.70
  -7  -9   6  348.97   20.80
   9  -7   6  316.27   28.10
  -9   7   6  294.67   17.50
   9  -7   6  287.07   22.60
   7   9   6  277.87   30.00
   9  -9  -6   81.99   12.80
  -9  -9  -6   74.59   13.00
  -9   9  -6   61.49   11.70
  -9   9  -6   85.99   12.60
  -9   9  -6   80.69   13.20
   9   9  -6   68.99   11.50
   9  -9  -6  108.99   14.80
  -9   9   6   75.79   11.20
   9  -9   6   69.59   12.00
   9  -9   6   76.79   13.30
  -9  -9   6   68.89   11.90
  -9   9   6   74.49   16.30
   9  -9   6   69.99   13.10
   9   9   6   48.00   16.60
   9   9   6   95.99   15.10
  -9   9   6   58.69   13.10
  -9  -9   6   81.19   12.20
 -10  -8  -6  216.38   21.90
   8 -10  -6  196.48   19.60
  -8  10  -6  196.08   19.00
  -8  10  -6  193.48   19.80
  10   8  -6  216.88   24.20
  -8  10  -6  161.48   18.90
   8 -10  -6  189.38   16.80
  -8  10   6  167.48   19.00
   8 -10   6  201.78   20.20
  10   8   6  179.98   23.60
  -8  10   6  181.28   20.70
   8 -10   6  204.18   20.80
 -10  -8   6  164.18   19.20
   8 -10   6  160.18   20.90
 -10  -8   6  179.98   20.00
  10   8   6  182.88   23.20
  -8  10   6  185.98   21.80
   6 -10  -6  146.89   16.50
   6 -10  -6  129.69   15.10
 -10  -6  -6  112.39   13.00
  -6  10  -6  131.09   16.10
  -6  10  -6  114.09   12.80
  -6  10  -6   72.19   11.20
  10   6  -6  140.49   16.80
  -6  10   6  102.39   14.20
  -6  10   6  130.99   14.70
   6 -10   6  115.49   12.70
  10   6   6  114.39   13.50
   6 -10   6  108.69   13.10
 -10  -6   6  119.69   14.50
   6 -10   6  116.09   13.60
  -6  10   6  134.89   22.60
 -10  -6   6  125.29   14.30
  10   6   6  111.89   14.40
   4 -10  -6  379.06   29.20
  10   4  -6  350.76   22.80
  -4  10  -6  384.06   19.60
  -4  10  -6  385.56   20.20
  10   4  -6  361.26   19.50
 -10  -4  -6  347.77   20.60
  -4  10  -6  311.17   23.90
   4 -10  -6  374.66   19.10
  -4  10   6  346.37   22.10
   4 -10   6  318.07   19.40
  10   4   6  368.86   23.60
   4 -10   6  339.97   21.40
  -4  10   6  341.27   20.90
   4 -10   6  353.96   24.00
  -4  10   6  335.37   21.70
 -10  -4   6  370.96   19.20
  10   4   6  383.16   21.40
  -2  10  -6  621.04   27.90
 -10  -2  -6  648.24   25.70
  10   2  -6  606.34   20.50
  10   2  -6  579.54   27.60
   2 -10  -6  636.44   25.80
 -10  -2  -6  653.73   25.30
  -2  10  -6  597.84   25.30
  -2  10  -6  571.94   24.40
   2 -10  -6  605.84   26.10
 -10  -2  -6  625.74   27.40
  -2  10   6  627.14   26.90
  -2  10   6  585.54   27.00
   2 -10   6  640.24   26.10
  -2  10   6  606.84   27.60
  10   2   6  561.54   26.70
  10   2   6  641.54   25.10
  10   2   6  611.54   29.00
 -10  -2   6  602.14   20.60
   2 -10   6  592.84   28.10
  10   2   6  589.44   28.20
   2 -10   6  574.54   24.10
 -10  -2   6  593.14   25.60
   0  10  -6  167.38   19.20
 -10   0  -6  162.98   16.90
  10   0  -6  183.28    9.70
 -10   0  -6  188.48   15.40
  10   0  -6  167.98   17.70
   0  10  -6  177.68   12.30
   0 -10  -6  172.18   15.70
   0 -10  -6  188.48   16.00
   0  10  -6  183.98   15.10
   0  10   6  204.78   21.10
   0  10   6  178.98   17.10
   0  10   6  205.48   17.70
  10   0   6  181.68   19.60
  10   0   6  188.38   17.70
 -10   0   6  160.68   10.50
   0 -10   6  158.68   12.80
  10   0   6  169.48   17.10
  10   0   6  185.08   15.30
 -10   0   6  181.88   21.50
 -10   0   6  171.18   13.90
   0  10   6  176.48   14.80
   0 -10   6  178.48   18.60
   0 -10   6  213.58   16.30
  10  -2  -6  108.19    9.30
   2  10  -6  110.09   10.40
 -10   2  -6  126.99   15.80
   2  10  -6  137.99   16.00
   2  10  -6  117.69   14.70
  -2 -10  -6  154.08   15.20
 -10   2  -6  117.29   14.80
  10  -2  -6  140.59   17.20
  -2 -10  -6  111.19   15.40
  -2 -10   6  119.29   14.10
 -10   2   6  121.39   16.00
  -2 -10   6  113.39   10.60
   2  10   6  106.29   12.50
   2  10   6  114.19   15.80
   2  10   6  101.99   12.70
  -2 -10   6  120.69   14.40
 -10   2   6  123.59   12.80
   2  10   6  100.79   12.10
  10  -2   6  137.79   15.40
  10  -2   6  152.48   19.20
  10  -2   6  111.19   12.20
 -10   2   6  123.49   11.10
  10  -2   6  122.79   16.60
   4  10  -6   41.90    5.70
 -10   4  -6   64.99   11.40
  -4 -10  -6   48.90   11.10
 -10   4  -6   66.39   10.80
  10  -4  -6   64.49   11.30
   4  10  -6   57.69    9.10
   4  10  -6   54.19   12.50
   4  10  -6   31.80   10.10
  -4 -10  -6   44.80    9.80
  -4 -10   6   66.89   13.50
   4  10   6   70.09   12.00
  10  -4   6   47.40   12.00
  10  -4   6   37.50   10.70
 -10   4   6   59.59    8.70
   4  10   6   78.49   11.40
   4  10   6   71.69   12.10
  -4 -10   6   54.89    9.50
  10  -4   6   49.70   11.10
 -10   4   6   29.80   10.40
  -4 -10   6   65.39    6.90
   4  10   6   62.49   11.40
  10  -4   6   43.80    9.90
 -10   6  -6  324.47   20.70
  10  -6  -6  284.97   15.80
  -6 -10  -6  242.18   21.40
 -10   6  -6  275.97   20.10
  10  -6  -6  307.07   21.50
   6  10  -6  270.27   21.20
 -10   6  -6  317.37   20.10
   6  10  -6  301.47   17.70
  -6 -10   6  296.97   20.70
  10  -6   6  258.17   21.80
   6  10   6  264.67   28.80
   6  10   6  296.77   29.10
 -10   6   6  254.77   17.30
 -10   6   6  273.17   21.40
 -10   6   6  313.97   18.40
  10  -6   6  289.07   22.30
 -10   8  -6    2.60   10.90
  -8 -10  -6    1.10   11.10
 -10   8  -6    1.20   10.50
  10  -8  -6    3.90   11.10
 -10   8  -6   11.00   11.40
   8  10  -6    1.20    4.50
  10  -8  -6    0.30    7.60
   8  10  -6   15.10   14.00
   8  10  -6   -1.80   10.50
  10  -8   6  -13.40   12.60
 -10   8   6   -8.80    9.70
 -10   8   6   -2.20   11.40
  -8 -10   6   -9.00   10.30
  10  -8   6   -3.00   11.70
   8  10   6   -4.30   12.70
   8  10   6   -8.90   13.30
  10  -8   6   21.80   11.30
 -10   8   6   -2.10    9.30
  10  10  -6  175.78   19.20
  10 -10  -6  153.48   17.70
 -10  10  -6  176.28   21.00
 -10 -10  -6  173.98   23.40
 -10  10  -6  153.28   16.70
 -10  10  -6  141.59   15.90
  10 -10  -6  161.98   21.90
 -10  10   6  192.48   21.40
  10  10   6  207.58   25.40
  10 -10   6  169.48   20.70
 -10  10   6  146.29   17.10
  10 -10   6  178.78   23.00
  10  10   6  163.68   18.60
 -10  10   6  161.58   20.80
 -10 -10   6  154.88   16.10
  10 -10   6  172.68   17.30
  -9  11  -6  212.78   21.60
  -9  11  -6  219.88   21.90
  -9  11  -6  233.08   23.00
   9 -11  -6  212.98   22.80
 -11  -9  -6  191.78   24.60
   9 -11  -6  223.78   20.00
  11   9  -6  212.98   26.80
   9 -11   6  212.28   24.90
 -11  -9   6  197.98   21.80
 -11  -9   6  221.98   23.50
  -9  11   6  228.38   23.50
  11   9   6  180.18   26.10
  -9  11   6  243.38   26.00
  -9  11   6  211.28   22.80
   9 -11   6  239.28   23.10
   9 -11   6  233.98   24.20
  -7  11  -6  319.07   23.30
   7 -11  -6  307.67   20.10
  -7  11  -6  317.07   22.00
  -7  11  -6  320.27   22.10
   7 -11  -6  346.87   22.30
 -11  -7  -6  309.97   23.70
   7 -11   6  290.07   22.60
  11   7   6  315.07   24.50
  -7  11   6  279.97   24.90
   7 -11   6  283.17   23.70
  -7  11   6  331.37   23.30
 -11  -7   6  278.17   22.80
  -7  11   6  273.17   23.20
  11   7   6  305.67   25.60
   7 -11   6  289.67   21.50
  -5  11  -6  219.28   18.90
  -5  11  -6  255.37   22.00
  -5  11  -6  272.57   18.70
  11   5  -6  290.17   19.60
   5 -11  -6  287.47   28.70
   5 -11  -6  260.07   20.40
 -11  -5  -6  276.97   21.30
  -5  11   6  239.58   22.10
 -11  -5   6  279.27   26.90
  11   5   6  280.87   23.50
  -5  11   6  268.77   21.80
   5 -11   6  239.38   18.90
  11   5   6  265.47   21.70
   5 -11   6  301.47   19.50
  -5  11   6  262.07   28.40
   5 -11   6  240.18   21.60
  11   3  -6   12.20   11.10
  11   3  -6   13.50   10.60
  -3  11  -6   21.10   10.80
  11   3  -6   16.40    4.40
   3 -11  -6   24.20    8.60
   3 -11  -6    7.40    9.60
  -3  11  -6   12.00   10.10
  -3  11  -6   13.80    7.80
 -11  -3  -6   15.30    9.60
   3 -11   6   15.20   11.10
  11   3   6    9.90   11.20
  11   3   6   13.70   10.20
 -11  -3   6   18.20    4.70
  -3  11   6    9.70   10.60
 -11  -3   6   13.30   15.20
  11   3   6   21.70   18.70
  -3  11   6   14.90   11.10
   3 -11   6   15.70    8.30
  -3  11   6   12.40   10.30
  -1  11  -6  341.57   19.90
  11   1  -6  342.37   15.30
  -1  11  -6  313.47   26.40
 -11  -1  -6  365.76   19.80
   1 -11  -6  334.67   19.90
  -1  11  -6  321.77   19.40
   1 -11  -6  299.47   27.40
  11   1  -6  352.66   22.10
  -1  11   6  328.27   26.00
  -1  11   6  356.56   22.80
   1 -11   6  306.77   24.80
   1 -11   6  325.17   19.10
  -1  11   6  347.77   21.90
   1 -11   6  396.96   21.80
  11   1   6  306.97   24.50
 -11  -1   6  340.37   14.60
  11   1   6  287.37   20.80
 -11  -1   6  333.47   20.40
  11   1   6  326.67   19.40
   1  11  -6   25.80    9.10
 -11   1  -6   23.20    9.40
   1  11  -6   18.00    9.10
  11  -1  -6   19.40   10.90
  -1 -11  -6   15.80   12.40
  -1 -11   6   20.40    9.20
 -11   1   6   14.10    9.70
   1  11   6   34.20   10.60
  11  -1   6   12.20    9.20
  11  -1   6   35.10   12.40
  11  -1   6   41.90   10.50
  -1 -11   6   11.30   14.20
  -1 -11   6   15.60    9.40
   1  11   6   17.80   12.80
  11  -1   6   28.60   20.00
   1  11   6   42.20   17.90
 -11   3  -6  116.29   16.80
  11  -3  -6  119.09   13.40
 -11   3  -6  117.19   13.30
   3  11  -6   91.99   10.30
   3  11  -6   99.49   21.70
  -3 -11  -6  121.29   16.60
  11  -3  -6  102.89   10.40
   3  11  -6  117.59   14.80
   3  11   6  113.29   13.30
  11  -3   6  126.49   17.20
  -3 -11   6   98.79   11.10
   3  11   6  110.39   14.30
 -11   3   6  107.19   13.90
  11  -3   6   95.79   15.70
   3  11   6  119.29   14.60
  -3 -11   6  118.09   14.90
  -3 -11   6  113.29   12.50
 -11   3   6   98.59   12.70
   3  11   6  115.19   13.10
  11  -3   6  101.79   12.40
  11  -3   6  121.79   21.90
   5  11  -6  127.09   10.80
   5  11  -6  133.89   15.70
  -5 -11  -6  126.69   17.30
  11  -5  -6  127.29   13.80
  11  -5  -6  145.39   13.00
 -11   5  -6  186.68   17.90
   5  11  -6  178.88   20.90
  11  -5   6  174.88   19.80
  11  -5   6  128.99   17.90
   5  11   6  157.48   21.00
 -11   5   6  141.79   14.80
  11  -5   6  139.59   15.70
   5  11   6  133.19   15.20
 -11   5   6  145.69   14.50
  11  -5   6  144.29   19.70
  -5 -11   6  139.99   11.10
  -5 -11   6  146.39   17.80
 -11   7  -6  281.87   28.20
   7  11  -6  425.66   24.70
  11  -7  -6  383.36   19.80
  -7 -11  -6  407.76   24.30
   7  11  -6  392.16   28.30
 -11   7  -6  358.96   23.70
  11  -7  -6  403.76   24.20
   7  11  -6  356.76   15.50
  -7 -11   6  382.96   15.70
 -11   7   6  373.06   21.20
  -7 -11   6  426.96   24.60
 -11   7   6  380.86   26.60
   7  11   6  382.36   26.70
   7  11   6  334.67   27.30
  11  -7   6  409.86   26.00
  11  -7   6  365.06   23.60
  11  -9  -6  293.87   25.40
  -9 -11  -6  316.17   25.20
   9  11  -6  279.57   30.30
 -11   9  -6  288.47   23.70
   9  11  -6  297.17   13.50
 -11   9  -6  260.87   22.20
 -11   9  -6  289.37   25.00
  11  -9  -6  279.67   19.80
   9  11   6  333.67   27.70
  11  -9   6  294.87   25.10
  11  -9   6  281.77   23.20
 -11   9   6  244.48   22.90
  -9 -11   6  308.37   25.10
  11  -9   6  273.07   27.80
 -11   9   6  283.77   26.70
  -9 -11   6  288.17   12.80
   9  11   6  261.77   27.20
 -11   9   6  308.87   23.20
  11 -11  -6   39.80   15.10
  11  11  -6   21.80   17.90
  11  11  -6   20.30    6.10
 -11  11  -6   29.00   13.00
 -11 -11  -6   23.80   15.40
 -11  11  -6   41.40   15.20
  11 -11  -6   28.80   12.40
 -11  11  -6   56.59   13.90
 -11 -11   6   22.00   14.30
  11 -11   6   35.40   14.90
  11 -11   6   39.30   16.30
 -11  11   6   48.50   16.90
 -11  11   6   24.30   15.00
  11 -11   6   41.10   16.50
  11  11   6   62.99   18.20
  10 -12  -6  160.18   22.70
  12  10  -6  203.28   11.50
 -12 -10  -6  202.18   27.80
 -10  12  -6  208.28   23.80
  10 -12  -6  201.68   23.80
 -10  12  -6  223.38   24.80
 -10  12  -6  223.08   24.80
  12  10   6  196.78   22.10
 -12 -10   6  197.58   25.60
  10 -12   6  190.08   25.70
  10 -12   6  260.57   27.00
  10 -12   6  209.78   27.30
 -10  12   6  180.58   18.00
 -10  12   6  168.18   18.90
 -10  12   6  206.98   27.80
  -8  12  -6   38.50   13.30
  -8  12  -6   49.70   13.10
  -8  12  -6   36.60   12.80
 -12  -8  -6   58.49   15.20
   8 -12  -6   54.19   12.00
  12   8  -6   53.19   13.70
   8 -12  -6   50.39   13.60
  -8  12   6   56.29   14.60
  -8  12   6   13.30   14.80
 -12  -8   6   36.60   13.40
  12   8   6   37.50   15.70
  -8  12   6   55.29   16.50
   8 -12   6   39.80   13.50
   8 -12   6   62.59   14.30
   8 -12   6   46.20   14.40
  -6  12  -6  358.36   22.10
  -6  12  -6  298.97   22.30
   6 -12  -6  347.57   22.00
  12   6  -6  240.98   27.90
  -6  12  -6  339.57   24.30
   6 -12  -6  375.26   24.20
 -12  -6  -6  363.46   24.20
   6 -12   6  341.27   25.60
   6 -12   6  369.06   23.60
   6 -12   6  345.07   23.00
  12   6   6  294.57   26.40
 -12  -6   6  372.16   26.30
  -6  12   6  333.97   25.90
  -6  12   6  305.57   23.30
  -6  12   6  295.17   26.40
  12   4  -6  111.29    9.00
  12   4  -6  150.68   18.10
 -12  -4  -6  164.08   19.70
   4 -12  -6  119.29   13.60
  -4  12  -6  117.99   12.90
  -4  12  -6  102.89   11.40
  -4  12  -6  117.49   15.40
  -4  12   6  118.49   14.90
   4 -12   6  123.89   16.60
  -4  12   6  123.49   15.00
   4 -12   6  108.09   12.80
   4 -12   6  151.58   21.00
  12   4   6  126.89   16.00
 -12  -4   6  105.59   16.00
  -2  12  -6  230.98   21.70
  12   2  -6  223.48   11.70
   2 -12  -6  235.18   19.40
  -2  12  -6  204.08   25.50
  12   2  -6  219.18   21.20
  -2  12  -6  217.98   16.60
   2 -12  -6  258.97   18.10
  -2  12   6  257.77   28.20
  12   2   6  207.08   21.40
   2 -12   6  258.07   21.20
   2 -12   6  207.78   18.70
  12   2   6  232.78   19.30
 -12  -2   6  234.38   18.60
 -12  -2   6  219.38   12.30
   2 -12   6  225.28   16.70
  -2  12   6  193.48   22.20
  -2  12   6  208.08   21.30
   0 -12  -6  146.89   17.40
 -12   0  -6  162.68   17.50
   0  12  -6  162.58   19.70
  12   0  -6  127.49   14.20
   0  12  -6  143.79   13.70
   0  12  -6  176.48   17.60
  12   0  -6  142.29   10.70
   0  12   6  134.39   15.20
   0 -12   6  136.59   13.50
   0  12   6  118.89   14.70
  12   0   6  136.79   18.20
 -12   0   6  138.69   18.70
   0 -12   6  142.49   17.70
  12   0   6  140.09   20.00
  12   0   6  158.88   20.30
  12   0   6  163.38   17.70
 -12   0   6  126.49   11.50
   0  12   6  132.39   14.60
   0 -12   6  117.69   14.70
  12  -2  -6  242.98   20.00
   2  12  -6  257.67   14.60
   2  12  -6  243.68   22.00
  -2 -12  -6  255.87   19.50
  12  -2  -6  239.48   13.70
 -12   2  -6  215.28   25.10
   2  12  -6  275.67   18.70
 -12   2   6  257.97   20.70
  -2 -12   6  255.37   15.50
  -2 -12   6  257.07   20.90
   2  12   6  250.57   28.30
  -2 -12   6  247.68   23.10
  12  -2   6  244.78   24.80
   2  12   6  252.27   23.30
  12  -2   6  283.37   25.00
  12  -2   6  281.87   32.80
 -12   2   6  245.48   15.50
  12  -2   6  255.17   20.90
   2  12   6  248.88   19.90
   2  12   6  284.37   22.40
 -12   4  -6  133.09   18.00
   4  12  -6  159.68   19.40
  12  -4  -6  166.28   19.00
   4  12  -6  158.78   22.40
  12  -4  -6  133.69   13.10
   4  12  -6  148.79   11.80
   4  12  -6  139.19   16.40
  -4 -12  -6  166.98   19.40
   4  12   6  122.19   14.70
 -12   4   6  137.49   14.90
  12  -4   6  136.29   16.60
  12  -4   6  163.28   19.20
   4  12   6  163.08   21.50
  12  -4   6  160.38   19.40
 -12   4   6  130.49   14.90
  12  -4   6  149.09   20.00
  -4 -12   6  135.79   13.50
  -4 -12   6  151.18   12.40
   6  12  -6   49.60   14.90
  12  -6  -6   34.10    8.90
  12  -6  -6   42.30   13.10
   6  12  -6   41.40    6.80
   6  12  -6   53.89   13.50
  -6 -12  -6   53.99   12.80
 -12   6  -6   56.09   12.90
   6  12   6   52.49   14.60
   6  12   6   37.90   13.20
  12  -6   6   51.49   18.50
  -6 -12   6   39.60   12.10
 -12   6   6   48.70   10.20
  -6 -12   6   38.20    7.10
 -12   6   6   38.00   13.50
  12  -6   6   61.89   12.40
  12  -6   6   55.79   13.40
  12  -8  -6  251.07   18.50
   8  12  -6  317.07   30.20
 -12   8  -6  233.18   23.20
   8  12  -6  246.08   13.70
  -8 -12  -6  248.68   23.90
  12  -8  -6  254.07   24.00
   8  12  -6  280.77   24.10
  12  -8   6  281.37   28.50
  -8 -12   6  259.47   14.20
  12  -8   6  253.57   24.20
 -12   8   6  269.27   27.00
  -8 -12   6  291.37   24.40
   8  12   6  227.38   28.10
  12  -8   6  217.48   24.70
   8  12   6  252.67   27.30
 -12   8   6  283.87   21.30
 -10 -12  -6   78.19   16.60
  12 -10  -6   83.69   16.20
  12 -10  -6   68.59   12.90
 -12  10  -6   47.00   14.00
  10  12  -6   70.69    7.70
  10  12  -6   73.49   19.60
 -12  10  -6   59.39   16.10
 -10 -12   6   86.29   15.80
  12 -10   6   85.89   16.90
 -12  10   6   70.99   17.20
 -12  10   6   61.69   14.70
 -10 -12   6   74.49    7.00
  12 -10   6   59.19   14.40
  10  12   6   93.79   18.70
   9 -13  -6  122.89   14.90
  -9  13  -6  132.79   15.90
 -13  -9  -6  117.09   18.50
  -9  13  -6  119.69   16.30
  -9  13  -6  142.29   16.80
   9 -13  -6   98.79   16.50
  13   9  -6  132.19   17.40
   9 -13   6  107.79   17.60
  -9  13   6  116.49   19.70
  -9  13   6  123.69   17.40
  -9  13   6  115.19   18.30
   9 -13   6  140.29   18.70
 -13  -9   6  120.19   17.20
  13   9   6  119.09   19.20
   9 -13   6  130.69   17.30
  -7  13  -6   25.20   13.10
   7 -13  -6   36.60   11.70
  -7  13  -6   70.99   14.60
  13   7  -6   43.50   13.80
   7 -13  -6   83.69   14.40
  -7  13  -6   44.00   12.80
 -13  -7  -6   72.59   15.90
  13   7   6   38.40   15.80
  -7  13   6   59.29   15.70
   7 -13   6   53.49   14.00
  -7  13   6   48.90   16.40
 -13  -7   6   45.60   14.20
   7 -13   6   33.30   14.80
   7 -13   6   58.19   14.20
  -7  13   6   39.70   15.50
  13   5  -6   65.09   13.70
  -5  13  -6   43.40   11.20
   5 -13  -6   46.70   11.30
   5 -13  -6   42.40   13.30
 -13  -5  -6   64.09   15.90
  -5  13  -6   46.50   12.20
  13   5  -6   50.59    6.50
  -5  13  -6   42.10   13.90
  13   5   6   34.90   14.80
  -5  13   6   39.20   14.80
   5 -13   6   52.79   12.80
  -5  13   6   56.29   15.60
 -13  -5   6   35.70   15.20
   5 -13   6   43.90   13.80
   5 -13   6   46.90   11.90
  -5  13   6   52.49   15.00
  -3  13  -6   30.20    9.50
  13   3  -6   40.30   13.20
  13   3  -6   37.20    6.20
   3 -13  -6   25.40   12.10
  -3  13  -6   28.20   11.20
  -3  13  -6   32.70   13.80
   3 -13   6   39.40   13.90
  -3  13   6   36.50   13.70
  -3  13   6   27.80   14.80
   3 -13   6   33.00   11.60
   3 -13   6   43.60   10.80
  13   3   6   19.70   13.30
  13   3   6   33.50   10.60
  -3  13   6   43.00   16.10
 -13  -3   6   45.00    6.50
  13   1  -6   -3.70   12.30
   1 -13  -6    8.40   10.40
  -1  13  -6   -3.10   10.40
  13   1  -6   -5.10    5.60
  -1  13  -6    1.60    8.20
  -1  13  -6    5.60   12.70
  -1  13   6    3.30   12.90
 -13  -1   6   19.50   11.10
   1 -13   6   -4.30    8.40
   1 -13   6  -11.80   12.20
   1 -13   6    3.30   10.90
  -1  13   6   -4.00   13.10
  13   1   6  -10.50   10.70
 -13  -1   6    3.90    6.30
  -1  13   6    3.60   16.00
  13   1   6    7.50   12.40
  -1 -13  -6   77.99   12.80
   1  13  -6   81.59    9.30
   1  13  -6   92.69   15.60
   1  13  -6   97.69   14.50
 -13   1  -6   97.39   12.90
  13  -1  -6   95.99   11.20
  13  -1  -6   81.59   13.80
 -13   1   6   93.99   13.80
  -1 -13   6   77.39    9.80
   1  13   6   87.79   14.70
   1  13   6   69.29   14.80
  13  -1   6   63.99   12.70
  -1 -13   6   84.49   12.80
  13  -1   6   83.39   14.10
 -13   1   6   88.29    9.10
  -1 -13   6   97.39   15.90
  13  -3  -6  268.47   16.20
  13  -3  -6  275.17   23.10
  -3 -13  -6  297.07   21.80
   3  13  -6  322.87   26.00
 -13   3  -6  327.27   22.80
   3  13  -6  283.37   16.20
   3  13  -6  292.17   24.30
  13  -3   6  311.47   22.90
   3  13   6  317.67   22.80
  13  -3   6  297.27   23.80
  -3 -13   6  291.77   16.80
 -13   3   6  261.17   17.80
   3  13   6  313.77   26.80
  -3 -13   6  265.37   22.30
 -13   3   6  275.97   23.70
  13  -5  -6  247.88   23.30
   5  13  -6  289.87   24.80
   5  13  -6  272.97   15.50
  -5 -13  -6  260.57   22.00
 -13   5  -6  234.78   22.80
   5  13  -6  279.37   27.00
  13  -5  -6  241.08   17.20
 -13   5   6  271.07   18.80
   5  13   6  233.58   24.10
  -5 -13   6  258.97   22.70
  -5 -13   6  242.48   15.60
 -13   5   6  270.27   25.40
  13  -5   6  269.47   23.10
   5  13   6  227.58   26.80
  13  -5   6  254.97   24.00
   7  13  -6   21.00    7.20
  -7 -13  -6   12.60   13.40
   7  13  -6    5.40   13.80
  13  -7  -6    8.30   13.40
 -13   7  -6   18.90   13.70
  13  -7  -6   15.00    9.70
   7  13  -6    3.50   16.50
 -13   7   6    8.00   14.50
  13  -7   6    2.60   14.30
   7  13   6   24.70   17.30
   7  13   6   27.60   15.00
 -13   7   6    3.40   10.70
  13  -7   6  -18.90   12.60
  -7 -13   6   20.00    7.20
  -7 -13   6   17.00   13.20
  13  -9  -6  146.39   19.90
   9  13  -6  166.98   22.50
   9  13  -6  133.59   13.50
  -9 -13  -6  166.58   18.40
  13  -9  -6  167.68   18.90
 -13   9  -6  171.58   18.80
  -9 -13   6  140.99   13.40
   9  13   6  165.68   20.00
  -9 -13   6  130.29   17.30
 -13   9   6  126.29   19.50
  13  -9   6  141.59   17.80
 -13   9   6  180.18   22.90
   9  13   6  115.59   19.80
  13  -9   6  163.48   17.30
  14   8  -6  124.99   11.20
  14   8  -6  123.49   17.20
   8 -14  -6  135.79   17.30
  -8  14  -6  117.49   17.20
  -8  14  -6   74.39   16.50
 -14  -8  -6  157.18   19.70
  -8  14  -6  147.19   17.60
   8 -14  -6  102.79   15.20
   8 -14   6  155.28   19.70
  -8  14   6  146.69   21.30
  -8  14   6  139.49   18.70
  14   8   6  140.09   20.50
   8 -14   6  154.38   18.70
   8 -14   6  140.79   18.20
  -8  14   6  143.69   19.60
 -14  -8   6  102.29   18.20
  -6  14  -6  185.78   23.00
  -6  14  -6  191.58   25.50
   6 -14  -6  182.98   23.30
  -6  14  -6  191.88   22.30
   6 -14  -6  202.68   22.40
  14   6  -6  203.58   12.80
  14   6  -6  180.08   23.50
   6 -14   6  202.88   24.50
  -6  14   6  178.78   20.80
   6 -14   6  217.58   24.10
   6 -14   6  213.68   26.70
  -6  14   6  227.98   28.90
 -14  -6   6  142.69   18.40
  14   6   6  160.58   19.70
  -6  14   6  216.38   27.10
   4 -14  -6  277.07   23.40
  -4  14  -6  212.48   26.10
  -4  14  -6  285.97   21.00
  -4  14  -6  249.68   23.40
   4 -14   6  227.78   23.70
  -4  14   6  219.68   29.50
 -14  -4   6  241.28   13.40
   4 -14   6  238.98   25.90
   4 -14   6  231.28   21.50
  14   4   6  265.07   27.00
 -14  -4   6  263.07   27.00
  -4  14   6  222.98   25.80
  -4  14   6  218.38   27.50
   2 -14  -6  254.57   21.70
  14   2  -6  223.68   23.50
  -2  14  -6  259.87   21.70
  14   2  -6  245.08   14.10
  -2  14  -6  213.68   19.00
  -2  14  -6  224.38   25.90
   2 -14   6  243.38   25.10
  -2  14   6  214.08   27.50
 -14  -2   6  255.27   15.10
  14   2   6  231.48   25.10
   2 -14   6  243.48   23.40
  14   2   6  255.17   22.60
   2 -14   6  251.87   19.50
  -2  14   6  213.88   27.80
   0  14  -6  447.16   24.30
   0  14  -6  438.36   28.30
  14   0  -6  447.86   19.20
   0  14  -6  412.56   21.60
   0 -14  -6  415.96   25.50
  14   0  -6  445.86   27.80
 -14   0   6  417.96   26.10
   0 -14   6  417.76   30.10
   0 -14   6  479.25   27.10
   0  14   6  475.55   31.20
  14   0   6  423.86   26.00
   0  14   6  422.56   30.60
 -14   0   6  441.36   20.40
  14   0   6  394.06   28.20
   0 -14   6  448.86   22.30
 -14   2  -6   43.90   12.80
  -2 -14  -6   25.30   12.20
   2  14  -6   21.80   14.10
  14  -2  -6   43.30    8.10
   2  14  -6   27.40    8.50
  14  -2  -6   33.20   13.10
 -14   2   6   33.50   13.80
 -14   2   6   27.00    8.80
  14  -2   6   49.30   14.00
  -2 -14   6   30.20    9.30
  14  -2   6   28.30   13.30
   2  14   6   50.89   16.30
  -2 -14   6   41.60   12.60
  -2 -14   6   42.80   16.00
   4  14  -6  181.68   17.80
   4  14  -6  175.78   19.10
 -14   4  -6  189.58   22.70
  14  -4  -6  196.98   23.30
  14  -4  -6  191.48   16.10
   4  14  -6  167.98   15.00
  -4 -14  -6  213.88   22.30
   4  14   6  180.88   22.70
 -14   4   6  187.58   17.70
  -4 -14   6  173.08   16.00
   4  14   6  155.58   19.30
  14  -4   6  188.88   22.40
  14  -4   6  176.18   25.00
 -14   4   6  188.18   25.20
  -4 -14   6  195.88   21.20
  14  -6  -6   66.19   10.50
 -14   6  -6   58.69   14.60
  -6 -14  -6   57.29   15.00
   6  14  -6   72.59   16.10
  14  -6  -6   47.50   14.70
   6  14  -6   76.29   17.90
   6  14  -6   62.99    9.00
   6  14   6   46.70   18.80
  -6 -14   6   66.09    9.30
 -14   6   6   72.19   11.80
   6  14   6   66.19   15.90
  14  -6   6   68.19   15.00
  14  -6   6  106.29   16.70
  -6 -14   6   69.49   14.90
 -14   6   6   62.39   17.00
  -8 -14  -6  223.08   28.10
 -14   8  -6  210.58   26.10
  14  -8  -6  247.68   20.90
   8  14  -6  215.58   15.90
   8  14  -6  245.48   32.80
  14  -8  -6  217.78   26.50
 -14   8   6  220.58   22.30
   8  14   6  236.88   26.80
  14  -8   6  212.68   20.10
   8  14   6  259.57   28.40
  -8 -14   6  205.58   26.80
  14  -8   6  243.88   26.40
  -8 -14   6  239.78   16.30
 -14   8   6  228.88   23.20
  15   5  -6  117.99   13.00
  -5  15  -6   80.49   14.00
   5 -15  -6  104.89   16.50
  -5  15  -6  117.39   18.60
  -5  15  -6   83.79   15.80
   5 -15   6   95.29   17.60
   5 -15   6  118.19   15.50
  15   5   6   91.19   19.40
 -15  -5   6  112.59   19.10
  -5  15   6  102.49   18.70
   5 -15   6   86.29   15.70
  15   5   6   77.39   16.30
  -5  15   6  106.49   20.70
 -15  -5   6   99.89   11.70
  -3  15  -6    8.40   15.80
  -3  15  -6   21.00   11.00
   3 -15  -6   37.70   14.20
  15   3  -6   28.50    7.40
  -3  15  -6   21.10   13.80
  -3  15   6   16.50   17.20
  -3  15   6   13.70   16.20
   3 -15   6   22.90   14.00
   3 -15   6    9.20   11.90
  15   3   6   10.80   15.90
  15   3   6   43.00   13.30
   3 -15   6    3.40   15.00
 -15  -3   6   17.10   15.60
  15   1  -6  170.78   18.20
  -1  15  -6  152.08   18.30
  -1  15  -6  134.39   18.00
  -1  15  -6  144.09   15.40
   1 -15  -6  169.28   17.30
  15   1  -6  166.18   14.10
  15   1   6  145.49   16.10
 -15  -1   6  135.59   15.10
   1 -15   6  174.18   18.50
  -1  15   6  197.68   20.40
   1 -15   6  157.18   19.50
   1 -15   6  166.28   17.00
  15   1   6  182.98   26.30
  -1 -15  -6  157.38   16.80
   1  15  -6  214.08   25.70
  15  -1  -6  196.78   23.40
  15  -1  -6  177.08   14.90
   1  15  -6  151.68   17.20
  15  -1   6  193.98   25.90
  15  -1   6  204.98   24.20
  -1 -15   6  183.48   18.40
 -15   1   6  182.58   23.30
  -1 -15   6  157.98   19.80
   1  15   6  176.98   20.40
 -15   1   6  185.88   17.40
  -1 -15   6  184.38   22.90
   3  15  -6   27.40   16.00
  15  -3  -6   25.00    8.60
   3  15  -6    7.00   15.50
   3  15  -6   20.00    9.00
 -15   3  -6   35.50   13.80
  15  -3  -6   33.40   14.80
  -3 -15  -6   11.00   12.90
  -3 -15   6   29.40   10.00
  15  -3   6   10.80   15.40
  -3 -15   6   22.90   14.20
  15  -3   6   16.90   14.60
 -15   3   6   15.20   10.20
   3  15   6    9.90   17.20
   3  15   6   20.90   15.20
 -15   3   6   35.70   15.40
  -5 -15  -6   58.89   15.80
 -15   5  -6   37.60   15.40
   5  15  -6   56.89    9.70
  15  -5  -6   47.10   10.50
   5  15  -6   38.60   16.80
   5  15  -6   46.10   18.10
  15  -5  -6   48.60   15.60
  15  -5   6   48.10   16.40
 -15   5   6   49.50   11.90
   5  15   6   71.29   16.20
  -5 -15   6   26.80   14.30
 -15   5   6   73.59   18.00
   5  15   6   81.49   19.40
  15  -5   6   33.90   14.20
  -5 -15   6   40.60   10.10
  -4  16  -6  306.07   38.30
  -4  16  -6  330.37   27.20
  -4  16  -6  295.37   28.40
   4 -16  -6  286.07   36.30
 -16  -4   6  308.57   30.90
   4 -16   6  271.07   25.30
  16   4   6  287.57   27.20
   4 -16   6  329.87   33.80
  -4  16   6  307.97   34.30
  16   4   6  286.87   31.50
   4 -16   6  275.97   30.20
  -4  16   6  269.77   33.90
   2 -16  -6   49.10   15.30
  -2  16  -6   29.10   14.20
  -2  16  -6   31.60   17.00
  -2  16  -6   32.10   12.00
  16   2  -6   22.70    8.20
   2 -16   6   27.30   14.90
   2 -16   6   46.80   17.40
  16   2   6   18.20   14.80
   2 -16   6   34.70   12.50
  16   2   6   43.90   18.20
  -2  16   6   39.20   18.60
 -16  -2   6   34.00   17.20
  16   0  -6  147.69   18.10
   0  16  -6  144.19   19.50
   0 -16  -6  115.19   16.70
   0  16  -6  106.39   13.20
  16   0  -6  120.59   15.00
  16   0   6  121.29   19.60
  16   0   6  114.69   16.90
   0  16   6  145.89   20.80
   0 -16   6  100.69   19.40
 -16   0   6  108.39   11.30
   0 -16   6  115.99   17.50
   0 -16   6  118.99   13.90
  16  -2  -6  119.39   18.00
  16  -2  -6  117.09   15.90
 -16   2  -6  151.98   17.00
   2  16  -6  114.79   19.00
   2  16  -6  107.89   12.50
  -2 -16  -6  107.29   16.70
 -16   2   6  116.99   12.60
  16  -2   6  143.19   19.20
 -16   2   6  117.79   17.60
  -2 -16   6  133.09   13.50
  -2 -16   6  104.79   20.40
   2  16   6  113.89   20.80
  16  -2   6  112.89   17.50
  -2 -16   6  126.69   17.10
   4  16  -6  166.08   20.80
   4  16  -6  156.88   18.20
   4  16  -6  144.79   24.00
  16  -4  -6  244.28   27.60
  -4 -16  -6  117.49   21.10
 -16   4  -6  199.18   24.40
  16  -4  -6  179.28   28.30
   4  16   6  189.58   22.90
   4  16   6  166.58   18.10
 -16   4   6  132.49   18.70
  -4 -16   6  188.18   19.50
  16  -4   6  145.79   17.90
  16  -4   6  127.29   18.40
  -4 -16   6  218.78   28.80
 -16   4   6  130.69   20.10
  -1   0  -7   31.70    6.00
   1   0  -7   29.50    7.30
   0  -1  -7   31.00    7.60
  -1   0  -7   28.60    7.60
   0  -1  -7   31.30    8.00
   0  -1  -7   27.60    5.60
   0   1  -7   33.50    7.80
  -1   0  -7   22.40    7.30
   0   1  -7   24.80    7.10
   1   0  -7   32.60    5.30
   1   0  -7   34.40    8.10
   0   1  -7   30.40    5.50
   1   0   7   30.80    6.10
   0   1   7   35.90    8.90
  -1   0   7   17.60    9.00
   1   0   7   15.00    8.00
   0  -1   7   43.30    9.30
  -1   0   7   27.40    5.30
  -1   0   7   33.10    8.40
   0  -1   7   34.80    5.60
   1   0   7   28.10    8.60
   0   1   7   33.00    8.80
   0   1   7   27.20    5.50
   0  -1   7   18.00    8.50
   2   1  -7  363.66   14.60
  -2  -1  -7  365.76   18.00
   1  -2  -7  348.87   18.30
  -1   2  -7  356.56   17.50
   1  -2  -7  348.47   15.60
   2   1  -7  367.86   18.40
   2   1  -7  396.66   18.60
  -2  -1  -7  386.56   18.00
  -1   2  -7  350.86   15.60
   1  -2  -7  392.46   18.80
  -2  -1  -7  328.77   16.30
   1  -2   7  329.37   20.70
   1  -2   7  359.86   19.50
   1  -2   7  333.67   15.40
   2   1   7  380.86   20.90
   2   1   7  351.96   19.60
  -1   2   7  373.86   19.40
  -1   2   7  344.07   15.60
  -2  -1   7  376.66   19.00
   2   1   7  351.46   16.50
  -2  -1   7  354.46   14.50
  -1   2   7  319.57   18.90
  -2  -1   7  360.36   20.00
   2  -1  -7  732.63   28.80
  -1  -2  -7  783.52   28.80
  -1  -2  -7  761.02   27.30
  -2   1  -7  729.63   27.30
   2  -1  -7  773.42   29.20
   1   2  -7  752.22   28.70
   1   2  -7  789.22   27.90
  -2   1  -7  773.92   28.80
  -1  -2  -7  791.52   28.70
   2  -1  -7  714.43   26.10
   1   2  -7  792.82   26.30
  -2   1   7  782.72   29.80
   2  -1   7  742.83   30.40
   2  -1   7  763.22   29.90
  -1  -2   7  733.03   25.70
   1   2   7  751.42   29.80
  -1  -2   7  749.03   30.80
   2  -1   7  743.13   26.80
   1   2   7  729.63   29.40
  -2   1   7  725.23   25.80
   2  -1   7  779.52   27.00
  -2   1   7  738.23   28.90
   1   2   7  691.63   26.70
  -1  -2   7  728.33   29.50
   3   2  -7  200.78   14.20
   2  -3  -7  204.08   15.80
   3   2  -7  208.98   15.80
   2  -3  -7  189.48   11.50
   2  -3  -7  200.18   15.00
  -3  -2  -7  197.48   13.90
  -2   3  -7  202.58   14.20
  -3  -2  -7  188.58   12.80
  -2   3  -7  191.88   12.20
  -3  -2  -7  205.58   14.70
   3   2  -7  193.68    9.90
  -2   3   7  170.28   15.60
   3   2   7  208.08   17.20
  -2   3   7  209.78   15.10
  -3  -2   7  195.88    9.90
  -3  -2   7  195.88   17.30
  -2   3   7  200.48   11.90
   2  -3   7  176.48   12.30
   2  -3   7  203.28   16.40
   3   2   7  197.38   16.20
   3   2   7  207.98   13.80
   2  -3   7  207.98   18.10
  -3  -2   7  198.08   15.00
   0  -3  -7  133.29   12.80
   0   3  -7  103.39   12.40
   3   0  -7  130.29   14.60
  -3   0  -7  120.39   13.00
   0   3  -7  108.19    9.30
   3   0  -7  113.69   12.30
   0  -3  -7  121.19   14.00
   0  -3  -7  102.99   10.20
  -3   0  -7  114.79   12.10
  -3   0  -7  114.09   11.10
   3   0  -7   99.49    8.30
   3   0   7  125.69   12.00
   0   3   7  108.89   11.30
   3   0   7   98.69   10.90
  -3   0   7  107.69    8.70
   0  -3   7  129.59   16.30
   0   3   7  126.69   11.10
   3   0   7  117.59   15.30
   0  -3   7  114.19    9.40
  -3   0   7  124.69   13.50
   0  -3   7  115.89   14.80
  -3   0   7  104.79   14.70
   0   3   7  117.89   14.50
  -2  -3  -7  260.87   14.40
  -2  -3  -7  267.47   15.70
   2   3  -7  269.17   15.80
  -3   2  -7  264.37   14.70
   3  -2  -7  285.47   17.70
  -3   2  -7  258.37   16.20
   2   3  -7  248.28   11.80
   2   3  -7  295.87   16.20
   3  -2  -7  264.47   16.10
  -2  -3  -7  257.17   16.60
   3  -2  -7  250.47   12.40
  -3   2   7  255.77   12.70
  -3   2   7  273.47   16.70
   2   3   7  241.98   18.50
  -2  -3   7  242.18   11.40
   3  -2   7  259.47   19.10
  -2  -3   7  245.28   17.10
   3  -2   7  251.67   14.20
   3  -2   7  266.97   17.60
   2   3   7  235.58   14.70
  -2  -3   7  269.37   18.10
   2   3   7  276.77   17.80
  -3   2   7  256.17   16.50
  -3   4  -7  475.05   21.40
   3  -4  -7  498.35   22.70
   3  -4  -7  471.05   19.20
  -3   4  -7  490.55   20.30
   4   3  -7  487.15   21.30
  -4  -3  -7  468.65   20.90
  -4  -3  -7  498.95   21.90
   4   3  -7  465.25   17.00
  -4  -3  -7  475.25   21.40
   4   3  -7  519.55   22.40
   4   3   7  462.25   24.30
   3  -4   7  472.25   20.30
  -4  -3   7  492.45   27.80
   3  -4   7  451.75   25.00
  -3   4   7  459.35   22.70
  -4  -3   7  504.55   22.40
  -4  -3   7  489.25   16.90
   3  -4   7  484.55   21.30
   4   3   7  487.75   23.60
   3  -4   7  483.15   23.50
  -3   4   7  457.35   19.30
   4   3   7  488.95   21.40
  -3   4   7  466.15   22.90
   4   1  -7  387.26   19.80
   1  -4  -7  354.06   16.20
   1  -4  -7  362.16   18.50
  -1   4  -7  344.17   15.90
  -1   4  -7  369.36   18.20
  -4  -1  -7  365.66   17.60
   4   1  -7  363.36   18.10
   1  -4  -7  345.87   19.30
  -4  -1  -7  365.36   18.30
   4   1  -7  361.46   14.00
  -4  -1  -7  367.16   18.00
   4   1   7  320.47   19.90
   1  -4   7  379.76   21.20
  -4  -1   7  361.76   19.30
  -1   4   7  317.27   19.00
  -4  -1   7  351.36   18.90
  -4  -1   7  332.57   13.70
  -1   4   7  342.97   19.70
  -1   4   7  361.56   19.40
   1  -4   7  368.46   17.10
   4   1   7  333.27   20.80
  -1   4   7  341.77   16.40
   1  -4   7  344.27   15.60
   1  -4   7  356.06   19.80
   4   1   7  345.07   17.80
   4  -1  -7   11.90    8.60
   4  -1  -7   14.70    4.50
  -1  -4  -7    8.60    6.80
  -4   1  -7    4.60    7.20
  -1  -4  -7    4.90    8.10
  -4   1  -7   21.80    6.50
   1   4  -7   12.20    4.90
   4  -1  -7   23.10    7.70
  -1  -4  -7   13.90    5.80
   1   4  -7   22.60    7.50
   1   4   7   22.10    8.80
  -4   1   7   12.00    4.80
   1   4   7   14.60    8.30
  -1  -4   7    7.90    4.70
  -4   1   7   23.20    9.30
   4  -1   7   13.40    6.80
  -4   1   7   26.00    7.80
   4  -1   7   16.40    9.90
   1   4   7   10.90    6.30
  -4   1   7   11.30    8.70
  -1  -4   7   15.70    8.60
  -1  -4   7   14.40    9.40
   4  -1   7   16.70    9.00
   3   4  -7  109.29   12.70
  -3  -4  -7  128.39   12.30
  -4   3  -7  123.39   11.90
   4  -3  -7  112.89    9.30
  -4   3  -7  123.79   13.60
   3   4  -7  128.59   13.70
   4  -3  -7  130.59   15.50
  -3  -4  -7  121.69   15.00
   3   4  -7  124.19    8.30
  -3  -4  -7  107.59   13.10
   3   4   7  129.49   15.30
   3   4   7  119.29   15.80
  -3  -4   7  149.59   15.20
   4  -3   7  121.99   12.80
  -4   3   7  105.79   14.00
  -4   3   7  123.89   10.00
  -3  -4   7  117.39   17.10
   4  -3   7  107.99   12.30
   3   4   7  139.89   13.50
  -3  -4   7  117.49    7.80
   4  -3   7  147.99   15.90
  -4   3   7  120.09   14.90
   4  -3   7  101.69   12.30
  -4   5  -7  109.09   11.00
   4  -5  -7  114.79   10.80
  -5  -4  -7  123.89   14.50
  -5  -4  -7  101.29   13.50
  -4   5  -7  135.69   16.90
   5   4  -7   99.79   13.20
   5   4  -7  126.89   15.90
  -5  -4  -7   93.79   10.30
   4  -5  -7  109.79   11.60
  -4   5  -7  108.29   12.40
   5   4  -7  107.29    7.20
   5   4   7  116.89   15.40
   5   4   7  105.39   12.30
  -4   5   7   98.99   11.90
  -5  -4   7  119.19    6.80
  -5  -4   7  128.79   14.70
  -4   5   7  122.09   15.80
   4  -5   7  119.89   14.30
   4  -5   7   88.99   13.40
   5   4   7  116.99   13.00
  -4   5   7   97.09   11.00
  -5  -4   7  126.39   12.80
   4  -5   7   87.79    9.60
  -5  -2  -7   88.89    9.70
  -2   5  -7   92.89   10.70
  -5  -2  -7   95.49   12.70
   5   2  -7  105.79   11.20
   5   2  -7   86.79    9.50
   2  -5  -7   79.09   10.30
  -2   5  -7   88.79   11.00
   5   2  -7   86.19    7.00
   2  -5  -7   92.09   10.40
  -2   5  -7   78.29    9.20
  -5  -2  -7  103.09   13.60
   2  -5   7  101.09   13.00
  -5  -2   7   95.89    7.10
  -2   5   7   92.99   11.60
  -5  -2   7  109.69   14.60
   5   2   7   94.59   12.40
  -2   5   7   90.29   10.90
  -2   5   7  102.29   11.50
  -5  -2   7   79.69    9.90
   5   2   7   71.19    9.70
   2  -5   7   95.59   12.30
   5   2   7  103.29   12.30
   2  -5   7  109.49   10.80
  -2   5   7  109.69   13.00
   5   0  -7  450.85   21.90
   0  -5  -7  456.05   21.60
   0   5  -7  458.65   23.10
  -5   0  -7  451.65   20.50
  -5   0  -7  466.25   20.60
   0   5  -7  445.76   18.00
   0   5  -7  453.65   20.90
   0  -5  -7  403.26   18.70
   5   0  -7  440.06   16.50
   0   5   7  463.15   22.50
   0  -5   7  441.86   24.20
  -5   0   7  401.86   21.30
   0  -5   7  450.55   17.80
   0   5   7  446.26   19.70
   0   5   7  479.15   21.90
   5   0   7  446.56   21.00
  -5   0   7  418.06   16.40
   5   0   7  432.66   23.50
   0   5   7  437.16   22.00
   0  -5   7  454.25   19.90
   5   0   7  439.56   23.40
  -5   0   7  445.86   20.70
   2   5  -7  105.89    8.80
  -2  -5  -7   97.59   13.10
   5  -2  -7   78.39    8.40
  -5   2  -7  109.39   13.40
  -2  -5  -7  113.99   12.10
  -2  -5  -7  107.89   14.90
   5  -2  -7  113.79   15.60
  -5   2  -7   97.79   12.40
   2   5  -7   95.69   12.30
  -2  -5   7   88.69   12.10
  -5   2   7   96.09    9.10
   5  -2   7   80.59    9.30
   2   5   7   90.59   11.60
  -5   2   7   79.49    9.90
  -2  -5   7   97.69   11.30
   5  -2   7   83.29   11.90
   2   5   7  110.19   15.80
  -5   2   7   83.59   10.40
  -2  -5   7   85.09    8.10
   5  -2   7   90.19   10.60
  -2  -5   7  119.69   16.60
   2   5   7  107.09   12.90
   5  -2   7  103.79   12.10
  -5   4  -7  430.56   20.20
  -4  -5  -7  472.45   20.80
  -4  -5  -7  468.15   21.10
  -5   4  -7  421.86   21.70
  -4  -5  -7  409.76   21.50
   5  -4  -7  442.46   22.60
   5  -4  -7  420.36   17.80
   4   5  -7  435.36   15.90
   4   5  -7  436.36   21.10
  -5   4   7  405.66   22.50
  -4  -5   7  435.26   15.50
   5  -4   7  424.56   20.70
   5  -4   7  404.86   24.50
   4   5   7  459.05   23.60
  -4  -5   7  426.76   24.20
  -4  -5   7  449.26   22.50
  -5   4   7  470.85   21.70
  -5   4   7  422.06   18.40
   4   5   7  413.26   23.20
   5  -4   7  458.45   26.20
   5  -4   7  431.96   23.80
   4   5   7  438.06   22.10
   6   5  -7  272.77   19.30
  -6  -5  -7  264.67   17.70
  -6  -5  -7  263.57   18.80
  -5   6  -7  308.97   25.40
  -5   6  -7  281.17   23.40
   6   5  -7  269.87   17.50
   6   5  -7  261.97   10.40
   5  -6  -7  276.77   18.70
  -6  -5  -7  255.87   19.30
   5  -6   7  265.67   18.30
   6   5   7  266.77   20.10
   5  -6   7  219.78   25.20
   6   5   7  275.97   23.30
  -6  -5   7  286.17   20.40
   5  -6   7  274.77   21.50
  -6  -5   7  242.38   18.60
  -5   6   7  269.37   19.40
   6   5   7  295.37   21.00
   6   3  -7   16.30    3.70
   6   3  -7    7.40    8.00
  -3   6  -7   11.60    9.10
   3  -6  -7   13.40    6.10
  -6  -3  -7   13.90    8.20
  -3   6  -7    9.80    6.90
  -6  -3  -7    1.80    8.00
   6   3  -7   14.10    9.40
  -6  -3  -7    9.80    8.10
   3  -6  -7   16.80    9.30
  -3   6   7    5.50    9.20
   6   3   7    4.50    9.70
  -3   6   7    5.20    6.70
  -3   6   7    5.00    9.80
  -6  -3   7   13.60    3.50
   3  -6   7   10.20    7.10
  -6  -3   7    6.10    8.40
   6   3   7   10.70    9.10
   3  -6   7   11.60    8.60
  -6  -3   7   14.30    8.90
   6   3   7   20.40   10.90
   3  -6   7   16.30   10.40
   6   1  -7  485.45   24.00
  -1   6  -7  494.55   21.90
  -6  -1  -7  479.65   22.10
  -1   6  -7  479.55   19.60
   1  -6  -7  485.95   20.40
   6   1  -7  445.16   16.80
  -6  -1  -7  475.25   22.10
  -1   6  -7  488.65   23.90
   1  -6  -7  493.05   23.10
  -6  -1   7  492.65   22.50
   6   1   7  467.55   23.30
   1  -6   7  425.56   19.10
  -6  -1   7  507.55   22.50
  -1   6   7  500.25   23.70
   1  -6   7  448.46   25.40
  -1   6   7  468.25   23.60
   6   1   7  474.85   25.00
  -1   6   7  476.05   21.10
  -6  -1   7  456.95   16.70
   6   1   7  487.15   22.90
  -1   6   7  464.95   21.80
   1  -6   7  461.15   21.20
   6  -1  -7  320.27   20.30
   1   6  -7  302.07   18.00
  -1  -6  -7  297.57   18.50
   1   6  -7  336.67   14.80
  -6   1  -7  303.07   17.40
  -6   1  -7  327.07   18.50
   6  -1  -7  322.87   13.40
   1   6  -7  342.87   20.00
  -1  -6  -7  348.97   17.10
   6  -1   7  323.27   20.60
   6  -1   7  293.67   21.00
  -1  -6   7  346.07   17.40
   1   6   7  330.97   19.50
  -1  -6   7  304.87   21.50
  -6   1   7  294.07   19.10
   1   6   7  280.97   19.70
   6  -1   7  305.07   18.10
  -1  -6   7  286.07   14.00
   1   6   7  303.27   19.40
   1   6   7  306.87   17.90
  -6   1   7  299.37   18.10
  -6   1   7  308.27   13.70
  -3  -6  -7  438.66   20.70
   3   6  -7  432.36   20.80
  -3  -6  -7  406.86   24.50
  -3  -6  -7  411.96   20.80
  -6   3  -7  423.26   20.90
   6  -3  -7  413.56   16.80
   3   6  -7  398.16   22.00
   3   6  -7  421.46   16.10
   6  -3  -7  409.46   21.70
  -6   3  -7  406.96   21.10
  -6   3   7  419.06   22.40
   3   6   7  417.06   23.20
  -6   3   7  401.76   17.10
  -3  -6   7  384.86   15.20
   3   6   7  407.26   22.40
   6  -3   7  419.16   20.40
   3   6   7  396.66   22.90
   6  -3   7  392.76   23.90
  -3  -6   7  403.06   24.20
  -6   3   7  400.46   21.80
   6  -3   7  416.16   20.70
   6  -3   7  410.96   22.90
  -3  -6   7  409.66   19.30
  -5  -6  -7  170.48   15.80
  -5  -6  -7  160.38   15.40
  -6   5  -7  159.48   15.10
   5   6  -7  122.29   15.40
   6  -5  -7  143.19   17.80
   5   6  -7  154.28    8.40
  -6   5  -7  151.78   21.50
  -5  -6  -7  174.18   17.50
  -5  -6   7  145.49    7.40
   5   6   7  139.19   18.40
   6  -5   7  148.69   15.90
  -6   5   7  159.88   16.20
  -6   5   7  151.98   19.00
   6  -5   7  196.28   17.20
  -5  -6   7  142.49   19.40
   6  -5   7  128.79   13.90
  -5  -6   7  132.39   15.70
   5   6   7  148.99   14.30
   6  -5   7  102.29   19.10
   5   6   7  164.78   21.40
  -5  -6   7  137.69   11.30
  -6   7  -7  265.17   21.10
  -6   7  -7  237.08   18.90
   7   6  -7  239.98   18.00
   6  -7  -7  270.97   15.70
   6  -7  -7  251.87   20.40
  -7  -6  -7  260.97   20.90
  -6   7  -7  260.67   18.50
   7   6   7  272.77   22.40
  -6   7   7  269.37   19.70
   7   6   7  291.77   21.70
  -7  -6   7  304.17   24.80
  -7  -6   7  305.27   22.30
   7   6   7  248.68   28.90
  -6   7   7  260.87   21.30
  -6   7   7  234.88   17.00
   6  -7   7  250.07   21.90
   6  -7   7  277.07   20.70
   6  -7   7  262.67   19.00
  -7  -6   7  265.97   19.70
  -4   7  -7  148.39   17.80
   7   4  -7  187.88   19.60
  -7  -4  -7  206.08   16.80
  -7  -4  -7  181.08   17.10
  -4   7  -7  217.58   19.40
   4  -7  -7  211.58   19.00
  -7  -4  -7  237.08   18.00
  -4   7  -7  195.98   18.90
  -7  -4   7  234.78   17.30
   7   4   7  242.08   20.70
   7   4   7  234.18   20.30
  -4   7   7  188.48   25.40
   4  -7   7  244.78   18.50
  -7  -4   7  207.78   17.30
  -4   7   7  151.18   18.10
   4  -7   7  171.28   21.50
   4  -7   7  199.78   19.50
   7   2  -7   49.60   11.10
  -7  -2  -7   41.00    8.80
   2  -7  -7   38.40    9.80
  -2   7  -7   41.70   10.80
  -2   7  -7   31.10    8.00
  -7  -2  -7   19.40    9.50
   2  -7  -7   28.90    7.40
  -2   7  -7   49.30    9.30
   7   2  -7   32.00    4.10
  -7  -2   7   28.40    9.20
   7   2   7   48.90   11.40
   7   2   7   35.40   11.60
   2  -7   7   32.80    8.80
  -2   7   7   21.10   10.50
   7   2   7   29.10   10.40
   2  -7   7   37.70   11.50
  -7  -2   7   40.00    9.40
  -2   7   7   37.50    9.80
  -7  -2   7   39.00    4.40
   2  -7   7   33.60    7.50
  -2   7   7   39.30    8.60
   7   0  -7   44.10    5.00
   7   0  -7   41.90   11.10
   0  -7  -7   48.50   10.00
  -7   0  -7   55.99   10.10
   0   7  -7   46.90    9.60
  -7   0  -7   53.89    9.60
   0  -7  -7   60.39    8.70
   0   7  -7   47.30   10.60
   0   7  -7   57.39    7.40
   7   0   7   44.90   11.40
  -7   0   7   49.50    9.20
   0   7   7   53.99    9.90
   0   7   7   46.70   11.00
   0  -7   7   44.30    9.40
  -7   0   7   60.29   10.00
   7   0   7   64.79   11.40
  -7   0   7   52.59    5.40
   0   7   7   50.29    9.20
   0   7   7   52.39   10.60
   0  -7   7   35.00   10.90
   7   0   7   54.39   11.20
   0  -7   7   49.99    7.10
   7  -2  -7   44.40    5.80
  -2  -7  -7   40.70    8.50
   2   7  -7   48.90   10.60
  -7   2  -7   63.29    9.60
   7  -2  -7   36.60   10.30
  -7   2  -7   41.90    9.20
  -2  -7  -7   41.10    9.80
   2   7  -7   41.20    5.90
   2   7  -7   48.50    9.30
   2   7   7   47.60   11.10
   7  -2   7   48.80   10.20
   7  -2   7   32.90   11.10
  -2  -7   7   51.89   12.20
   2   7   7   47.50   10.70
  -2  -7   7   65.69    9.20
   7  -2   7   44.90   10.90
  -7   2   7   34.50    9.50
  -7   2   7   50.19   10.10
   2   7   7   46.00    9.90
  -2  -7   7   41.90    5.90
   2   7   7   59.89   11.30
   7  -2   7   54.09    9.00
  -7   2   7   43.50    6.30
   4   7  -7  238.88   18.90
  -4  -7  -7  207.48   17.20
  -7   4  -7  181.38   22.10
   4   7  -7  205.38   10.50
   7  -4  -7  189.08   12.40
   7  -4  -7  208.18   18.40
   4   7  -7  198.28   16.60
  -4  -7  -7  208.58   18.40
  -7   4  -7  212.18   16.80
   4   7   7  208.88   19.60
   7  -4   7  204.18   19.70
   7  -4   7  224.68   17.50
  -4  -7   7  184.88   10.20
   4   7   7  210.08   19.80
   4   7   7  193.18   18.90
  -7   4   7  210.18   19.00
   7  -4   7  233.68   18.20
  -7   4   7  215.88   13.60
  -7   4   7  221.38   17.80
  -4  -7   7  242.68   20.90
   7  -4   7  234.48   20.30
  -4  -7   7  250.97   21.80
   7  -6  -7  131.99   17.50
   6   7  -7  135.39   16.00
   7  -6  -7  105.89   11.90
  -7   6  -7   88.69   11.30
  -6  -7  -7  140.29   18.50
  -7   6  -7  117.89   13.70
  -7   6  -7   91.39   12.10
   7  -6   7  142.39   19.40
  -7   6   7  175.18   19.50
   7  -6   7  135.89   17.10
  -6  -7   7  109.19   14.40
   6   7   7  132.69   14.80
  -6  -7   7  110.19   14.20
  -7   6   7  139.79   13.80
   6   7   7   87.29   14.20
   7  -6   7  158.58   18.30
   6   7   7   96.09   14.50
  -8  -7  -7   69.99   13.20
   7  -8  -7   59.39   12.90
  -7   8  -7   48.70   11.60
  -7   8  -7   53.09   12.80
  -7   8  -7   50.49   11.20
   7  -8  -7   62.59    9.10
  -7   8   7   52.79   10.30
   7  -8   7   59.89   14.30
  -7   8   7   48.90   13.40
   7  -8   7   68.79   12.40
   8   7   7   66.49   14.70
   7  -8   7   56.89   11.70
   8   7   7   59.49   15.40
  -8  -7   7   55.59   13.20
  -7   8   7   91.29   13.00
   8   7   7   73.39   15.10
   5  -8  -7  297.67   21.20
   5  -8  -7  300.67   17.70
  -5   8  -7  296.67   22.60
   8   5  -7  333.97   22.00
  -5   8  -7  313.17   20.10
  -5   8  -7  283.27   18.90
  -8  -5  -7  299.57   21.20
  -8  -5   7  286.07   19.50
   8   5   7  292.37   24.20
   5  -8   7  303.57   19.40
   8   5   7  274.67   33.00
  -5   8   7  271.97   20.90
   8   5   7  293.27   23.60
   5  -8   7  283.97   22.80
  -5   8   7  264.07   18.70
  -8  -5   7  283.07   18.90
  -5   8   7  282.87   21.40
   8   3  -7  544.75   18.00
   3  -8  -7  450.05   27.90
  -8  -3  -7  567.34   25.80
  -3   8  -7  535.55   25.00
  -3   8  -7  528.45   23.10
   8   3  -7  610.84   28.10
  -8  -3  -7  525.15   24.60
  -3   8  -7  539.75   27.40
   8   3   7  533.85   27.20
   8   3   7  518.55   28.90
   3  -8   7  504.75   23.20
   3  -8   7  548.35   25.40
   8   3   7  601.44   29.10
  -3   8   7  552.54   26.90
  -8  -3   7  531.35   17.90
  -8  -3   7  521.25   25.00
  -8  -3   7  549.95   24.30
   3  -8   7  547.55   28.20
  -3   8   7  495.25   27.40
   1  -8  -7  347.27   21.40
   1  -8  -7  358.96   19.20
   8   1  -7  357.66   13.80
   8   1  -7  374.86   23.20
  -8  -1  -7  379.36   20.30
  -8  -1  -7  378.06   21.70
  -1   8  -7  350.16   17.50
  -1   8  -7  373.76   21.90
  -1   8  -7  372.76   21.90
   1  -8   7  321.27   17.50
  -1   8   7  359.86   20.40
   1  -8   7  391.16   29.10
   8   1   7  338.77   24.10
   8   1   7  361.86   27.60
   1  -8   7  333.67   20.20
  -8  -1   7  317.87   19.20
  -8  -1   7  353.66   14.20
   8   1   7  379.86   23.20
  -8  -1   7  387.06   20.40
   8   1   7  378.76   22.80
  -1   8   7  349.07   22.10
  -1   8   7  339.07   21.70
  -8   1  -7  295.37   18.50
  -8   1  -7  307.07   20.30
  -1  -8  -7  297.67   18.20
  -1  -8  -7  299.07   20.20
   1   8  -7  282.07   18.80
   1   8  -7  233.38   31.20
   8  -1  -7  322.17   22.00
   8  -1   7  291.17   22.10
   8  -1   7  292.07   19.90
   1   8   7  304.97   21.00
   8  -1   7  259.97   20.90
  -8   1   7  319.57   27.80
  -1  -8   7  232.88   18.30
   1   8   7  266.57   20.20
  -1  -8   7  297.67   19.00
   1   8   7  276.07   19.90
   1   8   7  320.57   19.50
  -8   1   7  298.87   18.80
   3   8  -7  138.59   22.90
  -3  -8  -7  131.19   13.10
   8  -3  -7  139.19   10.40
  -3  -8  -7  115.19   15.80
   3   8  -7  149.39   15.80
  -8   3  -7  126.19   15.60
  -8   3  -7  150.68   17.70
  -8   3   7  151.28   18.40
   8  -3   7  129.49   14.00
   3   8   7  142.39   18.50
   3   8   7  127.59   14.10
   3   8   7  166.38   19.70
   8  -3   7  140.39   18.50
  -3  -8   7  120.49   15.40
   8  -3   7  101.59   13.40
   8  -3   7  128.69   18.40
   3   8   7  123.49   13.80
  -8   3   7  143.19   11.70
  -8   3   7  114.19   15.40
  -3  -8   7  105.79   13.20
   5   8  -7  199.38   18.10
   8  -5  -7  191.08   18.90
   5   8  -7  206.08   20.10
   5   8  -7  201.08   10.70
  -8   5  -7  176.58   18.00
   8  -5  -7  174.18   12.90
  -8   5  -7  172.68   17.70
  -5  -8   7  187.18   22.70
  -5  -8   7  223.28   17.80
   8  -5   7  199.58   21.90
   8  -5   7  197.18   20.10
   8  -5   7  233.08   19.10
  -8   5   7  198.28   14.30
   8  -5   7  203.28   20.70
   5   8   7  183.78   21.60
   5   8   7  181.28   20.10
  -5  -8   7  156.98    9.30
   5   8   7  191.38   22.20
  -8   5   7  212.58   20.80
  -8   5   7  161.78   17.50
   5   8   7  177.08   21.70
  -8   7  -7   13.90   11.50
  -8   7  -7   26.00   12.10
  -8   7  -7    6.70   10.20
   8  -7  -7    7.60    7.60
  -7  -8  -7   24.10   12.40
   8  -7  -7   -2.40   11.10
   7   8  -7    4.60   10.00
   8  -7   7    4.30   12.70
  -7  -8   7  -30.80   12.50
   7   8   7    5.50   16.90
  -8   7   7    9.60    8.80
   8  -7   7   24.50   11.70
  -8   7   7   27.10   11.20
  -7  -8   7   26.10   11.10
   7   8   7    0.30   13.60
  -8   7   7   26.70   12.70
   7   8   7    5.70   13.20
   8  -7   7    2.10   11.10
   7   8   7   19.90   13.50
  -8   9  -7  317.57   23.50
  -8   9  -7  265.67   23.10
   8  -9  -7  283.27   19.70
  -9  -8  -7  270.17   25.40
  -8   9  -7  300.67   25.00
   8  -9  -7  292.67   24.80
   9   8   7  285.67   27.90
  -9  -8   7  304.17   22.50
  -8   9   7  251.27   21.10
  -8   9   7  254.37   24.00
  -8   9   7  237.88   24.90
   8  -9   7  262.67   24.00
   8  -9   7  264.57   25.60
   9   8   7  284.07   27.20
   8  -9   7  300.77   24.40
  -6   9  -7  111.29   13.20
  -6   9  -7  133.19   14.80
   6  -9  -7  132.19   15.50
   6  -9  -7   99.99   13.80
  -6   9  -7  114.19   12.60
  -6   9   7  128.89   17.60
  -6   9   7  116.09   15.50
   6  -9   7  109.49   15.70
   6  -9   7  118.59   12.90
   6  -9   7  138.89   14.90
   9   6   7  114.89   16.60
   9   6   7  112.29   21.50
  -6   9   7  119.49   14.40
  -4   9  -7   99.69   12.40
  -9  -4  -7   76.29   13.10
  -4   9  -7   79.59   13.40
   9   4  -7   86.69   13.70
   4  -9  -7   86.49   12.80
  -4   9  -7   85.69   10.30
   4  -9  -7   86.69   10.40
   9   4   7   83.39   20.50
   9   4   7   87.89   14.90
   9   4   7   81.19   14.40
   4  -9   7   86.09   12.40
  -9  -4   7   77.99   19.00
   4  -9   7   70.79   13.90
  -4   9   7   85.99   12.80
  -4   9   7   73.09   13.20
  -4   9   7   86.09   11.80
   4  -9   7   60.09   10.30
  -9  -2  -7    0.30    9.00
  -2   9  -7   -4.90   10.60
   9   2  -7  -12.30   11.10
   9   2  -7    3.10    4.60
  -2   9  -7    6.50    9.90
   2  -9  -7   -6.50    8.90
  -2   9  -7    1.10    7.40
  -9  -2  -7  -15.70    9.50
   2  -9  -7   -1.30    9.80
  -9  -2   7   -1.10    4.50
   2  -9   7    0.20   11.70
  -2   9   7   10.40   14.80
  -2   9   7   17.00   11.50
   9   2   7    5.10   12.10
   2  -9   7   -1.70   11.00
   9   2   7    4.40   11.60
  -2   9   7    3.60   10.80
   9   2   7   -7.10   11.20
  -9  -2   7    9.20    9.60
   2  -9   7    9.50    7.60
   0   9  -7  297.77   31.40
   0  -9  -7  256.87   19.80
  -9   0  -7  306.87   21.40
   9   0  -7  323.67   26.40
   9   0  -7  286.87   12.70
   0   9  -7  286.77   21.20
   0   9  -7  258.37   15.80
   0  -9  -7  295.27   18.80
   0  -9   7  293.47   16.20
   0  -9   7  315.57   23.30
  -9   0   7  277.47   13.50
   9   0   7  263.87   23.90
   0   9   7  265.57   21.50
   0   9   7  311.47   21.30
   9   0   7  307.37   23.00
   0   9   7  255.07   22.00
   0  -9   7  301.67   19.80
  -9   0   7  277.97   19.20
   9   0   7  300.27   22.20
  -9   0   7  260.07   17.60
  -9   2  -7   71.79   11.60
   2   9  -7   60.99   11.70
   9  -2  -7   85.29    9.30
   9  -2  -7   80.89   13.00
   2   9  -7   62.79    7.80
  -2  -9  -7   73.39   10.60
  -2  -9  -7   68.19   11.40
  -9   2  -7   78.29   11.60
   2   9  -7   51.29   11.80
   9  -2   7   80.99   13.90
  -9   2   7   66.79    9.90
   9  -2   7   66.89   13.10
   2   9   7   77.29   11.70
  -9   2   7   71.09    7.60
  -2  -9   7   68.09    7.60
   9  -2   7   63.99   12.60
   2   9   7   86.79   13.40
  -9   2   7   83.49   12.60
   2   9   7   73.39   12.20
   2   9   7   65.29   12.70
  -2  -9   7   75.79   11.10
  -2  -9   7   78.59   13.80
   9  -2   7   82.79   13.40
   9  -4  -7  203.48   13.40
  -9   4  -7  232.28   20.50
   4   9  -7  194.48   20.50
  -9   4  -7  210.48   19.10
   9  -4  -7  254.97   20.90
  -4  -9  -7  230.18   20.50
   4   9  -7  207.58   18.40
   4   9  -7  225.38   12.70
  -4  -9   7  207.58   26.60
   4   9   7  194.68   21.70
   9  -4   7  224.08   22.70
   9  -4   7  232.08   22.40
   4   9   7  242.48   22.00
  -4  -9   7  224.38   21.90
   4   9   7  238.58   21.70
  -9   4   7  202.68   15.10
   4   9   7  198.78   22.10
   9  -4   7  271.87   32.10
   9  -4   7  226.68   22.10
  -9   4   7  241.98   21.50
  -4  -9   7  212.48   12.10
  -9   4   7  236.88   18.30
   6   9  -7  295.87   13.50
  -9   6  -7  286.27   22.30
   6   9  -7  302.87   23.70
   9  -6  -7  297.57   16.90
  -6  -9  -7  338.87   24.00
  -6  -9  -7  307.17   29.20
  -9   6  -7  296.47   22.30
   6   9  -7  293.77   29.70
   9  -6  -7  271.67   23.10
  -9   6   7  319.37   21.20
   9  -6   7  265.97   23.60
   9  -6   7  294.47   24.40
  -9   6   7  302.27   18.20
   6   9   7  301.67   24.60
   9  -6   7  335.47   22.90
  -6  -9   7  254.37   26.20
   6   9   7  227.08   25.10
  -9   6   7  315.97   24.10
  -6  -9   7  282.57   21.40
   6   9   7  256.47   24.70
   9  -6   7  313.47   25.10
   9  -8  -7   89.19   10.30
  -9   8  -7   84.19   13.40
  -8  -9  -7   84.99   15.40
  -9   8  -7   66.29   14.50
  -9   8  -7   57.99   13.40
   9  -8  -7   77.09   14.60
  -9   8   7   57.59   11.30
  -8  -9   7   98.69   13.40
   9  -8   7   90.99   15.80
  -8  -9   7   83.99   16.70
   8   9   7   85.89   17.10
  -9   8   7   85.59   16.10
  -9   8   7   60.99   13.60
   8   9   7   76.19   16.50
   9  -8   7   73.59   15.40
   9  -8   7   66.89   14.30
  -8  -9   7   74.49   14.60
   9 -10  -7   43.00   11.20
 -10  -9  -7   39.50   16.30
  -9  10  -7   22.20   13.80
  -9  10  -7   52.39   15.20
  -9  10  -7   33.50   13.50
   9 -10  -7   55.69   15.00
  -9  10   7   62.59   14.50
   9 -10   7   47.10   14.70
  10   9   7   80.99   18.10
  -9  10   7   63.99   14.20
 -10  -9   7   65.69   23.60
 -10  -9   7   23.10   13.80
  10   9   7   23.50   16.90
   9 -10   7   33.00   15.30
  -9  10   7   40.90   16.60
   9 -10   7   34.30   15.40
  -7  10  -7  236.58   23.90
  -7  10  -7  227.48   21.70
  -7  10  -7  257.97   21.40
   7 -10  -7  228.68   23.40
 -10  -7  -7  205.48   24.30
   7 -10  -7  239.78   18.70
  10   7   7  280.47   27.90
 -10  -7   7  245.88   34.10
  -7  10   7  213.38   21.70
  -7  10   7  280.57   25.00
   7 -10   7  232.88   24.10
  10   7   7  229.08   26.80
   7 -10   7  202.78   23.00
  -7  10   7  249.48   24.40
   7 -10   7  229.28   25.60
  -5  10  -7  151.78   19.20
   5 -10  -7  150.68   19.80
  -5  10  -7  203.48   17.50
   5 -10  -7  159.18   17.50
  -5  10  -7  157.58   21.60
  -5  10   7  152.08   19.70
 -10  -5   7  143.69   15.80
  10   5   7  148.29   16.20
  -5  10   7  183.58   22.50
  -5  10   7  147.69   16.60
   5 -10   7  174.88   21.60
   5 -10   7  157.88   18.60
   5 -10   7  158.08   21.60
  10   5   7  165.18   23.40
  -3  10  -7   77.09   14.00
  10   3  -7   89.79   15.00
  -3  10  -7  109.69   12.60
   3 -10  -7  112.19   12.00
   3 -10  -7  110.69   13.30
  10   3  -7  107.19    8.40
  -3  10  -7  104.49   11.20
   3 -10   7  100.19   14.70
   3 -10   7  110.19   13.70
  -3  10   7  108.09   14.70
  10   3   7  114.19   15.70
 -10  -3   7   91.69   12.70
  -3  10   7   75.39   12.80
   3 -10   7   75.49   10.70
 -10  -3   7   87.39   11.90
  10   3   7   87.49   15.50
  -3  10   7  103.49   14.60
   1 -10  -7   32.90   10.00
  10   1  -7   55.79   13.10
  -1  10  -7   48.60   11.20
  -1  10  -7   39.90   12.40
 -10  -1  -7   42.00   11.10
   1 -10  -7   41.70   11.20
  -1  10  -7   24.90    8.40
  10   1  -7   39.50    5.60
 -10  -1   7   36.40    6.10
  10   1   7   38.00   13.00
 -10  -1   7   46.90   11.80
  -1  10   7   49.50   13.10
   1 -10   7   55.69    9.10
  -1  10   7   47.70   13.20
   1 -10   7   42.50   13.90
  -1  10   7   43.60   12.50
  10   1   7   49.00   13.20
  10   1   7   37.60   13.60
   1 -10   7   55.99   11.50
   1  10  -7  226.68   19.70
   1  10  -7  256.07   22.70
 -10   1  -7  270.37   23.40
  10  -1  -7  267.27   22.30
 -10   1  -7  261.37   20.10
  -1 -10  -7  235.88   20.90
   1  10  -7  234.18   15.30
  10  -1  -7  238.48   12.50
  10  -1   7  211.98   21.60
   1  10   7  275.57   29.00
  10  -1   7  262.67   22.50
   1  10   7  241.98   22.60
  -1 -10   7  253.07   15.70
  10  -1   7  233.08   24.10
 -10   1   7  247.78   20.10
  -1 -10   7  234.88   20.20
  -1 -10   7  257.87   23.70
 -10   1   7  233.28   14.30
   3  10  -7  165.48   17.60
 -10   3  -7  159.68   19.30
  10  -3  -7  159.18   12.00
 -10   3  -7  174.08   19.30
  10  -3  -7  141.49   15.60
   3  10  -7  154.98   12.70
  -3 -10  -7  152.28   18.80
   3  10  -7  149.09   20.10
 -10   3   7  148.79   15.10
   3  10   7  138.09   15.40
  -3 -10   7  142.99   17.10
   3  10   7  140.09   19.60
   3  10   7  172.78   21.00
  -3 -10   7  156.08   12.20
   3  10   7  136.69   15.80
  10  -3   7  146.69   18.80
  10  -3   7  156.28   21.20
  -3 -10   7  147.89   13.90
  10  -3   7  162.58   21.50
  10  -3   7  176.18   21.50
 -10   3   7  129.99   13.60
 -10   5  -7  237.18   21.00
  10  -5  -7  228.58   22.60
   5  10  -7  222.58   21.20
  10  -5  -7  249.97   15.50
 -10   5  -7  248.78   22.10
   5  10  -7  192.38   23.70
  -5 -10  -7  268.37   21.60
   5  10  -7  229.88   13.50
   5  10   7  227.98   24.20
   5  10   7  244.78   29.50
  10  -5   7  262.87   21.60
  -5 -10   7  197.88   26.00
  -5 -10   7  229.38   12.40
 -10   5   7  235.18   21.70
  10  -5   7  217.38   22.80
 -10   5   7  240.18   23.30
   5  10   7  243.78   23.50
  10  -5   7  249.08   24.40
  10  -5   7  214.98   24.20
  -5 -10   7  264.67   21.10
 -10   5   7  205.08   16.60
   7  10  -7  158.88   16.30
  10  -7  -7  140.59   15.20
  -7 -10  -7  141.09   16.90
 -10   7  -7  171.58   21.30
 -10   7  -7  122.39   15.70
  10  -7  -7  117.79   15.90
  10  -7   7  139.99   17.00
  10  -7   7  183.28   24.80
  10  -7   7  159.08   17.80
  -7 -10   7  135.79   18.80
  -7 -10   7  127.69   14.50
 -10   7   7  141.79   16.80
 -10   7   7  147.39   18.50
   7  10   7  129.59   17.40
   7  10   7  152.78   18.90
  10  -7   7  209.08   22.90
  10  -9  -7  342.57   22.10
 -10   9  -7  336.77   28.00
 -10   9  -7  347.97   27.10
  10  -9  -7  355.26   27.70
 -10   9  -7  339.97   26.40
  -9 -10  -7  369.36   29.10
   9  10   7  289.87   30.70
  10  -9   7  306.37   28.50
  -9 -10   7  351.26   26.20
 -10   9   7  294.67   26.50
 -10   9   7  334.77   29.20
  10  -9   7  336.87   29.90
   9  10   7  340.97   31.40
 -10   9   7  326.47   23.80
  -9 -10   7  356.46   30.20
  10  -9   7  321.77   26.90
  -8  11  -7  203.28   23.20
  -8  11  -7  188.98   24.20
  -8  11  -7  156.48   17.70
   8 -11  -7  174.78   21.20
   8 -11  -7  257.97   25.60
 -11  -8  -7  207.38   26.80
   8 -11   7  215.28   25.20
   8 -11   7  172.28   19.70
  -8  11   7  167.48   17.30
  -8  11   7  166.58   18.80
   8 -11   7  182.08   18.20
  11   8   7  205.78   21.40
  -8  11   7  212.48   22.30
   6 -11  -7   -1.20   10.30
   6 -11  -7    3.30   12.70
  -6  11  -7   23.60   12.80
  -6  11  -7   10.60   13.80
  -6  11  -7   16.30   11.10
   6 -11   7   10.00   13.60
  -6  11   7    6.00   13.30
  11   6   7    7.00   15.70
   6 -11   7   13.30   11.60
  -6  11   7    3.10   14.90
   6 -11   7   12.10   13.10
  -6  11   7   -9.10   13.30
 -11  -6   7   38.60   13.70
  -4  11  -7  329.57   22.00
  -4  11  -7  375.26   26.10
   4 -11  -7  307.37   23.90
   4 -11  -7  354.96   22.60
  -4  11  -7  357.66   23.50
  -4  11   7  345.27   26.20
 -11  -4   7  385.16   28.70
  -4  11   7  384.16   26.20
   4 -11   7  344.47   27.00
  -4  11   7  347.37   26.80
  11   4   7  330.97   25.90
   4 -11   7  369.36   22.50
   4 -11   7  355.06   24.80
  11   4   7  316.77   27.50
  -2  11  -7   21.80    9.10
 -11  -2  -7   36.80   10.70
  11   2  -7   26.20    5.50
   2 -11  -7   21.60   12.00
  -2  11  -7   15.00   13.20
   2 -11  -7   27.70   11.20
  -2  11  -7   40.00   11.90
  11   2  -7   12.90   14.10
  11   2   7   29.80   13.80
  -2  11   7    2.90   12.70
  -2  11   7   -0.30   12.80
  11   2   7   21.20   21.20
   2 -11   7   23.00   14.30
  -2  11   7   16.20   13.70
   2 -11   7   19.40   11.60
 -11  -2   7   12.40   11.30
  11   2   7   21.10   13.70
 -11  -2   7   18.40    5.70
   2 -11   7   25.00    9.50
   0  11  -7  165.08   19.30
   0  11  -7  187.28   21.50
 -11   0  -7  117.19   13.70
  11   0  -7  118.49   10.70
   0 -11  -7  105.19   13.80
  11   0  -7  141.29   15.50
   0 -11  -7  106.49   12.90
   0  11  -7  156.38   15.10
 -11   0   7  118.99   14.80
   0 -11   7  116.19   11.50
   0  11   7   99.39   14.90
  11   0   7  128.59   18.20
   0  11   7  120.39   15.60
  11   0   7  130.99   16.60
   0 -11   7  101.89   16.00
 -11   0   7  142.19   12.30
   0  11   7  120.39   15.90
   0 -11   7  147.79   19.90
  -2 -11  -7  299.77   22.10
 -11   2  -7  286.17   22.30
   2  11  -7  232.38   23.60
  11  -2  -7  233.98   23.30
  11  -2  -7  255.57   14.60
   2  11  -7  261.67   20.70
   2  11  -7  264.77   16.20
  11  -2   7  230.48   20.50
  -2 -11   7  255.47   22.60
   2  11   7  239.58   24.50
  -2 -11   7  231.28   24.30
  -2 -11   7  257.87   16.30
  11  -2   7  281.67   25.90
 -11   2   7  279.47   22.60
 -11   2   7  274.97   16.40
  11  -2   7  307.27   24.40
   2  11   7  193.78   24.90
   2  11   7  240.58   24.90
  11  -2   7  272.07   24.00
 -11   4  -7  217.28   22.60
   4  11  -7  224.08   20.30
 -11   4  -7  204.18   20.80
   4  11  -7  180.48   14.00
  11  -4  -7  185.38   23.80
  11  -4  -7  193.08   14.50
  -4 -11  -7  187.48   22.20
   4  11  -7  201.98   23.80
 -11   4   7  172.38   16.40
  -4 -11   7  183.18   13.60
  -4 -11   7  193.48   22.40
   4  11   7  208.98   26.30
  11  -4   7  208.58   24.10
 -11   4   7  188.78   17.90
  11  -4   7  189.88   25.30
  11  -4   7  181.78   23.30
   4  11   7  183.78   23.60
  -4 -11   7  198.68   26.40
  11  -4   7  184.58   22.10
 -11   6  -7  123.99   15.30
  -6 -11  -7   93.39   15.40
 -11   6  -7   97.59   14.50
  11  -6  -7  103.49   15.50
   6  11  -7   95.49   12.20
  11  -6  -7   84.89   10.40
   6  11  -7   93.69   16.10
  11  -6   7  122.69   17.40
   6  11   7   94.09   17.90
  11  -6   7   77.69   16.30
  -6 -11   7   81.09   14.00
  -6 -11   7   91.39   18.40
 -11   6   7   95.59   11.90
  11  -6   7  110.09   15.20
 -11   6   7  108.49   17.30
   6  11   7   98.39   17.10
  11  -6   7  103.89   16.40
  -6 -11   7  100.79   10.40
 -11   8  -7   19.10   14.10
  11  -8  -7   29.60   14.40
 -11   8  -7   23.70   13.30
  -8 -11  -7   25.20   15.80
  11  -8  -7   16.50    9.90
   8  11  -7   17.40   14.20
  -8 -11   7    0.70   13.60
  -8 -11   7   19.70   17.10
  11  -8   7   34.60   14.60
 -11   8   7   13.20   12.80
   8  11   7   23.80   16.60
  11  -8   7   29.00   16.70
  11  -8   7   59.79   17.10
   8  11   7   41.90   18.00
 -11   8   7   23.60   16.20
  11  -8   7   36.00   15.50
  -7  12  -7   37.20   13.00
   7 -12  -7   -4.50   12.50
  -7  12  -7   14.70   14.60
   7 -12  -7    0.20   14.20
  -7  12  -7   26.30   13.80
   7 -12   7    6.00   16.20
  -7  12   7   -2.10   15.30
 -12  -7   7   25.70   14.80
  -7  12   7    4.80   16.70
   7 -12   7    4.30   13.90
   7 -12   7   11.60   13.60
  12   7   7   23.30   17.50
  -7  12   7    9.20   15.30
  -5  12  -7   20.40   11.30
  -5  12  -7   24.50   14.80
  -5  12  -7   32.00   13.30
   5 -12  -7   33.20   13.70
   5 -12  -7   35.60   11.60
  -5  12   7   60.19   16.60
   5 -12   7   25.00   12.10
  -5  12   7   34.30   15.10
  12   5   7   28.30   16.70
   5 -12   7   31.50   13.60
 -12  -5   7   12.30   14.80
  -5  12   7   31.50   15.80
   5 -12   7   18.50   14.80
  12   3  -7  219.28   12.60
   3 -12  -7  270.87   21.70
  -3  12  -7  262.17   22.60
  12   3  -7  241.88   26.90
  -3  12  -7  226.28   24.80
  -3  12  -7  235.68   19.80
   3 -12  -7  222.48   23.80
  12   3   7  214.98   27.00
   3 -12   7  236.68   25.00
  -3  12   7  226.48   27.60
   3 -12   7  223.28   20.10
   3 -12   7  263.57   24.30
  -3  12   7  226.78   26.70
   1 -12  -7  405.06   25.40
 -12  -1  -7  361.36   23.60
  12   1  -7  389.16   28.40
   1 -12  -7  411.16   26.30
  -1  12  -7  384.16   21.50
  -1  12  -7  403.36   26.70
  12   1  -7  353.06   16.70
  -1  12  -7  374.46   25.00
 -12  -1   7  385.26   24.70
 -12  -1   7  341.07   16.60
  -1  12   7  349.77   28.40
   1 -12   7  393.46   29.10
  -1  12   7  385.36   27.90
  -1  12   7  342.97   28.00
  12   1   7  381.46   28.10
   1 -12   7  333.57   21.30
   1 -12   7  325.67   25.20
 -12   1  -7  115.99   14.80
   1  12  -7   94.99   15.40
   1  12  -7  123.19   14.30
  12  -1  -7  130.89   16.10
   1  12  -7  113.19   15.10
  -1 -12  -7   91.29   14.00
  12  -1  -7  108.89   12.20
 -12   1   7  127.49   13.30
  -1 -12   7  103.69   11.40
   1  12   7  128.19   17.30
  -1 -12   7  101.09   16.90
  -1 -12   7  121.39   15.00
  12  -1   7  120.19   19.20
   1  12   7  124.89   16.60
 -12   1   7   98.49   15.50
   1  12   7  160.48   17.00
  12  -1   7  137.09   17.10
  12  -3  -7  171.18   17.30
  12  -3  -7  139.49   13.60
   3  12  -7  138.49   16.70
 -12   3  -7  153.68   16.40
   3  12  -7  115.39   14.00
  -3 -12  -7  136.99   15.70
   3  12  -7  123.49   14.80
  12  -3   7  150.08   19.10
  -3 -12   7  156.88   18.90
   3  12   7  122.69   17.90
  12  -3   7  118.39   16.60
  -3 -12   7  133.09   14.50
  -3 -12   7  168.48   16.20
  12  -3   7  148.79   15.00
  12  -3   7  142.29   23.80
 -12   3   7  120.89   11.70
 -12   3   7  115.09   15.70
 -12   5  -7  103.09   16.20
  12  -5  -7  104.79   14.90
   5  12  -7  112.59   17.20
 -12   5  -7  114.99   15.80
  -5 -12  -7   92.09   15.90
   5  12  -7   93.89    9.70
  12  -5  -7  113.29   15.90
   5  12   7   96.09   16.60
  12  -5   7   86.69   18.20
  -5 -12   7  106.29   15.50
  12  -5   7  127.69   20.20
  12  -5   7   66.19   15.20
  -5 -12   7   81.19   17.60
 -12   5   7  105.99   11.80
   5  12   7   95.79   17.80
 -12   5   7  111.89   16.70
  12  -5   7   96.29   15.00
  -5 -12   7  119.39   13.10
  12  -7  -7   39.70   15.60
   7  12  -7   44.40    8.20
  12  -7  -7   28.00   10.30
  -7 -12  -7   21.20   15.90
 -12   7  -7   27.90   15.10
 -12   7  -7   12.40   16.10
   7  12  -7   29.70   15.60
  12  -7   7   39.10   18.00
 -12   7   7   45.40   17.80
  -7 -12   7   31.30   18.20
   7  12   7   39.10   18.40
   7  12   7   23.60   17.10
  12  -7   7   43.20   14.70
 -12   7   7   65.49   12.50
  12  -7   7   26.10   15.90
  -7 -12   7   27.00   14.50
   6 -13  -7  107.09   16.70
  -6  13  -7  130.29   18.20
   6 -13  -7  120.49   15.00
  -6  13  -7  127.09   16.80
  -6  13  -7  167.58   22.00
  -6  13   7  155.38   21.10
 -13  -6   7  106.09   18.10
  -6  13   7  121.29   19.80
   6 -13   7  121.29   16.20
   6 -13   7  122.59   16.90
  13   6   7  117.19   19.20
   6 -13   7  134.09   18.70
  -6  13   7  103.39   18.80
  -4  13  -7  142.79   18.30
   4 -13  -7  143.39   17.00
  -4  13  -7  114.09   14.20
  -4  13  -7   98.59   16.00
   4 -13  -7  125.29   14.70
   4 -13   7  134.29   16.50
  -4  13   7  157.28   20.40
   4 -13   7  159.18   21.20
  -4  13   7  136.89   18.40
   4 -13   7  119.39   18.00
  13   4   7  111.39   19.40
  -4  13   7  133.99   18.50
 -13  -4   7  129.69   18.80
   2 -13  -7   71.39   13.20
   2 -13  -7   91.39   15.40
  13   2  -7   51.29   17.00
  -2  13  -7   57.79   11.70
  13   2  -7   70.09    7.60
  -2  13  -7   97.19   15.20
  -2  13  -7   69.59   16.50
   2 -13   7   11.60   15.60
   2 -13   7   69.69   11.90
   2 -13   7   63.09   14.50
  -2  13   7   62.69   17.00
  -2  13   7   89.59   17.60
 -13  -2   7   68.69    7.60
  13   2   7   35.30   15.90
  -2  13   7   47.00   16.60
   0  13  -7   55.59   14.00
   0  13  -7   71.99   15.40
  13   0  -7   49.40    7.80
  13   0  -7   52.69   15.80
   0  13  -7   67.19   10.60
   0 -13  -7   45.30   14.60
 -13   0  -7   60.69   14.00
   0 -13   7   45.70   11.00
   0 -13   7   44.80   17.30
   0 -13   7   64.99   14.30
  13   0   7   56.69   16.10
   0  13   7   23.60   15.50
 -13   0   7   56.99    8.60
 -13   0   7   43.50   14.40
   0  13   7   49.00   16.80
   2  13  -7  202.58   25.70
  13  -2  -7  254.77   16.10
 -13   2  -7  255.97   24.60
   2  13  -7  219.78   18.00
  13  -2  -7  246.18   26.20
  -2 -13  -7  218.88   24.80
   2  13  -7  215.88   23.40
  -2 -13   7  265.17   18.80
  -2 -13   7  249.48   29.30
 -13   2   7  240.88   25.60
  -2 -13   7  271.47   26.30
   2  13   7  245.38   28.90
  13  -2   7  256.87   23.80
  13  -2   7  217.08   25.40
 -13   2   7  220.58   17.30
  13  -4  -7   23.40   15.10
  -4 -13  -7   49.70   14.70
   4  13  -7   32.50   16.10
 -13   4  -7   26.80   14.70
   4  13  -7   16.30    8.90
  13  -4  -7   31.50    9.30
   4  13   7   20.80   17.00
  -4 -13   7   20.60    9.00
  13  -4   7   24.50   13.90
 -13   4   7   10.70   14.90
 -13   4   7   39.00   10.70
  -4 -13   7   25.60   17.50
  13  -4   7   16.80   15.10
   4  13   7   35.80   14.70
  -4 -13   7   23.90   14.70
   6  13  -7  248.18   17.10
  13  -6  -7  261.37   19.70
   6  13  -7  295.37   29.40
  -6 -13  -7  256.07   27.80
 -13   6  -7  288.17   27.00
  13  -6  -7  235.68   27.60
  -6 -13   7  228.28   32.30
  -6 -13   7  297.27   26.50
 -13   6   7  221.88   29.90
  13  -6   7  230.78   28.70
   6  13   7  265.57   29.00
  -6 -13   7  243.08   16.10
 -13   6   7  249.78   21.80
  13  -6   7  246.38   27.80
   6  13   7  288.27   32.40
  14   3  -7   26.20    7.40
  -3  14  -7   36.70   15.30
   3 -14  -7   32.40   15.50
  -3  14  -7   14.20   16.30
  -3  14  -7   21.40   12.20
   3 -14   7   24.30   14.90
  -3  14   7   56.59   22.00
  -3  14   7   29.70   18.40
   3 -14   7   44.30   13.30
 -14  -3   7    7.90   18.00
  14   3   7    4.50   17.30
   3 -14   7   13.30   17.00
  -1  14  -7   68.29   12.10
   1 -14  -7   80.69   16.00
  14   1  -7   68.19    8.50
  14   1  -7   67.39   17.50
  -1  14  -7   44.50   16.10
  -1  14  -7   72.89   15.70
   1 -14   7   68.49   18.30
   1 -14   7   83.49   13.00
 -14  -1   7   76.99   18.00
  14   1   7   58.99   17.50
  -1  14   7   71.69   18.20
 -14  -1   7   74.19    8.90
  -1  14   7   74.39   19.40
   1 -14   7   48.50   15.40
  14   1   7  113.29   22.60
  14  -1  -7   31.70   16.00
   1  14  -7   25.40   10.60
 -14   1  -7   54.19   14.90
  14  -1  -7   36.20    8.70
   1  14  -7   44.10   16.90
  -1 -14  -7   19.00   14.50
 -14   1   7   31.30    9.60
  14  -1   7   33.00   14.50
  -1 -14   7   52.49   18.20
  -1 -14   7   58.89   11.70
 -14   1   7   29.20   15.60
  14  -1   7   27.40   16.50
   1  14   7   52.59   18.00
  -1 -14   7   69.09   15.80
   3  14  -7   13.00   16.70
  -3 -14  -7   13.60   15.40
   3  14  -7   25.20   10.30
  14  -3  -7   26.80   15.60
  14  -3  -7   32.40    9.00
 -14   3  -7   24.50   14.90
 -14   3   7   18.00   16.50
  14  -3   7    5.10   15.80
  -3 -14   7   21.60   10.30
  14  -3   7   37.40   15.30
  -3 -14   7   44.20   15.90
   3  14   7    6.30   18.30
  -3 -14   7   41.80   18.50
 -14   3   7    5.30   10.30
   0   0  -8  447.56   22.90
   0   0  -8  467.35   19.80
   0   0   8  468.85   19.80
   0   0   8  473.85   25.90
   0   0   8  464.85   26.00
   1   1  -8  129.19   16.10
  -1  -1  -8  147.79   12.80
  -1   1  -8  111.99   12.70
  -1   1  -8  104.49   11.50
   1   1  -8  119.89   11.10
   1  -1  -8  133.49   12.70
  -1  -1  -8  136.69   16.10
   1  -1  -8   94.89   10.90
   1  -1  -8  104.59   11.30
  -1  -1   8  120.99   10.90
   1  -1   8  145.89   18.50
   1  -1   8  100.89   14.10
  -1   1   8  129.49   18.70
   1  -1   8  119.79   12.60
   1   1   8  133.29   18.60
   1   1   8  119.39   12.70
  -1  -1   8  138.19   14.40
  -1   1   8  107.59   11.80
  -1   1   8  150.48   18.70
   1   1   8  111.79   12.90
  -1  -1   8  119.99   14.10
   0  -2  -8  251.57   19.10
   2   0  -8  266.57   17.90
  -2   0  -8  276.07   18.80
   0   2  -8  258.07   18.20
   2   0  -8  288.27   13.90
   0  -2  -8  243.88   18.30
   2   0  -8  268.27   20.10
  -2   0  -8  274.87   16.10
   0   2  -8  237.68   14.10
   0  -2  -8  245.48   15.40
   0   2   8  275.97   15.70
  -2   0   8  271.07   20.70
   0  -2   8  253.17   21.30
   2   0   8  220.38   22.50
   0   2   8  271.27   20.50
   0  -2   8  258.67   14.50
   2   0   8  230.18   15.70
  -2   0   8  248.38   19.30
   0  -2   8  311.97   23.00
   0   2   8  252.27   20.90
  -2   0   8  239.98   14.10
   2   0   8  258.67   21.10
  -2  -2  -8  281.37   16.90
  -2  -2  -8  277.57   19.40
   2  -2  -8  295.97   21.00
   2  -2  -8  265.17   19.60
  -2   2  -8  276.57   18.80
   2   2  -8  291.17   14.10
   2   2  -8  284.77   18.70
  -2   2  -8  270.67   16.60
   2  -2  -8  282.47   14.90
  -2  -2  -8  299.37   28.70
  -2  -2   8  256.67   21.90
  -2  -2   8  263.77   21.00
   2  -2   8  286.67   21.80
   2   2   8  280.17   21.40
   2   2   8  260.57   17.00
  -2  -2   8  276.97   13.80
  -2   2   8  265.77   15.10
   2  -2   8  262.77   24.80
   2   2   8  255.07   22.90
  -2   2   8  297.27   20.60
   2  -2   8  288.77   16.30
  -3  -1  -8    9.60    9.70
  -1   3  -8   11.10    6.90
   3   1  -8   14.30   11.90
   1  -3  -8   15.20   10.30
  -3  -1  -8   10.50    7.50
   1  -3  -8   -4.70    9.70
   3   1  -8    0.30    8.20
   1  -3  -8    4.60    6.60
  -1   3  -8    0.50    8.80
   3   1  -8   -0.10    5.00
  -1   3   8   10.10   10.50
  -1   3   8    8.30   10.60
   3   1   8   12.70   10.80
   1  -3   8   27.00   14.80
  -3  -1   8   -5.50   10.50
   1  -3   8   -1.70   10.70
  -3  -1   8    1.80    5.50
   3   1   8    5.10   15.40
   3   1   8   10.50    7.90
  -3  -1   8   -3.10    9.80
  -1   3   8   11.10    7.20
   1  -3   8    5.80    6.40
  -1  -3  -8  208.78   18.80
   1   3  -8  208.18   12.90
  -3   1  -8  210.38   15.50
  -1  -3  -8  209.38   15.30
   3  -1  -8  209.88   12.60
   3  -1  -8  201.48   17.50
   1   3  -8  211.88   17.80
  -3   1  -8  212.38   17.60
   3  -1  -8  237.98   19.80
  -1  -3  -8  199.58   17.20
   1   3   8  194.38   20.60
  -1  -3   8  211.68   12.80
  -1  -3   8  201.78   22.70
   1   3   8  230.18   20.40
  -3   1   8  188.18   12.90
   3  -1   8  188.98   21.60
   3  -1   8  197.28   20.10
   3  -1   8  198.18   15.80
   1   3   8  227.88   15.40
  -1  -3   8  187.38   19.10
  -3   1   8  224.38   18.60
  -3  -3  -8   12.10    9.60
  -3   3  -8   27.10   10.20
   3  -3  -8   22.60   11.40
  -3   3  -8   20.90    8.10
   3   3  -8   21.20    5.60
  -3  -3  -8   16.30   10.60
   3   3  -8   27.10    9.90
  -3  -3  -8   24.20    8.70
   3  -3  -8   13.70    6.40
   3  -3   8   12.90    7.80
   3  -3   8    5.00   12.10
  -3   3   8   18.30   10.80
   3   3   8   22.30    9.10
  -3  -3   8   19.00    5.50
   3   3   8    2.30   10.70
  -3   3   8   16.90   10.80
   3   3   8   29.30   12.50
   3  -3   8   30.10   11.50
  -3  -3   8   24.30   10.50
  -3  -3   8   22.10   12.90
  -3   3   8   14.00    7.20
  -4  -2  -8  355.06   19.70
   2  -4  -8  350.06   22.60
  -2   4  -8  340.27   18.10
  -4  -2  -8  358.96   21.30
   4   2  -8  322.07   14.50
  -2   4  -8  334.57   21.10
   4   2  -8  302.17   19.70
   2  -4  -8  339.57   17.40
   4   2   8  343.77   23.70
  -4  -2   8  363.56   21.90
  -2   4   8  315.97   21.70
   4   2   8  312.37   19.60
   2  -4   8  344.37   24.80
  -2   4   8  330.37   17.90
   2  -4   8  330.97   17.40
  -4  -2   8  322.07   14.30
   4   2   8  316.47   23.80
   2  -4   8  331.77   22.90
  -2   4   8  292.57   22.30
   0   4  -8  209.18   17.70
   4   0  -8  218.98   12.40
   0  -4  -8  262.57   20.40
   4   0  -8  252.47   20.40
  -4   0  -8  240.08   18.80
   0   4  -8  232.08   14.10
   0  -4  -8  241.08   15.90
  -4   0  -8  231.18   16.90
   0  -4   8  249.28   22.90
   0   4   8  215.68   16.00
  -4   0   8  211.48   20.60
   0   4   8  227.18   20.10
  -4   0   8  212.38   19.20
   4   0   8  232.68   17.60
   4   0   8  203.48   20.70
   0  -4   8  227.58   20.60
   0   4   8  228.88   21.80
   4   0   8  252.57   21.90
   0   4   8  230.98   19.80
   0  -4   8  248.08   13.90
  -4   0   8  221.18   13.10
  -2  -4  -8  165.98   19.20
   2   4  -8  173.18   17.50
   2   4  -8  181.58   11.70
   4  -2  -8  224.78   20.70
  -4   2  -8  184.08   16.10
   4  -2  -8  183.88   12.40
  -2  -4  -8  169.98   15.90
  -2  -4  -8  213.98   18.10
  -4   2  -8  192.38   17.90
   2   4   8  198.58   17.00
   2   4   8  205.98   21.70
   4  -2   8  184.58   21.10
  -4   2   8  164.98   18.30
  -4   2   8  186.68   19.90
   4  -2   8  146.39   20.80
  -4   2   8  179.98   12.80
   2   4   8  167.28   19.40
  -2  -4   8  208.58   20.20
  -2  -4   8  186.38   11.80
   4  -2   8  153.98   16.00
  -4   4  -8   67.79   10.00
   4  -4  -8   61.29    8.20
   4  -4  -8   77.59   13.40
   4   4  -8   49.00   10.50
  -4  -4  -8   63.09   12.10
  -4  -4  -8   55.69   11.40
   4   4  -8   72.09    8.80
  -4  -4  -8   43.80   10.20
  -4   4  -8   55.69   11.30
   4  -4   8   47.40    9.50
  -4  -4   8   65.99   11.90
  -4   4   8   72.69   13.50
   4   4   8   68.59   13.90
  -4   4   8   70.29    8.70
   4   4   8   56.09   13.40
   4   4   8   61.89   11.50
  -4   4   8   42.20   11.50
  -4  -4   8   63.69    8.50
   4  -4   8   62.39   14.40
  -4  -4   8   71.39   22.80
   4  -4   8   62.49   13.20
  -5  -3  -8  437.96   23.20
   5   3  -8  389.76   15.50
  -3   5  -8  366.56   22.80
   3  -5  -8  386.06   19.00
   5   3  -8  373.96   21.40
  -5  -3  -8  445.06   22.70
  -3   5  -8  357.96   19.90
   3  -5  -8  407.26   24.70
   3  -5   8  417.06   25.60
  -3   5   8  403.36   19.70
  -5  -3   8  393.56   24.30
  -5  -3   8  379.66   15.40
   3  -5   8  417.76   26.70
  -3   5   8  407.36   24.10
   5   3   8  394.76   25.90
  -3   5   8  353.66   25.00
   5   3   8  381.26   23.10
   5   3   8  413.06   27.10
   3  -5   8  401.26   19.90
  -1   5  -8    5.60    6.60
  -5  -1  -8    8.40    8.70
   5   1  -8    2.30    4.90
   5   1  -8   -3.90   11.50
   1  -5  -8   17.50   12.50
   1  -5  -8   -0.60    7.20
  -5  -1  -8    8.20   10.20
  -1   5  -8  -11.40    9.20
   1  -5   8   12.30   11.90
   5   1   8    9.80   11.80
  -5  -1   8   12.60    9.90
   5   1   8    3.10    9.20
   1  -5   8   -6.90    6.60
  -1   5   8   -7.40    7.90
   1  -5   8   15.00   13.40
  -1   5   8  -10.10   10.30
   5   1   8   -4.00   12.30
  -1   5   8   -1.60   10.70
  -5  -1   8    3.70    5.00
  -5  -1   8    4.80   10.20
   1   5  -8  543.95   21.90
   5  -1  -8  565.24   21.30
   5  -1  -8  547.15   28.00
   1   5  -8  547.85   26.70
  -1  -5  -8  566.44   24.60
  -1  -5  -8  563.14   27.60
  -5   1  -8  589.64   25.70
  -5   1  -8  602.34   26.50
  -5   1   8  528.45   27.50
  -1  -5   8  588.24   28.50
   5  -1   8  533.05   29.50
  -1  -5   8  570.84   21.60
   5  -1   8  502.25   25.30
   1   5   8  587.34   28.50
  -5   1   8  568.74   27.40
   5  -1   8  530.25   28.60
   1   5   8  542.25   28.00
  -5   1   8  550.94   21.20
   1   5   8  537.05   25.00
  -1  -5   8  567.14   30.60
   1   5   8  573.84   27.70
  -5   3  -8  129.29   16.40
   3   5  -8  171.48   18.20
   5  -3  -8  166.68   21.10
  -5   3  -8  148.29   17.80
   5  -3  -8  154.18   12.10
  -3  -5  -8  135.19   14.10
   3   5  -8  150.48   10.90
  -3  -5  -8  140.69   16.40
  -3  -5  -8  151.88   17.90
  -5   3   8  161.48   19.40
  -5   3   8  162.38   20.40
  -3  -5   8  152.48   22.00
  -3  -5   8  137.19   10.30
   3   5   8  132.69   15.60
   3   5   8  120.59   12.80
  -5   3   8  154.48   13.10
   5  -3   8  160.38   16.40
  -3  -5   8  158.78   20.30
   3   5   8  142.89   16.00
   5  -3   8  103.09   14.40
   5  -3   8  150.28   17.30
  -5   5  -8  102.09   13.00
   5  -5  -8   99.59   13.20
   5  -5  -8   83.79   13.70
  -5   5  -8   86.39   11.20
   5   5  -8   91.69    8.70
   5   5  -8   95.49   12.40
  -5  -5  -8   90.49   12.30
  -5  -5  -8   84.09   13.80
  -5  -5  -8  106.99   13.10
  -5  -5   8   91.09   15.10
  -5  -5   8   78.09   13.30
   5   5   8   82.59   13.10
   5   5   8  105.49   14.60
  -5  -5   8   74.59    7.90
   5  -5   8   64.49   15.50
   5  -5   8   82.09   11.20
   5  -5   8   80.99   14.90
   5   5   8   78.59   15.50
  -5   5   8   78.09    9.60
  -5   5   8   66.49   12.20
  -5   5   8  100.89   14.70
  -4   6  -8   82.99   13.00
  -6  -4  -8   87.79   12.70
   4  -6  -8   82.59    9.80
   4  -6  -8   69.49   13.60
  -6  -4  -8   84.09   12.80
  -4   6  -8   73.59   10.60
   6   4  -8   91.29    8.20
  -6  -4   8   79.99    7.90
  -6  -4   8   70.39   13.20
   6   4   8   83.19   14.10
  -4   6   8   85.99   10.60
   4  -6   8   64.19   15.00
   6   4   8   77.29   15.00
  -4   6   8   63.99   13.10
  -4   6   8   94.79   15.10
   4  -6   8   94.79   15.60
  -6  -4   8   79.59   13.10
   4  -6   8   73.59   10.70
   6   4   8   87.49   16.00
   6   2  -8  107.79    8.90
   2  -6  -8  104.29   13.80
  -6  -2  -8  107.29   13.10
   2  -6  -8  103.89   13.90
  -2   6  -8  100.09   13.10
   6   2  -8  126.49   14.20
  -2   6  -8  129.19   14.00
  -6  -2  -8  143.29   18.20
  -6  -2   8  102.49    9.20
  -6  -2   8  111.29   13.70
   2  -6   8  115.69   13.80
  -2   6   8  108.39   14.60
   2  -6   8  102.69   15.10
  -2   6   8  102.59   11.20
  -6  -2   8  103.09   13.50
   6   2   8  110.39   14.60
   2  -6   8  142.59   17.10
   6   2   8  107.19   15.50
   6   2   8  112.89   13.40
  -2   6   8  122.49   14.50
   0  -6  -8  195.68   20.30
   6   0  -8  174.88   11.30
   0  -6  -8  206.78   16.80
  -6   0  -8  199.58   18.30
   0   6  -8  197.08   19.00
   6   0  -8  156.88   21.60
   0   6  -8  184.68   13.90
  -6   0  -8  188.68   19.00
   0   6   8  151.88   17.30
   0  -6   8  157.58   21.10
  -6   0   8  200.18   20.00
   0  -6   8  200.18   23.70
   0   6   8  178.48   20.50
   6   0   8  197.88   20.80
   0   6   8  158.68   20.60
   6   0   8  187.28   19.20
  -6   0   8  187.78   11.90
   0  -6   8  177.88   13.30
  -6   0   8  191.38   19.70
   6   0   8  223.88   23.40
   6  -2  -8   -0.20    5.60
  -6   2  -8   15.60    9.80
   2   6  -8   14.40    6.10
  -6   2  -8   -7.70   10.60
  -2  -6  -8   16.60    9.00
   6  -2  -8  -18.60   11.50
   2   6  -8   -0.70   10.30
  -2  -6  -8   -7.00   12.90
  -2  -6   8    1.00   11.30
   6  -2   8   -8.50    9.50
   6  -2   8    8.20   12.50
  -6   2   8   -6.90   11.80
   6  -2   8   17.60   13.70
   2   6   8   15.80   12.00
  -2  -6   8    7.50   13.10
  -2  -6   8   10.50    5.70
   2   6   8   -4.10   11.80
   2   6   8    0.20   10.10
  -6   2   8    7.60    6.50
   2   6   8   -2.20   11.60
  -6   2   8   18.00   11.60
   4   6  -8  261.47   12.90
  -6   4  -8  300.37   20.50
  -6   4  -8  244.58   21.20
  -4  -6  -8  252.47   23.00
   6  -4  -8  299.97   24.10
  -4  -6  -8  229.38   20.40
   6  -4  -8  268.87   15.20
   4   6  -8  241.98   20.70
   6  -4   8  238.98   19.90
  -4  -6   8  223.68   21.40
  -4  -6   8  295.77   25.70
   6  -4   8  214.08   25.60
   4   6   8  276.47   25.70
   6  -4   8  264.47   24.40
   4   6   8  272.77   22.80
  -6   4   8  232.98   15.60
  -6   4   8  284.07   23.60
  -4  -6   8  251.57   11.90
   4   6   8  249.88   23.60
  -6   4   8  224.38   21.90
  -6  -6  -8  160.18   19.90
   6  -6  -8  191.08   22.60
  -6  -6  -8  195.48   20.50
  -6   6  -8  191.98   20.20
  -6  -6  -8  178.48   23.00
   6   6  -8  152.98    9.50
  -6   6  -8  193.18   18.70
   6  -6  -8  170.68   15.70
   6   6  -8  166.38   20.30
   6   6   8  150.88   18.10
   6  -6   8  174.18   18.80
  -6   6   8  107.19   15.90
   6   6   8  188.38   24.40
  -6   6   8  126.49   16.00
   6  -6   8  140.39   17.00
   6   6   8  192.08   25.00
  -6  -6   8  156.88   15.40
   6  -6   8  183.08   24.30
  -6   6   8  165.08   20.90
  -5   7  -8   30.40   11.90
  -7  -5  -8   30.50   12.30
   5  -7  -8   47.60   13.50
  -5   7  -8   36.40   10.70
  -7  -5  -8   38.00   12.30
   5  -7  -8   40.30    9.40
   5  -7   8   34.20   10.90
   5  -7   8   62.59   16.00
   7   5   8   20.90   14.40
  -7  -5   8   32.90   11.80
  -5   7   8   36.60   10.20
   7   5   8   38.20   15.70
  -5   7   8   28.40   14.20
  -7  -5   8   47.50   12.30
   7   5   8   17.80   14.50
   5  -7   8   36.80   14.80
  -5   7   8   53.69   13.20
   3  -7  -8  274.17   23.10
   3  -7  -8  274.47   18.60
  -7  -3  -8  281.47   22.20
  -3   7  -8  315.27   22.60
  -3   7  -8  290.67   19.10
  -7  -3  -8  324.97   23.20
  -3   7  -8  270.57   25.40
   7   3  -8  315.87   12.60
   7   3   8  282.27   24.70
  -7  -3   8  307.47   12.90
   7   3   8  292.07   24.30
   3  -7   8  311.77   26.20
  -7  -3   8  261.47   21.80
  -3   7   8  341.27   24.90
  -3   7   8  324.67   24.50
   3  -7   8  292.17   26.00
  -7  -3   8  299.87   23.20
  -3   7   8  314.47   20.80
   3  -7   8  306.47   18.70
   7   3   8  340.57   25.90
   1  -7  -8   35.80    9.40
  -7  -1  -8   23.60   11.50
  -1   7  -8   59.39   12.00
   7   1  -8   30.90    5.70
  -1   7  -8   48.90    8.50
   1  -7  -8   42.10   13.00
  -7  -1  -8   44.70   11.60
   7   1  -8   34.00   14.90
  -1   7  -8   44.90   14.20
   1  -7   8   36.20    8.30
   7   1   8   47.80   12.40
  -7  -1   8   55.59   12.40
  -7  -1   8   46.40   11.50
  -1   7   8   38.50   13.50
  -1   7   8   38.30   13.10
   7   1   8   52.49   14.00
  -1   7   8   35.30   10.40
   7   1   8   31.80   14.60
  -7  -1   8   47.80    6.30
   1  -7   8   48.20   14.60
   1  -7   8   51.79   14.00
  -7   1  -8   58.89   12.30
  -7   1  -8   54.49   11.80
  -1  -7  -8   45.40   12.90
   1   7  -8   59.69    8.20
  -1  -7  -8   58.29   10.70
   7  -1  -8   39.50    6.60
   1   7  -8   58.69   11.80
   7  -1  -8   58.69   14.50
  -1  -7   8   34.10   14.90
  -7   1   8   58.39   12.80
   7  -1   8   59.89   14.40
  -7   1   8   62.29    7.30
   1   7   8   53.99   11.50
  -1  -7   8   35.60   13.20
   7  -1   8   62.29   12.90
  -7   1   8   73.69   12.40
   1   7   8   29.40   12.80
   7  -1   8   72.69   14.60
  -1  -7   8   42.90    7.50
   1   7   8   36.60   13.30
  -7   3  -8  215.38   20.10
  -7   3  -8  159.08   20.00
  -3  -7  -8  187.58   21.50
   3   7  -8  153.58   20.00
  -3  -7  -8  169.68   19.50
   7  -3  -8  160.28   12.50
   3   7  -8  157.58   12.10
   7  -3  -8  174.38   22.50
   7  -3   8  154.48   18.70
   3   7   8  164.68   21.90
  -7   3   8  167.98   14.20
   7  -3   8  161.68   17.20
  -3  -7   8  189.88   21.60
   3   7   8  204.48   22.90
  -3  -7   8  183.08   11.30
  -7   3   8  161.08   21.70
   3   7   8  183.38   24.10
   7  -3   8  176.28   19.80
  -7   3   8  194.88   20.70
  -3  -7   8  188.38   25.40
   3   7   8  170.28   22.90
  -7   5  -8  169.78   20.60
   7  -5  -8  133.09   14.10
  -5  -7  -8  153.48   20.60
   5   7  -8  130.69   14.60
   7  -5  -8  162.28   21.60
   5   7  -8  144.09   10.40
  -7   5  -8  170.98   19.40
  -5  -7  -8  147.09   15.80
  -7   5   8  131.29   15.10
   7  -5   8  138.39   17.90
   5   7   8  127.39   17.50
  -7   5   8  106.09   14.90
   5   7   8  137.39   16.20
  -5  -7   8  152.58    8.80
   5   7   8  146.19   16.90
   7  -5   8  172.68   20.50
  -5  -7   8  142.89   18.00
   5   7   8  187.78   25.40
  -5  -7   8  117.79   15.50
   7  -5   8  158.58   16.90
  -7   5   8  147.49   17.40
  -7  -7  -8  507.15   30.80
   7  -7  -8  516.25   24.10
  -7  -7  -8  572.64   31.00
  -7   7  -8  495.65   26.80
   7  -7  -8  547.85   30.70
  -7   7  -8  513.55   28.60
  -7   7   8  482.45   29.50
  -7   7   8  523.45   25.00
   7  -7   8  465.15   31.60
  -7  -7   8  494.55   28.60
  -7  -7   8  574.14   28.10
   7   7   8  523.75   33.10
  -7   7   8  516.95   30.80
   7   7   8  497.45   33.00
   7  -7   8  553.44   29.80
   7   7   8  534.35   33.20
   7  -7   8  479.15   27.90
   7  -7   8  490.05   31.60
   7   7   8  526.45   33.90
  -6   8  -8  105.39   15.60
   6  -8  -8   80.69   15.30
  -6   8  -8  118.79   17.70
  -6   8  -8   91.59   13.40
   6  -8  -8  102.49   11.60
   6  -8   8   81.09   14.40
   6  -8   8   73.29   13.10
  -6   8   8  101.59   15.70
  -6   8   8  121.69   13.10
  -8  -6   8   68.39   13.20
   8   6   8   99.29   17.50
   6  -8   8  107.59   17.50
   8   6   8   72.59   17.10
  -8  -6   8   85.29   13.50
  -6   8   8   95.19   16.50
   8   6   8  104.29   18.40
  -4   8  -8  200.88   21.10
  -4   8  -8  177.28   18.00
  -8  -4  -8  177.38   21.00
   4  -8  -8  176.58   17.20
   4  -8  -8  191.68   17.70
  -4   8  -8  193.98   25.20
  -8  -4  -8  134.19   15.70
  -8  -4   8  205.88   21.30
  -4   8   8  196.68   19.30
   8   4   8  144.69   17.80
  -4   8   8  161.78   17.40
  -8  -4   8  153.78   15.00
   4  -8   8  159.28   17.80
   4  -8   8  185.98   22.10
   8   4   8  143.69   17.50
   8   4   8  175.98   19.50
  -4   8   8  137.19   16.20
   4  -8   8  195.68   27.00
  -8  -2  -8    6.90   11.70
  -2   8  -8   -6.70   12.80
   2  -8  -8   19.80    9.40
   8   2  -8    6.00   13.60
   8   2  -8   15.20    5.00
   2  -8  -8   24.20   13.00
  -2   8  -8   17.90   12.20
  -2   8  -8   19.10    8.80
  -8  -2  -8   10.30   12.10
  -8  -2   8   13.00   12.40
   8   2   8   17.30   14.00
  -2   8   8    2.60   12.80
  -2   8   8   15.30   13.00
  -2   8   8   18.70   11.30
   8   2   8   11.30   14.30
   2  -8   8   24.30    9.30
  -8  -2   8   15.60    5.40
   2  -8   8    9.70   14.20
   8   2   8   10.40   13.10
  -8  -2   8   -0.60   10.40
  -8   0  -8  310.87   23.40
  -8   0  -8  294.27   22.00
   8   0  -8  297.77   14.40
   0   8  -8  334.87   17.80
   0  -8  -8  314.17   21.10
   0  -8  -8  325.97   24.70
   0   8  -8  315.97   22.40
   8   0  -8  318.87   26.40
   0   8  -8  322.27   26.20
   0   8   8  260.37   24.70
   8   0   8  289.77   26.80
   8   0   8  299.87   26.10
   0  -8   8  291.27   17.00
   0   8   8  278.77   22.50
  -8   0   8  318.67   23.00
  -8   0   8  291.87   15.00
  -8   0   8  301.17   22.70
   0  -8   8  280.37   26.00
   0   8   8  244.28   24.70
   8   0   8  393.46   25.40
  -2  -8  -8   83.69   14.50
   2   8  -8  101.79   16.00
   2   8  -8   84.39    8.90
  -2  -8  -8   91.59   12.70
   8  -2  -8   91.29   11.10
  -8   2  -8   99.79   14.10
   2   8  -8   98.29   13.80
  -8   2  -8  163.98   21.20
   8  -2  -8  108.59   15.80
  -8   2   8   79.79   12.60
   8  -2   8   90.79   16.20
   8  -2   8  102.99   14.90
   2   8   8   93.59   15.60
   8  -2   8   72.09   15.10
  -8   2   8   94.19   12.60
  -2  -8   8   90.79   16.70
   2   8   8   74.49   18.70
   2   8   8  110.49   14.70
  -8   2   8  107.59   15.00
   2   8   8   71.19   14.40
  -2  -8   8   84.09    8.20
  -4  -8  -8    9.00   13.30
  -8   4  -8    5.20   11.90
  -4  -8  -8   -6.90   11.30
   4   8  -8    8.90    6.40
   8  -4  -8    9.00   13.10
   8  -4  -8   14.60    7.20
   4   8  -8    5.00   12.20
  -8   4  -8   30.60   13.20
   8  -4   8   11.40   13.10
   4   8   8    8.90   13.80
  -8   4   8    0.40    8.00
  -8   4   8   16.20   11.90
   8  -4   8   17.20   14.80
   4   8   8   26.70   14.80
   4   8   8   10.50   14.90
  -4  -8   8   17.10   15.70
  -8   4   8   25.30   14.90
   4   8   8   14.90   13.20
  -4  -8   8   11.10    5.40
   8  -4   8   25.20   15.40
  -4  -8   8   22.40   13.10
  -8   6  -8    0.40   13.30
   8  -6  -8   -7.30   14.10
  -6  -8  -8   14.10   13.10
   8  -6  -8    3.80    8.20
  -6  -8  -8    5.30   14.00
   6   8  -8    2.30   11.70
  -8   6  -8   22.90   12.60
   8  -6   8   31.90   16.10
  -6  -8   8   -9.80   13.70
   6   8   8   14.90   15.90
   8  -6   8   15.80   15.60
  -6  -8   8    1.40   15.60
   8  -6   8   -0.30   13.90
  -8   6   8    8.90   12.90
  -8   6   8   11.30    9.30
   6   8   8    2.90   15.30
   6   8   8  -22.00   15.20
   8  -6   8    3.50   13.30
  -8   6   8   11.40   15.10
   6   8   8   24.60   19.90
  -8   8  -8   12.60   13.80
  -8  -8  -8   13.50   15.80
  -8   8  -8   19.30   13.40
   8  -8  -8    7.50    9.40
   8  -8  -8   10.60   15.00
   8  -8   8   24.30   14.70
   8  -8   8    5.70   14.10
  -8  -8   8    2.70   13.30
  -8   8   8   -4.30   15.70
   8   8   8   10.20   16.40
   8  -8   8    0.90   15.90
   8   8   8   35.60   18.30
  -8   8   8   10.90   11.50
   8  -8   8   -2.40   16.90
  -8   8   8    9.70   14.40
  -8  -8   8   46.30   25.40
  -7   9  -8  142.79   15.20
   7  -9  -8  158.98   19.00
   7  -9  -8  150.98   17.80
  -7   9  -8  131.09   17.20
  -7   9  -8  141.19   17.90
  -7   9   8  144.59   18.60
   7  -9   8  147.79   19.30
   9   7   8  131.19   20.30
  -7   9   8  151.08   15.30
   9   7   8  165.78   20.70
   7  -9   8  134.69   17.30
  -7   9   8  175.48   19.90
   7  -9   8  150.28   16.70
  -5   9  -8   44.40   16.30
  -5   9  -8   22.40   12.40
   5  -9  -8   21.60    9.90
   5  -9  -8   49.30   14.60
  -9  -5  -8   37.20   14.80
  -5   9  -8   31.30   13.30
  -5   9   8   56.49   14.90
  -5   9   8   26.30   14.90
  -9  -5   8   18.70   12.10
   5  -9   8   32.80   16.90
   9   5   8   30.40   16.30
  -5   9   8   40.50   12.50
   5  -9   8   21.50   13.60
   9   5   8   10.00   16.40
  -9  -5   8   20.90   14.50
   5  -9   8   23.10   12.30
  -9  -3  -8   40.00   12.90
  -3   9  -8   45.70   10.60
   3  -9  -8   37.40   10.90
  -3   9  -8   45.00   13.00
   9   3  -8   23.00   15.60
  -3   9  -8   46.10   15.20
   3  -9  -8   52.49   14.40
   9   3   8   27.80   15.10
   3  -9   8   13.70   10.10
  -9  -3   8   34.60   11.50
   9   3   8   29.80   16.60
  -3   9   8   31.10   15.20
  -3   9   8   41.40   12.60
  -9  -3   8   52.69   13.00
  -3   9   8   37.80   14.00
   3  -9   8   68.59   15.70
   3  -9   8   10.90   12.60
   9   3   8   32.60   15.60
   9   1  -8  247.88   25.70
  -1   9  -8  222.48   17.30
  -9  -1  -8  258.87   23.30
  -9  -1  -8  216.38   21.60
   9   1  -8  226.38   12.30
   1  -9  -8  214.58   23.60
  -1   9  -8  191.88   22.30
   1  -9  -8  218.18   20.60
  -1   9  -8  187.98   24.90
   1  -9   8  192.78   26.80
  -1   9   8  203.48   22.80
   1  -9   8  211.48   21.70
   9   1   8  246.68   25.40
   1  -9   8  207.48   17.50
  -9  -1   8  169.48   17.20
   9   1   8  199.48   26.50
  -1   9   8  198.28   25.40
  -1   9   8  197.58   24.80
   9   1   8  179.78   18.80
  -9  -1   8  193.38   12.40
  -1  -9  -8   88.99   13.20
  -9   1  -8   84.49   14.20
   9  -1  -8   77.59    7.90
   9  -1  -8   84.09   16.30
  -1  -9  -8   72.89   14.80
   1   9  -8   85.59   15.80
  -9   1  -8   86.99   14.00
   1   9  -8   79.19   14.00
   1   9  -8   92.99    9.70
   1   9   8   89.29   14.90
   1   9   8   48.60   14.90
   1   9   8   92.99   16.40
  -1  -9   8   81.89    9.60
   9  -1   8   70.09   17.00
   9  -1   8   79.39   15.90
  -9   1   8   98.49   15.70
  -1  -9   8  114.19   17.90
  -9   1   8   96.09   13.00
  -9   1   8   92.99    8.90
   9  -1   8   73.39   15.70
  -9   3  -8  440.26   27.60
   3   9  -8  465.35   30.10
   9  -3  -8  442.96   19.70
   3   9  -8  435.66   19.50
   3   9  -8  436.86   26.60
  -3  -9  -8  445.96   29.50
  -3  -9  -8  472.05   25.50
   9  -3  -8  446.76   30.00
  -9   3  -8  468.65   28.30
  -9   3   8  414.46   21.20
  -3  -9   8  429.76   18.30
   3   9   8  437.96   29.70
   3   9   8  459.75   28.80
  -9   3   8  411.36   25.80
   9  -3   8  449.66   31.40
   9  -3   8  450.45   29.20
  -9   3   8  468.35   28.40
  -3  -9   8  438.86   32.30
   3   9   8  454.25   29.60
   9  -3   8  491.65   30.60
   3   9   8  450.35   28.30
   9  -5  -8   60.49    9.20
  -9   5  -8   46.40   23.60
   5   9  -8   68.59   14.00
  -9   5  -8   64.29   16.20
  -5  -9  -8   35.60   14.10
   5   9  -8   50.99    7.20
  -5  -9  -8   57.39   15.10
   9  -5  -8   69.19   15.40
   5   9   8   79.19   16.80
   9  -5   8   73.89   15.90
   5   9   8   43.00   16.80
  -5  -9   8   55.49    6.20
  -5  -9   8   58.79   19.90
   9  -5   8   71.19   16.90
  -5  -9   8   36.30   14.90
   9  -5   8   59.29   17.10
  -9   5   8   43.50   10.30
  -9   5   8   71.59   16.80
  -9   5   8   58.49   13.30
   5   9   8   72.59   17.20
  -7  -9  -8  217.98   26.30
  -9   7  -8  208.68   25.70
   9  -7  -8  179.48   19.40
  -9   7  -8  196.58   24.50
   9  -7  -8  207.18   17.70
   9  -7   8  175.18   20.80
   9  -7   8  190.08   19.20
  -7  -9   8  160.88   20.10
  -7  -9   8  204.48   24.70
   7   9   8  234.68   29.80
   9  -7   8  209.98   25.30
  -9   7   8  195.78   25.60
   9  -7   8  170.58   20.90
  -9   7   8  145.49   19.30
   7   9   8  173.78   22.00
  -9   7   8  168.38   20.10
  -6  10  -8  122.69   14.70
  -6  10  -8  133.39   16.80
  -6  10  -8  110.79   18.20
   6 -10  -8  129.19   17.90
   6 -10  -8  110.19   13.70
   6 -10   8  119.69   19.30
  10   6   8  113.69   19.60
  -6  10   8   90.99   15.20
   6 -10   8  131.59   17.00
  10   6   8   81.49   19.70
   6 -10   8   84.59   15.10
  -6  10   8  114.49   18.20
  -6  10   8  124.19   19.00
 -10  -4  -8  225.78   26.90
   4 -10  -8  245.78   24.30
   4 -10  -8  260.07   21.60
  -4  10  -8  239.38   20.80
  -4  10  -8  234.28   24.30
  -4  10  -8  201.78   26.60
  10   4   8  297.37   29.40
 -10  -4   8  215.98   23.30
  -4  10   8  205.88   24.90
   4 -10   8  247.18   25.70
   4 -10   8  238.28   21.20
  10   4   8  244.88   28.50
  -4  10   8  211.58   26.80
  -4  10   8  260.67   27.70
   4 -10   8  224.68   28.00
   2 -10  -8  127.39   16.70
  10   2  -8  128.59   10.90
  -2  10  -8  136.59   18.10
  10   2  -8  131.29   18.40
  -2  10  -8  147.19   18.00
 -10  -2  -8  168.28   21.70
   2 -10  -8  174.88   21.60
  -2  10  -8  130.99   16.10
 -10  -2  -8  136.89   16.70
  -2  10   8  146.99   16.90
 -10  -2   8  164.28   17.20
   2 -10   8  123.29   13.00
  10   2   8  146.69   19.40
   2 -10   8  150.18   15.50
   2 -10   8  145.19   19.00
  10   2   8  117.39   17.80
  10   2   8  154.48   18.80
  -2  10   8  126.69   17.50
  -2  10   8  144.29   17.90
 -10   0  -8   32.90   13.70
  10   0  -8   42.20    7.00
   0  10  -8   45.80   13.90
  10   0  -8   75.19   16.70
   0 -10  -8   64.19   14.80
   0  10  -8   36.90    9.60
   0  10  -8   52.89   15.20
   0 -10  -8   56.59   12.50
 -10   0  -8   50.89   14.10
   0  10   8   56.29   15.70
   0 -10   8   43.80   10.00
  10   0   8   48.80   16.40
   0 -10   8   41.30   13.30
  10   0   8   28.80   16.30
 -10   0   8   28.90   14.70
   0  10   8   61.79   16.20
 -10   0   8   55.99    7.80
   0  10   8   27.60   15.50
   0 -10   8   71.29   17.40
  10   0   8   48.10   16.60
  -2 -10  -8   80.19   15.90
  10  -2  -8   89.59    8.70
 -10   2  -8  101.69   15.00
  10  -2  -8   70.39   16.80
 -10   2  -8   66.09   14.20
   2  10  -8   87.49   10.20
   2  10  -8   84.89   14.70
   2  10  -8   92.09   16.60
  -2 -10  -8   90.59   13.80
  10  -2   8   80.09   17.10
  -2 -10   8  103.89   18.40
  -2 -10   8   83.89   13.80
  -2 -10   8   56.39    8.80
 -10   2   8   94.79   16.20
   2  10   8  100.39   17.10
   2  10   8   78.19   17.00
 -10   2   8  101.99   11.30
   2  10   8   64.69   16.70
  10  -2   8   87.29   17.20
  10  -2   8  110.19   17.60
 -10   4  -8   48.70   15.30
   4  10  -8   61.79   16.40
  -4 -10  -8   34.90   16.00
   4  10  -8   38.10   14.20
   4  10  -8   27.80    8.10
 -10   4  -8   25.00   14.30
  10  -4  -8   59.79    9.10
  10  -4  -8   51.69   16.30
   4  10   8   65.49   18.30
  -4 -10   8   49.90   18.40
  10  -4   8   44.50   15.20
 -10   4   8   21.90    9.90
 -10   4   8   33.00   15.80
  -4 -10   8   50.09   13.80
   4  10   8   37.80   15.10
  10  -4   8   50.49   17.20
  -4 -10   8   50.49    7.10
  10  -4   8   46.30   16.30
   4  10   8   62.49   17.60
  10  -4   8   16.00   16.30
  -6 -10  -8  159.38   19.00
  10  -6  -8  188.68   17.50
  10  -6  -8  213.68   26.90
 -10   6  -8  138.89   17.60
 -10   6  -8  231.58   26.90
 -10   6   8  170.18   20.50
  10  -6   8  150.08   19.80
  10  -6   8  172.38   19.90
  -6 -10   8  215.68   25.80
  10  -6   8  184.08   20.50
 -10   6   8  172.88   19.50
  10  -6   8  175.48   17.90
   6  10   8  199.18   28.50
   6  10   8  138.69   21.70
  -6 -10   8  174.48   21.20
  -5  11  -8  165.38   18.90
  -5  11   8  167.68   21.80
  -5  11   8  168.58   19.70
   5 -11   8  129.79   25.90
  -3  11  -8   19.70   11.70
  -3  11  -8   18.30   14.70
   3 -11  -8   19.10   12.00
  11   3  -8    1.70   16.40
   3 -11  -8   25.60   15.10
  -3  11  -8   18.20   17.10
 -11  -3  -8   32.40   25.80
  -3  11   8   -2.90   17.30
  -3  11   8   13.70   15.50
   3 -11   8   11.30   14.40
 -11  -3   8    8.40   13.40
  -3  11   8   47.30   17.10
   3 -11   8   13.80   16.60
  11   3   8    1.40   17.20
   3 -11   8   11.40   11.50
  -1  11  -8  257.27   20.60
  -1  11  -8  252.67   29.20
   1 -11  -8  302.97   25.80
  -1  11  -8  277.17   26.30
 -11  -1  -8  281.77   24.00
   1 -11  -8  292.67   23.90
  11   1  -8  287.17   29.60
  11   1  -8  289.37   15.00
 -11  -1   8  259.37   26.40
   1 -11   8  215.08   29.30
  -1  11   8  230.98   28.40
  11   1   8  282.57   28.80
   1 -11   8  264.67   20.80
  -1  11   8  266.97   30.50
 -11  -1   8  246.48   14.70
  11   1   8  267.57   28.60
   1 -11   8  286.57   25.30
  -1  11   8  284.67   27.80
   1  11  -8   -1.40    8.80
  11  -1  -8   17.10    7.40
 -11   1  -8  -13.40   14.30
  11  -1  -8    1.40   16.30
  -1 -11  -8    0.00   14.90
 -11   1  -8   25.40   15.40
   1  11  -8    8.30   16.80
  -1 -11  -8   12.90   12.40
   1  11  -8   20.90   14.20
 -11   1   8    8.30    8.20
 -11   1   8   17.30   14.60
  -1 -11   8  -13.30   16.40
   1  11   8   -7.60   15.30
  -1 -11   8   -9.60    9.00
  11  -1   8   36.70   16.40
  -1 -11   8    6.50   12.70
   1  11   8  -22.40   16.50
  11  -1   8    6.30   17.00
  11  -1   8   -5.10   16.40
   1  11   8   -5.00   16.00
   3  11  -8   65.19   16.70
  11  -3  -8   65.29    9.50
 -11   3  -8   69.09   16.20
   3  11  -8   54.39   14.90
 -11   3  -8   72.09   16.20
   3  11  -8   67.39    9.50
  -3 -11  -8   63.29   17.00
  11  -3  -8   86.49   17.10
  -3 -11   8   74.39   19.10
   3  11   8   74.09   18.20
   3  11   8   76.39   18.90
 -11   3   8   61.19   11.00
  11  -3   8   74.19   18.10
  11  -3   8   49.90   17.40
  -3 -11   8   67.89    8.70
  11  -3   8   78.89   18.40
  -3 -11   8   72.99   14.90
 -11   3   8   78.89   17.10
 -11   5  -8   48.50   16.80
   5  11   8   64.49   19.80
  -5 -11   8   25.90   19.20
  11  -5   8   23.60   18.10
 -11   5   8   63.99   19.90
   0 -12  -8  185.98   24.70
  12   0  -8  152.68   14.60
   0  12  -8  182.18   18.50
   0  12  -8  170.58   21.80
  12   0  -8  150.78   20.30
 -12   0  -8  150.68   17.50
   0  12  -8  147.29   16.20
   0 -12  -8  141.79   18.20
  12   0   8  126.59   23.80
   0 -12   8  168.68   23.30
 -12   0   8  140.89   14.90
   0  12   8  140.99   26.80
   0 -12   8  156.08   17.80
   0  12   8  192.08   21.10
 -12   0   8  147.79   18.30
   0  12   8  175.68   20.60
   0 -12   8  151.38   17.90
   0  -1  -9   10.00    8.50
   1   0  -9    8.70   11.70
   0   1  -9   11.20    8.00
  -1   0  -9    3.10   12.20
   1   0  -9    8.70    7.80
   0   1  -9   20.90   11.80
   0  -1  -9    3.80   11.70
  -1   0  -9   12.10    8.60
   1   0   9   -4.20    8.30
   1   0   9    1.70   13.50
   0  -1   9    6.60   15.70
  -1   0   9  -21.70   13.10
  -1   0   9   12.20   14.30
   0   1   9    3.30   14.30
   1   0   9   17.70   14.80
   0   1   9   -0.60    8.20
   0  -1   9    9.00   13.80
   0   1   9   -5.60   13.60
   0  -1   9    4.80    8.00
  -1   0   9    1.50    8.00
  -2  -1  -9  217.38   21.80
  -2  -1  -9  179.58   17.50
  -1   2  -9  166.78   16.40
   1  -2  -9  187.08   16.30
  -1   2  -9  168.38   22.60
   2   1  -9  232.08   21.50
   2   1  -9  189.08   14.50
  -2  -1   9  172.38   23.40
  -2  -1   9  181.28   14.60
   1  -2   9  191.58   23.60
   1  -2   9  190.48   26.00
  -1   2   9  196.18   16.40
  -1   2   9  180.48   24.00
   2   1   9  176.88   18.90
   2   1   9  175.78   18.20
   2   1   9  173.88   19.80
  -1   2   9  206.98   24.00
   1  -2   9  197.58   16.30
  -2   1  -9  440.36   22.40
   1   2  -9  429.96   19.90
  -1  -2  -9  436.66   26.50
   2  -1  -9  402.66   20.40
  -1  -2  -9  485.25   22.80
  -2   1  -9  388.76   26.50
   1   2  -9  427.66   25.30
  -1  -2   9  371.46   19.60
  -1  -2   9  443.96   29.90
   2  -1   9  453.75   28.60
   2  -1   9  421.76   31.40
  -2   1   9  432.16   20.50
  -1  -2   9  422.66   28.60
   1   2   9  385.06   21.90
   1   2   9  462.85   29.70
   2  -1   9  374.16   21.40
   1   2   9  383.86   28.70
  -2   1   9  457.65   28.90
  -2   1   9  405.06   28.10
   3   2  -9   65.99    8.10
  -2   3  -9   41.50   13.50
   2  -3  -9   62.89    9.70
  -2   3  -9   54.39   10.20
   3   2  -9   67.59   12.90
  -3  -2  -9   54.19   11.30
  -3  -2  -9   83.79   13.80
  -2   3   9   58.59   10.10
   3   2   9   43.60   16.70
  -3  -2   9   56.89    8.00
  -3  -2   9   83.39   15.70
  -2   3   9  102.69   16.70
  -2   3   9   48.90   13.90
   3   2   9   49.80   11.90
   2  -3   9   65.39   15.50
   2  -3   9   68.69   17.80
   2  -3   9   39.90    9.70
   3   2   9   55.39   15.10
  -3   0  -9   16.20    9.70
  -3   0  -9   21.50   13.50
   3   0  -9   19.60    7.60
   0  -3  -9   27.40    9.30
   0   3  -9   11.50   12.10
   0   3  -9   22.00    8.40
   3   0   9   16.00    9.90
   3   0   9   -1.40   14.40
   0   3   9   26.60   14.90
   0  -3   9   15.70    8.50
   0   3   9   19.80   14.30
   3   0   9   42.80   15.90
  -3   0   9   29.30   14.20
  -3   0   9   18.70   13.70
   0  -3   9   42.40   14.80
  -3   0   9   24.30    8.10
   0  -3   9    7.00   15.60
   0   3   9   16.60    9.50
   2   3  -9   65.99   13.60
   3  -2  -9   48.70    9.00
   2   3  -9   67.39    8.60
  -3   2  -9   58.99   13.90
  -2  -3  -9   58.89   13.80
  -3   2  -9   57.49   11.10
  -2  -3  -9   76.19   11.50
  -3   2   9   41.20   14.10
   3  -2   9   64.59   11.00
   3  -2   9   43.20   15.20
   3  -2   9   74.79   17.10
  -2  -3   9   64.69   17.00
  -2  -3   9   53.39    8.10
  -2  -3   9   42.50   14.70
  -3   2   9   64.69    9.80
   2   3   9   63.49   16.10
   2   3   9   43.80   11.30
   2   3   9   46.30   15.20
  -3   2   9   51.59   14.10
   4   3  -9  295.77   23.70
   3  -4  -9  354.86   27.70
   4   3  -9  300.27   15.70
  -4  -3  -9  318.67   23.30
   3  -4  -9  305.77   19.30
  -3   4  -9  322.67   21.40
  -3   4  -9  321.97   24.10
  -4  -3  -9  316.37   24.90
  -3   4   9  293.67   19.50
  -3   4   9  241.08   25.90
  -4  -3   9  318.57   15.50
   3  -4   9  289.37   20.50
   4   3   9  325.67   29.70
   3  -4   9  321.67   29.50
   4   3   9  299.97   23.90
   4   3   9  314.07   30.00
   3  -4   9  284.87   27.80
  -3   4   9  315.47   26.70
  -4  -3   9  328.47   26.80
   1  -4  -9   60.39   10.50
  -4  -1  -9   78.29   12.10
   1  -4  -9   78.49   16.40
   4   1  -9   80.79    8.30
  -1   4  -9   81.39   14.00
  -4  -1  -9   67.19   13.90
  -1   4  -9   63.09   10.00
  -4  -1   9   68.99   15.40
   1  -4   9   63.59   15.20
  -4  -1   9   65.29    8.20
   4   1   9   72.79   16.20
   1  -4   9   71.69    9.90
   4   1   9   64.49   12.00
  -1   4   9   78.69   15.00
  -4  -1   9   86.49   14.90
  -1   4   9   62.89   11.20
   1  -4   9   55.99   17.50
  -1   4   9   56.79   15.70
   4   1   9   66.29   17.20
  -4   1  -9   -7.50   12.80
   4  -1  -9    3.60    7.10
   1   4  -9    2.90    7.70
  -1  -4  -9   -2.40    9.70
   1   4  -9    5.40   12.60
  -4   1  -9   -2.10   10.00
  -1  -4   9   -1.50    7.50
   1   4   9   17.00   14.40
  -1  -4   9    9.30   16.80
  -1  -4   9    7.20   13.80
  -4   1   9    4.60   13.20
   4  -1   9   24.90   15.90
   4  -1   9    0.10   10.20
   1   4   9   10.30   14.40
   4  -1   9    9.00   14.40
  -4   1   9    7.10   13.90
   1   4   9    1.30   10.60
  -4   1   9    8.60    7.50
   1   4   9   27.00   14.80
   4  -3  -9   39.80    9.00
   3   4  -9   35.70   12.80
  -4   3  -9   56.09   14.20
  -3  -4  -9   22.30   11.40
  -4   3  -9   23.50   10.90
   3   4  -9   35.00    7.50
  -3  -4  -9   26.20   16.60
   4  -3  -9   37.70   15.10
  -4   3   9   44.00   14.90
   3   4   9   36.80   15.50
   3   4   9   19.70   16.30
   3   4   9   15.90   12.40
   4  -3   9   29.00   11.00
  -3  -4   9   51.79   16.20
   4  -3   9   17.90   16.20
  -3  -4   9   28.70    7.30
  -4   3   9   34.40    9.60
  -4   3   9   47.20   15.80
  -3  -4   9   42.70   15.10
   4  -3   9   32.80   16.20
  -4   5  -9   47.00   12.00
  -5  -4  -9   68.29   13.80
  -4   5  -9   57.99   14.60
   5   4  -9   65.39    7.40
   4  -5  -9   75.19   16.80
   4  -5  -9   62.69   10.80
  -5  -4  -9   72.79   14.90
  -5  -4   9   36.10   15.50
  -4   5   9   55.49   11.00
   5   4   9   53.69   18.00
   4  -5   9   45.60   15.70
   5   4   9   55.19   17.70
   5   4   9   62.29   15.30
  -4   5   9   56.79   15.90
   4  -5   9   48.20   17.80
  -4   5   9   59.09   16.20
  -5  -4   9   61.79    7.10
   4  -5   9   57.39   11.70
  -5  -4   9   42.20   15.30
  -5  -2  -9   68.19   14.70
  -2   5  -9   64.99   10.70
   5   2  -9   54.89    7.40
  -5  -2  -9   64.89   13.30
   2  -5  -9   60.89   10.90
  -2   5  -9   58.19   13.80
   2  -5  -9   62.79   15.40
  -5  -2   9   68.69   15.20
   5   2   9   88.29   17.10
   2  -5   9   61.39   18.10
  -2   5   9   47.70   11.10
  -2   5   9   61.79   15.60
   5   2   9   73.99   13.60
   5   2   9   71.89   17.90
   2  -5   9   73.49   15.50
  -5  -2   9   53.69   14.50
  -5  -2   9   67.39    7.60
   2  -5   9   41.10    9.90
  -2   5   9   63.89   16.20
   0  -5  -9  244.38   26.20
  -5   0  -9  273.17   21.80
   5   0  -9  281.07   15.50
   0   5  -9  273.97   24.10
   0   5  -9  266.87   17.50
  -5   0  -9  284.27   24.20
   0  -5  -9  263.47   20.30
  -5   0   9  257.87   15.80
   0  -5   9  249.28   26.60
   0  -5   9  304.67   30.30
   0   5   9  247.78   21.60
   0   5   9  297.27   28.00
   5   0   9  256.87   28.50
  -5   0   9  206.88   24.40
   5   0   9  293.27   30.00
   5   0   9  252.37   22.30
   0  -5   9  267.07   17.00
   0   5   9  242.38   25.40
  -5   0   9  261.07   26.30
  -5   2  -9   35.10   12.10
   5  -2  -9   46.60    8.60
  -2  -5  -9   63.19   12.10
  -5   2  -9   58.89   14.00
   5  -2  -9   33.90   15.60
   2   5  -9   64.49    8.50
   2   5  -9   60.19   13.90
   5  -2   9   24.50   16.50
  -2  -5   9   75.69   18.80
  -5   2   9   71.99   15.80
   5  -2   9   59.99   16.30
   2   5   9   54.39   13.40
  -5   2   9   36.30   15.60
   5  -2   9   60.09   12.70
  -5   2   9   52.89    9.40
   2   5   9   45.90   15.50
  -2  -5   9   50.69    8.10
   2   5   9   39.40   15.10
  -2  -5   9   19.10   15.10
   2   5   9   32.50   15.50
   4   5  -9  294.07   15.40
   4   5  -9  283.87   25.00
  -5   4  -9  319.47   23.00
  -4  -5  -9  266.67   23.90
   5  -4  -9  349.96   29.30
   5  -4  -9  318.07   18.60
  -5   4  -9  308.77   25.80
   4   5   9  271.97   30.20
   5  -4   9  269.27   22.50
  -5   4   9  263.97   28.30
   5  -4   9  313.27   30.40
   4   5   9  340.37   30.40
   5  -4   9  281.77   27.80
   4   5   9  309.67   26.70
  -4  -5   9  280.17   27.60
  -4  -5   9  272.07   29.10
  -4  -5   9  266.87   14.10
  -5   4   9  301.17   18.90
   4   5   9  337.07   30.70
  -5   4   9  243.28   26.80
   5  -6  -9   47.60   16.90
  -6  -5  -9   45.30   13.90
  -6  -5  -9   67.49   15.10
  -5   6  -9   49.20   12.30
   5  -6  -9   35.60   10.30
   6   5  -9   53.59    6.70
  -5   6  -9   24.80   14.60
  -5   6   9   84.89   16.70
  -6  -5   9   56.59   15.80
   6   5   9   70.39   18.70
   5  -6   9   65.09   17.70
  -6  -5   9   58.69   16.00
   5  -6   9   42.10   18.50
  -5   6   9   38.60   11.60
   5  -6   9   48.40   13.10
   6   5   9   85.79   19.90
   6   5   9   45.60   16.50
  -5   6   9   59.69   18.10
   6   3  -9   18.00    6.40
   3  -6  -9    2.10   15.20
  -3   6  -9   41.80   14.50
  -6  -3  -9   39.70   14.80
  -6  -3  -9   32.20   13.50
  -3   6  -9   25.40   11.00
   3  -6  -9   24.70   10.00
   3  -6   9   20.50   17.80
   3  -6   9   30.10   15.60
  -6  -3   9   12.70   13.80
  -3   6   9   45.10   16.80
  -3   6   9   31.30   18.00
  -6  -3   9   -2.90   13.80
   6   3   9   27.60   17.80
   6   3   9   11.30   14.80
  -3   6   9   28.90   15.60
   3  -6   9   32.70   10.80
  -6  -3   9   23.90    6.60
   6   3   9   28.00   17.80
  -1   6  -9   99.89   11.40
  -1   6  -9  112.49   16.00
   1  -6  -9   93.19   16.60
  -6  -1  -9  103.59   14.60
   1  -6  -9   85.69   12.10
  -6  -1  -9   81.89   15.20
   6   1  -9   93.49   11.70
  -6  -1   9   96.19   15.70
   1  -6   9   86.19   11.00
  -6  -1   9   94.09    8.60
   1  -6   9   86.89   16.70
   6   1   9   76.89   18.20
  -6  -1   9   56.99   15.40
  -1   6   9   87.69   16.90
  -1   6   9   82.09   13.20
  -1   6   9   77.89   17.40
   6   1   9   74.29   17.30
   6   1   9   79.29   14.60
   1  -6   9  113.59   18.50
   1   6  -9  303.97   25.70
   6  -1  -9  263.67   15.60
  -1  -6  -9  266.87   21.80
   1   6  -9  252.27   17.00
  -6   1  -9  273.27   23.40
  -6   1  -9  276.77   24.80
  -1  -6  -9  218.18   27.10
  -6   1   9  227.28   26.20
   6  -1   9  300.07   28.80
   6  -1   9  295.27   32.10
  -1  -6   9  253.37   30.30
   6  -1   9  244.78   24.20
  -1  -6   9  247.98   16.10
  -1  -6   9  241.38   27.30
  -6   1   9  240.98   27.00
   1   6   9  235.48   27.90
   1   6   9  309.57   36.60
   1   6   9  260.77   23.50
   1   6   9  261.37   28.10
  -6   1   9  247.48   16.10
   3   6  -9  297.97   16.20
   3   6  -9  308.37   26.20
  -3  -6  -9  299.77   24.30
   6  -3  -9  281.57   17.10
  -6   3  -9  337.77   23.40
  -6   3  -9  305.27   26.10
   6  -3  -9  341.47   28.00
   6  -3   9  249.08   30.20
  -3  -6   9  330.47   32.10
  -6   3   9  285.57   18.90
  -3  -6   9  295.97   15.10
  -3  -6   9  320.17   27.50
   3   6   9  334.67   29.00
   6  -3   9  339.57   24.60
  -6   3   9  275.97   27.70
   6  -3   9  278.87   30.80
   3   6   9  327.67   30.20
  -6   3   9  274.77   27.30
   3   6   9  307.17   28.20
   3   6   9  308.47   26.80
   5   6  -9   69.69    7.70
   6  -5  -9   47.50   17.10
   6  -5  -9   67.29   10.40
  -5  -6  -9   66.59   14.00
  -6   5  -9   80.79   14.10
  -6   5  -9   60.49   16.10
   5   6  -9   61.69   14.90
  -6   5   9   63.69   11.40
  -5  -6   9   80.29   18.80
   5   6   9   85.69   18.90
  -6   5   9   86.39   18.50
  -5  -6   9   71.49   16.70
   6  -5   9   72.19   19.50
   6  -5   9   69.39   14.10
  -5  -6   9   74.49    6.80
   5   6   9   74.19   17.10
   5   6   9   92.49   19.30
   6  -5   9   64.99   17.90
  -6   5   9   51.29   16.30
   5   6   9   70.99   18.50
  -4   7  -9   91.89   14.20
   4  -7  -9  103.69   18.40
  -4   7  -9   96.29   17.20
  -7  -4  -9   95.49   15.90
   7   4  -9   94.29   11.50
   4  -7  -9   80.09   12.20
  -7  -4  -9  135.69   16.80
  -7  -4   9  106.69   15.40
   4  -7   9   88.89   21.50
  -4   7   9   95.49   13.50
  -4   7   9   96.69   19.00
   7   4   9   67.09   18.90
   4  -7   9  110.19   14.60
  -7  -4   9   87.49   16.60
   7   4   9  117.29   17.60
  -4   7   9  118.79   18.20
   4  -7   9  111.49   18.90
   7   4   9   95.39   19.30
   2  -7  -9   31.70   16.10
  -2   7  -9    3.30   10.30
  -7  -2  -9   40.40   13.50
  -7  -2  -9    8.20   14.80
   2  -7  -9    3.50   10.60
   7   2  -9   -2.10    6.30
  -2   7  -9   12.10   14.30
  -2   7   9   16.40   16.60
  -2   7   9    0.30   12.30
   2  -7   9   -0.80    9.40
   7   2   9   16.50   15.40
   2  -7   9    5.20   17.60
   7   2   9   34.20   17.50
  -7  -2   9   12.30    6.80
  -7  -2   9   20.40   14.70
   7   2   9   -5.80   17.50
  -7  -2   9    8.90   15.00
  -2   7   9    7.80   15.80
   2  -7   9   21.50   15.70
  -7   0  -9   45.00   15.60
   7   0  -9   20.80    7.00
   0  -7  -9   23.70   11.60
   0  -7  -9   43.10   15.60
   0   7  -9   25.00   14.30
  -7   0  -9   32.10   13.70
   0   7  -9   23.40    9.50
  -7   0   9   15.20   15.00
   0   7   9   18.80   15.70
   0  -7   9   21.00   16.00
   0  -7   9   25.40    8.80
   0   7   9   39.50   13.60
   0   7   9   35.50   16.70
  -7   0   9   35.40   14.40
   7   0   9   29.40   15.30
   0  -7   9   21.50   18.10
   7   0   9   19.60   17.80
   7   0   9   31.90   17.70
  -7   0   9   30.60    7.90
  -2  -7  -9   -2.90   12.40
   2   7  -9   29.30   14.80
   2   7  -9   -3.30    7.90
   7  -2  -9   -1.00   16.00
  -2  -7  -9   -0.60   15.60
  -7   2  -9   20.60   14.70
  -7   2  -9    0.80   13.20
   7  -2  -9    6.90    7.70
  -7   2   9    0.80    8.30
   2   7   9   18.60   17.20
  -2  -7   9    7.50    7.50
   7  -2   9   17.80   16.80
  -2  -7   9   27.60   15.60
   2   7   9  -12.70   15.90
   2   7   9    8.30   14.70
   2   7   9    4.40   16.60
  -7   2   9   27.60   15.70
   7  -2   9   -5.60   16.90
  -7   2   9   -1.90   13.50
  -2  -7   9  -10.80   18.00
   7  -2   9   13.00   14.30
   7  -4  -9   52.89   10.90
   4   7  -9   61.39   15.70
   4   7  -9   75.89    8.30
  -7   4  -9   71.99   16.80
  -7   4  -9   70.89   14.60
   7  -4  -9   56.79   16.90
  -4  -7  -9   61.79   14.50
  -7   4   9   99.39   19.40
  -4  -7   9   41.80   16.90
  -7   4   9   68.19   12.60
   7  -4   9   65.09   15.50
   4   7   9   76.39   16.90
  -4  -7   9   84.19   18.80
  -4  -7   9   67.39    7.30
   7  -4   9   70.29   19.20
   7  -4   9   72.09   20.00
  -7   4   9   77.39   16.50
   4   7   9   65.49   18.60
   4   7   9   75.79   18.90
   4   7   9   93.09   17.70
   1  -8  -9  249.08   28.00
   8   1  -9  238.98   14.70
   1  -8  -9  242.88   23.10
  -1   8  -9  273.87   26.20
  -8  -1  -9  269.47   26.40
  -1   8  -9  244.58   21.30
  -8  -1  -9  266.17   27.40
  -8  -1   9  233.88   15.10
   8   1   9  237.78   31.80
   1  -8   9  201.38   19.00
   1  -8   9  221.28   23.80
  -8  -1   9  239.38   26.00
  -8  -1   9  210.08   26.60
   1  -8   9  237.88   31.60
   8   1   9  277.77   27.70
  -1   8   9  208.38   25.10
  -1   8   9  219.78   22.90
   8   1   9  219.78   30.90
  -1   8   9  256.87   29.50
   1   8  -9  123.89   17.10
   1   8  -9   94.79   11.20
   8  -1  -9  111.19   12.90
  -8   1  -9  119.69   16.90
  -8   1  -9  111.79   17.40
   8  -1  -9  128.49   19.80
  -1  -8  -9  100.09   14.00
  -1  -8  -9   98.89   18.00
   1   8   9   61.09   19.10
   8  -1   9   90.69   19.90
   1   8   9  112.39   19.90
   8  -1   9  109.29   21.30
   8  -1   9  109.49   18.00
  -1  -8   9  125.19   21.50
  -1  -8   9  110.99   14.30
  -1  -8   9  102.79   18.30
  -8   1   9  107.49   17.70
  -8   1   9  102.19   10.30
  -8   1   9  100.29   15.50
   1   8   9   96.99   16.60
   0   0   0    0.00    0.00

_computing_structure_solution     'SHELXT 2014/5 (Sheldrick, 2014)'
;
_shelx_hkl_checksum              53260
_shelx_shelxl_version_number     2014/7
_olex2_submission_special_instructions 'No special instructions were received'
loop_
_space_group_symop_operation_xyz
'x, y, z'
'-x, -y, z'
'y, -x, -z'
'-y, x, -z'
'x+1/2, y+1/2, z+1/2'
'-x+1/2, -y+1/2, z+1/2'
'y+1/2, -x+1/2, -z+1/2'
'-y+1/2, x+1/2, -z+1/2'
loop_
_atom_site_label
_atom_site_type_symbol
_atom_site_fract_x
_atom_site_fract_y
_atom_site_fract_z
_atom_site_U_iso_or_equiv
_atom_site_adp_type
_atom_site_occupancy
_atom_site_site_symmetry_order
_atom_site_calc_flag
_atom_site_refinement_flags_posn
_atom_site_refinement_flags_adp
_atom_site_refinement_flags_occupancy
_atom_site_disorder_assembly
_atom_site_disorder_group
Pr1 Pr 0.38488(2) 0.81733(2) 0.77359(2) 0.00793(3) Uani 1 1 d . . . . .
Ge1 Ge 0.60255(2) 0.75246(2) 0.26012(4) 0.00765(4) Uani 1 1 d . . . . .
Na2 Na 0.60409(8) 0.41242(8) 0.2319(2) 0.0221(2) Uani 1 1 d . . . . .
Na1 Na 0.5000 1.0000 0.2500 0.0316(6) Uani 1 4 d S T P . .
F1 F 0.5000 1.0000 0.7500 0.0172(6) Uani 1 4 d S T P . .
O2 O 0.60643(13) 0.60950(13) 0.2211(3) 0.0146(3) Uani 1 1 d . . . . .
O4 O 0.54636(15) 0.82209(17) 0.0207(3) 0.0131(3) Uani 1 1 d . . . . .
O1 O 0.53450(16) 0.78829(16) 0.5205(3) 0.0149(4) Uani 1 1 d . . . . .
O3 O 0.73876(13) 0.79610(13) 0.3230(3) 0.0113(3) Uani 1 1 d . . . . .
loop_
_atom_site_aniso_label
_atom_site_aniso_U_11
_atom_site_aniso_U_22
_atom_site_aniso_U_33
_atom_site_aniso_U_23
_atom_site_aniso_U_13
_atom_site_aniso_U_12
Pr1 0.00693(5) 0.00778(5) 0.00909(4) 0.00004(4) 0.00028(4) 0.00030(4)
Ge1 0.00777(9) 0.00806(9) 0.00712(9) -0.00031(8) -0.00003(8) 0.00044(7)
Na2 0.0182(5) 0.0158(4) 0.0321(6) -0.0015(5) -0.0022(5) 0.0010(4)
Na1 0.0196(6) 0.0196(6) 0.0557(17) 0.000 0.000 0.000
F1 0.0121(7) 0.0121(7) 0.0273(16) 0.000 0.000 0.000
O2 0.0142(7) 0.0081(6) 0.0215(8) -0.0012(7) 0.0009(7) -0.0010(5)
O4 0.0111(8) 0.0182(9) 0.0100(7) 0.0048(6) -0.0013(6) -0.0015(7)
O1 0.0114(8) 0.0221(10) 0.0112(7) -0.0061(6) 0.0024(6) -0.0017(7)
O3 0.0087(7) 0.0119(7) 0.0134(7) -0.0019(6) -0.0004(6) -0.0010(6)
loop_
_atom_type_symbol
_atom_type_description
_atom_type_scat_dispersion_real
_atom_type_scat_dispersion_imag
_atom_type_scat_source
F F 0.0171 0.0103 'International Tables Vol C Tables 4.2.6.8 and 6.1.1.4'
Ge Ge 0.1547 1.8001 'International Tables Vol C Tables 4.2.6.8 and 6.1.1.4'
Na Na 0.0362 0.0249 'International Tables Vol C Tables 4.2.6.8 and 6.1.1.4'
O O 0.0106 0.0060 'International Tables Vol C Tables 4.2.6.8 and 6.1.1.4'
Pr Pr -0.2180 2.8214 'International Tables Vol C Tables 4.2.6.8 and 6.1.1.4'
loop_
_geom_angle_atom_site_label_1
_geom_angle_atom_site_label_2
_geom_angle_atom_site_label_3
_geom_angle
_geom_angle_site_symmetry_1
_geom_angle_site_symmetry_3
Ge1 Pr1 Ge1 92.075(6) 4_656 7_466
Ge1 Pr1 Na2 75.932(16) 4_656 5_455
Ge1 Pr1 Na2 124.37(2) 7_466 4_656
Ge1 Pr1 Na2 76.140(17) 4_656 4_656
Ge1 Pr1 Na2 59.38(2) 7_466 5_455
Na2 Pr1 Na2 151.949(16) 4_656 5_455
F1 Pr1 Ge1 92.994(5) . 7_466
F1 Pr1 Ge1 173.512(7) . 4_656
F1 Pr1 Na2 104.187(17) . 4_656
F1 Pr1 Na2 103.263(16) . 5_455
F1 Pr1 O3 118.84(4) . 7_466
O2 Pr1 Ge1 107.61(4) 4_656 7_466
O2 Pr1 Ge1 34.36(3) 4_656 4_656
O2 Pr1 Na2 110.24(4) 4_656 5_455
O2 Pr1 Na2 42.04(4) 4_656 4_656
O2 Pr1 F1 146.20(4) 4_656 .
O2 Pr1 O3 75.01(5) 4_656 7_466
O4 Pr1 Ge1 110.78(4) 7_465 4_656
O4 Pr1 Ge1 85.35(4) 1_556 7_466
O4 Pr1 Ge1 101.53(4) 7_465 7_466
O4 Pr1 Ge1 119.54(5) 1_556 4_656
O4 Pr1 Na2 142.98(5) 1_556 5_455
O4 Pr1 Na2 133.71(5) 7_465 4_656
O4 Pr1 Na2 56.65(5) 7_465 5_455
O4 Pr1 Na2 57.50(5) 1_556 4_656
O4 Pr1 F1 64.18(4) 7_465 .
O4 Pr1 F1 64.98(5) 1_556 .
O4 Pr1 O2 133.21(6) 7_465 4_656
O4 Pr1 O2 89.74(6) 1_556 4_656
O4 Pr1 O4 128.94(8) 1_556 7_465
O4 Pr1 O1 95.32(7) 1_556 7_466
O4 Pr1 O3 149.98(6) 1_556 4_656
O4 Pr1 O3 129.68(6) 7_465 7_466
O4 Pr1 O3 80.22(5) 1_556 7_466
O1 Pr1 Ge1 104.60(5) . 4_656
O1 Pr1 Ge1 112.97(5) 7_466 4_656
O1 Pr1 Ge1 158.32(5) . 7_466
O1 Pr1 Ge1 32.01(4) 7_466 7_466
O1 Pr1 Na2 49.61(5) . 4_656
O1 Pr1 Na2 150.16(5) 7_466 4_656
O1 Pr1 Na2 137.72(5) . 5_455
O1 Pr1 Na2 48.94(5) 7_466 5_455
O1 Pr1 F1 70.03(5) 7_466 .
O1 Pr1 F1 71.52(5) . .
O1 Pr1 O2 80.58(6) . 4_656
O1 Pr1 O2 137.92(6) 7_466 4_656
O1 Pr1 O4 85.61(7) . 7_465
O1 Pr1 O4 74.47(6) . 1_556
O1 Pr1 O4 71.62(6) 7_466 7_465
O1 Pr1 O1 140.90(8) . 7_466
O1 Pr1 O3 64.86(5) 7_466 7_466
O1 Pr1 O3 144.68(6) . 7_466
O1 Pr1 O3 119.80(6) . 4_656
O1 Pr1 O3 87.93(6) 7_466 4_656
O3 Pr1 Ge1 67.38(4) 7_466 4_656
O3 Pr1 Ge1 81.75(4) 4_656 7_466
O3 Pr1 Ge1 34.82(4) 4_656 4_656
O3 Pr1 Ge1 32.98(4) 7_466 7_466
O3 Pr1 Na2 95.88(4) 7_466 4_656
O3 Pr1 Na2 75.68(4) 7_466 5_455
O3 Pr1 Na2 109.43(4) 4_656 4_656
O3 Pr1 Na2 42.65(4) 4_656 5_455
O3 Pr1 F1 142.43(4) 4_656 .
O3 Pr1 O2 68.81(5) 4_656 4_656
O3 Pr1 O4 80.38(6) 4_656 7_465
O3 Pr1 O3 74.21(3) 4_656 7_466
Pr1 Ge1 Pr1 93.714(7) 3_566 8_656
Pr1 Ge1 Na2 165.636(19) 8_656 4_655
Pr1 Ge1 Na2 79.238(18) 3_566 4_656
Pr1 Ge1 Na2 108.566(19) 3_566 2_665
Pr1 Ge1 Na2 65.51(2) 8_656 4_656
Pr1 Ge1 Na2 72.746(18) 3_566 4_655
Pr1 Ge1 Na1 70.865(5) 8_656 .
Pr1 Ge1 Na1 144.821(8) 3_566 .
Na2 Ge1 Pr1 125.62(3) 2_665 8_656
Na2 Ge1 Na2 115.05(3) 4_655 4_656
Na2 Ge1 Na2 70.84(4) 2_665 4_656
Na2 Ge1 Na2 65.09(4) 2_665 4_655
Na2 Ge1 Na1 106.009(19) 2_665 .
Na1 Ge1 Na2 118.84(2) . 4_656
Na1 Ge1 Na2 117.60(2) . 4_655
O2 Ge1 Pr1 125.85(6) . 8_656
O2 Ge1 Pr1 55.69(5) . 3_566
O2 Ge1 Na2 52.91(6) . 2_665
O2 Ge1 Na2 65.50(6) . 4_656
O2 Ge1 Na2 50.15(6) . 4_655
O2 Ge1 Na1 157.51(6) . .
O2 Ge1 O1 111.49(9) . .
O2 Ge1 O3 107.27(8) . .
O4 Ge1 Pr1 122.80(6) . 3_566
O4 Ge1 Pr1 121.02(7) . 8_656
O4 Ge1 Na2 87.56(7) . 2_665
O4 Ge1 Na2 65.43(7) . 4_655
O4 Ge1 Na2 153.90(6) . 4_656
O4 Ge1 Na1 52.28(7) . .
O4 Ge1 O2 113.10(9) . .
O4 Ge1 O1 110.87(9) . .
O4 Ge1 O3 112.20(9) . .
O1 Ge1 Pr1 47.77(6) . 8_656
O1 Ge1 Pr1 125.63(7) . 3_566
O1 Ge1 Na2 52.34(7) . 4_656
O1 Ge1 Na2 144.98(7) . 4_655
O1 Ge1 Na2 80.14(7) . 2_665
O1 Ge1 Na1 66.73(7) . .
O1 Ge1 O3 101.25(9) . .
O3 Ge1 Pr1 52.33(5) . 3_566
O3 Ge1 Pr1 53.74(5) . 8_656
O3 Ge1 Na2 112.44(6) . 4_655
O3 Ge1 Na2 157.58(6) . 2_665
O3 Ge1 Na2 92.10(6) . 4_656
O3 Ge1 Na1 94.84(5) . .
Ge1 Na2 Pr1 68.82(2) 3_565 3_566
Ge1 Na2 Pr1 174.51(4) 2_665 3_566
Ge1 Na2 Pr1 70.20(2) 3_566 3_566
Ge1 Na2 Ge1 115.05(3) 3_565 3_566
Ge1 Na2 Ge1 115.46(4) 2_665 3_565
Ge1 Na2 Ge1 109.68(4) 2_665 3_566
Ge1 Na2 Na2 78.68(4) 2_665 2_665
Ge1 Na2 Na2 55.80(4) 3_565 4_655
Ge1 Na2 Na2 113.85(4) 2_665 4_655
Ge1 Na2 Na2 59.10(2) 2_665 3_565
Ge1 Na2 Na2 134.42(4) 3_566 4_655
Ge1 Na2 Na2 168.62(5) 3_566 3_565
Ge1 Na2 Na2 74.03(4) 3_565 3_565
Na2 Na2 Pr1 120.75(5) 3_565 3_566
Na2 Na2 Pr1 96.38(4) 2_665 3_566
Na2 Na2 Pr1 65.15(3) 4_655 3_566
Na2 Na2 Ge1 116.65(2) 2_665 3_565
Na2 Na2 Ge1 116.00(2) 2_665 3_566
Na2 Na2 Na2 62.05(2) 2_665 4_655
Na2 Na2 Na2 55.89(4) 3_565 4_655
Na2 Na2 Na2 62.05(2) 2_665 3_565
O2 Na2 Pr1 45.77(4) . 3_566
O2 Na2 Pr1 91.94(5) 3_565 3_566
O2 Na2 Pr1 142.35(5) 2_665 3_566
O2 Na2 Ge1 31.27(4) 3_565 3_565
O2 Na2 Ge1 145.67(5) 3_565 3_566
O2 Na2 Ge1 120.77(6) 2_665 3_565
O2 Na2 Ge1 32.91(4) 2_665 2_665
O2 Na2 Ge1 93.94(6) . 3_566
O2 Na2 Ge1 91.52(6) . 3_565
O2 Na2 Ge1 90.83(5) 3_565 2_665
O2 Na2 Ge1 122.67(6) 2_665 3_566
O2 Na2 Ge1 129.29(5) . 2_665
O2 Na2 Na2 94.38(4) 3_565 2_665
O2 Na2 Na2 46.70(5) 3_565 4_655
O2 Na2 Na2 92.61(5) . 3_565
O2 Na2 Na2 50.62(5) . 2_665
O2 Na2 Na2 46.04(4) 2_665 2_665
O2 Na2 Na2 47.27(5) . 4_655
O2 Na2 Na2 89.65(5) 2_665 4_655
O2 Na2 Na2 47.13(4) 2_665 3_565
O2 Na2 Na2 42.78(5) 3_565 3_565
O2 Na2 O2 89.56(6) 2_665 3_565
O2 Na2 O2 96.58(6) . 2_665
O2 Na2 O2 93.59(7) . 3_565
O2 Na2 O1 121.05(7) 3_565 3_566
O2 Na2 O1 76.51(6) . 3_566
O2 Na2 O1 148.67(8) 2_665 3_566
O2 Na2 O3 148.27(7) . 8_645
O1 Na2 Pr1 41.03(4) 3_566 3_566
O1 Na2 Ge1 90.21(5) 3_566 3_565
O1 Na2 Ge1 139.76(6) 3_566 2_665
O1 Na2 Ge1 30.64(4) 3_566 3_566
O1 Na2 Na2 118.46(6) 3_566 2_665
O1 Na2 Na2 160.75(7) 3_566 3_565
O1 Na2 Na2 106.15(5) 3_566 4_655
O3 Na2 Pr1 103.48(5) 8_645 3_566
O3 Na2 Ge1 78.52(5) 8_645 3_566
O3 Na2 Ge1 81.75(5) 8_645 2_665
O3 Na2 Ge1 65.12(5) 8_645 3_565
O3 Na2 Na2 158.72(7) 8_645 2_665
O3 Na2 Na2 120.04(8) 8_645 4_655
O3 Na2 Na2 100.49(6) 8_645 3_565
O3 Na2 O2 113.54(7) 8_645 2_665
O3 Na2 O2 77.57(6) 8_645 3_565
O3 Na2 O1 82.14(6) 8_645 3_566
Ge1 Na1 Ge1 90.0 . 7_465
F1 Na1 Ge1 88.986(4) . .
F1 Na1 Ge1 91.014(4) 1_554 .
F1 Na1 Ge1 91.014(4) . 7_465
F1 Na1 Ge1 88.986(4) 1_554 7_465
F1 Na1 F1 180.0 . 1_554
F1 Na1 O1 59.41(3) . 2_675
F1 Na1 O1 59.41(3) 1_554 7_465
F1 Na1 O1 120.59(3) . 7_465
F1 Na1 O1 120.59(3) . 8_655
F1 Na1 O1 120.59(3) 1_554 .
F1 Na1 O1 59.41(3) 1_554 8_655
F1 Na1 O1 59.41(3) . .
F1 Na1 O1 120.59(3) 1_554 2_675
O4 Na1 Ge1 82.67(4) 8_655 .
O4 Na1 Ge1 149.76(4) 8_655 7_465
O4 Na1 Ge1 82.67(4) . 7_465
O4 Na1 Ge1 96.30(4) 7_465 .
O4 Na1 Ge1 96.30(4) 2_675 7_465
O4 Na1 Ge1 149.76(4) 2_675 .
O4 Na1 Ge1 32.22(4) . .
O4 Na1 Ge1 32.22(4) 7_465 7_465
O4 Na1 F1 59.69(4) 2_675 1_554
O4 Na1 F1 120.31(4) 8_655 1_554
O4 Na1 F1 120.31(4) 2_675 .
O4 Na1 F1 120.31(4) 7_465 1_554
O4 Na1 F1 59.69(4) . 1_554
O4 Na1 F1 59.69(4) 7_465 .
O4 Na1 F1 120.31(4) . .
O4 Na1 F1 59.69(4) 8_655 .
O4 Na1 O4 104.76(3) 7_465 .
O4 Na1 O4 104.76(3) 8_655 .
O4 Na1 O4 104.76(3) 7_465 2_675
O4 Na1 O4 119.38(7) 2_675 .
O4 Na1 O4 104.76(3) 8_655 2_675
O4 Na1 O4 119.38(7) 8_655 7_465
O4 Na1 O1 175.38(6) 8_655 7_465
O4 Na1 O1 61.11(5) 2_675 2_675
O4 Na1 O1 61.11(5) 8_655 8_655
O4 Na1 O1 61.11(5) 7_465 7_465
O4 Na1 O1 70.97(5) 7_465 .
O4 Na1 O1 70.97(5) 2_675 7_465
O4 Na1 O1 61.11(5) . .
O4 Na1 O1 79.19(6) . 7_465
O4 Na1 O1 175.38(6) . 2_675
O4 Na1 O1 79.19(6) 2_675 8_655
O4 Na1 O1 175.38(6) 2_675 .
O4 Na1 O1 79.19(6) 8_655 .
O4 Na1 O1 175.38(6) 7_465 8_655
O4 Na1 O1 70.97(5) 8_655 2_675
O4 Na1 O1 70.97(5) . 8_655
O4 Na1 O1 79.19(6) 7_465 2_675
O1 Na1 Ge1 79.15(4) . 7_465
O1 Na1 Ge1 79.15(4) 8_655 .
O1 Na1 Ge1 101.90(4) 2_675 7_465
O1 Na1 Ge1 145.98(3) 2_675 .
O1 Na1 Ge1 32.13(3) . .
O1 Na1 Ge1 32.13(3) 7_465 7_465
O1 Na1 Ge1 101.90(4) 7_465 .
O1 Na1 Ge1 145.98(3) 8_655 7_465
O1 Na1 O1 105.01(3) 2_675 8_655
O1 Na1 O1 118.83(7) 7_465 8_655
O1 Na1 O1 118.83(7) 2_675 .
O1 Na1 O1 105.01(3) 7_465 2_675
O1 Na1 O1 105.01(3) 7_465 .
O1 Na1 O1 105.01(3) 8_655 .
Pr1 F1 Pr1 90.1 . 8_656
Pr1 F1 Pr1 90.1 . 7_466
Pr1 F1 Pr1 90.1 2_675 7_466
Pr1 F1 Pr1 90.1 2_675 8_656
Pr1 F1 Pr1 174.137(5) . 2_675
Pr1 F1 Pr1 174.137(5) 8_656 7_466
Pr1 F1 Na1 87.069(2) 2_675 1_556
Pr1 F1 Na1 87.069(2) . 1_556
Pr1 F1 Na1 87.069(2) 7_466 .
Pr1 F1 Na1 92.931(2) 8_656 1_556
Pr1 F1 Na1 87.069(2) 8_656 .
Pr1 F1 Na1 92.931(2) 7_466 1_556
Pr1 F1 Na1 92.931(2) . .
Pr1 F1 Na1 92.931(2) 2_675 .
Na1 F1 Na1 180.0 1_556 .
Pr1 O2 Na2 95.78(6) 3_566 4_655
Pr1 O2 Na2 175.13(8) 3_566 2_665
Ge1 O2 Pr1 89.94(6) . 3_566
Ge1 O2 Na2 170.97(11) . .
Ge1 O2 Na2 94.18(7) . 2_665
Ge1 O2 Na2 98.57(8) . 4_655
Na2 O2 Pr1 92.19(6) . 3_566
Na2 O2 Na2 86.17(7) 2_665 4_655
Na2 O2 Na2 89.95(7) . 4_655
Na2 O2 Na2 83.34(6) . 2_665
Pr1 O4 Pr1 99.00(6) 1_554 8_655
Pr1 O4 Na1 97.89(7) 1_554 .
Pr1 O4 Na1 103.28(7) 8_655 .
Ge1 O4 Pr1 114.63(9) . 8_655
Ge1 O4 Pr1 139.64(10) . 1_554
Ge1 O4 Na1 95.50(7) . .
Pr1 O1 Pr1 101.74(7) . 8_656
Pr1 O1 Na2 88.38(7) 8_656 4_656
Pr1 O1 Na2 89.36(7) . 4_656
Pr1 O1 Na1 94.45(6) . .
Pr1 O1 Na1 86.46(6) 8_656 .
Ge1 O1 Pr1 100.22(8) . 8_656
Ge1 O1 Pr1 157.28(11) . .
Ge1 O1 Na2 97.02(9) . 4_656
Ge1 O1 Na1 81.14(7) . .
Na2 O1 Na1 174.12(8) 4_656 .
Pr1 O3 Pr1 131.53(7) 3_566 8_656
Ge1 O3 Pr1 93.27(7) . 8_656
Ge1 O3 Pr1 92.85(7) . 3_566
Ge1 O3 Na2 157.54(10) . 7_565
Na2 O3 Pr1 94.57(6) 7_565 3_566
Na2 O3 Pr1 97.55(6) 7_565 8_656
loop_
_geom_bond_atom_site_label_1
_geom_bond_atom_site_label_2
_geom_bond_distance
_geom_bond_site_symmetry_2
Pr1 Ge1 3.0951(3) 4_656
Pr1 Ge1 3.2452(3) 7_466
Pr1 Na2 3.6001(10) 5_455
Pr1 Na2 3.5651(10) 4_656
Pr1 F1 2.61981(14) .
Pr1 O2 2.5566(16) 4_656
Pr1 O4 2.4700(17) 7_465
Pr1 O4 2.4086(17) 1_556
Pr1 O1 2.3403(19) .
Pr1 O1 2.4415(19) 7_466
Pr1 O3 2.6210(17) 7_466
Pr1 O3 2.4528(17) 4_656
Ge1 Pr1 3.2451(3) 8_656
Ge1 Pr1 3.0951(3) 3_566
Ge1 Na2 3.3277(13) 4_655
Ge1 Na2 3.4044(13) 4_656
Ge1 Na2 3.2073(10) 2_665
Ge1 Na1 3.2472(2) .
Ge1 O2 1.7470(16) .
Ge1 O4 1.7391(17) .
Ge1 O1 1.7479(18) .
Ge1 O3 1.7695(16) .
Na2 Pr1 3.5651(10) 3_566
Na2 Ge1 3.4044(13) 3_566
Na2 Ge1 3.2073(10) 2_665
Na2 Ge1 3.3276(13) 3_565
Na2 Na2 3.297(2) 2_665
Na2 Na2 3.517(2) 4_655
Na2 Na2 3.517(2) 3_565
Na2 O2 2.3890(18) .
Na2 O2 2.584(2) 3_565
Na2 O2 2.5654(19) 2_665
Na2 O1 2.715(2) 3_566
Na2 O3 2.4470(18) 8_645
Na1 Ge1 3.2472(2) 7_465
Na1 F1 2.83975(11) .
Na1 F1 2.83975(10) 1_554
Na1 O4 2.581(2) 8_655
Na1 O4 2.581(2) .
Na1 O4 2.581(2) 2_675
Na1 O4 2.581(2) 7_465
Na1 O1 3.019(2) 7_465
Na1 O1 3.019(2) 2_675
Na1 O1 3.019(2) .
Na1 O1 3.019(2) 8_655
F1 Pr1 2.61981(14) 2_675
F1 Pr1 2.61981(14) 8_656
F1 Pr1 2.61981(14) 7_466
F1 Na1 2.83975(9) 1_556
O2 Pr1 2.5566(16) 3_566
O2 Na2 2.5654(19) 2_665
O2 Na2 2.584(2) 4_655
O4 Pr1 2.4086(17) 1_554
O4 Pr1 2.4700(17) 8_655
O1 Pr1 2.4415(19) 8_656
O1 Na2 2.715(2) 4_656
O3 Pr1 2.6210(17) 8_656
O3 Pr1 2.4528(17) 3_566
O3 Na2 2.4470(18) 7_565
loop_
_geom_torsion_atom_site_label_1
_geom_torsion_atom_site_label_2
_geom_torsion_atom_site_label_3
_geom_torsion_atom_site_label_4
_geom_torsion
_geom_torsion_site_symmetry_1
_geom_torsion_site_symmetry_2
_geom_torsion_site_symmetry_3
_geom_torsion_site_symmetry_4
Pr1 Ge1 O2 Pr1 -66.65(7) 8_656 . . 3_566
Pr1 Ge1 O2 Na2 110.76(6) 8_656 . . 2_665
Pr1 Ge1 O2 Na2 -162.49(3) 8_656 . . 4_655
Pr1 Ge1 O2 Na2 177.41(9) 3_566 . . 2_665
Pr1 Ge1 O2 Na2 -95.84(7) 3_566 . . 4_655
Pr1 Ge1 O4 Pr1 114.00(13) 3_566 . . 1_554
Pr1 Ge1 O4 Pr1 88.90(9) 8_656 . . 8_655
Pr1 Ge1 O4 Pr1 -29.62(12) 3_566 . . 8_655
Pr1 Ge1 O4 Pr1 -127.48(13) 8_656 . . 1_554
Pr1 Ge1 O4 Na1 -136.96(4) 3_566 . . .
Pr1 Ge1 O4 Na1 -18.44(8) 8_656 . . .
Pr1 Ge1 O1 Pr1 165.0(3) 8_656 . . .
Pr1 Ge1 O1 Pr1 57.11(9) 3_566 . . 8_656
Pr1 Ge1 O1 Pr1 -137.9(3) 3_566 . . .
Pr1 Ge1 O1 Na2 -32.50(9) 3_566 . . 4_656
Pr1 Ge1 O1 Na2 -89.62(8) 8_656 . . 4_656
Pr1 Ge1 O1 Na1 84.74(6) 8_656 . . .
Pr1 Ge1 O1 Na1 141.86(3) 3_566 . . .
Pr1 Ge1 O3 Pr1 -131.90(7) 3_566 . . 8_656
Pr1 Ge1 O3 Pr1 131.90(7) 8_656 . . 3_566
Pr1 Ge1 O3 Na2 -118.9(3) 8_656 . . 7_565
Pr1 Ge1 O3 Na2 109.2(3) 3_566 . . 7_565
Na2 Ge1 O2 Pr1 95.84(7) 4_655 . . 3_566
Na2 Ge1 O2 Pr1 -177.41(9) 2_665 . . 3_566
Na2 Ge1 O2 Pr1 -93.59(5) 4_656 . . 3_566
Na2 Ge1 O2 Na2 86.75(7) 2_665 . . 4_655
Na2 Ge1 O2 Na2 83.82(6) 4_656 . . 2_665
Na2 Ge1 O2 Na2 170.57(8) 4_656 . . 4_655
Na2 Ge1 O2 Na2 -86.75(7) 4_655 . . 2_665
Na2 Ge1 O4 Pr1 -30.1(3) 4_656 . . 1_554
Na2 Ge1 O4 Pr1 -140.21(9) 2_665 . . 8_655
Na2 Ge1 O4 Pr1 -173.75(7) 4_656 . . 8_655
Na2 Ge1 O4 Pr1 -76.57(8) 4_655 . . 8_655
Na2 Ge1 O4 Pr1 67.05(14) 4_655 . . 1_554
Na2 Ge1 O4 Pr1 3.41(15) 2_665 . . 1_554
Na2 Ge1 O4 Na1 112.45(5) 2_665 . . .
Na2 Ge1 O4 Na1 176.09(8) 4_655 . . .
Na2 Ge1 O4 Na1 78.91(16) 4_656 . . .
Na2 Ge1 O1 Pr1 -105.4(3) 4_656 . . .
Na2 Ge1 O1 Pr1 -25.1(4) 4_655 . . .
Na2 Ge1 O1 Pr1 89.62(8) 4_656 . . 8_656
Na2 Ge1 O1 Pr1 -32.0(3) 2_665 . . .
Na2 Ge1 O1 Pr1 162.96(7) 2_665 . . 8_656
Na2 Ge1 O1 Pr1 169.87(5) 4_655 . . 8_656
Na2 Ge1 O1 Na2 80.26(12) 4_655 . . 4_656
Na2 Ge1 O1 Na2 73.34(6) 2_665 . . 4_656
Na2 Ge1 O1 Na1 -105.38(10) 4_655 . . .
Na2 Ge1 O1 Na1 174.36(8) 4_656 . . .
Na2 Ge1 O1 Na1 -112.30(4) 2_665 . . .
Na2 Ge1 O3 Pr1 -43.59(6) 4_655 . . 3_566
Na2 Ge1 O3 Pr1 35.23(18) 2_665 . . 3_566
Na2 Ge1 O3 Pr1 -57.22(5) 4_656 . . 8_656
Na2 Ge1 O3 Pr1 74.67(5) 4_656 . . 3_566
Na2 Ge1 O3 Pr1 -175.49(3) 4_655 . . 8_656
Na2 Ge1 O3 Pr1 -96.66(15) 2_665 . . 8_656
Na2 Ge1 O3 Na2 -176.1(2) 4_656 . . 7_565
Na2 Ge1 O3 Na2 65.6(3) 4_655 . . 7_565
Na2 Ge1 O3 Na2 144.46(16) 2_665 . . 7_565
Na1 Ge1 O2 Pr1 159.85(11) . . . 3_566
Na1 Ge1 O2 Na2 64.01(17) . . . 4_655
Na1 Ge1 O2 Na2 -22.74(19) . . . 2_665
Na1 Ge1 O4 Pr1 107.34(11) . . . 8_655
Na1 Ge1 O4 Pr1 -109.04(17) . . . 1_554
Na1 Ge1 O1 Pr1 -84.74(6) . . . 8_656
Na1 Ge1 O1 Pr1 80.3(3) . . . .
Na1 Ge1 O1 Na2 -174.36(8) . . . 4_656
Na1 Ge1 O3 Pr1 61.96(4) . . . 8_656
Na1 Ge1 O3 Pr1 -166.15(4) . . . 3_566
Na1 Ge1 O3 Na2 -56.9(2) . . . 7_565
O2 Ge1 O4 Pr1 -92.61(10) . . . 8_655
O2 Ge1 O4 Pr1 51.00(17) . . . 1_554
O2 Ge1 O4 Na1 160.05(6) . . . .
O2 Ge1 O1 Pr1 -75.5(3) . . . .
O2 Ge1 O1 Pr1 119.53(8) . . . 8_656
O2 Ge1 O1 Na2 29.91(10) . . . 4_656
O2 Ge1 O1 Na1 -155.73(6) . . . .
O2 Ge1 O3 Pr1 9.71(9) . . . 3_566
O2 Ge1 O3 Pr1 -122.19(7) . . . 8_656
O2 Ge1 O3 Na2 118.9(2) . . . 7_565
O4 Ge1 O2 Pr1 114.95(8) . . . 3_566
O4 Ge1 O2 Na2 -67.64(9) . . . 2_665
O4 Ge1 O2 Na2 19.11(10) . . . 4_655
O4 Ge1 O1 Pr1 51.5(3) . . . .
O4 Ge1 O1 Pr1 -113.50(9) . . . 8_656
O4 Ge1 O1 Na2 156.88(8) . . . 4_656
O4 Ge1 O1 Na1 -28.76(9) . . . .
O4 Ge1 O3 Pr1 -115.09(8) . . . 3_566
O4 Ge1 O3 Pr1 113.01(8) . . . 8_656
O4 Ge1 O3 Na2 -5.9(3) . . . 7_565
O1 Ge1 O2 Pr1 -119.30(8) . . . 3_566
O1 Ge1 O2 Na2 144.86(8) . . . 4_655
O1 Ge1 O2 Na2 58.11(10) . . . 2_665
O1 Ge1 O4 Pr1 -75.08(18) . . . 1_554
O1 Ge1 O4 Pr1 141.31(9) . . . 8_655
O1 Ge1 O4 Na1 33.97(10) . . . .
O1 Ge1 O3 Pr1 126.64(8) . . . 3_566
O1 Ge1 O3 Pr1 -5.25(9) . . . 8_656
O1 Ge1 O3 Na2 -124.1(2) . . . 7_565
O3 Ge1 O2 Pr1 -9.30(9) . . . 3_566
O3 Ge1 O2 Na2 -105.14(8) . . . 4_655
O3 Ge1 O2 Na2 168.11(7) . . . 2_665
O3 Ge1 O4 Pr1 28.90(12) . . . 8_655
O3 Ge1 O4 Pr1 172.52(14) . . . 1_554
O3 Ge1 O4 Na1 -78.44(8) . . . .
O3 Ge1 O1 Pr1 5.72(10) . . . 8_656
O3 Ge1 O1 Pr1 170.7(3) . . . .
O3 Ge1 O1 Na2 -83.89(8) . . . 4_656
O3 Ge1 O1 Na1 90.47(6) . . . .
loop_
_twin_individual_id
_twin_individual_mass_fraction_refined
1 0.961(12)
2 0.039(12)
