#------------------------------------------------------------------------------
#$Date: 2021-04-13 10:37:08 +0300 (Tue, 13 Apr 2021) $
#$Revision: 264073 $
#$URL: file:///home/coder/svn-repositories/cod/cif/1/56/16/1561673.cif $
#------------------------------------------------------------------------------
#
# This file is available in the Crystallography Open Database (COD),
# http://www.crystallography.net/
#
# All data on this site have been placed in the public domain by the
# contributors.
#
data_1561673
loop_
_publ_author_name
'Childs, Amanda B.'
'Baranets, Sviatoslav'
'Bobev, Svilen'
_publ_section_title
;
 Five new ternary indium-arsenides discovered. Synthesis and structural
 characterization of the Zintl phases Sr3In2As4, Ba3In2As4, Eu3In2As4,
 Sr5In2As6 and Eu5In2As6
;
_journal_name_full               'Journal of Solid State Chemistry'
_journal_page_first              120889
_journal_paper_doi               10.1016/j.jssc.2019.07.050
_journal_volume                  278
_journal_year                    2019
_chemical_formula_sum            'As4 Ba3 In2'
_chemical_formula_weight         941.34
_space_group_crystal_system      monoclinic
_space_group_IT_number           15
_space_group_name_Hall           '-C 2yc'
_space_group_name_H-M_alt        'C 1 2/c 1'
_atom_sites_solution_hydrogens   .
_atom_sites_solution_primary     dual
_cell_angle_alpha                90
_cell_angle_beta                 90.246(2)
_cell_angle_gamma                90
_cell_formula_units_Z            4
_cell_length_a                   14.316(2)
_cell_length_b                   11.1307(16)
_cell_length_c                   7.2093(10)
_cell_measurement_reflns_used    4065
_cell_measurement_temperature    200(2)
_cell_measurement_theta_max      30.40
_cell_measurement_theta_min      2.32
_cell_volume                     1148.8(3)
_computing_cell_refinement       'SAINT V8.38A (Bruker, 2016)'
_computing_data_collection       'Bruker APEX-II'
_computing_data_reduction        'SAINT V8.38A (Bruker, 2016)'
_computing_molecular_graphics    'Olex2 (Dolomanov et al., 2009)'
_computing_publication_material  'Olex2 (Dolomanov et al., 2009)'
_computing_structure_refinement  'ShelXL (Sheldrick, 2015)'
_computing_structure_solution    'ShelXT (Sheldrick, 2015)'
_diffrn_ambient_temperature      200.0
_diffrn_measured_fraction_theta_full 1.000
_diffrn_measured_fraction_theta_max 0.977
_diffrn_measurement_device_type  'Bruker APEX-II CCD'
_diffrn_measurement_method       '\f and \w scans'
_diffrn_radiation_type           MoK\a
_diffrn_radiation_wavelength     0.71073
_diffrn_reflns_av_R_equivalents  0.0250
_diffrn_reflns_av_unetI/netI     0.0193
_diffrn_reflns_Laue_measured_fraction_full 1.000
_diffrn_reflns_Laue_measured_fraction_max 0.977
_diffrn_reflns_limit_h_max       20
_diffrn_reflns_limit_h_min       -19
_diffrn_reflns_limit_k_max       15
_diffrn_reflns_limit_k_min       -15
_diffrn_reflns_limit_l_max       10
_diffrn_reflns_limit_l_min       -10
_diffrn_reflns_number            8713
_diffrn_reflns_point_group_measured_fraction_full 1.000
_diffrn_reflns_point_group_measured_fraction_max 0.977
_diffrn_reflns_theta_full        25.242
_diffrn_reflns_theta_max         30.502
_diffrn_reflns_theta_min         2.318
_diffrn_standards_number         0
_exptl_absorpt_coefficient_mu    25.451
_exptl_absorpt_correction_T_max  0.2538
_exptl_absorpt_correction_T_min  0.1490
_exptl_absorpt_correction_type   multi-scan
_exptl_absorpt_process_details
;
SADABS-2016/2 (Bruker,2016/2) was used for absorption correction.
wR2(int) was 0.1128 before and 0.0387 after correction.
The Ratio of minimum to maximum transmission is 0.5871.
The \l/2 correction factor is Not present.
;
_exptl_crystal_colour            grey
_exptl_crystal_density_diffrn    5.443
_exptl_crystal_description       irregular
_exptl_crystal_F_000             1592
_exptl_crystal_size_max          0.084
_exptl_crystal_size_mid          0.083
_exptl_crystal_size_min          0.041
_refine_diff_density_max         1.017
_refine_diff_density_min         -0.756
_refine_diff_density_rms         0.194
_refine_ls_extinction_coef       0.00101(3)
_refine_ls_extinction_expression Fc^*^=kFc[1+0.001xFc^2^\l^3^/sin(2\q)]^-1/4^
_refine_ls_extinction_method     'SHELXL-2018/3 (Sheldrick 2018)'
_refine_ls_goodness_of_fit_ref   1.019
_refine_ls_hydrogen_treatment    undef
_refine_ls_matrix_type           full
_refine_ls_number_parameters     43
_refine_ls_number_reflns         1713
_refine_ls_number_restraints     0
_refine_ls_restrained_S_all      1.019
_refine_ls_R_factor_all          0.0193
_refine_ls_R_factor_gt           0.0162
_refine_ls_shift/su_max          0.001
_refine_ls_shift/su_mean         0.000
_refine_ls_structure_factor_coef Fsqd
_refine_ls_weighting_details
'w=1/[\s^2^(Fo^2^)+(0.0150P)^2^+1.7860P] where P=(Fo^2^+2Fc^2^)/3'
_refine_ls_weighting_scheme      calc
_refine_ls_wR_factor_gt          0.0324
_refine_ls_wR_factor_ref         0.0334
_reflns_Friedel_coverage         0.000
_reflns_Friedel_fraction_full    .
_reflns_Friedel_fraction_max     .
_reflns_number_gt                1561
_reflns_number_total             1713
_reflns_threshold_expression     'I > 2\s(I)'
_cod_data_source_file            yjssc_20889_Ba3In2As4_mmc2.cif
_cod_data_source_block           Ba3In2As4
_cod_original_cell_volume        1148.7(3)
_cod_database_code               1561673
_shelx_space_group_comment
;
The symmetry employed for this shelxl refinement is uniquely defined
by the following loop, which should always be used as a source of
symmetry information in preference to the above space-group names.
They are only intended as comments.
;
_shelx_estimated_absorpt_t_max   0.422
_shelx_estimated_absorpt_t_min   0.224
_olex2_refinement_description
;
;
_shelx_res_file
;
TITL svib1020shelx_a.res in C2/c
CELL 0.71073 14.3155 11.1307 7.2093 90 90.246 90
ZERR 4 0.0021 0.0016 0.001 0 0.002 0
LATT 7
SYMM -X,+Y,0.5-Z
SFAC As Ba In
UNIT 16 12 8

L.S. 20
PLAN  20
TEMP -73.15
list 4
fmap 2 53
ACTA


WGHT    0.015000    1.786000
EXTI    0.001010
FVAR       0.12483
BA2   2    0.000000    0.401926    0.250000    10.50000    0.00989    0.01183 =
         0.00937    0.00000    0.00058    0.00000
BA1   2    0.376764    0.371557    0.041812    11.00000    0.01121    0.00954 =
         0.01755    0.00014   -0.00101    0.00011
IN    3    0.296134    0.122930    0.417154    11.00000    0.00948    0.00852 =
         0.01010   -0.00005    0.00047    0.00021
AS1   1    0.114000    0.173524    0.471361    11.00000    0.00885    0.00890 =
         0.01346   -0.00036   -0.00008   -0.00013
AS2   1    0.343214    0.087180    0.066699    11.00000    0.01049    0.00831 =
         0.00971   -0.00075    0.00136   -0.00011
HKLF 4


END

WGHT      0.0150      1.7860

REM Highest difference peak  1.017,  deepest hole -0.756,  1-sigma level  0.194
Q1    1   0.3427  0.4203  0.0804  11.00000  0.05    1.02
Q2    1   0.0358  0.4616  0.2155  11.00000  0.05    0.77
Q3    1   0.4360  0.3388  0.0546  11.00000  0.05    0.76
Q4    1   0.3363  0.3136  0.0354  11.00000  0.05    0.75
Q5    1   0.3384  0.0678  0.3997  11.00000  0.05    0.74
Q6    1   0.3632  0.5205 -0.0302  11.00000  0.05    0.71
Q7    1  -0.0605  0.3755  0.2459  11.00000  0.05    0.71
Q8    1   0.2756  0.2390  0.5490  11.00000  0.05    0.69
Q9    1   0.0780  0.1255  0.4738  11.00000  0.05    0.68
Q10   1   0.3412  0.1655  0.4423  11.00000  0.05    0.68
Q11   1   0.2873  0.0419  0.3575  11.00000  0.05    0.68
Q12   1   0.3732  0.4218 -0.0402  11.00000  0.05    0.68
Q13   1   0.3590  0.1555  0.0110  11.00000  0.05    0.64
Q14   1   0.3612  0.3171 -0.2015  11.00000  0.05    0.62
Q15   1  -0.0243  0.3377  0.2822  11.00000  0.05    0.61
Q16   1   0.2436  0.2426  0.3283  11.00000  0.05    0.61
Q17   1   0.0000  0.3234  0.2500  10.50000  0.05    0.61
Q18   1   0.3819  0.3034 -0.0455  11.00000  0.05    0.61
Q19   1   0.4986  0.4814  0.0603  11.00000  0.05    0.60
Q20   1   0.3008  0.0431  0.0287  11.00000  0.05    0.60
;
_shelx_res_checksum              11465
_shelx_hkl_file
;
  -2   0   0  360.06    7.00
   2   0   0  361.56    7.60
   2   0   0  366.56    5.40
   2   0   0  367.56    7.40
  -2   0   0  368.06    5.40
  -4   0   0 2625.34   34.20
   4   0   0 2539.65   36.50
   4   0   0 2547.45   35.70
  -4   0   0 2617.24   29.90
   6   0   0 1316.17   25.40
   6   0   0 1379.86   26.60
  -6   0   0 1352.06   19.00
  -6   0   0 1358.06   24.30
   8   0   0 2433.96   43.30
   8   0   0 2398.66   41.20
  -8   0   0 2396.26   39.40
  -8   0   0 2424.96   31.90
  10   0   0 1685.23   37.70
 -10   0   0 1727.33   34.50
 -10   0   0 1663.43   25.60
  10   0   0 1651.03   35.00
  12   0   0 1273.47   32.00
  12   0   0 1236.88   35.50
  14   0   0  211.38   13.80
  14   0   0  195.18   15.20
 -14   0   0  211.18   13.90
  16   0   0  545.55   27.10
  16   0   0  548.05   23.30
 -16   0   0  532.65   23.40
 -18   0   0  417.36   22.40
  18   0   0  399.06   25.20
  20   0   0   88.89   16.00
  -1  -1   0   85.19    2.10
  -1  -1   0   93.59    3.70
  -1  -1   0   80.39    2.30
   1  -1   0   99.19    3.70
   1  -1   0   80.29    2.20
   1  -1   0   81.49    2.70
  -1   1   0   84.79    2.70
   1   1   0   82.19    2.00
  -1   1   0   81.59    2.10
  -1   1   0   85.99    3.80
  -3  -1   0    8.60    1.00
   3  -1   0    5.80    1.80
   3  -1   0    6.80    2.30
  -3  -1   0    6.90    1.50
  -3   1   0    6.90    1.60
   3   1   0    8.00    0.80
  -3   1   0    6.50    1.50
   3   1   0    7.70    1.70
   3   1   0    5.00    2.10
   5  -1   0 5284.67   68.49
  -5  -1   0 5658.83   66.69
   5  -1   0 5282.87   69.49
  -5  -1   0 5514.25   59.09
  -5   1   0 5619.44   62.59
   5   1   0 5549.54   66.89
  -5   1   0 5620.64   66.09
   5   1   0 5348.47   70.39
  -7  -1   0  120.79    4.10
   7  -1   0  109.89    7.10
   7  -1   0  137.39    8.50
  -7  -1   0  108.19    6.60
  -7   1   0  122.49    5.40
   7   1   0  116.19    7.20
   7   1   0  115.99    8.20
  -9  -1   0  305.57   12.60
   9  -1   0  307.57   14.50
   9  -1   0  317.07   13.50
  -9  -1   0  314.77    7.80
   9   1   0  348.37   15.60
   9   1   0  336.07   13.70
  -9   1   0  285.47    9.00
  -9   1   0  295.07   12.20
  11  -1   0  565.14   22.00
  11  -1   0  556.04   19.70
 -11  -1   0  530.75   18.60
 -11   1   0  549.15   14.20
  11   1   0  579.74   22.30
  11   1   0  544.75   19.70
 -11   1   0  559.74   18.70
  13  -1   0 1248.98   32.70
 -13  -1   0 1222.98   32.70
  13  -1   0 1274.67   36.80
 -13   1   0 1212.68   31.90
  13   1   0 1268.67   33.20
  13   1   0 1252.47   37.00
  15  -1   0   80.79   12.40
 -15  -1   0   74.69   10.30
  15  -1   0   77.89   10.60
  15   1   0   81.59   13.10
  15   1   0   62.89    9.90
 -15   1   0   55.99    8.80
 -17  -1   0  571.24   25.60
  17  -1   0  587.64   29.10
 -17   1   0  613.44   26.00
  17   1   0  662.83   31.20
  19  -1   0  691.83   33.70
 -19  -1   0  679.23   29.80
 -19   1   0  668.33   29.50
  19   1   0  691.53   33.70
   0  -2   0   40.50    4.20
   0  -2   0   26.80    2.40
   0   2   0   19.00    0.90
   0   2   0   21.20    2.00
   0   2   0   21.20    1.10
  -2  -2   0    4.60    2.20
  -2  -2   0    0.80    0.90
   2  -2   0    4.60    1.50
   2  -2   0    6.30    2.60
  -2   2   0    1.60    0.90
   2   2   0    3.50    1.30
   2   2   0    1.40    0.80
  -2   2   0    1.20    1.20
  -4  -2   0  283.07   10.30
   4  -2   0  298.97   10.20
  -4  -2   0  265.77    8.20
   4  -2   0  271.57    8.40
  -4   2   0  277.77    7.70
  -4   2   0  271.97    7.70
   4   2   0  250.37    8.00
   4   2   0  274.17    4.70
   4   2   0  264.07    4.90
  -6  -2   0  501.35   13.70
   6  -2   0  528.05   16.00
  -6  -2   0  526.95    7.90
   6  -2   0  510.55   14.00
   6   2   0  511.15    7.20
  -6   2   0  494.15   12.70
   6   2   0  522.45   13.90
   6   2   0  558.34   17.10
  -6   2   0  517.15   12.30
  -8  -2   0   47.90    5.60
  -8  -2   0   52.79    2.60
   8  -2   0   55.79    6.30
   8  -2   0   47.90    7.00
   8   2   0   61.19    6.60
  -8   2   0   51.79    4.90
  -8   2   0   54.19    6.00
   8   2   0   57.39    7.60
  10  -2   0   81.79    8.80
 -10  -2   0   70.89    7.50
  10  -2   0   95.49   10.70
  10   2   0   77.59    8.50
 -10   2   0   81.89    5.80
  10   2   0   76.99    9.80
 -10   2   0   74.89    7.90
  12  -2   0  291.67   14.50
  12  -2   0  265.97   16.10
 -12  -2   0  281.47   14.50
 -12   2   0  309.37   11.70
  12   2   0  291.77   15.30
  12   2   0  293.87   17.00
 -12   2   0  311.07   14.60
 -14  -2   0  191.38   13.20
  14  -2   0  198.58   15.60
  14  -2   0  198.68   12.80
  14   2   0  166.58   17.00
 -14   2   0  168.58   12.40
  14   2   0  200.08   13.90
 -16  -2   0   40.10    8.70
  16  -2   0   28.10    8.10
  16   2   0   35.60    8.10
 -16   2   0   38.20    7.70
  16   2   0   24.20    7.90
  18  -2   0   -1.00    5.80
 -18  -2   0   -0.30    3.70
  18   2   0    3.20    5.10
 -18   2   0    0.60    4.20
  20  -2   0   62.99   13.60
  20   2   0   49.10   14.20
  -1  -3   0  925.91   19.60
  -1  -3   0  941.81   12.80
   1  -3   0  934.41   11.90
   1  -3   0  957.20   20.10
  -1   3   0  949.31   16.00
   1   3   0  958.20   16.30
  -1   3   0  936.91   11.60
   1   3   0  938.71   14.80
   3  -3   0  452.15   11.10
  -3  -3   0  484.75   14.20
   3  -3   0  457.75   14.00
  -3  -3   0  473.35   10.20
  -3   3   0  464.15    9.00
   3   3   0  452.25    8.20
   3   3   0  460.75   11.20
  -3   3   0  458.25   11.10
  -5  -3   0 4869.11   59.79
   5  -3   0 4701.03   60.89
   5  -3   0 4578.14   65.99
  -5  -3   0 4610.14   66.09
  -5   3   0 4781.62   59.49
   5   3   0 4771.82   51.59
  -5   3   0 4823.32   57.99
   5   3   0 4913.31   60.69
   7  -3   0 1369.86   26.80
  -7  -3   0 1300.57   25.70
   7  -3   0 1367.66   30.60
   7   3   0 1379.16   31.40
  -7   3   0 1365.16   25.10
   7   3   0 1370.56   15.90
  -7   3   0 1375.06   24.90
   7   3   0 1406.26   26.90
   9  -3   0  621.44   21.80
  -9  -3   0  557.74   17.80
   9  -3   0  617.54   18.20
   9   3   0  616.14   18.50
   9   3   0  615.14   22.20
  -9   3   0  631.04   17.60
  -9   3   0  603.24   16.20
  11  -3   0  344.97   14.70
 -11  -3   0  321.07   14.80
  11  -3   0  339.77   17.80
  11   3   0  331.77   15.10
  11   3   0  319.27   17.60
 -11   3   0  315.17   12.30
 -11   3   0  346.17   14.30
 -13  -3   0  671.03   23.60
  13  -3   0  635.24   26.40
  13  -3   0  710.23   23.00
 -13   3   0  630.74   21.90
 -13   3   0  662.73   19.60
  13   3   0  615.84   23.00
  13   3   0  703.43   28.30
  15  -3   0   55.59    8.60
 -15  -3   0   62.69   10.00
  15  -3   0   63.29   11.40
  15   3   0   72.49   12.50
 -15   3   0   56.89    9.00
  15   3   0   73.19   10.90
  17  -3   0  961.80   37.60
 -17  -3   0  967.90   33.80
 -17   3   0  887.41   31.40
  17   3   0  920.41   37.30
  19  -3   0  168.38   20.10
 -19  -3   0  148.89   17.00
 -19   3   0  161.28   17.50
  19   3   0  139.79   19.90
   0  -4   0 9680.23  118.79
   0  -4   0 9999.00  110.69
   0   4   0 9716.53  105.49
   0   4   0 9951.70  109.29
   0   4   0 9938.41  105.09
   2  -4   0  339.17   13.30
  -2  -4   0  361.26   13.30
  -2  -4   0  348.57    7.70
   2  -4   0  362.76   10.30
  -2   4   0  357.86   10.20
   2   4   0  358.66    8.50
  -2   4   0  359.76    6.30
  -4  -4   0  815.02   15.70
   4  -4   0  790.42   17.20
  -4  -4   0  792.52   21.40
   4  -4   0  762.42   21.10
   4   4   0  791.12   17.40
  -4   4   0  784.82   17.20
   4   4   0  786.32   12.90
  -4   4   0  800.72   13.90
  -6  -4   0  710.03   21.50
  -6  -4   0  684.53   16.70
   6  -4   0  688.13   17.20
   6  -4   0  679.33   20.80
   6   4   0  672.83   10.60
   6   4   0  675.73   17.20
  -6   4   0  681.43   16.80
  -6   4   0  696.43   14.90
   8  -4   0 1031.80   28.30
  -8  -4   0  979.70   23.20
   8  -4   0 1014.10   23.60
  -8   4   0  975.50   21.20
  -8   4   0  993.30   22.40
   8   4   0 1005.70   28.60
   8   4   0  994.70   23.70
  10  -4   0 1136.59   32.70
 -10  -4   0 1116.09   27.80
  10  -4   0 1161.78   27.30
  10   4   0 1133.19   28.30
 -10   4   0 1151.18   26.40
  10   4   0 1184.88   34.10
 -10   4   0 1149.08   25.70
  12  -4   0 1129.59   34.90
 -12  -4   0 1088.89   29.70
  12  -4   0 1099.09   28.60
 -12   4   0 1064.19   26.20
  12   4   0 1142.59   30.50
  12   4   0 1018.40   34.20
 -12   4   0 1152.68   28.20
 -14  -4   0  234.28   14.80
  14  -4   0  279.07   18.90
  14  -4   0  257.57   14.30
  14   4   0  255.97   18.10
 -14   4   0  271.87   13.80
  14   4   0  293.47   16.60
 -14   4   0  255.57   14.70
  16  -4   0  508.65   26.70
 -16  -4   0  455.15   22.30
 -16   4   0  444.76   20.60
  16   4   0  439.86   25.40
  16   4   0  447.16   22.40
 -18  -4   0   76.99   12.30
  18  -4   0   69.99   13.50
 -18   4   0   76.49   11.90
  18   4   0   76.89   14.20
   1  -5   0 1134.29   21.80
  -1  -5   0 1160.08   27.20
   1  -5   0 1117.39   27.10
  -1  -5   0 1170.48   16.00
   1   5   0 1126.09   20.10
   1   5   0 1152.88   22.10
  -1   5   0 1162.68   21.30
  -3  -5   0  180.28    6.20
   3  -5   0  164.78   10.50
   3  -5   0  174.98    8.00
  -3  -5   0  172.98   10.20
   3   5   0  177.98    6.30
  -3   5   0  177.18    4.70
  -3   5   0  180.58    8.10
   3   5   0  177.88    8.20
   5  -5   0 2276.37   44.50
  -5  -5   0 2339.17   34.70
  -5  -5   0 2231.38   43.90
   5  -5   0 2365.36   37.60
   5   5   0 2336.37   30.30
   5   5   0 2345.87   38.00
  -5   5   0 2341.67   31.50
  -5   5   0 2306.17   37.40
   7  -5   0    1.00    2.90
   7  -5   0    5.80    2.60
  -7  -5   0    6.80    4.00
  -7  -5   0    8.30    2.90
  -7   5   0    7.50    2.20
  -7   5   0    8.30    2.90
   7   5   0    4.30    1.10
   7   5   0   11.00    3.30
   9  -5   0   79.29    8.10
   9  -5   0   91.69   11.10
  -9  -5   0   60.79    7.00
  -9   5   0   69.99    6.90
   9   5   0   76.59   11.10
   9   5   0   62.09    7.60
  -9   5   0   61.49    7.00
  11  -5   0  477.25   17.60
  11  -5   0  464.95   21.50
 -11  -5   0  471.15   18.20
 -11   5   0  459.95   16.30
  11   5   0  484.65   23.30
  11   5   0  450.15   18.30
 -11   5   0  472.15   17.00
  13  -5   0  283.17   14.50
  13  -5   0  354.16   20.70
 -13  -5   0  301.87   15.80
 -13   5   0  326.67   14.90
  13   5   0  301.97   19.60
 -13   5   0  308.57   15.10
  13   5   0  311.67   16.30
 -15  -5   0   63.69   10.10
  15  -5   0   64.39   12.10
  15  -5   0   52.59    8.20
  15   5   0   47.10    8.80
 -15   5   0   52.49    8.70
  15   5   0   50.19   11.20
  17  -5   0   85.59   14.80
 -17  -5   0   99.49   13.60
  17   5   0   93.79   15.80
 -17   5   0  104.09   13.00
 -19   5   0  965.10   34.40
   0  -6   0  194.18   11.70
   0   6   0  194.88    3.80
   0   6   0  181.28    8.00
   0   6   0  208.28    5.00
  -2  -6   0    3.80    1.30
   2  -6   0    2.60    1.80
   2  -6   0    2.10    3.00
  -2  -6   0    1.80    2.80
   2   6   0    5.10    1.90
  -2   6   0    1.20    2.10
   2   6   0    5.80    2.20
   4  -6   0  639.84   17.30
   4  -6   0  621.84   22.00
  -4  -6   0  653.53   14.20
  -4  -6   0  640.04   21.90
   4   6   0  632.94   17.60
  -4   6   0  632.44   11.10
  -4   6   0  595.14   16.80
   4   6   0  631.14   13.50
   6  -6   0 1549.94   30.80
  -6  -6   0 1496.05   37.30
  -6  -6   0 1566.84   28.10
   6  -6   0 1534.25   37.40
  -6   6   0 1585.54   24.50
   6   6   0 1571.24   31.50
  -6   6   0 1538.35   30.80
   6   6   0 1531.05   22.90
   8  -6   0   61.39    7.20
   8  -6   0   67.59    9.90
  -8  -6   0   68.39    7.20
  -8  -6   0   72.29   10.60
   8   6   0   60.99    7.50
  -8   6   0   74.59    8.20
  -8   6   0   56.49    5.80
  10  -6   0  139.09   15.00
 -10  -6   0  133.69    9.50
  10  -6   0  133.39    9.60
 -10   6   0  135.59    9.60
  10   6   0  118.19   13.50
 -10   6   0  142.09    8.40
  10   6   0  126.29    9.70
 -12  -6   0  965.50   28.10
  12  -6   0  909.81   32.60
  12  -6   0  963.80   27.00
 -12   6   0  959.40   27.20
  12   6   0  971.70   29.20
  12   6   0  962.50   35.00
 -12   6   0  962.60   25.60
 -14  -6   0  604.44   24.00
  14  -6   0  592.34   28.00
  14  -6   0  581.64   22.00
 -14   6   0  587.94   22.10
  14   6   0  614.34   24.20
  14   6   0  583.14   28.90
 -14   6   0  619.04   22.00
 -16  -6   0   92.79   12.50
  16  -6   0  102.69   15.60
 -16   6   0   90.69   11.30
  16   6   0   98.29   13.20
  16   6   0   85.79   14.40
 -18  -6   0    2.70    4.70
  18   6   0    0.50    5.50
   1  -7   0 1074.29   30.60
   1  -7   0 1058.59   23.80
  -1  -7   0  993.50   29.30
  -1   7   0 1057.39   23.10
   1   7   0 1046.40   21.80
   1   7   0 1073.49   15.60
   3  -7   0  218.38   10.40
  -3  -7   0  254.57    7.80
   3  -7   0  242.38   14.50
  -3  -7   0  246.68   14.60
  -3   7   0  246.68   10.90
   3   7   0  242.18   11.10
   3   7   0  242.28    8.90
   5  -7   0  919.41   29.40
   5  -7   0  949.40   23.50
  -5  -7   0  952.00   19.30
  -5  -7   0  922.11   29.40
   5   7   0  936.61   23.90
   5   7   0  952.70   18.20
  -5   7   0  932.41   23.50
  -5   7   0  934.81   15.30
   7  -7   0 2151.78   48.60
  -7  -7   0 2148.49   36.80
  -7  -7   0 2160.58   49.00
   7  -7   0 2147.29   40.10
   7   7   0 2155.58   30.20
   7   7   0 2159.18   41.40
  -7   7   0 2126.99   40.60
  -7   7   0 2179.68   32.10
   9  -7   0   67.79    8.40
  -9  -7   0   70.19   11.30
  -9  -7   0   69.19    7.90
   9  -7   0   56.69   10.00
   9   7   0   74.99    9.10
  -9   7   0   62.19    7.90
  -9   7   0   62.19    6.30
 -11  -7   0   94.49   10.10
  11  -7   0  102.69   13.20
  11  -7   0  103.39   10.80
  11   7   0   96.79   10.80
 -11   7   0   97.39   10.00
 -11   7   0   97.39   10.30
  11   7   0   96.49   13.90
 -13  -7   0   35.00    7.20
  13  -7   0   19.30    7.40
  13  -7   0   16.20    5.40
  13   7   0   24.30    7.90
 -13   7   0   15.50    5.20
  13   7   0   11.40    5.00
  15  -7   0    9.50    6.80
 -15  -7   0    9.00    5.20
  15   7   0    4.60    4.40
 -15   7   0    2.40    4.30
  15   7   0    4.00    6.00
 -17  -7   0  461.55   23.70
  17   7   0  479.45   29.40
   0  -8   0 1666.03   40.50
   0   8   0 1653.83   33.90
   0   8   0 1627.74   31.20
   2  -8   0  330.47   17.30
   2  -8   0  328.57   13.50
  -2  -8   0  318.57   17.10
   2   8   0  334.67    8.20
   2   8   0  323.27   13.60
   2   8   0  320.17   11.70
  -2   8   0  299.07   12.60
   4  -8   0    1.60    3.40
  -4  -8   0   -2.60    3.20
   4  -8   0    0.80    2.20
  -4  -8   0    3.40    1.70
   4   8   0    5.50    2.30
   4   8   0    0.10    2.20
  -4   8   0    2.20    2.50
   6  -8   0   37.60    6.20
  -6  -8   0   30.70    7.30
  -6  -8   0   32.50    4.70
   6  -8   0   27.20    7.30
  -6   8   0   33.90    6.10
   6   8   0   27.80    3.80
   6   8   0   34.70    6.40
  -8  -8   0    6.20    5.60
  -8  -8   0   12.10    3.50
   8  -8   0    6.60    5.10
   8  -8   0   11.60    3.80
  -8   8   0    8.80    4.10
   8   8   0    7.10    3.80
 -10  -8   0  531.85   18.70
  10  -8   0  519.95   19.40
  10  -8   0  486.25   24.10
 -10   8   0  483.15   19.40
  10   8   0  460.95   19.60
  12  -8   0 1062.99   37.40
 -12  -8   0 1035.40   29.70
  12  -8   0 1009.40   29.40
  12   8   0 1013.80   38.70
  12   8   0 1067.09   32.10
 -12   8   0 1030.60   30.70
  14  -8   0  231.08   14.40
 -14  -8   0  256.87   15.80
  14  -8   0  221.88   18.30
  14   8   0  246.98   20.40
 -14   8   0  243.28   15.70
  14   8   0  231.58   16.00
 -16  -8   0  255.57   17.30
  16   8   0  284.57   22.90
  16   8   0  266.47   18.50
 -16   8   0  295.97   17.90
  -1  -9   0  350.36   19.20
   1  -9   0  369.46   19.50
   1   9   0  330.87   14.60
   1   9   0  398.56   14.10
  -1   9   0  349.17   13.90
   3  -9   0   29.60    7.80
  -3  -9   0   34.60    8.10
   3  -9   0   23.10    5.00
  -3   9   0   33.60    6.00
   3   9   0   39.70    6.50
   3   9   0   33.20    4.90
  -5  -9   0  705.93   28.30
   5  -9   0  669.63   21.70
   5  -9   0  720.13   28.10
   5   9   0  694.73   17.10
   5   9   0  655.73   22.00
  -5   9   0  740.93   22.70
  -7  -9   0   61.59   10.70
   7  -9   0   81.59    9.60
   7  -9   0   78.19   11.90
  -7  -9   0   75.49    7.40
   7   9   0   86.99   10.20
  -7   9   0   96.19   10.60
  -9  -9   0  277.17   19.60
  -9  -9   0  273.87   13.10
   9  -9   0  273.97   18.50
   9  -9   0  279.87   14.60
  -9   9   0  271.07   15.10
   9   9   0  285.27   15.60
  11  -9   0  241.98   14.00
 -11  -9   0  207.78   12.70
  11  -9   0  204.78   17.20
  11   9   0  239.18   19.20
  11   9   0  205.28   14.00
 -11   9   0  210.38   14.00
  13  -9   0    0.90    3.50
 -13  -9   0    0.40    3.40
  13   9   0    5.30    5.50
 -13   9   0   -3.70    3.40
  13   9   0    1.30    3.60
 -15  -9   0   77.39   11.40
  15   9   0   68.69   14.70
  15   9   0   73.69   11.90
 -15   9   0   72.89   11.20
   0 -10   0  377.46   21.10
   0  10   0  402.66   15.40
   0  10   0  397.06   17.20
   2 -10   0   34.80    8.50
  -2 -10   0   24.60    7.30
   2 -10   0   27.00    5.50
   2  10   0   36.60    5.80
  -2  10   0   40.60    6.60
   2  10   0   21.00    5.20
   4 -10   0  190.68   15.20
  -4 -10   0  180.28   19.00
   4 -10   0  150.08   10.50
  -4  10   0  154.08   10.90
   4  10   0  176.58    9.10
   4  10   0  168.58   11.70
  -6 -10   0  512.15   25.60
   6 -10   0  510.05   24.90
   6 -10   0  518.95   19.80
   6  10   0  470.15   19.70
  -6  10   0  534.15   20.40
  -8 -10   0   14.30    6.90
   8 -10   0   18.90    5.20
   8 -10   0   20.30    6.80
   8  10   0    7.40    4.10
  -8  10   0    7.00    3.80
  10 -10   0   13.60    6.70
  10 -10   0   19.90    6.10
 -10 -10   0   18.00    7.60
 -10  10   0   17.50    5.50
  10  10   0   13.30    5.10
  12 -10   0  309.67   17.00
 -12  10   0  311.77   17.90
  12  10   0  292.67   22.60
  12  10   0  325.97   19.00
  14  10   0  177.68   17.90
 -14  10   0  193.78   18.10
  14  10   0  181.28   22.60
  -1 -11   0  426.86   23.20
   1 -11   0  389.96   22.40
   1  11   0  437.46   18.80
  -1  11   0  393.56   18.10
  -1  11   0  394.66   16.60
   1  11   0  395.76   15.80
   3 -11   0    9.40    4.00
   3 -11   0    2.00    4.50
  -3 -11   0   -0.50    4.50
  -3  11   0    3.60    3.50
   3  11   0    3.20    2.50
   3  11   0   -1.00    2.50
   5 -11   0   11.10    6.20
  -5 -11   0    7.30    5.80
   5 -11   0   42.40    7.50
  -5  11   0    8.10    4.20
   5  11   0   11.10    4.30
  -7 -11   0 1440.16   46.80
   7 -11   0 1423.66   36.30
   7 -11   0 1423.56   43.90
   7  11   0 1494.95   38.60
  -7  11   0 1407.36   37.10
   9 -11   0   12.70    4.90
  -9 -11   0    0.90    5.00
   9 -11   0    3.30    5.70
   9  11   0    3.30    4.20
  -9  11   0   17.50    5.80
  11 -11   0    9.50    4.80
  11  11   0    8.60    5.30
 -11  11   0   21.90    7.10
  13 -11   0  308.57   19.70
  13  11   0  323.57   20.00
 -13  11   0  338.37   20.20
  13  11   0  316.67   25.10
   0 -12   0  154.78   18.60
   0  12   0  138.19   11.50
   0  12   0  134.09   10.30
   2 -12   0  277.57   19.70
  -2 -12   0  290.27   20.70
  -2  12   0  283.77   15.00
   2  12   0  268.17   13.40
  -2  12   0  296.47   16.40
   2  12   0  264.57   15.80
   4 -12   0    7.70    4.00
   4 -12   0    3.70    5.10
  -4 -12   0    2.70    5.00
   4  12   0    4.30    3.00
  -4  12   0    1.10    2.90
   4  12   0   -2.10    2.80
   6 -12   0   82.09   13.40
  -6 -12   0   83.09   13.80
   6 -12   0   92.99   11.30
  -6  12   0  105.89   12.40
   6  12   0  111.89   13.20
   8 -12   0   17.60    6.10
  -8 -12   0   34.40   10.80
   8 -12   0   20.80    8.00
  -8  12   0   19.10    6.00
   8  12   0   19.10    6.70
  10 -12   0  269.27   16.30
 -10 -12   0  327.97   24.70
 -10  12   0  261.77   17.30
  10  12   0  288.27   18.60
  12 -12   0 1141.39   35.30
 -12  12   0 1142.19   38.00
  12  12   0 1126.79   46.10
  12  12   0 1241.28   39.90
  -1 -13   0   36.70   10.00
   1 -13   0   34.10    9.30
   1  13   0   37.30    6.80
   1  13   0   44.40    8.80
  -1  13   0   40.90    8.20
  -1  13   0   31.20    6.60
  -3 -13   0   32.70   10.10
   3 -13   0   29.30    9.60
   3  13   0   25.40    5.50
  -3  13   0   23.20    6.70
  -3  13   0   33.10    7.30
   3  13   0   28.60    7.20
  -5 -13   0  476.45   28.00
   5 -13   0  434.46   25.00
   5  13   0  438.96   21.50
  -5  13   0  424.16   20.60
  -7 -13   0  534.45   30.70
   7 -13   0  514.55   22.70
  -7  13   0  481.35   22.30
   7  13   0  513.45   24.00
  -9 -13   0   46.90   12.10
   9 -13   0   43.00    8.50
   9  13   0   42.60    9.30
  -9  13   0   35.20    8.20
  11 -13   0   79.39   11.80
   0 -14   0  120.39   17.40
   0  14   0  137.19   13.40
   0  14   0  135.99   14.70
   2 -14   0   30.60    9.50
  -2 -14   0   39.90   11.40
   2  14   0   41.60    7.30
  -2  14   0   35.90    7.90
  -2  14   0   30.70    7.60
   2  14   0   35.70    8.60
   4 -14   0   33.70    9.90
  -4 -14   0   37.40   11.30
  -4  14   0   38.00    8.50
   4  14   0   36.00    8.20
  -4  14   0   28.00    7.40
  -6 -14   0    1.60    6.60
   6  14   0    0.00    4.00
  -6  14   0    9.70    5.20
  -6  14   0    4.80    5.20
  -8 -14   0   41.20   11.80
   8 -14   0   31.40    8.00
   8  14   0   40.50    9.90
  -1 -15   0  171.08   21.20
   1 -15   0  195.08   22.00
   1  15   0  162.38   12.40
  -1  15   0  166.78   17.10
  -1  15   0  174.38   16.10
   1  15   0  173.28   17.60
  -3 -15   0   20.70    9.30
  -3  15   0   20.50    6.70
  -3  15   0   19.20    6.40
   3  15   0   20.20    6.60
  -5 -15   0    5.10    6.70
  -5  15   0   22.30    8.20
  20   0  -1   -4.40    6.50
 -18   0   1   -2.10    3.80
  18   0  -1   -2.10    4.80
 -16   0   1    1.70    3.80
  16   0  -1    5.00    4.90
 -14   0   1   -0.70    3.00
  14   0  -1    2.40    4.60
  14   0  -1    5.00    4.10
  12   0  -1    5.20    4.20
  12   0  -1    2.90    2.80
 -12   0   1    2.20    2.00
 -12   0   1    3.20    2.70
 -10   0   1   -0.50    1.30
 -10   0   1    2.00    2.30
  10   0  -1   -1.00    1.80
  10   0  -1   -0.60    2.50
  -8   0   1    1.00    1.60
   8   0  -1    2.70    1.90
  -8   0   1    0.00    1.10
   8   0  -1    3.80    2.90
   6   0  -1    1.50    1.50
   6   0  -1    1.50    1.90
  -6   0   1    2.60    1.60
  -6   0   1    1.30    1.20
  -4   0   1    2.00    1.20
   4   0  -1    3.80    1.30
   4   0  -1    3.50    2.10
  -4   0   1    0.20    1.00
  -2   0   1    1.90    1.00
  -2   0   1    4.80    1.40
   2   0  -1    1.60    1.60
   0   0   1    7.40    1.50
   0   0   1    8.90    1.40
   0   0  -1    6.80    1.30
   0   0   1    2.20    1.00
   0   0  -1    3.30    1.30
   0   0  -1    4.10    1.20
   2   0   1    1.00    1.60
  -2   0  -1    2.20    1.20
   2   0   1    1.20    1.00
  -2   0  -1    5.20    1.90
  -4   0  -1    4.90    1.20
   4   0   1    3.00    1.80
   4   0   1   -1.90    1.70
  -4   0  -1   -1.90    1.40
   6   0   1    2.10    1.90
  -6   0  -1    2.50    1.10
  -6   0  -1    2.50    2.10
   6   0   1    1.90    2.20
  -8   0  -1    1.00    2.10
   8   0   1    1.70    2.40
  -8   0  -1    1.50    1.10
   8   0   1   -0.60    2.10
 -10   0  -1    5.80    2.90
 -10   0  -1    0.00    1.20
  10   0   1   -1.80    2.20
  10   0   1   -2.10    2.10
  12   0   1    1.00    3.30
 -12   0  -1    2.50    3.00
  12   0   1   -3.20    2.50
  14   0   1   -6.80    2.50
 -14   0  -1   -0.60    2.50
  14   0   1   -1.20    3.10
  16   0   1    3.10    4.60
 -16   0  -1   11.50    5.00
  16   0   1    5.50    4.90
  18   0   1    1.50    5.60
 -18   0  -1    0.50    3.90
  18   0   1    4.70    4.80
  20   0   1   -0.60    5.20
  19  -1  -1   49.80   12.20
 -19  -1   1   56.19   10.80
 -19   1   1   33.90    8.70
  19   1  -1   59.69   13.00
 -17  -1   1   37.50    8.20
  17  -1  -1   37.60   10.30
 -17   1   1   34.80    7.80
  17   1  -1   44.90   11.10
 -15  -1   1    2.80    3.80
  15  -1  -1    4.40    5.30
  15   1  -1    2.40    4.90
 -15   1   1   -0.70    2.60
  13  -1  -1  100.69   10.00
 -13  -1   1   98.49   10.70
  13  -1  -1  103.19   13.80
  13   1  -1  102.69   13.60
  13   1  -1  105.99   10.80
 -13   1   1  113.59   10.40
 -13   1   1   94.99   10.10
 -11  -1   1 1251.57   29.70
  11  -1  -1 1242.08   34.70
  11  -1  -1 1211.48   27.00
 -11  -1   1 1215.98   22.70
  11   1  -1 1206.68   33.60
  11   1  -1 1257.97   29.20
 -11   1   1 1243.98   24.40
 -11   1   1 1163.98   28.60
   9  -1  -1  671.33   17.40
  -9  -1   1  647.14   18.70
   9  -1  -1  642.34   22.10
  -9  -1   1  692.53   15.00
  -9   1   1  642.14   18.30
   9   1  -1  676.23   22.20
   9   1  -1  679.23   18.50
  -9   1   1  656.03   15.60
   7  -1  -1  321.17   13.80
   7  -1  -1  335.47   10.20
  -7  -1   1  310.07   11.30
  -7  -1   1  343.77    9.30
  -7   1   1  338.37   11.40
   7   1  -1  333.67   10.50
   7   1  -1  326.47   13.40
  -7   1   1  325.87    9.70
   5  -1  -1  684.03   17.80
  -5  -1   1  662.93   12.90
   5  -1  -1  663.93   12.40
  -5  -1   1  662.03   14.90
   5   1  -1  652.13   12.80
  -5   1   1  654.23   13.30
   5   1  -1  698.23   17.70
   3  -1  -1  162.78    7.40
  -3  -1   1  159.28    5.40
  -3  -1   1  157.98    5.80
   3  -1  -1  162.38    3.80
  -3   1   1  160.08    5.50
  -3   1   1  159.88    5.30
   3   1  -1  170.98    6.90
   3   1  -1  148.79    4.20
  -1  -1   1  104.89    3.20
   1  -1  -1  110.09    3.70
   1  -1  -1  110.39    2.80
   1  -1  -1  102.59    5.30
   1   1  -1  110.69    4.00
   1   1  -1  105.59    4.00
  -1   1   1  114.49    4.00
  -1   1   1  113.59    2.80
  -1  -1  -1    8.40    2.10
   1  -1   1   20.70    2.60
  -1  -1  -1   10.30    2.20
   1  -1   1   12.10    1.80
  -1   1  -1   12.80    2.70
   1   1   1    9.60    1.40
   1   1   1   10.20    1.60
  -3  -1  -1 2834.42   37.70
  -3  -1  -1 2800.22   31.50
   3  -1   1 2833.02   40.10
  -3  -1  -1 2792.32   38.10
   3  -1   1 2809.62   34.40
  -3   1  -1 2809.62   38.50
   3   1   1 2795.52   31.80
   3   1   1 2853.41   38.00
  -3   1  -1 2827.12   34.80
  -5  -1  -1  603.64    8.30
   5  -1   1  608.64   16.70
   5  -1   1  604.04   14.20
  -5  -1  -1  620.14   15.30
  -5  -1  -1  596.34    8.80
  -5   1  -1  630.94   15.30
   5   1   1  587.54   15.40
  -5   1  -1  584.94   11.70
   7  -1   1  116.99    7.30
  -7  -1  -1   93.99    6.60
   7  -1   1  119.09    8.40
  -7  -1  -1  109.89    3.10
  -7   1  -1  101.89    6.90
   7   1   1  112.99    7.90
   7   1   1  108.19    7.80
  -7   1  -1  101.99    5.00
  -9  -1  -1 1421.96   18.50
   9  -1   1 1440.66   32.10
  -9  -1  -1 1415.56   30.70
   9  -1   1 1456.25   33.10
   9   1   1 1434.76   32.90
  -9   1  -1 1434.26   30.80
   9   1   1 1447.16   32.70
  -9   1  -1 1464.95   23.60
  11  -1   1  101.79   10.80
  11  -1   1  121.69   12.40
 -11   1  -1  124.19    6.40
  11   1   1  101.69   11.80
 -11   1  -1  118.59    9.10
  11   1   1  129.29   10.50
  13  -1   1  131.69   14.30
 -13  -1  -1   94.89   11.10
  13  -1   1  125.29   13.20
 -13   1  -1  137.19   13.10
  13   1   1  108.69   12.70
  13   1   1  120.79   12.80
 -15  -1  -1    3.90    3.80
  15  -1   1   10.50    4.80
  15  -1   1    2.30    4.20
 -15   1  -1    2.70    3.80
  15   1   1    4.80    4.20
  15   1   1    1.50    3.70
  17  -1   1  245.08   18.50
 -17  -1  -1  231.68   16.80
  17  -1   1  289.97   18.70
  17   1   1  268.47   17.90
  17   1   1  263.27   19.60
 -17   1  -1  265.27   17.70
  19  -1   1   68.19   13.40
 -19  -1  -1  107.39   15.00
  19   1   1   95.29   15.70
 -19   1  -1   85.49   13.50
  20  -2  -1   38.30   12.40
 -18  -2   1  402.86   22.40
  18  -2  -1  370.06   25.30
  18   2  -1  383.56   25.70
 -18   2   1  384.76   20.90
  16  -2  -1 1522.95   47.30
 -16  -2   1 1549.84   41.40
 -16   2   1 1536.75   40.30
  16   2  -1 1574.34   48.20
  14  -2  -1 1235.48   39.90
 -14  -2   1 1307.67   35.20
  14   2  -1 1321.07   34.40
  14   2  -1 1305.37   40.00
 -14   2   1 1265.07   33.60
  12  -2  -1  527.55   23.30
  12  -2  -1  609.74   18.30
 -12  -2   1  535.65   19.90
 -12   2   1  517.75   18.70
  12   2  -1  508.85   22.90
  12   2  -1  593.04   20.50
 -12   2   1  556.64   16.60
  10  -2  -1 1280.27   26.20
  10  -2  -1 1358.16   35.10
 -10  -2   1 1287.17   29.70
 -10  -2   1 1324.27   23.40
  10   2  -1 1335.07   28.60
 -10   2   1 1323.77   28.90
  10   2  -1 1352.76   34.80
 -10   2   1 1333.87   26.10
   8  -2  -1   34.90    4.40
   8  -2  -1   13.30    4.90
  -8  -2   1    9.30    3.00
  -8  -2   1   13.60    2.60
   8   2  -1    9.30    2.80
   8   2  -1   10.90    4.00
  -8   2   1    6.70    2.40
  -8   2   1   10.80    2.80
  -6  -2   1  605.74   15.40
   6  -2  -1  634.54   13.20
  -6  -2   1  622.04   13.30
   6  -2  -1  635.94   19.10
   6   2  -1  621.94   14.00
  -6   2   1  630.24   14.50
  -6   2   1  620.34   14.50
   6   2  -1  661.53   18.80
   4  -2  -1   54.09    6.10
   4  -2  -1   57.49    3.10
  -4  -2   1   59.09    3.90
  -4  -2   1   62.19    4.20
   4   2  -1   55.19    3.40
  -4   2   1   54.49    3.40
   4   2  -1   70.79    5.50
  -2  -2   1 3659.93   44.10
   2  -2  -1 3706.23   41.70
   2  -2  -1 3571.34   50.39
  -2  -2   1 3665.33   44.80
  -2   2   1 3655.73   41.50
  -2   2   1 3658.33   44.40
   2   2  -1 3638.14   46.90
   0  -2  -1    4.90    1.90
   0  -2   1    6.80    1.60
   0  -2   1    1.20    1.30
   0  -2  -1    3.90    2.60
   0   2   1    1.40    1.00
   0   2   1    2.80    1.20
   0   2  -1    3.80    1.60
   0   2  -1    2.90    1.40
   2  -2   1  523.45   10.20
  -2  -2  -1  504.55   13.60
   2  -2   1  511.85   12.00
  -2  -2  -1  507.15   10.80
   2   2   1  516.45   11.30
  -2   2  -1  529.95   12.90
   2   2   1  519.55    8.30
  -2   2  -1  512.95   11.00
   4  -2   1  978.20   17.90
   4  -2   1  983.70   20.50
  -4  -2  -1  978.00   11.50
  -4  -2  -1  984.80   21.20
  -4  -2  -1  968.70   18.70
  -4   2  -1  972.70   17.20
  -4   2  -1  975.30   19.10
   4   2   1  969.20   11.90
   4   2   1  973.60   19.30
   6  -2   1   80.69    8.00
  -6  -2  -1   64.99    7.30
  -6  -2  -1   49.80    5.30
   6  -2   1   65.49    6.50
  -6   2  -1   52.09    4.10
  -6   2  -1   63.99    5.30
   6   2   1   66.49    6.60
   8  -2   1 3631.74   58.99
   8  -2   1 3663.93   57.09
  -8  -2  -1 3798.42   56.19
  -8   2  -1 3730.73   55.69
  -8   2  -1 3772.32   49.70
   8   2   1 3728.33   57.29
   8   2   1 3830.72   60.49
  10  -2   1  553.24   20.20
 -10  -2  -1  510.95   18.10
  10  -2   1  558.84   20.10
  10   2   1  551.84   20.80
 -10   2  -1  522.35   14.30
 -10   2  -1  474.65   17.30
  10   2   1  511.55   19.20
 -12  -2  -1   27.50    5.70
  12  -2   1   35.80    7.20
  12  -2   1   33.20    7.20
  12   2   1   31.30    7.00
 -12   2  -1   24.90    4.40
  12   2   1   28.00    6.80
 -12   2  -1   25.00    5.70
  14  -2   1 1936.51   45.70
 -14  -2  -1 1912.01   44.60
  14  -2   1 1892.01   47.00
 -14   2  -1 1872.61   43.80
  14   2   1 1893.81   48.60
  14   2   1 2038.80   47.70
 -16  -2  -1    2.90    3.40
  16  -2   1   10.50    5.50
  16  -2   1    0.40    4.40
  16   2   1    0.30    4.70
 -16   2  -1    5.30    4.40
  16   2   1    1.00    4.10
  18  -2   1   -0.90    5.10
 -18  -2  -1    2.50    4.60
  18   2   1   12.00    6.10
 -18   2  -1    2.50    5.10
  18   2   1   -0.70    5.00
  20   2   1    9.70    7.30
 -19  -3   1  163.68   17.60
  19  -3  -1  144.49   19.50
 -19   3   1  157.28   17.30
  19   3  -1  128.49   18.50
 -17  -3   1  361.96   20.60
  17  -3  -1  334.87   23.20
  17   3  -1  366.96   24.40
 -17   3   1  349.57   19.00
  15  -3  -1  166.78   18.60
 -15  -3   1  177.08   13.10
  15   3  -1  189.08   19.60
 -15   3   1  171.98   12.50
  13  -3  -1  119.19    8.60
  13  -3  -1   88.49   12.50
 -13  -3   1   97.09   10.90
  13   3  -1   97.99   10.90
 -13   3   1   81.29    9.30
  13   3  -1   99.89   13.40
 -13   3   1   87.19    9.10
  11  -3  -1 1021.00   32.40
  11  -3  -1 1011.20   23.40
 -11  -3   1 1004.30   27.10
  11   3  -1 1025.60   32.10
 -11   3   1 1031.40   25.70
 -11   3   1 1024.80   23.90
  11   3  -1 1023.70   26.00
   9  -3  -1  642.64   23.20
  -9  -3   1  666.53   19.60
  -9  -3   1  667.93   13.80
   9  -3  -1  661.63   16.60
   9   3  -1  670.63   23.10
  -9   3   1  642.54   17.60
   9   3  -1  661.33   18.30
  -9   3   1  673.73   18.20
  -7  -3   1 1163.18   24.20
  -7  -3   1 1171.98   19.60
   7  -3  -1 1141.69   21.00
   7  -3  -1 1156.48   29.40
   7   3  -1 1164.58   22.70
   7   3  -1 1191.88   29.10
  -7   3   1 1189.78   22.50
  -7   3   1 1141.39   23.10
  -5  -3   1 2510.75   37.30
   5  -3  -1 2507.15   44.30
  -5  -3   1 2578.54   34.20
   5  -3  -1 2537.45   34.50
   5   3  -1 2583.74   36.00
  -5   3   1 2572.24   34.60
   5   3  -1 2573.34   42.50
  -5   3   1 2557.64   37.20
  -3  -3   1   23.00    2.90
   3  -3  -1   19.30    2.40
   3  -3  -1   25.60    5.10
  -3  -3   1   18.00    2.60
  -3  -3   1   17.60    3.40
   3   3  -1   24.20    2.90
  -3   3   1   16.10    2.60
  -3   3   1   24.70    2.00
   1  -3  -1  198.28    4.00
   1  -3  -1  197.98    4.80
  -1  -3   1  195.48    7.30
   1  -3  -1  190.58    9.60
  -1  -3   1  187.48    6.50
  -1   3   1  188.98    6.20
   1   3  -1  199.28    6.10
   1   3  -1  200.78    6.90
  -1   3   1  192.48    6.40
  -1  -3  -1  610.74   10.60
  -1  -3  -1  633.34   17.20
   1  -3   1  600.84   13.00
   1  -3   1  668.53   13.90
   1   3   1  608.04   12.80
  -1   3  -1  602.04   13.90
   1   3   1  603.54   11.20
  -1   3  -1  611.84   13.20
  -3  -3  -1 6390.96   73.09
  -3  -3  -1 6111.39   81.49
   3  -3   1 6236.48   76.99
   3  -3   1 6166.48   75.59
  -3   3  -1 6322.27   74.69
  -3   3  -1 6240.68   75.29
   3   3   1 6450.65   67.99
   3   3   1 6436.56   75.49
   5  -3   1 1003.40   21.40
   5  -3   1 1011.40   22.50
  -5  -3  -1 1014.70   20.30
   5   3   1 1026.30   21.60
  -5   3  -1 1027.20   20.60
  -5   3  -1 1021.00   19.70
   7  -3   1    9.00    3.30
  -7  -3  -1    4.20    2.40
   7  -3   1   29.20    5.40
  -7  -3  -1    6.40    3.30
  -7   3  -1    2.90    1.90
   7   3   1    7.40    2.60
  -7   3  -1   -0.80    1.40
   9  -3   1 2318.77   44.20
  -9  -3  -1 2385.76   42.60
   9  -3   1 2397.86   45.00
   9   3   1 2385.56   47.80
  -9   3  -1 2363.46   37.90
  -9   3  -1 2343.47   41.60
   9   3   1 2354.06   43.80
 -11  -3  -1    6.10    3.50
  11  -3   1   13.50    4.90
  11  -3   1   21.50    5.70
  11   3   1   19.40    5.10
  11   3   1    7.10    4.40
 -11   3  -1   11.40    3.30
 -11   3  -1    7.80    3.70
 -13  -3  -1  400.76   18.50
  13  -3   1  405.86   19.70
  13  -3   1  370.26   18.30
  13   3   1  396.26   19.20
  13   3   1  372.56   20.40
 -13   3  -1  398.36   14.80
 -13   3  -1  380.86   17.60
 -15  -3  -1   15.10    5.40
  15  -3   1   12.60    6.20
  15  -3   1    5.10    4.80
  15   3   1   11.30    6.00
  15   3   1    6.10    4.90
 -15   3  -1   10.50    4.60
  17  -3   1   99.29   14.20
 -17  -3  -1  100.79   13.70
  17  -3   1   97.29   13.10
  17   3   1  127.29   17.10
  17   3   1   80.29   12.30
 -17   3  -1  107.59   13.70
 -19  -3  -1  332.67   22.20
  19   3   1  293.57   22.60
 -19   3  -1  301.47   19.90
 -18  -4   1  157.18   17.10
  18  -4  -1  166.58   20.30
  18   4  -1  174.08   21.50
 -18   4   1  196.28   15.10
 -16  -4   1    8.90    5.20
  16  -4  -1    0.70    6.20
 -16   4   1    6.40    4.50
  16   4  -1   -6.30    4.60
  14  -4  -1  135.99   16.90
 -14  -4   1  113.49   12.00
  14   4  -1  148.79   11.60
 -14   4   1  116.29   11.80
  14   4  -1  128.69   15.50
 -14   4   1  133.79   10.10
  12  -4  -1  461.15   23.10
 -12  -4   1  511.95   19.60
  12  -4  -1  484.25   16.20
 -12   4   1  483.15   17.30
  12   4  -1  483.65   23.00
  12   4  -1  483.35   18.50
 -12   4   1  486.85   17.70
 -10  -4   1  955.10   25.10
  10  -4  -1  973.40   22.00
  10  -4  -1  974.00   30.80
 -10   4   1  916.21   22.50
  10   4  -1  952.10   24.10
 -10   4   1  972.40   23.10
  10   4  -1  939.71   30.10
  -8  -4   1  150.68    8.60
  -8  -4   1  133.69    5.50
   8  -4  -1  152.18    7.50
   8  -4  -1  163.88   12.20
  -8   4   1  152.38    8.40
   8   4  -1  144.09    8.10
   8   4  -1  144.29   10.90
  -8   4   1  155.98    7.60
   6  -4  -1   23.50    3.40
   6  -4  -1   28.00    6.20
  -6  -4   1   17.00    3.30
   6   4  -1   23.90    3.80
   6   4  -1   27.60    5.30
  -6   4   1   32.70    4.50
   6   4  -1   26.50    3.10
  -6   4   1   26.30    3.30
   4  -4  -1  964.10   18.10
  -4  -4   1  980.50   18.80
  -4  -4   1 1015.50   23.20
   4  -4  -1 1011.60   26.50
  -4   4   1  949.80   15.40
   4   4  -1  955.00   19.10
   4   4  -1  954.40   17.40
  -4   4   1  969.50   19.70
  -2  -4   1  417.56   13.10
  -2  -4   1  430.36   10.40
   2  -4  -1  454.35   11.00
   2  -4  -1  468.05   16.70
   2  -4  -1  436.16    7.20
  -2  -4   1  440.26   11.60
   2  -4  -1  445.46    7.20
  -2   4   1  425.36   11.40
   2   4  -1  448.26   11.10
   0  -4  -1   58.69    2.10
   0  -4   1   55.19    4.40
   0  -4   1   55.09    5.40
   0  -4  -1   47.60    6.60
   0   4   1   57.49    2.50
   0   4   1   57.39    4.20
   0   4  -1   43.90    4.30
   0   4  -1   59.49    3.80
   0   4   1   62.79    3.90
  -2  -4  -1  236.98   11.70
   2  -4   1  220.48    8.80
   2  -4   1  220.08    9.10
  -2  -4  -1  230.58    6.30
   2   4   1  222.68    6.40
   2   4   1  211.48    8.10
  -2   4  -1  220.88    8.40
  -2   4  -1  219.18    8.40
  -4  -4  -1    6.30    2.00
  -4  -4  -1    4.00    2.70
   4  -4   1   27.10    4.70
   4  -4   1    8.40    2.50
  -4   4  -1   10.20    2.60
   4   4   1    7.50    2.60
  -4   4  -1   12.50    2.70
   4   4   1    6.00    1.30
  -6  -4  -1  122.99    6.80
   6  -4   1  127.99    8.20
   6  -4   1  123.09    8.10
  -6  -4  -1  139.69   10.00
  -6   4  -1  135.79    7.40
   6   4   1  132.09    2.90
   6   4   1  122.79    3.30
   6   4   1  120.99    7.70
  -6   4  -1  141.19    7.30
  -8  -4  -1 1393.26   29.20
  -8  -4  -1 1380.86   34.70
   8  -4   1 1443.96   32.30
   8  -4   1 1365.96   31.10
   8   4   1 1392.76   30.40
  -8   4  -1 1340.07   27.40
  -8   4  -1 1389.96   28.30
 -10  -4  -1    2.40    2.70
  10  -4   1    4.90    3.60
  10  -4   1    8.70    3.90
  10   4   1   -3.20    2.50
 -10   4  -1    0.90    2.10
  10   4   1    2.40    2.90
 -10   4  -1    1.00    1.90
  12  -4   1  215.78   14.30
 -12  -4  -1  206.58   12.80
  12  -4   1  215.18   13.70
  12   4   1  195.18   15.20
 -12   4  -1  191.48   10.40
  12   4   1  197.08   13.20
 -12   4  -1  212.18   12.50
  14  -4   1  338.97   19.40
  14  -4   1  362.06   19.00
 -14  -4  -1  363.06   18.60
  14   4   1  385.36   22.00
  14   4   1  344.07   18.80
 -14   4  -1  354.06   17.60
  16  -4   1  310.77   21.30
 -16  -4  -1  360.06   20.30
  16  -4   1  362.36   19.80
 -16   4  -1  335.87   18.60
  16   4   1  350.86   23.00
  16   4   1  324.17   20.00
 -18  -4  -1    0.60    4.30
  18   4   1   -0.20    5.00
 -18   4  -1    3.30    4.70
  18   4   1   -0.70    5.20
  19  -5  -1   99.09   16.80
 -19   5   1   94.19   14.10
  17  -5  -1   87.29   15.40
 -17  -5   1   90.99   12.50
  17   5  -1   83.19   15.00
 -17   5   1   94.89   12.40
 -15  -5   1    3.10    3.90
  15  -5  -1    1.70    5.90
 -15   5   1    2.00    3.20
  15   5  -1    4.60    5.40
 -15   5   1    0.70    3.10
  13  -5  -1  112.19   15.20
  13  -5  -1  105.39   14.50
 -13  -5   1  109.59   11.80
  13   5  -1  116.79   12.00
  13   5  -1  123.79   15.40
 -13   5   1  133.79   12.40
 -13   5   1  117.89   11.30
  11  -5  -1   33.60    8.40
 -11  -5   1   21.40    4.90
  11  -5  -1   25.10    4.60
  11   5  -1   29.60    7.70
 -11   5   1   26.20    5.60
  11   5  -1   30.50    5.90
 -11   5   1   32.00    5.40
   9  -5  -1  939.11   30.80
  -9  -5   1  922.41   23.90
   9  -5  -1  939.91   21.60
   9   5  -1  928.71   29.70
   9   5  -1  926.11   23.60
  -9   5   1  930.51   21.20
  -9   5   1  921.81   23.50
   7  -5  -1  538.75   22.00
  -7  -5   1  517.15   15.60
   7  -5  -1  532.65   14.80
   7   5  -1  511.35   15.70
   7   5  -1  539.35   11.90
  -7   5   1  531.15   16.40
  -7   5   1  510.75   13.10
   5  -5  -1    0.60    2.90
  -5  -5   1    4.20    1.80
   5  -5  -1    6.20    2.10
  -5  -5   1    1.90    2.30
   5   5  -1    4.00    2.10
  -5   5   1    2.00    1.90
   5   5  -1    7.60    1.90
  -5   5   1    7.10    1.60
  -3  -5   1  112.69    7.90
   3  -5  -1  114.99    6.10
   3  -5  -1  117.19    9.90
  -3  -5   1  115.79    5.50
   3   5  -1  103.89    6.20
  -3   5   1  110.99    3.40
   3   5  -1  111.39    5.70
  -3   5   1  118.59    6.60
  -1  -5   1  121.79    7.70
  -1  -5   1  117.79    6.60
   1   5  -1  120.59    5.30
   1   5  -1  114.79    6.20
  -1   5   1  112.39    6.20
  -1   5   1  116.19    6.10
   1  -5   1  509.35   15.30
   1  -5   1  498.25   14.10
  -1  -5  -1  494.55    8.30
  -1   5  -1  486.55   12.70
   1   5   1  505.25   13.60
   1   5   1  482.55   11.80
  -3  -5  -1  616.04   12.60
  -3  -5  -1  604.64   21.10
   3  -5   1  634.74   17.10
   3  -5   1  640.64   18.30
  -3   5  -1  639.04   16.30
   3   5   1  640.04   16.50
  -3   5  -1  638.64   14.30
   3   5   1  628.74   12.40
   5  -5   1  194.38   10.70
  -5  -5  -1  200.08   12.30
   5  -5   1  194.58    9.60
  -5  -5  -1  191.18    7.90
   5   5   1  191.48    9.40
   5   5   1  190.18    5.50
  -5   5  -1  193.98    9.10
  -5   5  -1  189.28    7.90
   7  -5   1  109.59    8.60
   7  -5   1  110.79    8.00
  -7  -5  -1   98.19   11.60
  -7  -5  -1   97.19    6.80
  -7   5  -1  114.69    7.00
  -7   5  -1   90.39    6.70
   7   5   1  104.79    9.80
  -9  -5  -1  125.29   13.30
   9  -5   1  132.49   10.00
  -9  -5  -1  141.09    9.20
   9  -5   1  129.39   10.20
  -9   5  -1  129.49    8.30
   9   5   1  121.29    9.20
  -9   5  -1  133.89    8.80
  11  -5   1    2.20    3.90
 -11  -5  -1    6.70    3.50
  11  -5   1    5.30    3.40
 -11   5  -1    5.90    3.10
  11   5   1   -0.60    3.40
 -11   5  -1    5.80    3.00
  11   5   1    8.80    4.00
 -13  -5  -1   13.80    5.10
  13  -5   1   20.90    6.50
  13  -5   1    1.50    3.20
 -13   5  -1   10.40    4.40
  13   5   1   10.40    4.70
  13   5   1   31.40    8.40
 -13   5  -1   13.20    4.70
  15  -5   1  436.36   21.20
 -15  -5  -1  438.26   21.30
  15   5   1  394.36   21.30
 -15   5  -1  407.16   19.30
  15   5   1  415.26   24.30
  17  -5   1  179.98   20.00
 -17  -5  -1  190.78   18.60
  17   5   1  128.39   17.70
 -17   5  -1  189.48   17.80
  17   5   1  169.98   18.20
 -19   5  -1  110.29   14.70
 -18  -6   1  212.08   17.20
  18  -6  -1  218.08   24.60
  18   6  -1  254.77   41.10
  16  -6  -1  354.46   24.50
 -16  -6   1  381.86   20.30
  16   6  -1  341.17   24.00
  14  -6  -1 1296.57   44.20
 -14  -6   1 1372.16   37.20
  14   6  -1 1360.16   36.30
 -14   6   1 1355.26   34.90
 -14   6   1 1364.16   33.00
  14   6  -1 1308.97   43.90
  12  -6  -1  443.16   16.40
 -12  -6   1  437.16   18.60
  12  -6  -1  439.96   24.00
  12   6  -1  464.05   18.80
  12   6  -1  440.96   23.10
 -12   6   1  444.76   16.50
 -12   6   1  474.25   18.30
  10  -6  -1 1001.30   34.60
 -10  -6   1  972.20   26.30
  10  -6  -1 1006.90   24.30
 -10   6   1 1017.00   23.10
  10   6  -1  990.30   26.40
 -10   6   1 1015.20   26.70
  10   6  -1  999.90   33.40
   8  -6  -1    4.30    2.20
   8  -6  -1   -2.60    3.30
  -8  -6   1    1.00    2.00
   8   6  -1    2.10    3.50
   8   6  -1    2.30    1.50
  -8   6   1    4.00    1.90
   8   6  -1    2.00    2.10
  -8   6   1    6.60    3.30
  -6  -6   1   47.50    8.10
   6  -6  -1   43.30    8.80
   6  -6  -1   41.90    5.20
  -6  -6   1   32.30    4.50
  -6   6   1   43.00    6.00
   6   6  -1   38.40    5.50
  -6   6   1   39.70    3.20
   6   6  -1   44.10    4.40
  -4  -6   1  619.54   20.30
   4  -6  -1  621.84   16.10
   4  -6  -1  582.74   22.80
  -4  -6   1  634.24   14.90
  -4   6   1  635.74   10.30
   4   6  -1  619.74   17.20
  -4   6   1  627.94   17.10
   4   6  -1  612.44   14.60
   2  -6  -1 5038.20   65.39
   2  -6  -1 4917.71   79.89
  -2  -6   1 4962.20   72.29
  -2   6   1 5053.89   66.19
   2   6  -1 5039.20   64.39
   2   6  -1 5083.19   60.99
   0  -6   1   16.60    3.40
   0  -6  -1    7.80    4.30
   0  -6   1   10.10    3.50
   0   6  -1    8.90    2.30
   0   6   1    6.10    2.20
   0   6   1    8.70    2.60
   0   6  -1    6.40    2.50
   2  -6   1  828.52   20.50
   2  -6   1  828.52   22.30
  -2  -6  -1  828.82   13.50
  -2  -6  -1  801.02   25.90
   2   6   1  827.52   16.80
  -2   6  -1  833.12   20.00
   2   6   1  854.81   20.30
  -2   6  -1  828.22   16.90
  -4  -6  -1  158.68    6.50
  -4  -6  -1  212.48   13.50
   4  -6   1  181.58   10.70
   4  -6   1  163.78    9.20
   4   6   1  170.78    9.20
  -4   6  -1  172.18    9.20
  -4   6  -1  175.98    7.20
   4   6   1  165.58    6.20
  -6  -6  -1  193.28   13.60
  -6  -6  -1  221.58    9.20
   6  -6   1  208.28   10.80
   6  -6   1  219.08   12.40
  -6   6  -1  220.48   10.80
   6   6   1  215.98   11.10
   6   6   1  214.68    6.30
  -6   6  -1  212.78    8.90
   8  -6   1 2154.38   44.20
  -8  -6  -1 2147.89   49.80
   8  -6   1 2170.48   42.60
  -8  -6  -1 2185.08   38.60
   8   6   1 2239.38   42.80
  -8   6  -1 2240.58   37.60
  -8   6  -1 2193.08   40.60
 -10  -6  -1 1315.27   31.00
 -10  -6  -1 1283.97   39.10
  10  -6   1 1281.07   34.20
  10  -6   1 1268.27   32.50
  10   6   1 1284.37   32.60
 -10   6  -1 1253.97   28.60
 -10   6  -1 1259.37   30.30
  12  -6   1   12.40    5.30
  12  -6   1   16.70    5.20
 -12  -6  -1   28.60    6.40
  12   6   1    5.80    5.10
  12   6   1   19.70    5.70
 -12   6  -1   16.60    4.90
 -12   6  -1   20.80    5.10
  14  -6   1 1095.89   33.20
 -14  -6  -1 1130.69   33.80
  14   6   1 1179.08   41.20
 -14   6  -1 1141.39   31.40
  14   6   1 1134.79   35.10
 -14   6  -1 1127.79   31.70
  16  -6   1    5.20    4.20
 -16  -6  -1   11.40    5.70
  16   6   1    8.30    5.50
  16   6   1    0.90    5.40
 -16   6  -1    2.40    4.20
 -18  -6  -1    0.80    5.00
  18   6   1    2.10    7.00
  18   6   1   13.90    7.10
  17  -7  -1  253.17   25.80
 -17  -7   1  234.48   17.20
  17   7  -1  302.37   23.90
  15  -7  -1  445.06   27.00
 -15  -7   1  430.36   21.70
  15   7  -1  460.95   26.90
 -15   7   1  475.95   21.50
  15   7  -1  489.35   30.30
  13  -7  -1   97.99   14.60
 -13  -7   1   86.49   10.60
  13   7  -1   93.69   11.50
 -13   7   1  101.59   11.30
  13   7  -1  100.69   14.50
  11  -7  -1  116.29    8.70
 -11  -7   1  109.29   10.90
  11  -7  -1  153.08   18.10
  11   7  -1  103.89   13.70
  11   7  -1  100.59   10.70
 -11   7   1  124.59   11.60
   9  -7  -1  631.74   18.80
   9  -7  -1  607.84   26.50
  -9  -7   1  603.34   19.60
  -9   7   1  606.74   20.70
   9   7  -1  592.94   25.40
   9   7  -1  597.54   20.10
   7  -7  -1 1890.51   47.80
   7  -7  -1 1941.51   35.50
  -7  -7   1 1819.32   43.80
  -7  -7   1 1907.51   34.90
  -7   7   1 1931.01   28.90
  -7   7   1 1883.51   37.50
   7   7  -1 1855.91   29.50
   7   7  -1 1884.51   37.30
   5  -7  -1 1718.23   43.70
   5  -7  -1 1713.63   32.00
  -5  -7   1 1720.43   29.80
  -5  -7   1 1685.93   39.20
  -5   7   1 1705.33   22.50
   5   7  -1 1641.84   33.50
  -5   7   1 1635.04   33.00
   5   7  -1 1735.53   28.90
   3  -7  -1  114.59   13.20
  -3  -7   1  118.19    9.50
   3  -7  -1  111.09    7.10
   3   7  -1  116.89    6.10
  -3   7   1  118.69    7.80
   3   7  -1  118.79    6.70
   3   7  -1  113.69    7.80
   1  -7  -1  224.48   14.60
  -1  -7   1  201.68   11.60
   1   7  -1  224.38    9.70
  -1   7   1  202.18    9.60
  -1   7   1  209.78    9.40
   1   7  -1  210.28    7.70
   1  -7   1  383.06   14.30
  -1  -7  -1  407.66   19.30
   1  -7   1  396.46   15.90
   1   7   1  409.06   14.10
  -1   7  -1  394.56   13.60
   1   7   1  402.86   12.20
  -1   7  -1  416.06   11.80
  -3  -7  -1 5370.66   62.19
  -3  -7  -1 5243.98   86.89
   3  -7   1 5239.98   78.09
   3  -7   1 5295.17   74.59
  -3   7  -1 5303.17   73.49
   3   7   1 5319.87   66.39
  -3   7  -1 5318.47   63.79
   3   7   1 5409.66   73.59
  -5  -7  -1  517.95   13.50
   5  -7   1  500.05   17.50
   5  -7   1  545.65   20.00
  -5  -7  -1  485.25   22.10
  -5   7  -1  518.65   17.30
   5   7   1  512.75   17.60
   5   7   1  520.35   12.10
  -5   7  -1  536.85   13.10
   7  -7   1  263.77   14.80
  -7  -7  -1  247.28   16.40
  -7  -7  -1  237.58   10.50
   7  -7   1  226.48   12.40
   7   7   1  241.18   12.60
  -7   7  -1  252.37   12.80
  -7   7  -1  259.37   10.10
   9  -7   1 1152.08   32.90
  -9  -7  -1 1239.88   38.70
   9  -7   1 1207.28   31.20
  -9  -7  -1 1220.78   28.40
  -9   7  -1 1193.48   30.20
   9   7   1 1196.18   31.40
  -9   7  -1 1208.48   26.10
  11  -7   1  262.27   15.00
 -11  -7  -1  255.17   13.70
  11  -7   1  257.27   16.00
  11   7   1  261.27   15.30
 -11   7  -1  258.27   12.80
 -11   7  -1  283.07   14.60
  11   7   1  262.67   19.20
 -13  -7  -1  464.05   20.30
  13  -7   1  422.26   19.90
  13   7   1  428.36   20.60
 -13   7  -1  500.05   26.60
 -13   7  -1  435.86   19.50
  13   7   1  422.46   24.70
  15  -7   1  215.48   15.20
 -15  -7  -1  211.38   15.20
 -15   7  -1  203.48   14.50
  15   7   1  207.28   15.90
  15   7   1  199.18   22.40
 -17  -7  -1   35.60    8.80
  17   7   1   24.20    9.70
  17   7   1   56.89   11.20
  16  -8  -1   75.19   14.70
 -16  -8   1   75.19   11.90
  16   8  -1   69.09   14.10
 -16   8   1   89.89   12.30
 -14  -8   1   25.40    6.90
  14  -8  -1   33.30   10.10
  14   8  -1   10.80    5.50
 -14   8   1   27.30    7.20
  14   8  -1   21.50    8.50
 -12  -8   1  476.35   19.80
  12  -8  -1  436.96   25.20
  12  -8  -1  414.66   17.00
  12   8  -1  460.05   20.10
 -12   8   1  448.66   20.30
  12   8  -1  444.26   25.20
  10  -8  -1  612.34   20.10
 -10  -8   1  633.74   21.10
  10  -8  -1  598.64   28.40
 -10   8   1  618.74   22.50
  10   8  -1  680.33   29.00
  10   8  -1  589.64   21.80
   8  -8  -1   38.60    6.20
  -8  -8   1   33.00    7.70
  -8  -8   1   40.50    6.10
   8  -8  -1   40.40    9.60
   8   8  -1   35.60    6.50
  -8   8   1   36.20    6.40
  -6  -8   1   76.79   10.60
   6  -8  -1   77.69    8.00
  -6  -8   1   81.69    6.10
   6  -8  -1   77.09   12.00
   6   8  -1   71.29    5.30
  -6   8   1   82.29    8.90
   6   8  -1   82.89    9.00
  -4  -8   1  859.41   27.60
   4  -8  -1  888.11   31.50
   4  -8  -1  837.72   21.50
  -4   8   1  786.62   22.00
   4   8  -1  875.41   20.00
   4   8  -1  858.21   23.40
   2  -8  -1  146.79   15.80
  -2  -8   1  155.38   11.30
   2   8  -1  153.38    8.40
   2   8  -1  137.59    9.00
   2   8  -1  136.39    6.40
  -2   8   1  133.59    8.70
  -2   8   1  139.69    8.70
   0  -8   1   48.10    7.90
   0  -8  -1   72.59   11.70
   0  -8   1   52.69    7.00
   0   8  -1   54.69    6.60
   0   8  -1   61.29    4.90
   0   8   1   57.19    6.30
   0   8   1   60.59    7.40
   2  -8   1  664.13   20.30
   2  -8   1  660.53   22.50
  -2  -8  -1  654.33   26.70
   2   8   1  645.34   19.80
   2   8   1  631.64   16.50
  -2   8  -1  638.34   19.10
  -2   8  -1  641.74   13.50
  -4  -8  -1   43.20    4.20
   4  -8   1   41.60    6.60
  -4  -8  -1   21.40    6.30
   4  -8   1   36.90    6.90
   4   8   1   30.50    4.10
  -4   8  -1   34.90    5.70
   4   8   1   40.50    6.10
   6  -8   1   23.40    5.40
  -6  -8  -1   25.00    7.20
  -6  -8  -1   19.20    3.60
   6  -8   1   17.80    5.80
   6   8   1    8.70    3.70
   6   8   1   20.00    3.10
  -6   8  -1   18.60    5.10
   8  -8   1 1124.29   32.60
   8  -8   1 1054.59   29.50
  -8  -8  -1 1127.49   25.60
  -8  -8  -1 1153.48   38.30
  -8   8  -1 1103.59   29.40
   8   8   1 1117.09   30.70
 -10  -8  -1   60.19   11.30
  10  -8   1   59.19    9.80
 -10  -8  -1   54.19    7.40
  10  -8   1   60.89    9.10
  10   8   1   43.60    8.00
 -10   8  -1   69.09    9.50
 -12  -8  -1   41.40    7.60
  12  -8   1   33.90    7.00
  12   8   1   41.40   10.90
  12   8   1   20.40    6.10
 -12   8  -1   33.40    7.40
 -14  -8  -1  280.17   16.70
  14  -8   1  307.37   17.80
  14   8   1  268.47   17.80
 -14   8  -1  321.07   17.90
  14   8   1  319.47   23.30
 -16  -8  -1  282.87   18.30
  16  -8   1  198.28   16.20
  16   8   1  198.48   16.40
  16   8   1  240.98   25.40
  15  -9  -1  100.69   16.90
 -15  -9   1  105.09   13.30
 -15   9   1  106.69   13.30
  15   9  -1  146.59   20.80
  13  -9  -1   80.19   15.00
 -13  -9   1   76.09   10.60
  13   9  -1   55.99   12.50
 -13   9   1   68.59   10.30
  13   9  -1   91.39   12.00
 -11  -9   1  604.14   21.80
  11  -9  -1  599.74   21.30
  11  -9  -1  575.24   29.30
  11   9  -1  644.04   30.60
 -11   9   1  638.24   24.10
  11   9  -1  615.04   23.50
   9  -9  -1 1233.88   41.80
   9  -9  -1 1237.28   30.50
  -9  -9   1 1275.87   30.30
   9   9  -1 1276.17   33.70
  -9   9   1 1252.67   33.50
  -7  -9   1 1013.10   33.70
   7  -9  -1  967.10   25.70
  -7  -9   1  971.40   23.40
   7  -9  -1 1009.70   36.70
  -7   9   1  985.10   27.70
   7   9  -1 1010.20   28.30
  -5  -9   1   25.00    7.00
   5  -9  -1   24.40    5.00
   5  -9  -1   26.30    8.00
  -5   9   1   27.00    5.40
   5   9  -1   26.30    4.40
   5   9  -1   21.70    5.10
   3  -9  -1 1075.99   36.70
  -3  -9   1 1022.70   31.70
   3   9  -1 1052.89   24.40
   3   9  -1 1075.19   28.20
  -3   9   1 1052.19   26.40
   1  -9  -1   49.00    9.90
  -1  -9   1   76.09   10.50
  -1   9   1   58.59    7.10
   1   9  -1   49.99    6.50
  -1   9   1   57.99    7.20
   1   9  -1   50.09    7.10
   1  -9   1  320.17   17.00
   1  -9   1  313.17   14.30
  -1  -9  -1  356.56   20.40
   1   9   1  333.57   14.60
  -1   9  -1  339.77   14.30
   1   9   1  350.86   13.10
   3  -9   1  469.45   20.20
  -3  -9  -1  465.55   23.60
   3  -9   1  463.25   18.00
   3   9   1  436.76   17.30
  -3   9  -1  493.65   17.90
   3   9   1  492.45   14.60
   5  -9   1  171.28   12.50
   5  -9   1  169.28   11.30
  -5   9  -1  153.38   10.70
   5   9   1  179.88   11.50
   5   9   1  191.48    8.30
   7  -9   1 1251.47   32.20
   7  -9   1 1145.09   33.80
  -7  -9  -1 1126.19   39.00
   7   9   1 1128.39   31.30
  -7   9  -1 1122.69   30.50
  -9  -9  -1   27.40    5.20
   9  -9   1   14.40    5.70
  -9  -9  -1   32.80    9.40
   9  -9   1   23.40    5.70
   9   9   1   15.30    5.40
  -9   9  -1   37.80    7.40
 -11  -9  -1  188.28   12.00
 -11  -9  -1  202.68   21.20
  11  -9   1  193.88   13.80
 -11   9  -1  178.38   13.20
  11   9   1  186.98   13.80
  13  -9   1    2.40    4.10
 -13  -9  -1    2.10    3.40
  13   9   1    5.10    6.60
  13   9   1    3.60    4.90
 -13   9  -1    2.50    4.10
  15  -9   1 1446.16   41.40
 -15  -9  -1 1456.95   40.30
  15   9   1 1432.46   43.60
 -15   9  -1 1467.95   41.90
  15   9   1 1418.46   51.29
  14 -10  -1 1025.20   42.30
  14  10  -1 1045.50   43.50
  14  10  -1 1078.79   35.50
 -14  10   1  990.00   34.00
  12 -10  -1  178.38   21.40
  12  10  -1  154.08   15.50
 -12  10   1  173.88   13.50
  12  10  -1  168.28   20.50
  10 -10  -1  312.97   15.50
  10 -10  -1  288.07   21.30
  10  10  -1  328.97   22.10
  10  10  -1  306.77   17.20
 -10  10   1  307.47   17.30
  -8 -10   1    3.80    5.10
   8 -10  -1    2.10    5.20
   8 -10  -1   -0.50    2.30
  -8  10   1    5.80    4.10
   8  10  -1   -1.50    2.70
   6 -10  -1  462.55   25.60
   6 -10  -1  457.85   17.80
  -6 -10   1  450.15   22.80
   6  10  -1  449.06   14.90
   6  10  -1  431.76   18.50
  -6  10   1  493.05   19.30
   4 -10  -1 1345.67   43.30
  -4 -10   1 1368.66   39.50
  -4  10   1 1322.37   32.10
   4  10  -1 1388.26   29.40
   4  10  -1 1396.96   34.30
   2 -10  -1 4229.78   83.79
  -2 -10   1 4080.89   74.59
   2  10  -1 4161.98   67.79
   2  10  -1 4044.80   62.59
  -2  10   1 4158.08   64.29
  -2  10   1 4078.79   65.99
   0 -10   1    7.30    4.60
   0 -10  -1    5.90    4.60
   0  10  -1    1.50    2.70
   0  10   1   12.50    3.80
   0  10   1   -0.70    2.10
  -2 -10  -1 2695.33   63.39
   2 -10   1 2701.13   51.09
   2 -10   1 2697.83   55.89
   2  10   1 2755.72   51.19
   2  10   1 2683.03   44.50
  -2  10  -1 2652.63   49.20
  -4 -10  -1    0.10    5.10
   4 -10   1    3.40    3.10
   4 -10   1    8.70    4.90
   4  10   1    0.40    2.60
   4  10   1    4.10    2.40
  -4  10  -1    3.20    2.90
   6 -10   1  428.36   19.00
  -6 -10  -1  429.66   24.70
   6 -10   1  430.66   20.60
   6  10   1  395.06   18.40
  -6  10  -1  433.56   18.70
   8 -10   1  599.54   23.20
  -8 -10  -1  553.64   28.90
  -8  10  -1  654.83   24.00
   8  10   1  627.74   23.90
  10 -10   1 1475.95   39.00
 -10 -10  -1 1518.15   49.80
 -10  10  -1 1503.75   39.40
  10  10   1 1595.04   41.70
  12 -10   1   65.09   10.50
  12  10   1   62.89   11.10
 -12  10  -1   72.19   11.10
  14 -10   1  372.66   20.60
  14  10   1  383.46   27.20
 -14  10  -1  380.16   21.10
  14  10   1  357.96   21.70
  13 -11  -1   53.49   17.90
  13  11  -1   55.29   12.90
  13  11  -1   45.00    9.50
 -13  11   1   45.60    9.30
  11 -11  -1   12.50    7.40
  11 -11  -1   -0.30    3.00
  11  11  -1   -2.50    3.70
  11  11  -1    0.90    4.80
 -11  11   1    9.70    5.50
   9 -11  -1  384.86   24.50
  -9 -11   1  381.56   24.00
   9 -11  -1  397.36   18.00
   9  11  -1  361.46   19.20
  -9  11   1  407.86   20.00
  -7 -11   1 1022.40   37.20
   7 -11  -1 1018.30   39.50
   7 -11  -1 1029.70   29.20
  -7  11   1 1026.70   30.70
   7  11  -1 1067.19   32.00
  -5 -11   1   93.89   13.10
   5 -11  -1   81.59   13.80
   5  11  -1  126.69    8.60
  -5  11   1  126.89   12.50
   5  11  -1  113.49   12.00
  -3 -11   1  113.09   14.00
   3 -11  -1   92.49   14.70
   3  11  -1   98.19    9.50
   3  11  -1  100.29   11.50
  -3  11   1  110.59   10.80
  -3  11   1  111.99   11.40
  -1 -11   1   17.50    6.50
   1 -11  -1   17.20    7.40
  -1  11   1   14.20    4.80
  -1  11   1   11.70    4.00
   1  11  -1    7.90    3.90
   1  11  -1   11.30    4.70
   1 -11   1    9.10    3.90
  -1 -11  -1   12.00    6.90
   1 -11   1    0.40    4.10
   1  11   1    8.60    3.80
  -1  11  -1    8.00    3.90
   1  11   1   12.00    3.80
   3 -11   1 1226.18   33.10
   3 -11   1 1275.87   37.50
  -3 -11  -1 1337.07   44.70
  -3  11  -1 1277.67   33.30
   3  11   1 1297.97   28.30
   3  11   1 1263.97   33.60
   5 -11   1   64.49    9.20
   5 -11   1   81.99   11.80
  -5 -11  -1   59.29   11.90
   5  11   1   63.09    9.00
  -5  11  -1   52.79    8.50
  -7 -11  -1  148.89   19.40
   7 -11   1  136.09   14.00
   7  11   1  126.39   13.10
  -7  11  -1  120.69   12.50
  -9 -11  -1  205.38   22.80
   9 -11   1  164.38   13.30
   9  11   1  167.68   13.50
  -9  11  -1  178.58   13.70
  11 -11   1   97.69   12.40
 -11 -11  -1   79.09   15.30
  11  11   1   83.29   12.20
 -11  11  -1  142.99   15.60
  13 -11   1  235.78   16.60
 -13  11  -1  209.98   19.20
  13  11   1  202.98   16.70
  13  11   1  249.68   27.10
  12  12  -1   37.20   11.30
  12  12  -1   76.69   12.10
 -12  12   1   48.30   10.40
  10 -12  -1    8.10    7.70
  10 -12  -1    2.00    3.40
  10  12  -1    2.10    4.20
  10  12  -1   -2.20    4.90
 -10  12   1   -2.40    3.60
   8 -12  -1   31.40   10.00
  -8 -12   1   16.60    7.60
   8 -12  -1   37.50    7.70
   8  12  -1   28.30    7.10
  -8  12   1   25.70    7.10
  -6 -12   1  477.25   25.70
   6 -12  -1  483.25   27.40
  -6  12   1  480.35   20.90
   6  12  -1  430.06   20.80
  -6  12   1  481.85   21.10
   4 -12  -1  141.49   19.00
  -4 -12   1  105.39   14.90
   4  12  -1  106.09   12.50
   4  12  -1  126.49    9.50
  -4  12   1  112.69   12.10
  -4  12   1   95.79   11.40
   2 -12  -1    7.00    5.70
  -2 -12   1    7.20    5.50
   2  12  -1    6.70    3.70
  -2  12   1    7.40    4.40
   2  12  -1    9.10    4.80
  -2  12   1    6.40    3.50
   0 -12   1   17.10    6.80
   0 -12  -1   10.10    6.70
   0  12   1    3.80    3.80
   0  12  -1   14.20    5.60
   0  12   1   20.90    5.20
   0  12  -1   15.50    4.70
   2 -12   1  618.54   23.80
  -2 -12  -1  582.04   30.40
   2 -12   1  561.24   25.50
   2  12   1  577.04   22.90
  -2  12  -1  608.64   22.70
   2  12   1  560.64   19.00
  -4 -12  -1  189.28   21.10
   4 -12   1  188.48   13.20
   4 -12   1  206.48   15.80
   4  12   1  201.48   14.10
  -4  12  -1  182.28   13.10
  -6 -12  -1   22.60    8.90
   6 -12   1   34.80    7.50
  -6  12  -1   30.20    7.10
   6  12   1   41.10    8.50
   8 -12   1   74.59   10.80
  -8 -12  -1   69.49   13.90
   8  12   1   81.49   11.80
  -8  12  -1   81.59   12.10
  10 -12   1  180.78   14.50
 -10 -12  -1  189.18   23.30
  10  12   1  185.98   15.30
 -10  12  -1  150.78   15.80
  12 -12   1  154.88   16.90
 -12  12  -1  110.69   14.30
  12  12   1   95.79   13.60
  11  13  -1  607.94   28.70
  -9 -13   1 1011.00   42.30
   9 -13  -1 1049.00   42.40
  -9  13   1 1029.70   34.60
   9  13  -1 1038.40   35.60
  -7 -13   1  515.75   28.70
   7 -13  -1  625.04   31.90
  -7  13   1  582.14   24.80
   7  13  -1  588.04   25.90
  -7  13   1  559.84   24.00
   5 -13  -1   -0.80    5.30
  -5 -13   1    5.80    5.60
  -5  13   1    8.40    4.90
  -5  13   1    3.50    3.90
   5  13  -1    3.90    4.30
   3 -13  -1  890.71   38.10
  -3 -13   1  962.00   36.30
   3  13  -1  895.31   31.10
  -3  13   1  880.91   29.80
  -3  13   1  883.31   28.40
   3  13  -1  917.61   26.50
   1 -13  -1  364.46   24.60
  -1 -13   1  315.77   20.80
  -1  13   1  348.77   16.80
   1  13  -1  335.47   16.40
   1  13  -1  373.76   19.80
  -1  13   1  320.57   18.00
   1 -13   1   94.89   14.00
  -1 -13  -1  103.59   16.70
  -1  13  -1   90.19   10.90
  -1  13  -1   82.79   11.40
   1  13   1   72.49    9.00
   1  13   1  116.79   13.40
  -3 -13  -1  439.66   27.90
  -3  13  -1  425.76   20.10
   3  13   1  444.76   21.30
  -5 -13  -1  293.57   23.70
   5 -13   1  301.07   17.80
   5  13   1  273.67   17.20
  -5  13  -1  313.67   17.80
  -7 -13  -1 1316.17   49.70
   7 -13   1 1148.29   36.20
  -7  13  -1 1168.98   36.60
   7  13   1 1259.97   38.70
   9 -13   1    8.60    5.10
  -9 -13  -1    9.30    7.90
   9  13   1   21.80    7.10
  -9  13  -1   19.00    6.60
  11 -13   1  188.58   15.50
   8 -14  -1   -3.90    5.90
  -8 -14   1   -0.10    6.10
   8  14  -1   -0.40    4.20
  -8  14   1   -3.70    3.70
   6 -14  -1  248.48   25.70
  -6 -14   1  193.08   22.00
  -6  14   1  216.18   15.60
   6  14  -1  212.88   16.60
  -6  14   1  220.78   15.50
   4 -14  -1 1127.39   44.20
  -4 -14   1 1187.08   42.30
  -4  14   1 1142.69   35.70
  -4  14   1 1147.39   34.60
   4  14  -1 1196.88   38.20
   2 -14  -1 1330.27   49.20
  -2 -14   1 1339.27   44.40
   2  14  -1 1330.97   40.20
   2  14  -1 1346.57   34.90
  -2  14   1 1338.67   39.00
  -2  14   1 1338.47   36.10
   0 -14  -1   24.50    9.70
   0 -14   1   20.80    8.00
   0  14   1   20.90    6.70
   0  14  -1   19.00    6.50
   0  14  -1   17.50    5.70
   0  14   1   23.10    5.90
  -2 -14  -1 1580.74   54.59
   2  14   1 1507.65   43.10
  -2  14  -1 1521.55   43.80
  -2  14  -1 1511.55   40.20
   2  14   1 1491.05   41.70
  -4 -14  -1    0.90    6.20
   4  14   1    0.00    3.60
  -4  14  -1    1.10    4.10
  -6 -14  -1   57.89   13.70
   6 -14   1   52.19    9.90
  -6  14  -1   58.39   10.10
   6  14   1   45.80    9.10
   8 -14   1   58.39   10.50
   5 -15  -1  119.49   18.00
  -5 -15   1  100.49   15.80
  -5  15   1   78.69   11.70
  -3 -15   1   30.50   10.10
   3 -15  -1   30.40   11.10
   3  15  -1   35.60   10.40
  -3  15   1   28.00    7.20
  -3  15   1   26.60    7.60
   1 -15  -1  236.28   26.40
  -1  15   1  197.08   14.30
   1  15  -1  201.68   16.50
   1  15  -1  198.88   14.30
  -1  15   1  163.78   16.80
  -1 -15  -1  292.77   24.60
   1  15   1  290.87   18.90
   1  15   1  315.97   17.70
  -1  15  -1  302.67   18.00
  -1  15  -1  318.57   20.40
  -3 -15  -1   19.70    9.70
  -3  15  -1   33.60    7.70
  -3  15  -1   37.90    9.80
   3  15   1   40.30   10.10
 -18   0   2  170.78   17.50
  18   0  -2  138.39   18.80
 -16   0   2  537.55   23.40
  16   0  -2  568.04   28.70
  14   0  -2  645.64   28.40
 -14   0   2  690.43   24.50
  12   0  -2 1612.14   42.50
 -12   0   2 1617.64   31.50
 -12   0   2 1633.24   36.50
  10   0  -2   79.39   10.40
  10   0  -2   88.99    5.90
 -10   0   2   60.69    7.30
 -10   0   2   79.29    6.00
  -8   0   2  137.79    7.20
  -8   0   2  151.38    8.60
   8   0  -2  144.79    6.20
   6   0  -2 2203.18   39.80
  -6   0   2 2208.38   33.90
   6   0  -2 2285.37   28.40
  -6   0   2 2240.38   35.60
   4   0  -2 8248.78   99.49
  -4   0   2 8291.47   94.89
  -4   0   2 8150.58   95.19
   2   0  -2 4735.73   58.69
   2   0  -2 4700.63   51.29
  -2   0   2 4758.02   58.09
   2   0  -2 4729.13   57.99
  -2   0   2 4702.93   50.59
   0   0   2 5179.18   61.49
   0   0   2 5229.78   62.69
   0   0  -2 5248.67   65.09
   0   0  -2 5221.08   60.99
   2   0   2  120.09    5.50
  -2   0  -2  116.39    4.70
   2   0   2  125.09    6.70
  -4   0  -2 3757.02   46.70
   4   0   2 3607.94   53.89
   4   0   2 3764.92   46.40
   6   0   2 4706.73   68.79
  -6   0  -2 4792.52   56.69
   6   0   2 4710.93   62.19
  -8   0  -2 2069.19   40.00
  -8   0  -2 2100.89   29.20
   8   0   2 2065.79   37.40
   8   0   2 2083.89   41.50
  10   0   2   90.99   10.70
 -10   0  -2  100.19    5.10
 -10   0  -2  114.89   11.20
  10   0   2  101.69    8.50
 -12   0  -2 3142.09   58.89
  12   0   2 3101.69   60.19
  12   0   2 3091.29   57.19
 -14   0  -2   64.69   10.00
  14   0   2   70.09   10.50
  14   0   2   60.49    9.80
 -16   0  -2  301.67   18.90
  16   0   2  325.97   19.60
  16   0   2  309.17   19.90
  18   0   2  314.77   20.50
 -18   0  -2  274.17   19.20
  19  -1  -2   16.00    8.20
 -19  -1   2   34.50    9.40
  19   1  -2   25.50    9.80
 -19   1   2   29.30    9.10
 -17  -1   2  390.76   21.20
  17  -1  -2  368.96   24.60
 -17   1   2  412.66   20.90
  17   1  -2  391.56   25.00
  15  -1  -2  526.45   26.80
 -15  -1   2  524.45   22.30
 -15   1   2  547.75   22.60
  15   1  -2  563.24   27.50
 -13  -1   2   37.30    6.90
  13  -1  -2   47.00    9.80
 -13   1   2   36.80    5.80
 -13   1   2   34.90    6.70
  13   1  -2   39.10    8.90
  11  -1  -2 1102.89   21.80
  11  -1  -2 1079.89   33.20
 -11  -1   2 1071.59   24.10
 -11  -1   2 1155.38   29.10
  11   1  -2 1130.29   24.80
 -11   1   2 1137.59   27.90
  11   1  -2 1122.59   33.00
 -11   1   2 1120.29   25.00
   9  -1  -2 2740.43   37.20
  -9  -1   2 2762.72   46.10
  -9  -1   2 2734.23   42.00
  -9   1   2 2793.92   45.40
  -9   1   2 2768.42   42.40
   9   1  -2 2771.22   41.20
   9   1  -2 2622.94   51.09
   7  -1  -2 1819.82   24.20
   7  -1  -2 1796.72   37.40
  -7  -1   2 1820.02   30.50
   7   1  -2 1828.52   36.40
  -7   1   2 1841.72   30.60
   7   1  -2 1859.71   27.20
   5  -1  -2 1082.59   13.10
  -5  -1   2 1065.59   20.80
   5  -1  -2 1081.79   24.80
  -5  -1   2 1037.80   21.10
  -5   1   2 1080.89   20.50
  -5   1   2 1080.49   13.60
   5   1  -2 1087.29   15.80
  -5   1   2 1102.99   20.70
   5   1  -2 1110.19   23.80
  -3  -1   2  589.84   14.00
   3  -1  -2  582.74   15.60
  -3   1   2  571.34   13.10
   3   1  -2  573.04   14.20
  -1  -1   2  144.09    4.90
  -1  -1   2  124.89    6.20
   1  -1  -2  136.69    7.10
   1  -1  -2  132.99    6.20
  -1   1   2  139.99    4.50
   1   1  -2  139.89    5.40
  -1  -1  -2 2957.70   45.30
  -1  -1  -2 3044.80   41.90
   1  -1   2 3062.69   41.30
   1  -1   2 3112.19   34.00
   1  -1   2 3020.50   41.50
   1   1   2 3022.30   39.80
  -1   1  -2 2990.70   45.50
  -1   1  -2 3047.70   34.30
   1   1   2 3062.69   38.80
   3  -1   2  255.97    5.60
   3  -1   2  234.68    6.00
  -3  -1  -2  226.88    8.50
   3  -1   2  247.98    8.30
  -3  -1  -2  244.68   10.40
   3   1   2  250.67    9.40
  -3   1  -2  255.67   11.50
   3   1   2  257.07    7.40
   5  -1   2  403.26   14.80
   5  -1   2  396.86   10.40
  -5  -1  -2  396.66   12.30
  -5  -1  -2  404.86   14.20
   5   1   2  400.46    9.00
  -5   1  -2  407.66   10.80
   5   1   2  402.16   14.00
  -5   1  -2  394.86   14.20
   7  -1   2  394.56   16.10
  -7  -1  -2  402.36   15.30
   7  -1   2  404.26   12.80
  -7  -1  -2  414.76    8.60
  -7   1  -2  382.76   15.00
   7   1   2  411.56   14.40
   7   1   2  417.26   16.10
  -7   1  -2  416.76   11.10
  -9  -1  -2  745.93   12.20
   9  -1   2  706.93   20.20
   9  -1   2  717.73   23.70
  -9  -1  -2  688.73   22.30
   9   1   2  705.13   21.60
   9   1   2  723.43   23.50
  -9   1  -2  732.23   16.20
  -9   1  -2  735.53   22.90
  11  -1   2 1441.76   34.10
  11  -1   2 1477.65   37.80
 -11  -1  -2 1458.65   35.70
 -11   1  -2 1383.66   35.20
 -11   1  -2 1434.36   25.40
  11   1   2 1418.36   34.90
  11   1   2 1374.96   36.50
 -13  -1  -2  822.42   28.10
  13  -1   2  790.52   26.70
  13  -1   2  881.41   30.20
 -13   1  -2  807.82   27.70
  13   1   2  804.12   28.50
  13   1   2  843.82   28.50
 -15  -1  -2    2.40    4.10
  15  -1   2    9.60    5.30
  15  -1   2    2.10    4.10
 -15   1  -2    0.20    3.80
  15   1   2   12.10    5.80
  15   1   2    8.30    5.00
  17  -1   2 1625.24   46.80
 -17  -1  -2 1634.84   47.60
 -17   1  -2 1688.73   47.60
  17   1   2 1633.04   46.70
  17   1   2 1665.63   47.80
 -19  -1  -2   30.70    8.70
  19  -1   2   20.00    7.40
 -19   1  -2   17.00    7.20
  19   1   2   15.10    7.10
 -18  -2   2    5.00    4.90
  18  -2  -2   14.90    8.50
 -18   2   2   20.80    6.90
  18   2  -2    6.00    6.30
 -16  -2   2  186.18   14.60
  16  -2  -2  146.69   18.50
  16   2  -2  171.78   19.80
 -16   2   2  150.78   12.50
 -14  -2   2    7.70    4.20
  14  -2  -2   11.80    6.30
 -14   2   2    4.20    3.50
 -14   2   2    8.90    3.70
  14   2  -2    5.80    5.20
 -12  -2   2  126.29   10.10
  12  -2  -2  135.29   14.70
  12   2  -2  121.99   13.40
 -12   2   2  147.69    9.10
  12   2  -2  142.09   11.20
 -12   2   2  140.79   10.00
  10  -2  -2  100.29    5.50
  10  -2  -2   96.69   11.40
 -10  -2   2   89.09    9.10
 -10  -2   2  109.09    7.40
  10   2  -2  107.59   12.20
 -10   2   2   91.29    6.90
 -10   2   2  102.29    7.80
  10   2  -2  103.59    7.10
   8  -2  -2  686.53   23.20
   8  -2  -2  680.13   13.00
  -8  -2   2  677.43   17.40
  -8  -2   2  698.43   19.50
  -8   2   2  675.53   17.60
   8   2  -2  657.93   21.60
   8   2  -2  690.73   15.80
  -8   2   2  638.34   17.40
   6  -2  -2   19.70    2.10
  -6  -2   2   12.10    3.00
  -6  -2   2   15.50    3.30
   6  -2  -2   18.30    4.80
   6   2  -2   13.00    2.30
  -6   2   2   12.00    2.60
  -6   2   2   18.50    3.40
   6   2  -2   20.70    4.30
  -4  -2   2   78.19    5.10
  -4  -2   2   70.99    5.30
   4  -2  -2   86.19    8.40
  -4   2   2   82.09    4.80
  -4   2   2   76.19    5.10
   4   2  -2   81.89    3.80
   4   2  -2   93.69    6.30
  -2  -2   2  222.08    6.50
  -2  -2   2  211.38    8.50
   2  -2  -2  226.98    7.40
   2  -2  -2  212.58    9.90
  -2   2   2  220.78    7.80
  -2   2   2  214.88    5.40
   2   2  -2  225.68    7.60
   2   2  -2  220.98    8.20
   0  -2  -2  251.87    9.40
   0  -2   2  228.08    7.60
   0  -2  -2  232.68   10.00
   0  -2   2  245.28    9.00
   0   2   2  226.68    7.20
   0   2   2  227.48    6.90
   0   2  -2  235.78    9.00
   0   2  -2  218.88    5.60
   2  -2   2  128.49    6.90
   2  -2   2  142.69    6.80
  -2  -2  -2  116.39    7.30
  -2  -2  -2  136.49    7.50
   2   2   2  124.59    4.90
   2   2   2  128.39    6.20
  -4  -2  -2   22.20    4.10
   4  -2   2   22.80    2.50
   4  -2   2   26.80    4.70
  -4  -2  -2   22.50    4.20
   4   2   2   20.90    3.70
   4   2   2   19.50    2.40
  -4   2  -2   18.60    3.20
  -4   2  -2   20.70    4.50
  -6  -2  -2   48.40    6.00
   6  -2   2   49.40    5.00
  -6  -2  -2   47.10    6.10
   6  -2   2   54.39    7.40
   6   2   2   45.70    2.60
  -6   2  -2   46.40    4.80
   6   2   2   49.20    6.60
  -6   2  -2   45.40    6.20
  -8  -2  -2   64.59    7.60
   8  -2   2   52.49    6.20
   8  -2   2   62.29    8.70
   8   2   2   54.19    7.70
  -8   2  -2   49.00    5.20
  -8   2  -2   41.30    6.20
   8   2   2   53.39    7.40
 -10  -2  -2  493.25   19.10
  10  -2   2  484.05   17.50
  10  -2   2  491.05   20.20
 -10   2  -2  502.75   19.40
  10   2   2  489.75   19.50
 -10   2  -2  505.65   14.60
  10   2   2  477.95   19.70
  12  -2   2   -1.30    2.90
 -12  -2  -2    4.70    3.80
  12  -2   2   -1.30    2.90
  12   2   2   -0.30    2.60
 -12   2  -2    0.70    2.70
 -12   2  -2    0.00    2.50
  12   2   2    5.00    3.90
  14  -2   2   96.29   13.30
  14  -2   2  115.79   12.90
 -14  -2  -2  106.19   12.90
  14   2   2  126.69   14.50
  14   2   2  106.79   13.30
 -14   2  -2   90.99   11.80
 -16  -2  -2   84.89   12.50
  16  -2   2   82.39   12.70
 -16   2  -2   67.59   10.70
  16   2   2   69.19   11.90
  16   2   2   75.29   12.10
 -18  -2  -2  121.09   15.90
  18  -2   2  117.29   15.70
  18   2   2  110.09   15.10
 -18   2  -2  110.59   14.70
  18   2   2  116.59   16.20
  19  -3  -2   16.50    9.10
 -19   3   2   24.40    8.10
  17  -3  -2  481.45   28.30
 -17  -3   2  520.15   24.80
 -17   3   2  479.95   22.40
  17   3  -2  456.45   27.40
 -15  -3   2  102.89   12.90
  15  -3  -2   91.39   15.00
 -15   3   2   95.69   11.60
  15   3  -2   98.09   14.90
 -13  -3   2   12.20    4.90
  13  -3  -2   24.20    7.60
  13   3  -2    8.30    5.50
 -13   3   2   23.20    5.60
 -13   3   2   18.80    4.90
 -11  -3   2 1340.87   32.50
  11  -3  -2 1205.18   37.00
 -11   3   2 1264.17   29.20
  11   3  -2 1258.27   36.00
  11   3  -2 1268.37   27.90
 -11   3   2 1307.87   29.20
   9  -3  -2 1442.06   37.60
  -9  -3   2 1448.46   27.50
   9  -3  -2 1443.66   23.60
  -9  -3   2 1402.76   31.20
   9   3  -2 1475.85   36.00
  -9   3   2 1444.86   29.30
  -9   3   2 1375.26   28.30
   9   3  -2 1440.46   27.20
   7  -3  -2 1774.92   25.20
  -7  -3   2 1754.62   30.70
  -7  -3   2 1694.83   32.50
   7  -3  -2 1754.72   38.70
   7   3  -2 1680.53   27.80
   7   3  -2 1784.72   36.60
  -7   3   2 1789.42   31.60
  -7   3   2 1763.62   30.00
  -5  -3   2 1159.88   23.00
   5  -3  -2 1186.58   17.70
   5  -3  -2 1134.39   28.70
  -5  -3   2 1167.08   23.50
  -5   3   2 1125.19   22.60
   5   3  -2 1144.19   19.80
  -5   3   2 1184.98   21.00
   5   3  -2 1157.18   25.60
   3  -3  -2  348.07    9.10
  -3  -3   2  333.97   11.20
   3  -3  -2  367.76   14.70
  -3  -3   2  351.46    9.30
  -3   3   2  345.67   10.60
   3   3  -2  347.87   11.30
  -3   3   2  343.47    8.10
  -1  -3   2    4.90    1.70
   1  -3  -2    5.70    2.10
  -1  -3   2    4.60    2.20
   1  -3  -2    7.50    3.60
   1   3  -2    2.50    1.50
   1   3  -2   11.10    2.80
  -1   3   2    3.40    1.40
  -1   3   2    4.00    1.80
  -1  -3  -2 4907.51   63.69
   1  -3   2 4923.51   54.69
   1  -3   2 4888.91   62.59
  -1  -3  -2 4849.31   69.29
  -1   3  -2 4912.41   65.99
   1   3   2 4968.00   60.29
   1   3   2 4913.11   58.59
  -1   3  -2 4919.51   63.09
   3  -3   2   98.29    3.80
   3  -3   2   97.19    6.70
  -3  -3  -2   93.19    6.10
  -3  -3  -2  103.49    7.90
  -3   3  -2  109.49    8.10
  -3   3  -2   92.09    5.90
   3   3   2   90.59    5.90
   3   3   2   92.89    4.20
  -5  -3  -2 2616.64   41.40
  -5  -3  -2 2598.64   45.30
   5  -3   2 2579.74   44.60
   5  -3   2 2571.34   36.00
   5   3   2 2642.84   42.40
   5   3   2 2599.44   32.00
  -5   3  -2 2615.84   44.00
  -5   3  -2 2544.75   39.40
  -7  -3  -2  526.55   17.10
   7  -3   2  565.54   19.60
   7  -3   2  562.44   15.30
  -7  -3  -2  556.54   19.20
   7   3   2  559.34   18.30
  -7   3  -2  569.14   15.60
  -7   3  -2  528.05   17.90
  -9  -3  -2  719.63   22.30
   9  -3   2  744.93   24.60
   9  -3   2  745.53   20.70
  -9   3  -2  739.73   22.80
  -9   3  -2  744.83   19.10
   9   3   2  717.33   22.90
   9   3   2  747.93   25.20
 -11  -3  -2  395.86   18.00
  11  -3   2  458.85   20.40
  11  -3   2  447.26   17.60
 -11   3  -2  410.46   14.50
  11   3   2  436.16   20.00
  11   3   2  454.25   19.90
 -11   3  -2  433.86   18.50
  13  -3   2 1131.09   34.80
  13  -3   2 1067.29   30.90
 -13  -3  -2 1125.89   33.30
 -13   3  -2 1068.49   32.00
  13   3   2 1108.29   35.10
  13   3   2 1115.29   34.60
  15  -3   2   37.80    8.70
 -15  -3  -2   21.00    6.80
 -15   3  -2   21.40    6.60
  15   3   2   21.00    7.00
  15   3   2   21.10    7.30
  17  -3   2 1051.49   36.90
 -17  -3  -2  973.90   36.00
  17   3   2 1026.10   37.70
  17   3   2  997.30   36.00
 -17   3  -2 1088.49   37.10
  19  -3   2    1.90    5.10
 -19   3  -2    4.50    5.70
  19   3   2    9.60    6.30
  19   3   2   -1.80    5.40
  18  -4  -2  334.07   25.10
 -18  -4   2  359.36   21.20
  18   4  -2  368.26   25.70
 -18   4   2  356.36   20.20
  16  -4  -2  505.95   28.10
 -16  -4   2  503.35   23.70
  16   4  -2  469.05   26.50
 -16   4   2  476.95   21.40
  14  -4  -2  215.28   18.10
 -14  -4   2  214.38   14.50
 -14   4   2  199.28   12.60
  14   4  -2  167.38   17.90
 -14   4   2  219.68   13.20
 -12  -4   2 1055.69   30.00
  12  -4  -2 1001.00   34.80
 -12   4   2 1045.50   27.30
  12   4  -2 1029.20   26.50
  12   4  -2 1015.90   34.20
 -12   4   2 1050.59   26.80
  10  -4  -2   43.30    4.80
 -10  -4   2   32.00    5.90
  10  -4  -2   48.00    9.00
 -10  -4   2   48.90    5.50
  10   4  -2   38.80    5.50
 -10   4   2   45.20    6.60
  10   4  -2   47.60    8.80
 -10   4   2   39.00    5.80
   8  -4  -2  173.18   13.00
  -8  -4   2  169.98    9.70
  -8  -4   2  183.58    8.70
   8  -4  -2  182.98    7.20
  -8   4   2  163.98    8.20
   8   4  -2  171.68   11.60
   8   4  -2  175.68    8.50
  -8   4   2  162.28    9.10
   6  -4  -2 1624.94   38.00
  -6  -4   2 1604.34   30.40
  -6  -4   2 1596.04   28.50
   6  -4  -2 1600.54   24.50
  -6   4   2 1614.94   30.00
  -6   4   2 1569.04   26.30
   6   4  -2 1587.24   27.20
   6   4  -2 1575.94   33.70
   4  -4  -2 4842.52   57.39
   4  -4  -2 4625.24   73.59
  -4  -4   2 4779.52   62.49
  -4  -4   2 4764.92   62.89
   4   4  -2 4729.83   66.29
  -4   4   2 4815.32   62.89
   4   4  -2 4849.21   60.29
  -2  -4   2 2061.79   32.10
   2  -4  -2 2098.79   29.50
  -2  -4   2 2085.59   34.00
   2  -4  -2 2103.99   42.00
  -2   4   2 2088.19   32.40
   2   4  -2 2181.48   32.90
  -2   4   2 2115.29   30.10
   0  -4   2 2713.83   36.50
   0  -4  -2 2704.33   48.50
   0  -4   2 2657.63   39.80
   0  -4  -2 2739.93   38.50
   0   4  -2 2734.83   41.20
   0   4  -2 2755.32   40.80
   0   4   2 2730.43   37.40
   0   4   2 2640.24   37.80
   2  -4   2  261.27   10.50
  -2  -4  -2  265.67   13.20
  -2  -4  -2  272.67    9.20
   2  -4   2  284.17    7.80
  -2   4  -2  254.77   10.20
   2   4   2  267.27    7.90
  -2   4  -2  272.77   12.00
   2   4   2  274.37    9.80
  -4  -4  -2 1042.50   27.10
  -4  -4  -2 1045.70   21.30
   4  -4   2 1008.80   24.40
   4  -4   2 1028.60   19.00
   4   4   2 1029.50   16.50
  -4   4  -2 1053.99   24.70
  -4   4  -2 1019.40   22.30
   4   4   2 1006.70   22.50
  -6  -4  -2 2877.81   52.49
   6  -4   2 2931.11   43.10
   6  -4   2 2951.70   50.69
  -6  -4  -2 2894.61   46.10
   6   4   2 2962.60   34.90
  -6   4  -2 2966.00   45.60
   6   4   2 2920.51   47.70
  -6   4  -2 2922.21   48.20
  -8  -4  -2 1049.70   26.20
   8  -4   2 1058.49   24.20
   8  -4   2 1076.89   29.30
  -8  -4  -2 1083.29   30.50
  -8   4  -2 1056.69   26.60
   8   4   2 1069.99   27.50
  -8   4  -2 1053.89   24.50
 -10  -4  -2   52.19    7.50
  10  -4   2   82.79    9.10
  10  -4   2  102.09   12.10
 -10   4  -2   66.29    8.60
  10   4   2   70.89    9.50
  10   4   2   63.59    9.70
 -10   4  -2   62.59    7.10
  12  -4   2 2226.68   50.19
  12  -4   2 2194.68   45.70
 -12  -4  -2 2224.78   47.50
  12   4   2 2235.68   51.79
  12   4   2 2147.29   48.80
 -12   4  -2 2187.48   41.00
 -12   4  -2 2192.68   46.60
 -14  -4  -2    5.40    3.90
  14  -4   2    0.40    4.20
  14   4   2   -0.20    4.10
 -14   4  -2    1.20    3.60
  14   4   2    4.00    4.30
  16  -4   2  145.09   16.60
 -16  -4  -2  139.09   15.70
  16   4   2  167.88   19.30
  16   4   2  160.68   17.50
 -16   4  -2  132.79   14.80
 -18  -4  -2  165.48   19.10
  18  -4   2  170.78   18.70
  18   4   2  169.38   18.70
 -18   4  -2  185.58   18.80
  18   4   2  156.58   19.00
  17  -5  -2   55.09   13.50
 -17  -5   2   42.90    9.20
 -17   5   2   54.39    9.30
  17   5  -2   41.00   10.50
  15  -5  -2  423.56   26.00
 -15  -5   2  431.96   21.10
  15   5  -2  438.36   25.70
 -15   5   2  401.26   18.80
 -15   5   2  449.36   19.90
  13  -5  -2  530.05   27.20
 -13  -5   2  561.64   22.40
  13   5  -2  534.65   25.90
 -13   5   2  532.25   20.40
 -13   5   2  541.45   19.70
 -11  -5   2  449.36   18.30
  11  -5  -2  457.85   23.80
  11   5  -2  456.55   22.00
 -11   5   2  486.75   18.20
 -11   5   2  448.46   16.10
  11   5  -2  453.95   16.60
  -9  -5   2 1173.58   28.60
   9  -5  -2 1180.98   36.60
   9  -5  -2 1195.68   22.90
  -9  -5   2 1203.88   23.20
   9   5  -2 1222.08   26.60
   9   5  -2 1152.08   33.20
  -9   5   2 1172.18   28.00
  -9   5   2 1170.38   24.70
   7  -5  -2  680.93   25.70
   7  -5  -2  661.63   15.20
  -7  -5   2  623.14   16.10
  -7  -5   2  670.63   19.00
   7   5  -2  659.33   22.20
  -7   5   2  645.44   18.90
   7   5  -2  639.84   17.30
  -7   5   2  654.83   15.60
   5  -5  -2   98.89   11.40
   5  -5  -2  108.59    5.50
  -5  -5   2   93.89    6.50
   5   5  -2  106.19    8.20
  -5   5   2  106.79    5.30
  -5   5   2   83.59    6.30
   5   5  -2  102.39    6.40
  -3  -5   2 2099.69   34.00
  -3  -5   2 2104.29   36.60
   3  -5  -2 2089.29   45.10
   3  -5  -2 2127.09   29.00
  -3   5   2 2110.79   31.90
  -3   5   2 2054.99   34.30
   3   5  -2 2106.69   33.90
   3   5  -2 2066.09   34.60
  -1  -5   2    2.60    2.00
   1  -5  -2    4.60    3.80
   1  -5  -2    2.10    1.80
  -1  -5   2    3.50    2.00
   1   5  -2    0.80    1.90
   1   5  -2   11.40    2.80
  -1   5   2    5.70    2.00
  -1   5   2    5.50    2.00
   1  -5   2  569.24   13.90
  -1  -5  -2  555.84   12.00
   1  -5   2  563.54   16.00
  -1  -5  -2  554.24   20.60
  -1   5  -2  570.24   16.00
   1   5   2  552.84   14.80
   1   5   2  570.24   13.60
  -1   5  -2  568.34   17.00
  -3  -5  -2  498.85   12.80
   3  -5   2  498.85   16.10
  -3  -5  -2  516.65   20.10
   3  -5   2  530.95   13.40
  -3   5  -2  526.55   15.80
  -3   5  -2  504.95   16.70
   3   5   2  491.75   11.50
   3   5   2  511.95   15.30
  -5  -5  -2  147.19    7.60
   5  -5   2  143.19    9.20
   5  -5   2  146.49    7.70
  -5   5  -2  125.39    8.40
   5   5   2  150.08    5.30
   5   5   2  136.49    8.60
  -5   5  -2  134.19    8.30
  -7  -5  -2  402.56   18.80
  -7  -5  -2  401.56   14.60
   7  -5   2  426.46   17.80
   7  -5   2  416.46   14.50
  -7   5  -2  398.16   14.80
   7   5   2  401.66    8.40
  -7   5  -2  417.06   15.40
  -9  -5  -2   22.40    5.20
  -9  -5  -2   16.90    5.90
   9  -5   2   30.70    6.80
   9  -5   2   34.40    6.00
  -9   5  -2   17.90    4.60
  -9   5  -2   19.20    4.50
   9   5   2   16.80    5.00
 -11  -5  -2 1014.70   29.10
  11  -5   2 1015.80   31.60
  11  -5   2 1007.80   31.10
 -11   5  -2 1006.70   26.60
  11   5   2  972.00   30.00
 -11   5  -2 1036.40   29.10
  11   5   2  983.10   33.50
  13  -5   2  146.19   15.70
 -13  -5  -2   94.39   11.40
  13   5   2  108.99   14.40
 -13   5  -2  112.99   11.30
  13   5   2  121.39   13.60
 -13   5  -2  110.49   12.20
  15  -5   2  137.09   15.50
 -15  -5  -2  145.89   15.50
  15   5   2   98.79   14.30
 -15   5  -2  134.39   14.40
  15   5   2  173.78   17.40
 -17  -5  -2  964.90   36.00
  17  -5   2 1023.20   36.30
  17   5   2  925.61   37.60
 -17   5  -2  940.71   34.10
  17   5   2  926.01   36.10
  18  -6  -2   25.70   11.10
 -16  -6   2  568.44   25.60
  16  -6  -2  523.75   30.80
 -16   6   2  523.15   23.10
  16   6  -2  539.75   30.20
 -14  -6   2   78.79   11.30
  14  -6  -2   74.29   13.60
  14   6  -2  103.39   15.70
 -14   6   2   97.89   16.30
 -14   6   2   82.89   10.70
  12  -6  -2  337.17   21.90
 -12  -6   2  340.97   16.90
  12   6  -2  330.87   15.10
 -12   6   2  306.27   15.60
  12   6  -2  297.17   19.30
 -12   6   2  283.57   13.20
 -10  -6   2  325.87   15.10
  10  -6  -2  340.37   21.00
  10  -6  -2  316.67   12.00
 -10   6   2  303.27   14.60
  10   6  -2  317.27   18.10
  10   6  -2  325.27   13.80
 -10   6   2  331.37   12.70
   8  -6  -2 2074.89   51.09
  -8  -6   2 1997.50   39.00
   8  -6  -2 2087.39   34.40
   8   6  -2 2077.19   34.00
  -8   6   2 2134.89   33.90
   8   6  -2 2062.29   46.20
   8   6  -2 2098.09   38.20
  -8   6   2 2072.99   40.30
  -6  -6   2   21.50    4.10
   6  -6  -2   12.10    5.60
   6  -6  -2   22.40    3.70
   6   6  -2   24.20    3.90
   6   6  -2   31.20    4.90
  -6   6   2   22.90    3.30
  -6   6   2   17.10    4.00
   6   6  -2   30.50    6.10
  -4  -6   2   84.89    9.00
   4  -6  -2   85.09    4.20
   4  -6  -2   79.39   10.70
   4   6  -2   84.19    6.20
   4   6  -2   75.49    5.90
   4   6  -2   70.39    5.80
   2  -6  -2  756.82   26.50
  -2  -6   2  783.72   20.20
  -2  -6   2  724.53   19.00
   2  -6  -2  769.42   13.60
  -2   6   2  725.33   18.30
   2   6  -2  786.72   18.30
   2   6  -2  730.13   18.90
  -2   6   2  728.13   17.50
   0  -6   2  510.45   15.10
   0  -6   2  526.45   16.30
   0  -6  -2  522.85   21.70
   0  -6  -2  517.75    9.50
   0   6   2  515.75   15.00
   0   6  -2  507.85   15.30
   0   6   2  519.35   14.30
   0   6  -2  489.35   15.40
   2  -6   2  379.06   14.20
  -2  -6  -2  380.46    9.60
  -2  -6  -2  383.96   18.40
   2  -6   2  382.46   12.50
  -2   6  -2  373.96   13.60
   2   6   2  391.86   11.20
  -2   6  -2  371.36   14.20
   2   6   2  392.16   13.50
   4  -6   2  148.99    9.60
  -4  -6  -2  160.78    7.30
  -4  -6  -2  156.38   12.30
   4  -6   2  158.18    8.30
   4   6   2  148.49    8.70
   4   6   2  144.49    6.10
  -4   6  -2  160.18    9.40
  -4   6  -2  167.58    9.40
   6  -6   2   47.30    7.40
   6  -6   2   40.80    5.90
  -6  -6  -2   54.89    9.10
  -6  -6  -2   44.60    5.50
  -6   6  -2   39.10    5.90
   6   6   2   39.80    6.30
   6   6   2   49.90    3.30
  -6   6  -2   49.99    6.80
  -8  -6  -2  169.58    9.80
  -8  -6  -2  152.28   12.80
   8  -6   2  174.38   11.80
   8  -6   2  166.58   10.50
  -8   6  -2  148.79   10.20
  -8   6  -2  152.68    9.80
   8   6   2  154.48   10.60
 -10  -6  -2 1496.05   42.40
 -10  -6  -2 1362.06   32.80
  10  -6   2 1515.45   38.50
  10   6   2 1519.95   37.70
 -10   6  -2 1508.35   34.00
 -10   6  -2 1474.95   34.50
 -12  -6  -2   11.70    4.90
  12  -6   2   10.30    4.90
 -12   6  -2   15.80    5.20
 -12   6  -2   10.50    4.60
  12   6   2    7.00    5.60
  12   6   2   22.00    6.80
 -14  -6  -2  236.78   15.70
  14  -6   2  267.77   18.00
 -14   6  -2  256.67   15.40
  14   6   2  266.47   17.50
  14   6   2  258.67   19.20
 -14   6  -2  224.78   14.30
 -16  -6  -2  346.77   20.90
  16  -6   2  324.47   20.50
  16   6   2  384.36   24.50
 -16   6  -2  338.47   19.40
  16   6   2  351.76   21.70
 -18  -6  -2  354.26   26.50
  18  -6   2  359.96   22.10
  18   6   2  377.86   24.10
  18   6   2  417.36   26.40
 -18   6  -2  348.27   21.20
 -17  -7   2   88.99   12.90
  17  -7  -2   90.39   16.60
  17   7  -2  132.79   30.20
 -15  -7   2   34.40    8.00
  15  -7  -2   37.80   11.50
 -15   7   2   22.10    6.80
  15   7  -2   41.60   11.40
 -13  -7   2    4.80    4.10
  13  -7  -2   17.80    8.70
  13   7  -2   10.70    6.10
 -13   7   2    4.10    4.20
  11  -7  -2  752.52   33.00
 -11  -7   2  768.42   24.80
 -11   7   2  744.63   24.70
  11   7  -2  753.62   23.80
  11   7  -2  744.23   30.00
   9  -7  -2    2.80    5.00
   9  -7  -2    2.50    2.20
  -9  -7   2    1.10    2.60
   9   7  -2    0.50    2.20
  -9   7   2    4.20    3.20
   9   7  -2    4.70    4.20
   7  -7  -2  422.76   13.70
  -7  -7   2  411.86   15.10
   7  -7  -2  437.56   22.90
   7   7  -2  411.26   13.20
   7   7  -2  408.76   19.10
   7   7  -2  428.76   15.90
  -7   7   2  401.16   16.20
   5  -7  -2  189.18    9.00
   5  -7  -2  204.38   15.70
  -5  -7   2  202.78   12.40
   5   7  -2  192.98   10.20
   5   7  -2  195.08    9.40
  -5   7   2  200.28   10.50
  -3  -7   2  829.62   23.10
   3  -7  -2  846.92   30.20
  -3   7   2  802.42   19.60
   3   7  -2  799.62   21.70
   3   7  -2  790.22   19.20
  -3   7   2  771.92   20.50
   3   7  -2  821.82   20.50
   1  -7  -2  329.57   18.50
  -1  -7   2  315.77   13.20
  -1  -7   2  336.67   13.40
   1   7  -2  379.36   13.80
  -1   7   2  327.27   12.30
  -1   7   2  344.57   12.40
   1   7  -2  346.07   12.10
  -1  -7  -2 2294.27   28.60
   1  -7   2 2349.17   40.00
   1  -7   2 2300.87   42.10
  -1  -7  -2 2364.66   52.79
   1   7   2 2377.76   40.30
   1   7   2 2353.86   37.10
  -1   7  -2 2347.97   41.30
  -1   7  -2 2387.86   40.60
  -3  -7  -2  519.05   11.90
   3  -7   2  520.55   18.20
  -3  -7  -2  596.24   24.90
   3  -7   2  512.75   16.10
  -3   7  -2  551.14   16.60
  -3   7  -2  490.35   17.00
   3   7   2  502.75   13.10
   3   7   2  502.95   16.80
   5  -7   2 2228.88   39.50
  -5  -7  -2 2135.69   50.89
   5  -7   2 2186.38   43.20
  -5  -7  -2 2145.69   34.70
   5   7   2 2243.48   32.10
   5   7   2 2176.48   41.60
  -5   7  -2 2189.08   41.80
  -5   7  -2 2175.98   38.20
  -7  -7  -2  552.34   16.70
  -7  -7  -2  557.84   25.10
   7  -7   2  590.74   19.40
   7  -7   2  600.54   21.60
  -7   7  -2  568.04   17.80
  -7   7  -2  589.84   20.00
   7   7   2  571.64   20.40
   9  -7   2    2.40    3.60
  -9  -7  -2    8.10    3.50
  -9  -7  -2    0.60    4.60
  -9   7  -2    5.60    3.80
  -9   7  -2   23.70    5.30
   9   7   2    7.70    4.30
  11  -7   2   15.40    5.30
 -11  -7  -2   28.40    6.20
 -11  -7  -2    8.50    5.80
 -11   7  -2   16.90    5.10
 -11   7  -2   16.90    4.70
  11   7   2   35.40    7.90
 -13  -7  -2  409.86   19.50
  13  -7   2  421.76   21.80
 -13   7  -2  407.26   19.10
 -13   7  -2  369.06   17.70
  13   7   2  390.56   20.80
  13   7   2  365.66   22.90
 -15  -7  -2    8.30    5.40
  15  -7   2   10.70    6.20
  15   7   2   15.50    7.00
  15   7   2    7.90    6.30
 -17  -7  -2  127.39   15.70
  17  -7   2  126.59   16.10
  17   7   2  108.99   16.90
  17   7   2  145.49   18.30
  16  -8  -2  465.45   30.50
 -16  -8   2  503.75   24.30
 -16   8   2  489.05   23.60
  16   8  -2  470.75   29.40
 -14  -8   2   21.50    6.50
  14  -8  -2   20.60    9.30
 -14   8   2   12.30    5.30
  14   8  -2   26.20    8.50
  12  -8  -2  392.96   25.40
 -12  -8   2  396.56   18.70
  12   8  -2  406.56   18.70
 -12   8   2  433.16   19.80
  12   8  -2  429.06   24.30
 -10  -8   2    0.50    2.80
  10  -8  -2   -0.30    3.20
  10  -8  -2    1.80    5.50
  10   8  -2   -2.80    3.30
 -10   8   2    9.50    4.30
  10   8  -2    2.50    3.00
   8  -8  -2   80.99   13.10
  -8  -8   2   78.49    8.70
   8  -8  -2   81.89    6.80
   8   8  -2   65.29    8.30
   8   8  -2   81.89   11.70
  -8   8   2   76.19    9.60
   6  -8  -2  690.53   19.10
   6  -8  -2  718.83   30.30
  -6   8   2  667.53   21.10
   6   8  -2  715.43   22.10
   6   8  -2  687.83   18.60
  -4  -8   2  886.91   26.60
   4  -8  -2  848.32   32.60
   4   8  -2  857.21   21.60
  -4   8   2  851.01   21.70
   4   8  -2  866.21   21.10
   4   8  -2  843.02   23.80
  -4   8   2  864.21   23.30
   2  -8  -2   69.29   11.40
  -2  -8   2   55.49    7.60
  -2  -8   2   56.39    7.00
  -2   8   2   63.29    7.20
   2   8  -2   65.19    6.50
   2   8  -2   52.19    6.50
  -2   8   2   52.49    6.60
   0  -8   2  340.97   14.60
   0  -8  -2  338.47   19.80
   0  -8   2  347.27   14.60
   0   8  -2  347.27   13.40
   0   8   2  336.27   12.70
   0   8   2  372.96   14.40
   0   8  -2  372.76   14.70
   2  -8   2  385.46   16.20
  -2  -8  -2  404.26   21.30
   2  -8   2  408.46   15.60
  -2   8  -2  412.46   14.60
   2   8   2  381.46   12.60
  -2   8  -2  390.76   15.70
   2   8   2  371.56   15.00
  -4  -8  -2  184.48   15.10
   4  -8   2  191.18   10.80
   4  -8   2  185.98   11.60
  -4  -8  -2  182.78    7.40
  -4   8  -2  180.18   10.90
  -4   8  -2  179.58    9.40
   4   8   2  182.68   11.20
   4   8   2  185.78    8.10
   6  -8   2  824.02   23.60
   6  -8   2  845.32   26.30
  -6  -8  -2  836.12   19.50
  -6  -8  -2  832.52   32.20
   6   8   2  800.52   24.50
  -6   8  -2  807.92   20.70
  -6   8  -2  796.82   24.60
   8  -8   2  196.48   13.30
  -8  -8  -2  186.58   19.40
  -8  -8  -2  176.28    9.90
   8   8   2  158.98   11.90
  -8   8  -2  177.68   12.10
  10  -8   2  123.19   13.10
 -10  -8  -2  135.79   10.00
 -10  -8  -2  114.19   15.90
  10   8   2  129.79   13.70
 -10   8  -2  137.49   13.00
 -12  -8  -2  797.22   26.60
  12  -8   2  834.72   30.40
  12   8   2  790.22   29.50
 -12   8  -2  803.02   27.70
  14  -8   2   56.79   11.10
 -14  -8  -2   60.69    9.90
  14   8   2   38.30   10.80
  14   8   2   44.30    9.30
 -14   8  -2   44.70    8.80
 -16  -8  -2    2.40    4.80
  16  -8   2    1.80    4.60
  16   8   2    1.50    5.30
  16   8   2    1.60    6.40
 -15  -9   2   35.10    8.30
  15  -9  -2   35.10   12.30
  15   9  -2   56.29   12.90
 -15   9   2   47.80    9.40
 -13  -9   2  557.14   22.90
  13  -9  -2  581.84   32.00
  13   9  -2  570.74   29.80
 -13   9   2  525.15   23.30
 -11  -9   2  157.68   11.40
  11  -9  -2  187.48   21.30
  11   9  -2  158.88   12.50
  11   9  -2  185.18   20.00
 -11   9   2  173.38   15.70
  -9  -9   2  154.58   10.70
   9  -9  -2  150.08   18.50
   9  -9  -2  140.69    9.20
   9   9  -2  185.98   15.60
  -9   9   2  113.19   11.60
   9   9  -2  129.19   10.60
   7  -9  -2  210.38   17.70
   7  -9  -2  200.88   10.80
   7   9  -2  177.48   11.70
   7   9  -2  199.98    9.90
  -7   9   2  217.78   12.90
  -5  -9   2    6.90    4.30
   5  -9  -2    3.90    5.50
   5   9  -2    3.80    2.50
  -5   9   2    2.20    2.30
   5   9  -2   -0.20    2.10
   5   9  -2    6.60    3.40
  -5   9   2    2.70    3.10
   3  -9  -2  765.62   32.40
  -3  -9   2  770.02   25.30
  -3   9   2  762.22   22.20
   3   9  -2  730.43   23.30
   3   9  -2  778.52   21.80
  -3   9   2  705.23   21.10
   3   9  -2  792.12   20.10
  -1  -9   2  110.09   10.90
   1  -9  -2  108.69   15.20
  -1  -9   2  120.79    9.70
  -1   9   2   95.29    7.90
   1   9  -2  128.09   11.30
  -1   9   2  108.99    9.70
   1  -9   2  406.96   16.80
  -1  -9  -2  408.56   22.90
   1  -9   2  388.36   16.60
   1   9   2  403.46   16.10
  -1   9  -2  391.16   16.20
   1   9   2  427.66   14.60
  -3  -9  -2   80.89   13.40
   3  -9   2   78.29    9.20
   3  -9   2   81.09    9.80
   3   9   2   72.59    7.20
  -3   9  -2   76.59    9.50
   3   9   2   82.59    9.60
   5  -9   2   19.30    5.50
   5  -9   2   13.70    4.50
  -5  -9  -2   14.40    6.50
   5   9   2   30.30    4.40
  -5   9  -2   17.60    4.80
   5   9   2   11.70    4.10
  -7  -9  -2  525.05   27.00
   7  -9   2  502.15   21.10
  -7   9  -2  458.95   19.50
   7   9   2  494.85   20.60
   9  -9   2   37.80    8.00
  -9  -9  -2   40.10    9.80
   9   9   2   27.80    6.70
  -9   9  -2   40.90    7.90
  11  -9   2  271.47   16.90
 -11  -9  -2  264.37   20.60
  11   9   2  277.57   17.20
 -11   9  -2  235.88   15.30
  13  -9   2   13.40    6.00
  13   9   2   -1.90    4.00
  13   9   2    9.00    6.50
 -13   9  -2   -1.90    3.40
  15  -9   2   88.09   13.10
 -15   9  -2   95.99   13.10
  15   9   2  108.39   14.60
  15   9   2  101.79   16.60
  14 -10  -2  166.98   22.20
 -14  10   2  197.58   18.30
  14  10  -2  181.78   21.80
  12 -10  -2    3.60    6.10
 -12  10   2    9.40    5.30
  12  10  -2    4.00    5.80
  12  10  -2    1.80    4.00
  10 -10  -2   98.69   16.20
  10  10  -2   66.39   11.80
 -10  10   2  105.79   12.50
  10  10  -2  106.39   12.60
   8 -10  -2  610.44   20.40
   8 -10  -2  689.33   32.70
   8  10  -2  611.54   23.20
  -8  10   2  622.54   23.80
   8  10  -2  620.54   27.60
  -6 -10   2   11.20    5.30
   6 -10  -2   12.00    6.40
  -6  10   2    1.40    3.20
  -6  10   2    9.60    3.70
   6  10  -2    6.30    3.20
   6  10  -2    7.20    4.10
  -4 -10   2   50.99    8.80
   4 -10  -2   57.09   12.40
  -4  10   2   51.09    7.50
  -4  10   2   38.00    6.30
   4  10  -2   52.69    7.40
   4  10  -2   46.30    7.60
   2 -10  -2  336.67   22.20
  -2 -10   2  361.86   17.80
   2  10  -2  364.46   17.10
   2  10  -2  339.17   14.90
  -2  10   2  357.46   15.40
  -2  10   2  353.06   15.40
   0 -10   2   78.79    9.40
   0 -10   2   98.49   11.30
   0 -10  -2   98.49   15.20
   0  10  -2   91.89    9.70
   0  10   2   91.39    9.60
   0  10   2  106.89    8.20
   2 -10   2  199.98   12.60
   2 -10   2  193.08   12.50
  -2 -10  -2  194.68   20.80
   2  10   2  178.98    9.70
  -2  10  -2  190.48   12.40
   2  10   2  197.08   12.00
   4 -10   2  196.78   13.30
  -4 -10  -2  224.38   18.40
   4  10   2  188.78    9.50
   4  10   2  176.18   12.10
  -4  10  -2  180.28   12.50
  -6 -10  -2   51.89   11.80
   6 -10   2   36.60    7.40
   6  10   2   31.90    6.40
  -6  10  -2   50.39    8.60
  -8 -10  -2   61.99   12.80
   8 -10   2   57.49    9.40
   8  10   2   77.39   10.20
  -8  10  -2   69.49   10.40
 -10 -10  -2  385.56   25.40
  10 -10   2  368.26   20.20
  10  10   2  404.76   21.00
 -10  10  -2  416.36   20.50
  12 -10   2   49.99   10.00
 -12 -10  -2   40.70   11.90
  12  10   2   42.30    9.30
 -12  10  -2   40.90    8.80
  14 -10   2    9.70    6.30
  14  10   2    3.60    4.80
  14  10   2    5.40    6.40
 -14  10  -2    3.10    5.30
  13 -11  -2   62.39   14.90
  13  11  -2   45.10   11.90
 -13  11   2   69.99   11.40
  11 -11  -2  409.26   27.90
 -11  11   2  443.56   22.30
  11  11  -2  471.15   22.30
  11  11  -2  480.45   27.40
   9 -11  -2  314.27   23.70
   9  11  -2  245.48   18.80
  -9  11   2  283.97   16.90
   9  11  -2  287.37   17.00
   7 -11  -2   28.00    9.90
  -7  11   2   14.70    4.70
  -7  11   2    6.10    4.40
   7  11  -2   10.50    4.50
   5 -11  -2   19.30    8.40
  -5 -11   2   17.00    6.40
   5  11  -2   21.80    5.10
   5  11  -2    9.60    4.60
  -5  11   2   15.10    4.80
  -5  11   2   16.40    5.40
  -3 -11   2  348.77   18.80
   3 -11  -2  326.17   23.00
   3  11  -2  379.66   16.20
  -3  11   2  337.57   16.00
  -3  11   2  341.37   16.00
   3  11  -2  383.36   18.60
  -1 -11   2  644.34   24.40
   1 -11  -2  567.74   30.10
  -1  11   2  620.94   20.70
   1  11  -2  614.44   24.00
   1  11  -2  592.64   21.40
  -1  11   2  616.94   22.10
  -1 -11  -2  401.86   25.00
   1 -11   2  386.26   18.60
   1 -11   2  405.06   18.80
   1  11   2  422.66   16.10
  -1  11  -2  383.76   17.70
   1  11   2  367.86   17.10
   3 -11   2  416.56   19.50
  -3 -11  -2  509.35   28.20
   3  11   2  403.16   18.60
   3  11   2  434.06   15.70
  -3  11  -2  429.26   19.60
  -5 -11  -2  856.41   37.20
   5 -11   2  815.72   28.30
  -5  11  -2  837.02   28.10
   5  11   2  867.61   28.70
  -7 -11  -2  207.68   22.30
   7 -11   2  239.98   16.00
  -7  11  -2  247.48   16.00
   7  11   2  208.88   14.40
  -9 -11  -2  149.99   19.90
   9 -11   2  183.68   17.80
   9  11   2  162.78   16.50
  -9  11  -2  172.68   16.50
 -11 -11  -2  153.98   20.30
  11 -11   2  183.88   15.10
  11  11   2  161.18   16.40
 -11  11  -2  170.48   17.10
  13 -11   2  107.09   14.40
 -13  11  -2  104.99   14.40
  13  11   2  131.19   16.50
  12 -12  -2  203.38   24.30
  12  12  -2  213.88   26.10
  12  12  -2  218.18   16.50
  10 -12  -2   57.69   14.10
  10  12  -2   65.09   12.90
 -10  12   2   70.49   11.00
  10  12  -2   81.79   12.30
   8 -12  -2    7.30    7.10
   8  12  -2   14.10    5.90
  -8  12   2    8.10    4.70
   8  12  -2    6.40    5.50
  -8  12   2   16.20    6.10
  -6 -12   2  338.47   20.70
   6 -12  -2  382.16   25.80
  -6  12   2  345.27   17.30
   6  12  -2  365.56   19.30
  -6  12   2  355.16   18.30
  -4 -12   2  201.78   15.60
   4 -12  -2  200.68   22.30
   4  12  -2  180.18   13.70
  -4  12   2  188.78   12.50
  -4  12   2  190.48   13.10
   4  12  -2  184.38   11.90
  -2 -12   2   90.79   12.50
   2 -12  -2   96.79   16.80
  -2  12   2   94.89   11.30
   2  12  -2   88.49   10.70
   2  12  -2   68.79    9.90
  -2  12   2  103.19   11.20
   0 -12  -2  182.48   21.70
   0 -12   2  198.88   14.50
   0  12  -2  197.88   14.30
   0  12   2  173.98   11.40
   0  12   2  191.18   13.10
   0  12  -2  178.78   12.80
   2 -12   2  121.29   13.40
  -2 -12  -2  124.19   17.90
   2  12   2  126.79   13.20
   2  12   2  121.49    9.30
  -2  12  -2  138.69   13.40
  -4 -12  -2  598.34   32.80
   4 -12   2  610.64   24.80
   4  12   2  575.04   23.80
  -4  12  -2  634.64   24.50
   6 -12   2  294.37   17.90
  -6 -12  -2  283.07   23.20
   6  12   2  258.87   16.50
  -6  12  -2  289.07   17.60
  -8 -12  -2  100.79   17.20
   8 -12   2  124.89   14.70
  -8  12  -2  116.49   14.20
   8  12   2   79.89   11.70
 -10 -12  -2  355.26   27.20
  10 -12   2  375.46   21.40
  10  12   2  349.77   21.20
 -10  12  -2  350.16   20.70
  12 -12   2  258.87   19.00
  11 -13  -2  183.88   23.90
  11  13  -2  134.79   16.00
   9 -13  -2   22.40   10.00
   9  13  -2   27.50    8.10
  -9  13   2   17.40    6.30
   9  13  -2   22.10    9.30
   7 -13  -2  165.98   21.00
  -7  13   2  120.29   13.00
  -7  13   2  129.59   14.80
   7  13  -2  122.89   13.90
   5 -13  -2   14.90    9.00
  -5 -13   2   24.10    8.10
  -5  13   2   13.30    5.20
  -5  13   2    5.10    4.00
   5  13  -2   15.20    6.40
   3 -13  -2   11.00    7.80
  -3 -13   2   -0.90    4.40
  -3  13   2   -1.30    3.00
   3  13  -2    0.10    3.30
  -3  13   2    1.80    3.80
   3  13  -2    4.00    3.50
   1 -13  -2  110.79   17.50
  -1  13   2  137.69   12.70
   1  13  -2  126.99   13.10
  -1  13   2  118.99   13.00
   1  13  -2  103.69   12.50
  -1 -13  -2  742.33   37.10
  -1  13  -2  786.12   27.20
   1  13   2  782.72   24.50
   1  13   2  803.62   28.30
  -1  13  -2  767.72   29.80
   3 -13   2   43.40    8.60
  -3 -13  -2   50.79   12.60
  -3  13  -2   36.70    8.00
   3  13   2   46.30    8.90
   5 -13   2  283.37   17.90
  -5 -13  -2  356.46   27.00
  -5  13  -2  287.27   17.90
   5  13   2  279.77   17.70
   7 -13   2  365.26   20.60
  -7 -13  -2  382.56   27.90
  -7  13  -2  387.86   21.10
   7  13   2  375.46   20.70
  -9 -13  -2   26.40   10.80
   9 -13   2    1.50    4.80
  -9  13  -2   10.10    5.40
   9  13   2   10.20    6.40
   8 -14  -2   10.50    8.10
   8  14  -2    8.40    6.50
   8  14  -2    3.30    5.30
   6 -14  -2   61.79   14.20
  -6 -14   2   51.59   11.30
  -6  14   2   65.69   10.80
  -6  14   2   62.29   10.20
   6  14  -2   47.50    9.40
   4 -14  -2  144.79   20.90
  -4 -14   2  158.28   18.30
  -4  14   2  136.99   14.60
  -4  14   2  147.09   15.20
   4  14  -2  115.59   14.30
   2 -14  -2    8.50    7.40
   2  14  -2   11.10    5.80
   2  14  -2   10.00    5.10
  -2  14   2    5.30    4.60
  -2  14   2   16.60    6.20
   0 -14  -2   -4.50    5.40
   0  14   2    0.50    3.70
   0  14   2    0.40    3.80
   0  14  -2    5.20    4.40
   0  14  -2    7.50    4.50
  -2 -14  -2   87.69   17.20
   2  14   2   55.29    9.70
  -2  14  -2   57.19   10.80
  -2  14  -2   54.59    9.60
  -4 -14  -2    4.50    7.10
   4 -14   2   14.00    5.80
  -4  14  -2   27.10    7.20
   4  14   2   19.60    6.70
  -6 -14  -2  169.88   23.20
   6 -14   2  130.99   15.10
   6  14   2  126.39   14.90
  -6  14  -2  146.09   16.00
  -5  15   2   71.19   11.10
   3 -15  -2  133.99   20.60
  -3  15   2  119.89   13.40
  -3  15   2  132.49   15.00
   1 -15  -2  227.98   27.20
  -1  15   2  242.28   16.80
   1  15  -2  228.78   15.60
  -1  15   2  224.08   15.40
  -1 -15  -2   81.39   16.60
   1  15   2   70.09   11.30
  -1  15  -2   70.99   11.00
  -3  15  -2  203.88   29.10
 -18   0   3    1.90    4.80
  18   0  -3    1.20    6.00
  16   0  -3   -0.10    5.10
 -16   0   3    2.60    4.20
  14   0  -3    6.10    4.70
 -14   0   3    1.30    3.20
  12   0  -3   -0.90    3.60
 -12   0   3    1.60    2.80
 -12   0   3   -1.80    2.10
 -10   0   3    0.00    2.00
 -10   0   3    1.70    2.50
  10   0  -3    1.20    2.80
  -8   0   3   -0.10    1.80
  -8   0   3   -1.80    1.50
   8   0  -3    5.20    3.10
   6   0  -3    0.00    2.10
  -6   0   3   -1.40    1.30
  -6   0   3   -1.20    1.40
   4   0  -3    0.80    1.90
   4   0  -3   -1.20    1.70
  -4   0   3    1.20    1.60
  -2   0   3    6.20    1.50
   2   0  -3    2.80    2.10
   2   0  -3   -1.00    1.80
  -2   0   3   -0.60    1.50
   0   0  -3    3.90    2.00
   0   0   3    3.50    2.20
   0   0  -3   -1.10    2.00
   0   0   3    1.10    1.70
  -2   0  -3    1.60    1.50
   2   0   3    1.80    1.70
  -2   0  -3   -4.70    2.70
   2   0   3    3.50    2.40
   4   0   3    2.70    1.80
  -4   0  -3    9.20    2.30
   4   0   3   -0.10    2.30
  -4   0  -3   -2.20    2.30
  -6   0  -3    5.90    3.50
   6   0   3    1.40    1.70
   6   0   3    2.40    2.60
   8   0   3    0.20    1.80
  -8   0  -3    1.90    1.70
   8   0   3   -0.40    2.70
  -8   0  -3    5.40    3.30
 -10   0  -3   -0.10    2.70
  10   0   3   -0.60    2.10
 -10   0  -3    0.60    1.60
  10   0   3   -1.90    3.10
  12   0   3    3.20    3.70
  12   0   3    4.90    3.50
 -12   0  -3   -2.90    3.00
  14   0   3   -0.10    3.60
 -14   0  -3    2.30    3.60
  14   0   3    0.40    3.20
  16   0   3   26.80    8.00
 -16   0  -3    1.50    4.20
  18   0   3    0.90    5.20
 -18   0  -3    3.30    5.10
 -19   1   3  119.29   16.90
 -17  -1   3    0.60    3.90
  17  -1  -3    5.90    7.10
 -17   1   3    3.60    4.20
  17   1  -3    2.70    6.30
 -15  -1   3  601.54   24.60
  15  -1  -3  599.54   29.10
 -15   1   3  584.54   23.70
  15   1  -3  576.64   28.20
  13  -1  -3   13.70    5.90
 -13  -1   3   19.70    5.40
  13   1  -3   30.20    8.30
 -13   1   3   31.70    6.40
 -13   1   3   20.40    5.00
 -11  -1   3   30.20    5.80
 -11  -1   3   28.20    5.40
  11  -1  -3   14.20    5.60
 -11   1   3   28.30    5.70
 -11   1   3   21.70    4.80
  11   1  -3   35.70    7.70
  -9  -1   3  514.55   16.80
   9  -1  -3  558.04   21.90
  -9  -1   3  490.95   17.60
  -9   1   3  513.45   16.50
   9   1  -3  501.45   20.30
  -9   1   3  503.75   17.00
   7  -1  -3  141.09   10.30
  -7  -1   3  124.29    7.80
  -7  -1   3  145.49    8.50
  -7   1   3  152.28    8.40
   7   1  -3  141.39    4.70
  -7   1   3  136.29    7.90
   7   1  -3  154.58   10.10
   5  -1  -3  496.15   17.10
  -5  -1   3  513.95   15.30
  -5  -1   3  505.45   15.70
   5   1  -3  497.25   15.90
  -5   1   3  504.15   14.70
  -5   1   3  505.25   15.30
   5   1  -3  491.25    8.00
   3  -1  -3  700.63   19.20
   3  -1  -3  672.53    9.30
  -3  -1   3  667.43   11.10
   3  -1  -3  697.73   16.90
  -3  -1   3  681.03   17.70
  -3   1   3  681.63   16.90
  -3   1   3  686.73   10.50
   3   1  -3  672.63   16.60
   3   1  -3  667.63   17.00
  -1  -1   3 1361.56   22.70
   1  -1  -3 1384.56   26.80
   1  -1  -3 1398.26   26.90
  -1  -1   3 1387.96   26.70
  -1   1   3 1382.36   25.00
   1   1  -3 1437.36   27.60
  -1   1   3 1392.46   22.20
   1   1  -3 1395.26   23.00
   1  -1   3  729.03   18.10
  -1  -1  -3  748.83   20.80
   1  -1   3  738.03   17.90
  -1  -1  -3  732.53   17.50
  -1   1  -3  742.23   13.20
   1   1   3  741.53   16.60
   1   1   3  744.93   17.10
  -1   1  -3  718.33   20.80
  -3  -1  -3  735.63   17.10
   3  -1   3  722.03   19.90
   3  -1   3  722.03   17.70
  -3  -1  -3  734.03   22.60
   3   1   3  737.83   16.40
  -3   1  -3  721.03   22.60
  -3   1  -3  723.93   11.30
   3   1   3  694.53   18.70
  -5  -1  -3 1501.35   34.30
   5  -1   3 1481.45   22.40
  -5  -1  -3 1487.05   27.40
  -5   1  -3 1470.35   34.50
   5   1   3 1498.25   25.40
   5   1   3 1499.05   31.90
  -7  -1  -3   24.60    5.80
  -7  -1  -3   17.90    4.00
   7  -1   3   23.80    3.70
  -7  -1  -3   29.40    3.70
   7  -1   3   21.00    5.60
   7   1   3   15.10    4.40
  -7   1  -3   16.10    3.30
  -7   1  -3   13.00    4.70
   9  -1   3   58.69    8.80
   9  -1   3   25.40    4.60
  -9  -1  -3   31.10    6.70
  -9  -1  -3   24.10    3.10
  -9   1  -3   32.10    7.00
  -9   1  -3   29.90    4.40
   9   1   3   32.60    5.70
   9   1   3   18.20    5.60
  11  -1   3   15.10    4.60
 -11  -1  -3   15.80    5.60
  11  -1   3   15.90    5.60
  11   1   3   12.00    4.30
 -11   1  -3   11.10    4.70
  11   1   3   15.90    5.50
  13  -1   3   84.59   11.90
 -13  -1  -3  106.09   13.30
  13   1   3   91.39   12.50
  13   1   3   99.69   11.70
 -13   1  -3   99.69   13.00
  15  -1   3  370.16   21.20
 -15  -1  -3  335.17   20.60
 -15   1  -3  391.06   22.10
  15   1   3  386.06   20.00
  15   1   3  403.46   21.90
 -17  -1  -3  137.29   17.30
  17  -1   3  132.69   16.70
 -17   1  -3  166.88   19.10
  17   1   3  107.39   15.00
  19  -1   3   64.49   12.20
  19   1   3   73.79   12.80
  18  -2  -3   27.60   10.10
 -18  -2   3   29.80    8.40
 -18   2   3   30.00    8.20
  18   2  -3   25.20   10.00
 -16  -2   3  317.77   18.80
  16  -2  -3  268.17   20.70
  16   2  -3  279.97   21.30
 -16   2   3  275.07   16.80
  14  -2  -3 1242.08   42.10
 -14  -2   3 1330.67   36.60
 -14   2   3 1319.77   32.50
 -14   2   3 1313.87   34.90
  14   2  -3 1346.67   42.10
 -12  -2   3  255.77   14.60
 -12  -2   3  275.67   13.40
  12  -2  -3  304.37   18.90
 -12   2   3  265.47   13.30
 -12   2   3  266.67   13.90
  12   2  -3  263.57   17.10
 -10  -2   3  197.08   11.00
 -10  -2   3  213.38   12.10
  10  -2  -3  211.38   14.70
 -10   2   3  203.48   11.20
 -10   2   3  195.28   10.90
  10   2  -3  213.28   13.90
   8  -2  -3  365.26   17.40
  -8  -2   3  313.97   13.40
  -8  -2   3  366.66   14.20
  -8   2   3  337.37   12.90
   8   2  -3  326.87   15.70
  -8   2   3  356.66   13.50
   8   2  -3  345.67    9.70
  -6  -2   3 1854.41   34.70
  -6  -2   3 1846.22   34.50
   6  -2  -3 1909.31   39.70
  -6   2   3 1874.61   32.80
  -6   2   3 1847.82   33.40
   6   2  -3 1892.11   36.60
   6   2  -3 1871.21   25.60
   4  -2  -3 1116.79   22.40
  -4  -2   3 1114.19   24.60
   4  -2  -3 1118.89   27.30
  -4   2   3 1113.09   14.60
   4   2  -3 1105.99   23.70
   4   2  -3 1168.88   24.30
  -4   2   3 1095.69   23.00
  -2  -2   3  514.95   15.50
   2  -2  -3  521.95   16.90
  -2  -2   3  495.85   11.50
   2  -2  -3  525.25   14.60
   2   2  -3  546.35   13.40
  -2   2   3  533.35   10.80
  -2   2   3  506.95   14.00
   2   2  -3  509.95   15.20
   0  -2  -3 2990.00   47.60
   0  -2   3 2987.90   46.10
   0  -2  -3 3013.70   47.70
   0  -2   3 3021.90   42.90
   0   2  -3 3052.99   47.90
   0   2   3 3071.19   42.90
   0   2   3 3036.10   41.00
   0   2  -3 3042.60   37.40
  -2  -2  -3  152.58   10.00
   2  -2   3  169.08    9.00
   2  -2   3  166.28    8.70
  -2  -2  -3  188.68    9.40
   2   2   3  155.18    6.90
  -2   2  -3  166.68   10.90
   2   2   3  148.59    7.60
   4  -2   3 1244.88   28.80
  -4  -2  -3 1245.58   26.50
  -4  -2  -3 1209.38   29.60
  -4   2  -3 1279.07   31.80
   4   2   3 1264.07   22.10
   4   2   3 1276.57   27.10
  -6  -2  -3  747.63   20.50
   6  -2   3  761.52   14.60
   6  -2   3  760.82   23.80
  -6  -2  -3  766.42   23.50
  -6   2  -3  749.23   24.40
  -6   2  -3  759.22   19.10
   6   2   3  763.42   22.30
   6   2   3  758.42   15.50
   8  -2   3  381.56   12.30
  -8  -2  -3  379.66    9.60
  -8  -2  -3  381.36   17.10
  -8  -2  -3  397.76   15.70
   8  -2   3  388.16   17.70
   8   2   3  353.76   16.30
  -8   2  -3  378.46   13.10
  -8   2  -3  361.86   17.30
 -10  -2  -3 1385.76   37.00
  10  -2   3 1494.05   38.60
  10  -2   3 1510.55   30.50
  10   2   3 1464.75   38.00
  10   2   3 1405.76   34.70
 -10   2  -3 1465.25   38.00
 -10   2  -3 1468.55   29.10
  12  -2   3  147.69   15.20
 -12  -2  -3  156.18   15.60
  12   2   3  146.19   11.60
  12   2   3  121.69   13.30
 -12   2  -3  106.59   12.90
  14  -2   3   81.49   12.10
 -14  -2  -3   89.99   12.80
  14   2   3   92.19   12.00
 -14   2  -3  105.89   13.60
  14   2   3   96.49   12.80
 -16  -2  -3   68.29   12.10
  16  -2   3   56.79   11.50
  16   2   3   49.80    9.80
  16   2   3   49.99   10.30
 -16   2  -3   37.00    9.00
 -18  -2  -3  293.27   21.60
  18  -2   3  314.67   21.40
 -18   2  -3  319.67   22.20
  18   2   3  327.57   21.80
 -19   3   3  702.23   29.60
  17  -3  -3   -6.20    4.90
 -17  -3   3   -0.30    4.00
 -17   3   3    1.40    3.90
  17   3  -3    2.20    5.40
 -15  -3   3  218.38   15.20
  15  -3  -3  191.18   20.90
 -15   3   3  233.88   14.20
  15   3  -3  223.18   22.70
 -15   3   3  180.28   13.20
  13  -3  -3    1.30    5.40
 -13  -3   3    0.60    2.80
 -13   3   3   -2.10    2.40
 -13   3   3    3.40    3.50
  13   3  -3    2.90    4.50
  11  -3  -3  131.69   15.70
 -11  -3   3   95.59    9.50
 -11  -3   3   99.89   10.60
 -11   3   3  111.29   10.50
  11   3  -3   97.89   12.60
 -11   3   3   77.99    8.40
  -9  -3   3 1024.10   25.40
  -9  -3   3  936.01   25.80
   9  -3  -3 1011.90   31.60
  -9   3   3  995.60   25.00
   9   3  -3 1021.90   20.40
  -9   3   3 1012.00   24.40
   9   3  -3 1010.20   29.40
  -7  -3   3  154.88    9.20
   7  -3  -3  151.78   11.90
  -7  -3   3  145.89    9.00
   7   3  -3  162.58    6.60
  -7   3   3  148.99    8.90
  -7   3   3  153.38    8.30
  -7   3   3  161.38    4.60
   7   3  -3  166.38   10.60
   5  -3  -3  167.88    7.90
   5  -3  -3  167.68   11.60
  -5  -3   3  149.79    9.00
  -5   3   3  175.18    8.90
   5   3  -3  163.58    6.30
   5   3  -3  167.48    9.20
  -5   3   3  156.48    4.70
  -3  -3   3  319.27    9.40
  -3  -3   3  310.17   12.30
   3  -3  -3  323.57   10.90
   3  -3  -3  343.57   15.30
   3   3  -3  320.37   12.10
   3   3  -3  314.57   10.80
  -3   3   3  320.57    7.90
  -1  -3   3 4455.75   63.79
   1  -3  -3 4582.64   68.09
   1  -3  -3 4526.35   62.19
  -1  -3   3 4464.95   58.29
  -1   3   3 4518.45   59.19
   1   3  -3 4627.84   63.79
   1   3  -3 4508.55   55.29
  -1   3   3 4567.84   55.99
  -1  -3  -3 1008.70   25.20
   1  -3   3 1071.59   23.10
   1  -3   3 1008.80   23.20
  -1  -3  -3 1049.49   26.10
   1   3   3 1006.80   20.50
   1   3   3 1048.20   20.10
  -1   3  -3 1037.10   25.80
  -1   3  -3 1033.60   14.10
   3  -3   3 2279.47   40.80
  -3  -3  -3 2240.88   41.40
  -3  -3  -3 2311.07   41.70
  -3   3  -3 2331.87   38.90
  -3   3  -3 2222.18   44.20
   3   3   3 2303.77   33.20
   3   3   3 2225.38   37.90
  -5  -3  -3 2139.19   41.40
  -5  -3  -3 2259.87   41.90
   5  -3   3 2232.68   43.20
   5   3   3 2203.78   32.00
  -5   3  -3 2228.18   44.80
  -5   3  -3 2195.98   38.40
   5   3   3 2191.18   40.10
   7  -3   3  985.80   18.40
  -7  -3  -3 1028.70   27.10
   7  -3   3  949.11   28.20
  -7  -3  -3  997.10   27.30
  -7   3  -3 1015.10   23.80
   7   3   3  992.00   17.20
  -7   3  -3  960.50   28.00
   7   3   3  988.10   26.70
  -9  -3  -3  116.09   12.00
  -9  -3  -3   86.29   10.70
   9  -3   3   97.59    6.80
   9  -3   3   83.99   10.50
  -9   3  -3   93.19    8.60
  -9   3  -3   98.39   11.30
   9   3   3   81.19   10.50
 -11  -3  -3    2.80    3.60
  11  -3   3    9.40    5.10
  11   3   3   28.80    6.90
 -11   3  -3    5.00    3.90
  11   3   3   10.90    5.40
 -11   3  -3   11.50    3.90
  13  -3   3  124.19   15.00
 -13  -3  -3  113.29   13.80
  13   3   3  136.59   14.60
 -13   3  -3  120.99   14.60
  13   3   3  140.79   15.80
 -15  -3  -3  649.14   28.00
  15  -3   3  688.03   29.20
  15   3   3  643.54   27.20
  15   3   3  718.83   30.20
 -15   3  -3  669.13   28.60
  17  -3   3    5.90    5.60
 -17  -3  -3    3.90    5.20
 -17   3  -3    4.20    4.90
  17   3   3    4.50    5.00
  17   3   3    0.40    4.20
  19  -3   3  167.78   19.70
  19   3   3  157.08   29.00
 -18  -4   3   -1.10    4.00
  18  -4  -3   -1.10    5.60
 -18   4   3   -3.70    3.90
  16  -4  -3   12.30    7.10
 -16  -4   3   21.90    7.10
  16   4  -3   16.60    7.10
 -16   4   3    2.50    4.20
 -14  -4   3  489.55   22.20
  14  -4  -3  516.05   28.10
  14   4  -3  533.65   26.70
 -14   4   3  522.75   20.60
 -14   4   3  492.45   20.40
  12  -4  -3   51.59   11.60
 -12  -4   3   53.89    8.70
  12   4  -3   45.80    9.60
 -12   4   3   65.19    8.40
 -12   4   3   69.69    9.10
 -10  -4   3  263.87   14.00
  10  -4  -3  301.57   18.60
 -10  -4   3  286.97   13.00
 -10   4   3  263.07   12.30
 -10   4   3  253.07   13.10
  10   4  -3  282.57   16.50
  10   4  -3  256.07   12.50
  -8  -4   3  233.48   11.50
  -8  -4   3  226.68   11.80
   8  -4  -3  210.28   14.90
   8   4  -3  194.48   12.50
  -8   4   3  216.38   10.00
   8   4  -3  207.38    8.80
  -8   4   3  218.08   11.40
  -6  -4   3 1457.85   30.70
   6  -4  -3 1477.65   37.60
  -6  -4   3 1456.15   30.90
   6   4  -3 1421.16   32.00
  -6   4   3 1488.65   21.90
  -6   4   3 1441.16   29.80
   6   4  -3 1446.56   25.50
  -4  -4   3    4.20    1.90
   4  -4  -3    9.80    4.10
  -4  -4   3    5.70    2.70
   4   4  -3    0.60    1.80
   4   4  -3    2.20    2.20
  -2  -4   3   68.39    5.10
   2  -4  -3   73.09    9.30
   2  -4  -3   63.59    5.30
  -2  -4   3   63.29    7.00
  -2   4   3   52.69    5.50
  -2   4   3   65.59    4.30
   2   4  -3   72.89    7.40
   2   4  -3   66.69    5.00
   0  -4   3  497.25   16.00
   0  -4  -3  483.15   18.60
   0  -4  -3  514.75   16.30
   0  -4   3  474.15   14.40
   0   4   3  484.65   13.20
   0   4  -3  497.85   10.90
   0   4  -3  482.05   16.30
   0   4   3  500.85   13.60
  -2  -4  -3  153.28    9.40
  -2  -4  -3  141.59   10.10
   2  -4   3  126.29    8.10
  -2   4  -3  150.18    3.70
  -2   4  -3  156.38    9.00
   2   4   3  146.99    6.80
   2   4   3  145.99    7.90
  -2   4  -3  151.08   10.40
  -2   4  -3  150.58    4.50
  -4  -4  -3  259.07   13.70
   4  -4   3  264.37   12.90
  -4  -4  -3  239.38   11.60
   4   4   3  242.28   11.10
  -4   4  -3  248.98   11.40
  -4   4  -3  252.07   13.80
   4   4   3  251.37    8.40
  -6  -4  -3  336.57   16.10
   6  -4   3  291.17   15.00
   6  -4   3  315.87    8.20
  -6  -4  -3  316.57   14.10
  -6   4  -3  295.87   12.70
   6   4   3  304.67   13.80
   6   4   3  308.47    8.80
  -6   4  -3  320.17   15.60
  -8  -4  -3   69.79    9.00
  -8  -4  -3   84.69   10.50
   8  -4   3   96.39   11.50
  -8   4  -3   96.19    9.50
  -8   4  -3   95.49   11.10
   8   4   3   91.99   10.40
 -10  -4  -3    9.70    4.80
  10  -4   3   18.40    5.80
 -10  -4  -3   17.40    5.20
 -10   4  -3   10.10    3.80
 -10   4  -3   14.20    5.40
  10   4   3    7.70    4.10
 -12  -4  -3  751.42   27.50
  12  -4   3  697.53   28.00
  12   4   3  748.43   28.10
 -12   4  -3  743.43   27.60
 -12   4  -3  786.42   23.00
  12   4   3  734.63   27.80
  14  -4   3   66.69   11.80
 -14  -4  -3   51.29    9.30
  14   4   3   73.99   12.00
  14   4   3   67.79   11.40
 -14   4  -3   62.59   10.70
  16  -4   3  123.69   16.00
 -16  -4  -3  111.39   15.20
  16   4   3  102.49   14.50
  16   4   3  100.09   14.60
 -16   4  -3  133.89   16.90
  18  -4   3   46.50   11.40
 -18  -4  -3   42.20   10.70
  18   4   3   51.59   11.00
 -18   4  -3   53.99   11.40
  18   4   3   56.59   13.50
 -17  -5   3   13.00    6.10
  17  -5  -3   14.60    8.90
  17   5  -3   11.30    7.20
  15  -5  -3  267.97   22.00
 -15  -5   3  268.17   17.50
 -15   5   3  235.58   15.10
  15   5  -3  223.38   18.70
 -15   5   3  267.97   15.20
 -13  -5   3  600.44   24.00
  13  -5  -3  614.34   30.40
 -13   5   3  644.04   23.30
  13   5  -3  636.84   28.40
 -13   5   3  626.74   21.70
  11  -5  -3   27.50    8.50
 -11  -5   3   11.10    4.30
 -11   5   3   20.70    4.80
 -11   5   3   24.60    5.70
  11   5  -3   30.40    7.90
  -9  -5   3  585.34   18.30
  -9  -5   3  540.75   19.20
   9  -5  -3  528.45   24.90
  -9   5   3  537.45   19.00
  -9   5   3  543.55   16.70
   9   5  -3  565.64   22.70
   9   5  -3  538.55   16.20
   7  -5  -3  245.38   16.30
  -7  -5   3  246.08   12.20
  -7  -5   3  259.97   11.90
   7   5  -3  267.67   10.50
  -7   5   3  258.37    8.40
  -7   5   3  248.78   12.10
   7   5  -3  256.67   13.80
  -5  -5   3   36.00    5.80
   5  -5  -3   36.00    7.70
   5  -5  -3   33.60    4.30
  -5   5   3   35.50    3.90
  -5   5   3   25.50    4.60
   5   5  -3   31.40    5.00
   5   5  -3   27.50    5.20
   5   5  -3   33.90    4.70
   3  -5  -3  231.68    9.10
   3  -5  -3  197.48   13.80
  -3  -5   3  214.68   10.80
  -3  -5   3  225.78    9.50
   3   5  -3  207.58   10.20
  -3   5   3  218.58    8.10
  -3   5   3  211.08    9.80
   3   5  -3  214.08    9.90
   1  -5  -3  125.79    8.00
   1  -5  -3  101.29   11.20
  -1  -5   3   99.19    6.70
   1   5  -3  100.39    7.30
   1   5  -3  111.69    6.20
  -1   5   3  113.29    6.30
  -1   5   3   98.99    6.50
   1  -5   3   29.30    5.10
  -1  -5  -3   43.60    7.70
  -1  -5  -3   28.20    4.80
  -1   5  -3   30.20    5.40
   1   5   3   32.30    4.60
   1   5   3   38.10    4.60
  -1   5  -3   36.30    6.30
   3  -5   3  376.46   15.00
  -3  -5  -3  382.06   17.70
  -3  -5  -3  341.17   12.90
   3  -5   3  367.66    7.70
   3   5   3  373.76   11.00
  -3   5  -3  377.46   14.70
   3   5   3  384.16   13.90
  -3   5  -3  387.66   16.70
  -5  -5  -3  194.58   10.30
   5  -5   3  186.08   11.60
  -5  -5  -3  183.38   12.90
   5  -5   3  189.08    5.70
   5   5   3  182.68    7.10
  -5   5  -3  192.98   10.70
  -5   5  -3  180.28   11.80
   5   5   3  179.78   10.50
   7  -5   3   72.69    9.40
  -7  -5  -3  112.59    8.90
  -7  -5  -3  102.59   12.10
   7   5   3   90.29    9.80
  -7   5  -3  113.09    8.70
  -7   5  -3  101.19   11.10
   9  -5   3  107.29   12.30
  -9  -5  -3  101.59   10.90
  -9  -5  -3  100.99   12.20
   9   5   3  106.09   11.30
  -9   5  -3  119.29   12.50
  -9   5  -3  109.49   10.60
 -11  -5  -3   99.99   11.60
  11  -5   3   92.69   12.50
 -11  -5  -3   87.99   12.10
  11   5   3  105.59   12.10
 -11   5  -3  120.59   13.40
 -11   5  -3  125.39   12.10
  13  -5   3   75.39   11.80
 -13  -5  -3   73.59   10.80
 -13   5  -3   83.09   10.10
  13   5   3   87.89   12.60
  13   5   3   54.79   10.10
 -13   5  -3   84.89   11.70
  15  -5   3  415.86   23.80
 -15  -5  -3  438.76   23.10
  15   5   3  470.25   25.00
 -15   5  -3  492.55   24.10
  15   5   3  511.15   26.00
  17  -5   3  166.18   18.70
 -17  -5  -3  135.19   16.40
  17   5   3  148.39   18.10
  17   5   3  160.98   18.90
 -17   5  -3  132.59   16.50
  16  -6  -3   37.70   11.60
 -16  -6   3   48.70    9.90
  16   6  -3   27.40    9.20
 -16   6   3   30.40    8.00
 -14  -6   3 1190.78   36.20
  14  -6  -3 1236.68   45.70
  14   6  -3 1206.08   41.70
 -14   6   3 1223.68   35.20
  12  -6  -3   -0.80    4.50
 -12  -6   3    4.60    3.60
 -12   6   3   -0.10    3.20
 -12   6   3    3.70    3.20
  12   6  -3   -1.30    3.70
  10  -6  -3   12.20    6.50
 -10  -6   3   11.00    4.20
  10   6  -3    6.20    3.00
 -10   6   3   10.00    3.40
 -10   6   3    1.40    3.10
  10   6  -3    8.00    4.80
   8  -6  -3  616.54   27.70
  -8  -6   3  620.04   18.70
  -8  -6   3  532.45   19.20
  -8   6   3  615.44   20.40
   8   6  -3  598.74   22.90
   8   6  -3  595.24   17.90
   6  -6  -3 1511.15   26.90
   6  -6  -3 1529.75   43.20
   6   6  -3 1486.55   32.40
  -6   6   3 1537.85   32.90
   6   6  -3 1480.75   34.80
  -6   6   3 1524.45   26.50
   6   6  -3 1519.65   30.20
   4  -6  -3 1424.46   40.10
   4  -6  -3 1479.25   25.80
   4   6  -3 1440.16   31.30
   4   6  -3 1425.06   30.40
  -4   6   3 1448.96   26.00
  -4   6   3 1451.75   30.40
   4   6  -3 1417.26   30.00
   2  -6  -3 1721.33   43.40
   2  -6  -3 1741.63   30.80
  -2  -6   3 1751.42   33.20
   2   6  -3 1769.72   35.30
   2   6  -3 1782.12   32.30
   2   6  -3 1757.62   34.30
  -2   6   3 1787.42   30.80
  -2   6   3 1778.32   32.90
   0  -6   3  216.38    8.50
   0  -6   3  228.98   11.10
   0  -6  -3  222.28    9.30
   0  -6  -3  238.78   15.30
   0   6   3  205.68    9.30
   0   6  -3  212.88   11.30
   0   6   3  202.88    9.50
   0   6  -3  205.48   11.20
  -2  -6  -3   76.69    5.70
   2  -6   3   65.29    7.70
  -2  -6  -3   63.59    9.60
   2  -6   3   80.59    4.70
  -2   6  -3   79.59    8.80
  -2   6  -3   72.09    8.80
   2   6   3   74.49    5.60
   2   6   3   66.29    6.90
  -4  -6  -3 1791.92   32.70
   4  -6   3 1802.82   38.80
  -4  -6  -3 1821.02   44.30
   4  -6   3 1850.61   26.80
   4   6   3 1841.12   29.20
   4   6   3 1846.22   36.50
  -4   6  -3 1799.82   37.20
  -4   6  -3 1821.42   39.30
   6  -6   3   54.39    8.10
  -6  -6  -3   39.30    8.40
  -6  -6  -3   44.90    6.30
   6   6   3   44.10    6.70
  -6   6  -3   43.90    7.20
   6   6   3   55.09    4.10
  -6   6  -3   52.79    7.80
   8  -6   3 1119.09   33.00
  -8  -6  -3 1055.59   28.00
  -8  -6  -3 1066.49   34.30
   8   6   3 1062.69   30.30
  -8   6  -3 1088.29   30.50
  -8   6  -3 1116.29   29.10
 -10  -6  -3 1736.53   39.50
  10  -6   3 1676.13   44.50
 -10  -6  -3 1653.33   45.20
 -10   6  -3 1702.83   38.20
  10   6   3 1542.35   40.40
 -10   6  -3 1704.83   40.70
 -12  -6  -3   97.09   11.70
  12  -6   3  120.89   14.70
 -12   6  -3  103.49   11.90
  12   6   3  116.79   13.60
 -12   6  -3  109.19   12.80
  14  -6   3   14.80    6.80
 -14  -6  -3   12.00    5.30
 -14   6  -3   14.40    6.30
  14   6   3   12.40    5.90
  14   6   3   32.00    9.10
  16  -6   3  201.18   20.60
 -16  -6  -3  203.18   16.50
  16   6   3  196.08   20.60
 -16   6  -3  210.28   16.30
  16   6   3  222.78   18.50
 -15  -7   3   28.70    7.30
  15  -7  -3   52.79   13.60
 -15   7   3   37.20    8.30
  15   7  -3   43.90   11.10
  13  -7  -3   31.10   10.30
 -13  -7   3   46.90    8.10
  13   7  -3   34.90    9.70
 -13   7   3   50.79    8.70
 -11  -7   3  367.16   17.60
  11  -7  -3  345.47   23.80
 -11   7   3  369.56   18.00
  11   7  -3  378.96   21.10
  -9  -7   3 1417.06   34.10
   9  -7  -3 1376.16   44.30
   9   7  -3 1337.97   30.90
  -9   7   3 1371.16   34.20
   9   7  -3 1356.16   38.40
   9   7  -3 1366.56   29.70
   7  -7  -3   33.10    9.00
  -7   7   3   33.90    6.10
   7   7  -3   28.40    5.70
   7   7  -3   29.10    5.20
   7   7  -3   32.20    5.70
  -7   7   3   32.00    4.50
   7   7  -3   29.00    6.50
   5  -7  -3   -0.10    3.80
  -5   7   3    2.70    2.00
   5   7  -3    1.90    2.50
   5   7  -3    0.10    2.00
  -5   7   3    0.80    2.30
   5   7  -3   -1.20    1.90
   5   7  -3    7.70    3.60
  -3  -7   3   12.90    3.90
   3  -7  -3    7.90    5.40
   3   7  -3   13.50    4.10
   3   7  -3   16.30    4.30
   3   7  -3    8.50    3.20
  -3   7   3   16.00    4.20
  -3   7   3    9.80    3.10
  -1  -7   3 3726.43   54.19
   1  -7  -3 3510.55   70.99
  -1  -7   3 3781.92   58.39
  -1   7   3 3806.62   55.39
  -1   7   3 3700.03   55.29
   1   7  -3 3713.93   59.39
   1   7  -3 3713.03   57.89
  -1  -7  -3  391.16   10.90
   1  -7   3  408.56   12.60
   1  -7   3  381.06   15.70
  -1  -7  -3  411.16   21.10
   1   7   3  396.76   13.40
  -1   7  -3  430.66   17.10
  -1   7  -3  417.96   16.50
   1   7   3  407.16   14.80
  -3  -7  -3 2151.78   34.30
  -3  -7  -3 2190.18   51.19
   3  -7   3 2151.58   43.50
   3  -7   3 2174.88   33.40
   3   7   3 2194.68   34.90
  -3   7  -3 2150.68   42.40
   3   7   3 2076.99   40.00
  -3   7  -3 2188.38   43.80
  -5  -7  -3 1126.59   24.50
  -5  -7  -3 1168.38   36.40
   5  -7   3 1148.29   31.30
  -5   7  -3 1089.49   29.00
  -5   7  -3 1142.89   30.00
   5   7   3 1161.28   21.50
   5   7   3 1111.19   28.90
   7  -7   3 1092.09   32.00
  -7  -7  -3 1050.49   35.50
  -7  -7  -3 1033.30   25.80
  -7   7  -3 1072.39   29.20
   7   7   3  966.70   28.30
  -7   7  -3 1056.59   29.30
  -9  -7  -3  312.57   19.50
  -9  -7  -3  262.97   13.70
   9  -7   3  293.17   17.50
  -9   7  -3  256.57   14.40
  -9   7  -3  270.47   15.20
   9   7   3  249.28   15.10
 -11  -7  -3  137.49   13.70
  11  -7   3  157.98   16.50
 -11  -7  -3  138.09   16.80
 -11   7  -3  138.89   13.60
  11   7   3  122.59   13.70
 -11   7  -3  157.38   14.50
 -13  -7  -3    3.20    4.30
  13  -7   3   -2.80    3.70
 -13   7  -3   -1.70    3.20
  13   7   3    6.10    5.70
  13   7   3    1.70    4.20
 -13   7  -3    2.50    4.00
 -15  -7  -3  996.40   34.60
  15  -7   3 1029.50   37.40
 -15   7  -3  950.90   37.70
  15   7   3  975.30   36.40
  15   7   3  907.41   37.40
 -17  -7  -3   11.70    6.60
  17  -7   3   21.40    8.20
  17   7   3    7.20    6.90
 -16  -8   3   14.70    6.20
  16  -8  -3   21.70    9.70
 -16   8   3    6.30    5.70
 -14  -8   3  388.26   20.40
  14  -8  -3  402.26   27.80
 -14   8   3  393.16   20.40
  14   8  -3  346.37   23.70
  12  -8  -3  114.89   17.80
 -12  -8   3   89.99   11.40
 -12   8   3   93.59   11.80
  12   8  -3   68.79   12.40
 -10  -8   3   33.20    6.70
  10  -8  -3   37.90   10.80
 -10   8   3   35.90    7.30
  10   8  -3   21.50    6.80
  10   8  -3   26.40    6.00
   8  -8  -3  264.57   20.00
   8   8  -3  271.47   12.50
   8   8  -3  286.97   14.00
  -8   8   3  289.37   14.90
   8   8  -3  272.57   16.90
   8   8  -3  315.87   15.30
   6  -8  -3  959.60   36.30
  -6   8   3  912.91   22.10
   6   8  -3  895.51   28.20
   6   8  -3  886.51   25.20
   6   8  -3  986.00   25.10
   6   8  -3  941.31   25.40
  -6   8   3  940.11   26.40
   4  -8  -3    6.50    4.90
  -4   8   3    2.90    3.00
   4   8  -3    2.70    2.30
   4   8  -3   10.10    3.80
  -4   8   3   -0.80    1.90
   4   8  -3    3.20    2.70
   4   8  -3    5.40    2.90
   2  -8  -3    9.60    5.10
  -2  -8   3   16.30    4.40
  -2  -8   3   18.10    4.40
   2   8  -3    7.60    3.60
   2   8  -3   17.10    4.40
  -2   8   3   14.10    4.10
  -2   8   3   11.10    3.30
   0  -8   3  862.21   25.00
   0  -8  -3  869.31   32.50
   0  -8   3  850.11   21.50
   0   8   3  872.81   23.10
   0   8  -3  905.91   25.20
   0   8  -3  899.11   25.40
   0   8   3  839.12   21.60
   2  -8   3   39.70    7.10
  -2  -8  -3   47.60    9.60
   2  -8   3   33.20    4.80
   2   8   3   48.40    6.00
  -2   8  -3   35.70    6.20
   2   8   3   40.80    6.40
  -2   8  -3   37.30    6.80
  -4  -8  -3  162.08   17.80
   4  -8   3  134.09   10.80
  -4   8  -3  117.39    9.80
  -4   8  -3  118.49   11.50
   4   8   3  126.79    9.80
   4   8   3  120.09    7.00
  -6  -8  -3  574.94   17.10
  -6  -8  -3  602.04   27.70
   6  -8   3  603.34   23.50
  -6   8  -3  587.34   22.00
  -6   8  -3  598.74   20.50
   6   8   3  557.04   21.20
  -8  -8  -3    0.50    2.50
   8  -8   3    4.30    3.70
  -8  -8  -3    7.80    5.10
  -8   8  -3   -2.30    2.80
  -8   8  -3    3.50    3.20
   8   8   3    2.40    3.30
 -10  -8  -3   11.30    7.00
 -10  -8  -3   14.00    4.80
  10  -8   3   25.10    6.90
 -10   8  -3   28.90   10.50
  10   8   3    5.30    4.30
 -10   8  -3   12.40    5.40
 -12  -8  -3  454.15   26.50
  12  -8   3  491.25   24.70
 -12  -8  -3  472.25   21.10
 -12   8  -3  520.85   22.90
  12   8   3  486.05   24.00
 -14  -8  -3  145.49   15.20
  14  -8   3  110.29   15.20
 -14   8  -3  115.29   13.50
  14   8   3  141.29   16.30
  14   8   3  100.29   15.40
 -16  -8  -3    4.60    5.80
  16  -8   3   -0.50    5.20
  16   8   3   11.90    7.70
  15  -9  -3   12.60    9.50
 -15  -9   3   -0.40    4.20
  15   9  -3    7.50   11.90
 -15   9   3   -0.40    4.40
  13  -9  -3 1425.26   52.59
 -13  -9   3 1399.06   39.40
 -13   9   3 1387.56   39.90
  13   9  -3 1413.66   46.70
  11  -9  -3   22.30    9.50
 -11  -9   3   13.00    5.50
  11   9  -3   14.90    7.20
 -11   9   3   18.70    5.70
   9  -9  -3  753.32   35.00
   9   9  -3  741.93   24.50
   9   9  -3  742.23   25.30
   9   9  -3  758.52   29.70
  -9   9   3  711.93   25.20
   7  -9  -3 1420.96   46.90
  -7   9   3 1355.76   29.50
   7   9  -3 1319.37   30.30
   7   9  -3 1331.07   32.50
  -7   9   3 1305.37   34.00
   7   9  -3 1287.27   33.10
   7   9  -3 1312.57   37.40
   5  -9  -3  327.47   22.50
  -5   9   3  343.07   15.80
   5   9  -3  348.27   17.30
   5   9  -3  314.77   14.40
   5   9  -3  339.07   14.90
   5   9  -3  354.96   16.10
  -5   9   3  323.77   13.50
  -3  -9   3    4.00    3.30
   3  -9  -3   20.00    8.00
   3   9  -3    8.90    3.40
  -3   9   3    6.70    3.10
  -3   9   3    3.90    3.00
   3   9  -3    7.50    3.80
  -1  -9   3   99.49   10.60
  -1  -9   3  108.99    8.60
   1  -9  -3   91.69   14.00
  -1   9   3  113.29   10.20
   1   9  -3   96.29   10.20
  -1   9   3  107.39    8.40
   1   9  -3  118.69    9.20
   1  -9   3   89.89   10.10
   1  -9   3  101.29   13.90
  -1  -9  -3  116.49   16.20
   1   9   3   91.09    8.50
  -1   9  -3   69.59    9.30
   1   9   3   72.49    8.30
  -1   9  -3   85.79   10.00
   3  -9   3  946.11   29.00
  -3  -9  -3  973.50   36.80
   3   9   3  928.51   22.20
   3   9   3  937.41   27.20
  -3   9  -3  906.51   27.60
  -5  -9  -3   23.60    8.20
   5  -9   3   17.70    5.90
  -5   9  -3   11.80    4.60
   5   9   3   13.70    4.60
  -7  -9  -3    9.60    6.00
   7  -9   3   15.20    5.40
   7   9   3    9.40    4.50
  -7   9  -3    6.70    4.40
  -9  -9  -3  161.88   19.00
   9  -9   3  207.68   15.60
   9   9   3  200.88   14.40
  -9   9  -3  232.68   15.50
  11  -9   3  751.52   30.40
 -11  -9  -3  689.13   33.30
  11   9   3  747.83   29.50
 -11   9  -3  799.52   29.20
  13  -9   3  595.94   28.30
  13   9   3  591.24   27.60
 -13   9  -3  617.94   26.40
  15  -9   3  642.24   30.40
  15   9   3  584.04   33.00
 -15   9  -3  608.44   36.30
  14 -10  -3  653.53   36.90
 -14 -10   3  562.64   26.10
 -14  10   3  547.25   26.30
  14  10  -3  566.44   35.90
  12 -10  -3  168.98   22.50
 -12  10   3  136.89   15.00
  12  10  -3  122.19   16.90
  10 -10  -3    9.80    7.60
 -10  10   3    9.80    5.60
  10  10  -3    8.60    5.90
  10  10  -3    3.80    3.90
  10  10  -3    0.50    3.40
   8 -10  -3  803.22   37.20
   8  10  -3  858.91   27.30
  -8  10   3  837.82   27.90
   8  10  -3  850.41   31.50
   8  10  -3  804.62   27.00
   6 -10  -3  515.15   29.10
  -6  10   3  506.95   17.90
   6  10  -3  524.35   21.00
   6  10  -3  503.45   18.40
  -6  10   3  502.35   20.60
   6  10  -3  532.25   23.00
   4 -10  -3 1188.08   43.60
  -4  10   3 1170.58   28.80
   4  10  -3 1116.49   31.30
  -4  10   3 1153.08   30.50
   4  10  -3 1121.99   29.40
  -2 -10   3 2119.59   45.30
   2 -10  -3 2153.88   58.69
  -2 -10   3 2144.29   44.00
  -2  10   3 2200.48   42.70
   2  10  -3 2162.58   44.40
  -2  10   3 2122.19   42.30
   0 -10   3  221.78   13.60
   0 -10  -3  182.68   19.90
   0  10  -3  223.98   13.50
   0  10   3  205.78   11.50
   0  10   3  224.88   12.80
   2 -10   3  205.78   13.80
  -2 -10  -3  229.38   18.70
  -2  10  -3  210.68   13.60
   2  10   3  221.38   11.20
   2  10   3  240.48   13.70
  -4 -10  -3 1422.06   47.50
   4 -10   3 1395.16   38.00
  -4  10  -3 1329.37   36.00
   4  10   3 1434.66   34.90
   4  10   3 1379.06   35.50
  -6 -10  -3  863.01   36.50
   6 -10   3  836.72   29.50
   6  10   3  829.02   27.70
  -6  10  -3  843.52   29.00
   8 -10   3 1277.67   39.00
  -8 -10  -3 1365.96   47.10
   8  10   3 1341.17   38.40
  -8  10  -3 1331.37   38.30
 -10 -10  -3 1249.77   46.40
  10 -10   3 1312.07   41.10
  10  10   3 1295.97   39.00
 -10  10  -3 1264.87   38.50
  12 -10   3    1.50    5.10
 -12 -10  -3    1.10    6.20
  12  10   3    2.70    5.10
 -12  10  -3    9.10    5.90
  14 -10   3   22.40    8.80
 -14  10  -3    3.70    5.10
  13 -11  -3  229.98   29.50
  13  11  -3  227.28   35.70
  11 -11  -3  130.09   20.10
 -11  11   3  147.09   15.70
  11  11  -3  128.99   17.10
   9 -11  -3  664.63   35.10
   9  11  -3  680.33   26.10
  -9  11   3  689.23   26.30
   9  11  -3  670.33   29.70
   7 -11  -3  271.47   22.40
  -7  11   3  242.08   15.10
   7  11  -3  255.57   15.70
   7  11  -3  256.57   17.60
   5 -11  -3    5.10    6.80
   5  11  -3   13.80    5.70
  -5  11   3   12.50    4.90
  -5  11   3   14.60    4.60
   5  11  -3    6.50    3.60
   5  11  -3   10.00    4.60
  -3 -11   3    1.20    3.40
   3 -11  -3    5.10    6.20
  -3  11   3   -1.70    3.00
   3  11  -3    3.00    3.40
   3  11  -3    1.70    3.00
  -3  11   3    0.30    2.80
   1 -11  -3  616.54   32.00
  -1 -11   3  570.24   22.80
  -1  11   3  653.53   22.60
   1  11  -3  588.54   22.40
  -1  11   3  667.03   21.80
   1 -11   3   69.29   10.30
  -1 -11  -3   39.30   10.30
   1  11   3   65.29    8.10
   1  11   3   46.10    7.40
  -1  11  -3   54.99    8.40
   3 -11   3  444.86   21.10
  -3 -11  -3  442.66   27.20
  -3  11  -3  430.16   20.20
   3  11   3  480.85   16.80
   3  11   3  461.05   20.20
   5 -11   3  271.07   17.40
  -5 -11  -3  237.18   24.30
   5  11   3  295.07   16.70
  -5  11  -3  265.07   16.40
   7 -11   3   56.19   10.70
  -7 -11  -3   56.19   13.20
  -7  11  -3   34.40    8.10
   7  11   3   45.00    8.80
  -9 -11  -3  258.17   26.20
   9 -11   3  290.77   19.10
   9  11   3  298.17   18.40
  -9  11  -3  263.07   17.90
  11 -11   3   93.79   14.10
 -11 -11  -3   83.19   15.80
  11  11   3   85.79   12.60
 -11  11  -3   93.49   13.60
 -13  11  -3   87.49   13.80
  10 -12  -3  239.48   27.20
  10  12  -3  202.38   21.10
 -10  12   3  220.88   16.50
  10  12  -3  239.08   16.90
   8 -12  -3   92.79   16.50
  -8  12   3  106.49   12.90
   8  12  -3   86.59   11.90
   8  12  -3  108.09   14.80
   6 -12  -3   -2.00    6.80
  -6  12   3    1.40    3.30
  -6  12   3    4.80    4.60
   6  12  -3    0.20    4.10
   6  12  -3    0.70    3.90
  -4 -12   3   -4.20    4.00
   4 -12  -3   -6.20    5.20
  -4  12   3    2.00    3.40
   4  12  -3    1.30    4.00
   4  12  -3    2.60    3.60
  -4  12   3    5.30    3.70
   2 -12  -3  224.88   25.00
  -2  12   3  226.98   13.80
   2  12  -3  259.87   15.30
   2  12  -3  236.78   15.90
  -2  12   3  251.17   14.50
   0 -12   3  425.16   20.70
   0 -12  -3  464.55   28.50
   0  12  -3  422.86   19.90
   0  12   3  448.26   18.20
   0  12   3  454.65   19.90
   2 -12   3   17.30    6.20
  -2 -12  -3    3.70    6.10
  -2  12  -3    6.80    4.90
   2  12   3   12.50    4.30
   2  12   3   17.70    6.00
  -4 -12  -3    4.90    6.70
   4 -12   3    4.30    4.10
   4  12   3    4.90    4.00
  -4  12  -3   -2.90    3.80
  -6 -12  -3  308.67   25.00
   6 -12   3  302.17   19.20
   6  12   3  339.97   19.40
  -6  12  -3  369.26   20.20
   8 -12   3  178.88   18.20
  -8 -12  -3  172.28   22.50
   8  12   3  176.38   17.70
  -8  12  -3  155.68   16.60
 -10 -12  -3   17.50    9.60
  10 -12   3   17.00    7.20
 -10  12  -3   12.70    5.50
  10  12   3   10.70    6.30
   9 -13  -3  436.46   30.90
   9  13  -3  440.36   25.90
   9  13  -3  423.36   22.60
   7 -13  -3  973.00   44.50
   7  13  -3  991.90   34.00
  -7  13   3  963.80   32.70
   7  13  -3  915.41   34.90
   5 -13  -3  508.35   31.60
  -5  13   3  503.95   21.30
   5  13  -3  530.25   24.60
  -5  13   3  512.45   22.70
   3 -13  -3   27.80   10.90
   3  13  -3   11.10    5.30
   3  13  -3    2.70    3.90
  -3  13   3   16.30    5.60
  -3  13   3    6.40    3.90
   1 -13  -3  175.58   22.70
  -1  13   3  180.88   12.70
   1  13  -3  177.08   14.70
   1  13  -3  190.68   14.10
  -1  13   3  212.48   14.30
  -1 -13  -3  122.19   19.50
   1 -13   3   93.89   12.70
  -1  13  -3  132.39   14.80
   1  13   3   93.09   11.70
   1  13   3   97.59   10.30
  -3 -13  -3 1212.98   48.20
   3 -13   3 1156.98   37.50
   3  13   3 1180.38   36.00
  -3  13  -3 1193.98   37.20
  -5 -13  -3   29.90   11.00
   5 -13   3   30.30    7.70
  -5  13  -3   31.30    8.40
   5  13   3   22.50    6.50
   7 -13   3    2.80    4.30
  -7 -13  -3   18.00    9.70
   7  13   3   17.00    6.30
  -7  13  -3   19.60    7.20
   6 -14  -3   21.00   10.10
   6  14  -3   31.00    8.00
   4 -14  -3  487.45   32.10
   4  14  -3  477.25   24.50
  -4  14   3  401.96   20.40
  -4  14   3  388.46   19.70
   2 -14  -3 1110.09   47.70
  -2  14   3 1063.59   32.20
   2  14  -3 1091.59   37.90
   2  14  -3 1072.89   34.00
  -2  14   3 1097.29   33.90
   0 -14  -3  197.78   24.60
   0  14   3  218.88   15.20
   0  14  -3  146.59   16.20
   0  14   3  194.78   13.40
   0  14  -3  226.98   16.00
  -2 -14  -3   -1.80    6.00
   2 -14   3    5.10    4.90
  -2  14  -3    1.10    4.20
   2  14   3   12.60    6.00
  -4 -14  -3  301.27   30.80
   4 -14   3  341.47   20.80
   4  14   3  328.87   19.60
  -4  14  -3  342.17   20.50
  -3  15   3   33.70    8.40
  -1  15   3    3.60    4.90
   1  15  -3   10.60    5.60
  -1  15   3    3.90    4.70
 -18   0   4    4.30    4.90
  16   0  -4 2153.18   59.19
 -16   0   4 2034.70   49.20
  14   0  -4   42.90   10.30
 -14   0   4   51.89    8.40
  12   0  -4   79.29   12.20
 -12   0   4   76.39    9.80
 -12   0   4   81.19    9.50
 -10   0   4   23.10    5.30
  10   0  -4   28.20    6.80
 -10   0   4   14.70    4.60
  -8   0   4  497.85   18.50
   8   0  -4  496.65   20.20
  -8   0   4  524.45   18.20
   6   0  -4 4890.51   74.09
  -6   0   4 4973.00   70.99
   6   0  -4 4868.91   70.29
  -4   0   4 1039.10   24.70
   4   0  -4 1011.30   24.50
   4   0  -4  975.80   24.50
  -2   0   4  198.18   10.10
   2   0  -4  197.98   10.50
   2   0  -4  203.68    9.80
  -2   0   4  213.38    7.60
   0   0   4 1127.69   25.20
   0   0  -4 1219.08   23.80
   0   0  -4 1147.69   28.70
   0   0   4 1150.78   23.90
  -2   0  -4 5961.20   88.09
   2   0   4 5864.91   79.29
   2   0   4 5882.01   77.89
  -2   0  -4 5898.61   72.49
  -4   0  -4   20.30    3.20
  -4   0  -4   16.30    5.30
   4   0   4   21.00    5.00
   4   0   4   26.80    4.50
   6   0   4 3601.64   52.99
  -6   0  -4 3677.33   49.50
   6   0   4 3688.53   62.39
  -6   0  -4 3702.73   67.19
  -8   0  -4 4913.31   83.09
   8   0   4 4899.91   65.99
  -8   0  -4 4934.31   66.89
   8   0   4 4760.42   78.49
  10   0   4 1076.89   38.30
  10   0   4 1009.50   32.10
 -10   0  -4 1019.70   34.20
 -12   0  -4   14.40    6.60
  12   0   4   22.10    7.10
 -14   0  -4    4.70    5.90
  14   0   4    7.60    5.90
 -16   0  -4   -0.50    4.50
  16   0   4    1.10    4.80
  18   0   4 1353.06   45.00
 -17  -1   4  352.46   20.10
  17  -1  -4  351.46   24.50
  17   1  -4  357.16   24.90
 -17   1   4  345.87   19.50
  15  -1  -4  256.57   19.80
 -15  -1   4  218.68   15.10
  15   1  -4  229.48   18.90
 -15   1   4  261.97   15.90
 -13  -1   4   10.00    4.40
  13  -1  -4   17.10    7.00
 -13  -1   4   10.30    4.80
 -13   1   4    3.70    3.30
 -13   1   4   10.30    4.40
  13   1  -4   10.70    5.40
 -11  -1   4 3045.30   55.99
 -11  -1   4 3038.20   53.89
  11  -1  -4 2976.10   62.59
  11   1  -4 3074.89   61.79
 -11   1   4 3014.10   54.49
 -11   1   4 2927.51   52.69
   9  -1  -4  191.28   13.90
  -9  -1   4  185.68   11.50
  -9  -1   4  181.98   11.10
   9   1  -4  197.08   13.30
  -9   1   4  182.78   11.20
  -9   1   4  175.68   10.70
   7  -1  -4   87.49   10.10
   7  -1  -4   76.49    8.40
  -7  -1   4   64.09    7.80
   7   1  -4   90.99   10.00
   7   1  -4   85.69    8.90
  -7   1   4   96.69    9.60
   5  -1  -4  479.15   17.70
  -5  -1   4  463.25   16.60
   5  -1  -4  439.76   15.10
   5   1  -4  442.06    7.10
   5   1  -4  429.36   15.90
   5   1  -4  440.86   15.70
  -5   1   4  468.25   15.80
   3  -1  -4 1619.44   32.30
   3  -1  -4 1645.64   33.40
  -3  -1   4 1528.95   32.00
  -3  -1   4 1587.74   23.00
   3   1  -4 1555.74   30.10
  -3   1   4 1610.74   23.00
  -3   1   4 1547.35   31.00
   3   1  -4 1616.84   32.80
   1  -1  -4  395.76   14.00
  -1  -1   4  398.76   14.50
  -1  -1   4  380.96   11.80
   1  -1  -4  348.97   14.50
  -1   1   4  380.36   13.50
  -1   1   4  367.06   11.20
   1   1  -4  377.26   11.70
   1   1  -4  377.36   15.10
  -1  -1  -4  698.13   22.50
   1  -1   4  682.03   18.80
  -1  -1  -4  650.93   17.60
   1  -1   4  687.73   19.20
  -1   1  -4  699.03   22.90
   1   1   4  660.83   18.00
  -1   1  -4  664.83   14.20
   1   1   4  691.83   18.30
  -3  -1  -4 1005.40   21.80
   3  -1   4 1022.50   24.00
   3  -1   4  954.50   25.20
  -3  -1  -4  996.70   29.20
  -3   1  -4 1011.10   29.90
  -3   1  -4 1028.30   16.00
   3   1   4  985.90   22.20
   3   1   4 1013.30   25.10
  -5  -1  -4  221.28   14.20
   5  -1   4  219.58   12.70
  -5  -1  -4  213.88    9.60
   5  -1   4  216.38   10.30
   5  -1   4  211.98    6.50
  -5   1  -4  239.98   14.60
   5   1   4  202.48    9.30
   5   1   4  223.88   12.50
  -7  -1  -4  954.00   22.40
   7  -1   4  974.50   18.70
  -7  -1  -4  964.80   30.30
   7  -1   4 1029.70   30.60
   7   1   4  973.50   28.80
  -7   1  -4  915.41   30.50
  -7   1  -4  973.00   23.40
   7   1   4  968.30   21.10
   9  -1   4   36.10    8.10
  -9  -1  -4   22.10    6.70
  -9   1  -4    5.30    4.20
   9   1   4   28.80    7.10
   9   1   4   15.50    4.50
  -9   1  -4   23.80    4.70
 -11  -1  -4  663.23   27.80
  11  -1   4  685.53   27.20
 -11   1  -4  639.24   27.10
  11   1   4  644.94   21.60
  11   1   4  667.73   26.50
  13  -1   4 1689.83   46.50
 -13  -1  -4 1673.13   48.20
  13   1   4 1737.93   46.60
 -13   1  -4 1708.33   48.70
 -15  -1  -4  285.77   20.30
  15  -1   4  271.47   19.10
  15   1   4  284.57   19.50
 -15   1  -4  292.97   20.90
 -17  -1  -4   68.99   13.40
  17  -1   4   72.29   12.60
 -17   1  -4   65.89   13.30
  17   1   4   83.09   14.20
 -18   2   4    6.30    5.00
  16  -2  -4   -1.30    5.00
 -16  -2   4    1.70    3.70
 -16   2   4   -1.50    3.20
  16   2  -4    4.20    5.90
 -14  -2   4    1.00    3.50
  14  -2  -4    7.60    6.00
  14   2  -4    3.10    5.00
 -14   2   4    1.90    3.50
 -14   2   4    0.70    3.40
 -12  -2   4  283.17   15.00
  12  -2  -4  284.37   18.80
 -12  -2   4  261.97   15.30
  12   2  -4  249.38   16.90
 -12   2   4  264.67   14.40
 -12   2   4  265.67   14.40
 -10  -2   4   77.99    9.30
 -10  -2   4  104.39   10.70
  10  -2  -4  103.69   13.60
 -10   2   4   74.99    8.90
 -10   2   4   77.69    9.00
  10   2  -4   96.79   11.90
   8  -2  -4  168.78   12.80
  -8  -2   4  185.68   11.30
  -8  -2   4  188.58   11.80
  -8   2   4  194.98   11.00
   8   2  -4  189.88   12.20
  -6  -2   4   20.50    4.90
   6  -2  -4   19.60    5.50
   6  -2  -4   11.40    3.40
   6   2  -4   16.30    2.20
   6   2  -4   14.30    4.10
   6   2  -4   16.50    4.40
  -6   2   4    8.60    3.10
   4  -2  -4  518.85   16.60
  -4  -2   4  538.25   18.10
   4  -2  -4  553.94   19.70
  -4  -2   4  532.15   11.20
   4   2  -4  519.25   17.50
  -4   2   4  536.25   16.90
  -4   2   4  536.75    9.70
   4   2  -4  528.45   16.30
  -2  -2   4   37.30    5.90
  -2  -2   4   31.70    3.90
   2  -2  -4   32.60    5.90
   2  -2  -4   43.40    6.20
  -2   2   4   36.60    4.00
  -2   2   4   43.40    5.90
   2   2  -4   36.30    5.90
   2   2  -4   37.70    4.70
   0  -2   4   23.90    4.10
   0  -2  -4   28.20    5.30
   0  -2   4   22.70    4.70
   0  -2  -4   29.60    5.80
   0   2  -4   29.50    5.70
   0   2   4   32.30    4.60
   0   2  -4   33.70    3.60
   0   2   4   35.80    5.20
  -2  -2  -4   26.40    5.90
  -2  -2  -4   22.40    4.60
   2  -2   4   27.90    4.90
   2  -2   4   26.60    5.10
   2   2   4   22.40    4.40
   2   2   4   26.10    4.10
  -2   2  -4   23.00    5.70
   4  -2   4   63.89    8.20
  -4  -2  -4   71.89    7.80
   4  -2   4   59.99    7.10
  -4  -2  -4   39.10    7.40
   4   2   4   65.09    8.00
  -4   2  -4   48.40    8.40
   4   2   4   53.39    6.00
   6  -2   4  131.69   10.70
  -6  -2  -4  131.49    8.70
  -6  -2  -4  134.59   13.50
   6   2   4  129.99   10.10
  -6   2  -4  127.19    8.70
  -6   2  -4  138.99   14.10
   6   2   4  137.49    7.40
  -8  -2  -4   88.89   11.80
  -8  -2  -4   99.59    8.20
   8  -2   4   89.79   11.50
   8   2   4   92.99   11.30
  -8   2  -4  109.29   12.90
  -8   2  -4  115.89    8.30
   8   2   4   98.09    6.10
  10  -2   4   77.29   11.60
 -10  -2  -4   48.40    8.90
  10   2   4   56.19    9.10
  10   2   4   65.09    8.60
 -10   2  -4   75.69    8.30
 -10   2  -4   75.59   11.60
  12  -2   4   -1.70    2.80
 -12  -2  -4   -2.50    2.90
  12   2   4    1.20    3.40
  12   2   4    3.80    3.60
 -12   2  -4    0.30    4.30
 -14  -2  -4  304.07   20.40
  14  -2   4  255.17   18.40
 -14   2  -4  293.77   20.10
  14   2   4  228.08   17.40
  16  -2   4   19.30    7.70
 -16  -2  -4    8.20    5.30
 -16   2  -4    9.10    6.40
  16   2   4   17.70    7.60
  18  -2   4   40.90   10.70
  18   2   4   47.30   10.90
 -17  -3   4    6.00    4.50
  17  -3  -4    4.50    6.50
  17   3  -4   13.30    7.70
 -17   3   4    1.40    4.30
 -15  -3   4  326.47   18.80
  15  -3  -4  323.97   22.90
  15   3  -4  323.27   22.10
 -15   3   4  296.77   17.00
 -15   3   4  308.37   17.20
 -13  -3   4   37.10    7.80
  13  -3  -4   31.20    8.60
 -13   3   4   35.50    6.90
  13   3  -4   37.60    8.90
 -13   3   4   38.00    6.90
 -11  -3   4 1813.82   39.70
  11  -3  -4 1731.03   47.60
 -11  -3   4 1770.22   41.30
  11   3  -4 1726.23   44.80
 -11   3   4 1799.92   38.80
 -11   3   4 1759.92   39.10
  -9  -3   4  360.46   16.30
  -9  -3   4  389.16   17.30
   9  -3  -4  399.46   20.80
  -9   3   4  365.76   16.10
   9   3  -4  364.26   17.80
  -9   3   4  385.06   16.10
   7  -3  -4  300.67   12.70
   7  -3  -4  280.47   16.30
  -7  -3   4  292.97   14.10
   7   3  -4  319.07   10.00
   7   3  -4  294.67   14.40
  -7   3   4  302.37   13.80
   7   3  -4  294.97   14.10
  -5  -3   4    2.40    2.50
   5  -3  -4    7.40    4.20
   5  -3  -4    6.20    2.80
   5   3  -4    2.30    2.50
  -5   3   4    3.80    2.70
   5   3  -4    1.40    1.30
   5   3  -4   -1.80    1.60
  -5   3   4    6.20    1.40
  -3  -3   4 1808.82   37.00
   3  -3  -4 1876.61   39.80
  -3  -3   4 1800.62   29.00
   3  -3  -4 1785.82   34.30
   3   3  -4 1794.42   31.70
  -3   3   4 1818.62   26.70
  -3   3   4 1764.22   33.70
   3   3  -4 1814.92   36.30
  -1  -3   4  451.55   13.90
  -1  -3   4  456.15   16.80
   1  -3  -4  456.85   16.50
   1  -3  -4  500.45   18.60
   1   3  -4  415.66   16.50
  -1   3   4  460.15   14.60
   1   3  -4  477.55   12.00
  -1   3   4  470.05   12.80
  -1  -3  -4 3151.58   53.89
   1  -3   4 3193.28   50.79
  -1  -3  -4 3152.68   55.59
   1  -3   4 3072.69   52.09
  -1   3  -4 3155.78   56.59
   1   3   4 3207.28   47.10
  -1   3  -4 3146.79   37.00
   1   3   4 3174.58   47.60
  -3  -3  -4  186.08   11.00
   3  -3   4  182.38   10.30
  -3  -3  -4  170.98   11.90
   3  -3   4  169.78   10.60
   3   3   4  210.58   10.70
   3   3   4  188.38    8.80
  -3   3  -4  191.18   13.20
  -5  -3  -4 1001.80   26.50
   5  -3   4  978.80   28.30
  -5  -3  -4  990.40   29.60
  -5   3  -4 1025.40   25.80
   5   3   4 1036.70   21.20
   5   3   4  937.21   25.70
  -5   3  -4  998.30   30.60
  -7  -3  -4  403.86   16.60
   7  -3   4  382.66   18.60
  -7  -3  -4  382.26   18.70
   7   3   4  391.46   17.60
  -7   3  -4  370.66   15.30
   7   3   4  384.76   11.70
  -7   3  -4  378.76   19.30
  -9  -3  -4  378.26   19.20
   9  -3   4  351.36   18.80
  -9  -3  -4  381.26   16.90
  -9   3  -4  348.97   14.80
  -9   3  -4  350.06   19.30
   9   3   4  373.86   18.80
  11  -3   4  671.83   27.30
 -11  -3  -4  636.54   27.00
  11   3   4  647.84   23.60
  11   3   4  621.74   26.20
 -11   3  -4  648.84   21.10
 -11   3  -4  664.63   27.80
  13  -3   4 1450.05   43.30
 -13  -3  -4 1410.56   43.50
  13   3   4 1484.35   39.80
  13   3   4 1418.96   42.80
 -13   3  -4 1470.25   44.60
 -15  -3  -4   98.39   14.60
  15  -3   4   82.09   13.20
  15   3   4   81.39   12.80
 -15   3  -4  105.39   15.50
 -17  -3  -4   83.59   14.10
  17  -3   4  116.59   16.30
 -17   3  -4  150.18   18.70
  17   3   4  118.59   16.10
 -18   4   4   21.70    6.50
  16  -4  -4 1181.28   45.60
 -16  -4   4 1186.68   38.40
  16   4  -4 1287.37   45.40
 -16   4   4 1254.67   36.30
 -14  -4   4   12.00    5.30
  14  -4  -4   14.00    7.50
  14   4  -4    2.10    4.90
 -14   4   4    2.00    4.00
 -14   4   4    8.30    4.30
 -12  -4   4  109.79   12.30
  12  -4  -4  134.39   17.20
  12   4  -4  122.19   14.10
 -12   4   4  104.49   11.50
 -12   4   4  109.39   10.90
 -10  -4   4   93.89   10.80
 -10  -4   4   96.09   10.50
  10  -4  -4  117.59   15.20
 -10   4   4  103.29   10.40
 -10   4   4   68.89    8.70
  10   4  -4   96.89   12.10
   8  -4  -4  209.98   15.50
  -8  -4   4  191.08   11.90
   8  -4  -4  203.98   10.50
  -8   4   4  202.38   11.60
   8   4  -4  205.18   12.70
   6  -4  -4 3309.37   63.39
  -6  -4   4 3207.98   55.79
   6  -4  -4 3319.57   50.99
   6   4  -4 3333.77   54.89
   6   4  -4 3276.27   55.29
  -6   4   4 3252.57   53.69
   6   4  -4 3314.87   45.40
  -4  -4   4  789.42   17.70
   4  -4  -4  794.62   20.70
  -4  -4   4  749.23   22.90
   4  -4  -4  761.32   26.20
  -4   4   4  803.42   21.30
   4   4  -4  753.52   19.90
   4   4  -4  768.42   22.40
  -4   4   4  767.82   15.10
  -2  -4   4    2.80    3.00
   2  -4  -4    9.00    3.50
  -2  -4   4    6.90    2.50
   2  -4  -4    5.20    3.80
   2   4  -4    5.70    2.20
   2   4  -4   11.80    4.10
  -2   4   4    6.30    3.00
  -2   4   4    7.60    2.30
   0  -4   4  388.86   15.60
   0  -4  -4  384.06   16.20
   0  -4   4  350.76   13.50
   0  -4  -4  352.46   16.50
   0   4  -4  379.16   16.50
   0   4  -4  355.06    9.10
   0   4   4  349.87   12.00
   0   4   4  352.86   12.70
   2  -4   4 2757.22   48.80
  -2  -4  -4 2803.72   51.59
  -2  -4  -4 2762.32   51.59
   2   4   4 2883.91   43.30
   2   4   4 2779.52   45.70
  -2   4  -4 2801.02   53.59
  -4  -4  -4   13.90    4.80
   4  -4   4   36.10    6.60
  -4  -4  -4   14.60    4.80
   4   4   4   15.70    3.20
   4   4   4   22.20    5.20
  -4   4  -4   22.20    6.50
  -4   4  -4   21.00    4.90
  -6  -4  -4 2170.78   46.50
  -6  -4  -4 2205.88   45.40
   6  -4   4 2220.58   47.70
  -6   4  -4 2179.48   48.70
   6   4   4 2241.48   34.80
  -6   4  -4 2210.38   43.00
   6   4   4 2213.28   44.30
  -8  -4  -4 2742.13   55.39
   8  -4   4 2705.73   56.79
  -8  -4  -4 2744.73   53.39
   8   4   4 2873.21   54.69
  -8   4  -4 2740.33   49.99
  -8   4  -4 2781.82   57.29
  10  -4   4  374.76   20.40
 -10  -4  -4  359.26   19.60
 -10  -4  -4  369.26   18.50
 -10   4  -4  391.86   16.60
  10   4   4  353.86   19.20
 -10   4  -4  386.76   20.80
  12  -4   4    2.00    4.60
 -12  -4  -4    6.40    4.60
  12   4   4    3.40    4.20
 -12   4  -4    8.20    4.10
 -12   4  -4   10.40    5.70
  12   4   4    7.90    4.80
 -14  -4  -4    6.60    5.70
  14  -4   4    4.20    4.50
 -14   4  -4    2.70    4.20
  14   4   4    6.10    5.50
  14   4   4    3.20    4.70
  16  -4   4   -4.50    4.10
 -16  -4  -4    3.40    5.30
 -16   4  -4    0.90    5.00
  16   4   4    3.00    5.60
  15  -5  -4   38.20   10.80
 -15  -5   4   50.19    9.60
  15   5  -4   46.50   11.20
 -15   5   4   53.79    9.50
 -15   5   4   40.10    8.40
 -13  -5   4   57.89   10.00
  13  -5  -4   77.49   13.90
 -13   5   4   57.79    9.20
  13   5  -4   35.30    9.50
 -13   5   4   52.59    8.10
 -11  -5   4 1844.12   43.60
  11  -5  -4 1852.21   51.99
  11   5  -4 1878.41   46.70
 -11   5   4 1811.92   39.70
 -11   5   4 1853.41   42.00
  -9  -5   4    8.30    4.20
   9  -5  -4   -1.10    4.30
   9  -5  -4   -0.60    1.80
  -9   5   4    6.40    3.90
   9   5  -4    7.50    4.40
   7  -5  -4  107.59   13.50
  -7  -5   4  145.49   10.50
   7  -5  -4  134.39    8.60
   7   5  -4  155.58   10.80
   7   5  -4  142.49    7.80
   7   5  -4  132.99   10.50
  -7   5   4  133.29    9.60
   5  -5  -4  203.98   15.00
   5  -5  -4  221.38   10.70
  -5  -5   4  244.88   13.30
  -5   5   4  223.58   11.60
  -5   5   4  228.08    8.00
   5   5  -4  231.78   11.70
   5   5  -4  227.08    9.80
   5   5  -4  220.08   12.10
  -3  -5   4  261.27   13.20
   3  -5  -4  277.87   16.60
  -3  -5   4  278.17   11.30
   3  -5  -4  273.97   12.20
  -3   5   4  272.67    9.60
   3   5  -4  257.07   10.90
   3   5  -4  285.57   13.70
   1  -5  -4  474.75   17.20
  -1  -5   4  440.16   17.40
   1  -5  -4  459.85   20.50
  -1  -5   4  430.26   15.20
   1   5  -4  442.16   17.50
  -1   5   4  456.75   15.10
  -1   5   4  444.16   13.60
   1   5  -4  453.95   12.20
  -1  -5  -4   16.10    5.60
   1  -5   4   11.00    3.50
  -1  -5  -4   24.00    5.60
  -1   5  -4   19.00    2.30
  -1   5  -4   16.20    4.70
  -1   5  -4   69.19    9.60
   1   5   4    4.40    2.30
   1   5   4   15.30    3.70
  -3  -5  -4 1176.48   32.90
  -3  -5  -4 1212.78   30.30
   3  -5   4 1207.28   31.00
  -3   5  -4 1203.48   30.20
   3   5   4 1218.48   24.40
   3   5   4 1201.98   27.90
  -3   5  -4 1207.78   33.70
  -5  -5  -4   48.30    7.60
   5  -5   4   56.69    9.10
  -5  -5  -4   50.79    8.90
  -5   5  -4   42.60    6.80
   5   5   4   44.00    6.80
   5   5   4   52.59    5.70
  -5   5  -4   58.19    9.30
   7  -5   4  515.05   22.40
  -7  -5  -4  528.95   21.00
  -7  -5  -4  522.25   22.20
  -7   5  -4  481.25   18.90
   7   5   4  510.55   20.40
  -7   5  -4  539.25   23.00
  -9  -5  -4  507.85   22.40
  -9  -5  -4  505.55   22.00
   9  -5   4  514.35   23.60
  -9   5  -4  490.45   19.60
   9   5   4  523.15   22.00
  -9   5  -4  516.85   23.30
  11  -5   4  162.58   17.00
 -11  -5  -4  164.28   16.60
 -11  -5  -4  169.58   13.80
 -11   5  -4  174.28   14.50
  11   5   4  170.38   16.60
 -11   5  -4  176.18   12.20
 -13  -5  -4  917.31   33.60
  13  -5   4  961.00   35.80
 -13   5  -4  984.20   35.60
  13   5   4  910.11   34.00
  13   5   4  936.91   32.80
  15  -5   4   54.09   11.10
 -15  -5  -4   54.89   11.10
  15   5   4   50.99   10.70
  15   5   4   51.99   10.90
 -15   5  -4   56.89   11.30
 -17  -5  -4   -4.10    4.80
  17  -5   4    2.50    5.60
 -17   5  -4    0.80    5.00
 -16  -6   4    0.20    3.80
  16  -6  -4   -0.90    6.30
  16   6  -4   -4.20    5.10
 -16   6   4    3.80    4.80
 -14  -6   4   10.50    5.50
  14  -6  -4    2.70    6.60
  14   6  -4    5.50    6.10
 -14   6   4   12.00    5.80
  12  -6  -4  878.11   37.10
 -12  -6   4  931.51   30.80
  12   6  -4  868.51   32.70
 -12   6   4  891.51   29.00
 -10  -6   4  384.86   16.80
  10  -6  -4  371.16   23.00
  10   6  -4  368.26   19.70
 -10   6   4  348.67   17.20
   8  -6  -4  411.36   23.00
   8  -6  -4  394.66   14.70
  -8  -6   4  430.96   17.70
   8   6  -4  424.06   15.00
   8   6  -4  418.96   19.10
   8   6  -4  415.26   18.20
  -8   6   4  394.56   17.30
   6  -6  -4   99.59    7.40
  -6  -6   4   99.49   10.50
   6  -6  -4  104.09   14.30
   6   6  -4  102.79    7.40
   6   6  -4  100.49   10.60
  -6   6   4  104.19   10.30
   6   6  -4  105.59    8.70
  -4  -6   4 1665.83   36.70
   4  -6  -4 1639.24   31.80
  -4  -6   4 1605.64   31.60
   4  -6  -4 1524.95   42.80
  -4   6   4 1615.64   28.20
   4   6  -4 1576.24   32.70
  -4   6   4 1584.04   34.00
   4   6  -4 1588.54   35.10
   2  -6  -4  128.79   14.60
  -2  -6   4  132.79    8.70
   2  -6  -4  143.19    9.30
   2   6  -4  144.29   10.10
  -2   6   4  121.39    7.30
  -2   6   4  131.49    8.70
   2   6  -4  134.29    7.70
   2   6  -4   90.29    9.70
   0  -6  -4   12.00    5.60
   0  -6  -4   32.30    6.10
   0  -6   4   18.70    4.50
   0   6   4   25.00    4.50
   0   6  -4   29.90    6.30
   0   6  -4   17.80    5.00
   0   6  -4   23.00    3.40
   0   6   4   24.40    4.50
  -2  -6  -4  185.38   13.90
   2  -6   4  180.98   11.50
  -2  -6  -4  177.48   10.70
   2   6   4  161.18    9.80
  -2   6  -4  170.68   12.80
  -2   6  -4  180.08   11.50
   2   6   4  181.98    9.10
   4  -6   4  156.98   11.80
  -4  -6  -4  162.48   16.00
  -4  -6  -4  172.28   10.90
  -4   6  -4  185.88   13.40
   4   6   4  172.98   10.80
   4   6   4  176.48    8.40
  -4   6  -4  160.28   11.00
  -6  -6  -4  377.06   19.90
  -6  -6  -4  367.76   16.20
   6  -6   4  370.76   18.50
  -6   6  -4  380.06   17.30
  -6   6  -4  377.56   19.00
   6   6   4  373.26   17.00
  -8  -6  -4  427.76   19.20
  -8  -6  -4  478.35   22.60
   8  -6   4  441.56   22.10
   8   6   4  464.25   20.60
  -8   6  -4  480.25   19.80
  -8   6  -4  485.45   22.10
 -10  -6  -4  105.49   12.40
  10  -6   4  119.59   14.50
 -10  -6  -4   90.19   12.50
  10   6   4  133.89   14.40
 -10   6  -4  121.99   13.90
 -10   6  -4  110.79   12.20
 -12  -6  -4    1.80    4.60
 -12  -6  -4    3.00    3.60
  12  -6   4   -2.00    3.30
 -12   6  -4    1.60    4.20
  12   6   4    4.90    4.70
 -12   6  -4    0.90    3.60
  14  -6   4  833.02   34.30
 -14  -6  -4  854.71   32.30
  14   6   4  839.82   33.40
  14   6   4  866.81   33.80
 -14   6  -4  889.61   33.50
  16  -6   4   48.10   11.60
 -16  -6  -4   77.59   13.40
  16   6   4   76.59   14.20
 -16   6  -4   56.09   11.40
  16   6   4   60.99   12.00
 -15  -7   4  130.09   15.10
  15  -7  -4  188.98   24.30
 -15   7   4  178.88   17.00
  15   7  -4  181.48   20.60
 -13  -7   4   12.00    5.50
  13  -7  -4   31.80   11.10
 -13   7   4   26.70    7.60
  13   7  -4   11.80    6.60
  11  -7  -4  226.28   23.50
  11   7  -4  167.68   17.50
 -11   7   4  185.58   13.50
   9  -7  -4  113.09   16.00
  -9   7   4  124.19   12.40
   9   7  -4  130.39    9.80
   9   7  -4  133.59   11.10
   9   7  -4  152.38   15.40
   7  -7  -4   62.29   12.20
   7   7  -4   58.39    8.70
   7   7  -4   59.09    7.50
   7   7  -4   55.89    7.90
  -7   7   4   57.89    8.00
   7   7  -4   56.39    8.60
   5  -7  -4  628.44   28.60
   5   7  -4  631.04   21.00
  -5   7   4  628.44   21.10
   5   7  -4  633.14   19.80
   5   7  -4  593.44   20.90
  -5   7   4  618.34   16.50
   5   7  -4  596.14   21.20
  -3  -7   4  281.07   13.00
   3  -7  -4  288.97   18.80
   3   7  -4  300.07   14.70
  -3   7   4  303.07   11.90
  -3   7   4  288.27   13.60
   3   7  -4  287.87   14.60
   3   7  -4  280.77   12.40
   1  -7  -4  490.65   23.90
  -1  -7   4  484.05   18.10
  -1   7   4  461.55   15.50
   1   7  -4  485.05   19.20
  -1   7   4  500.05   17.10
   1   7  -4  459.75   19.00
   1   7  -4  516.75   15.20
   1  -7   4 2878.11   52.89
  -1  -7  -4 2863.41   46.50
  -1  -7  -4 2909.51   61.09
  -1   7  -4 2856.21   55.19
  -1   7  -4 2832.52   53.19
   1   7   4 2832.52   46.30
   1   7   4 2879.41   48.40
  -3  -7  -4    4.50    4.30
   3  -7   4    7.40    3.70
  -3  -7  -4    6.20    3.10
   3   7   4    2.00    2.50
   3   7   4    1.50    2.10
  -3   7  -4    5.10    4.10
  -3   7  -4    7.70    3.70
  -5  -7  -4  441.06   16.70
  -5  -7  -4  422.86   22.50
   5  -7   4  416.36   19.80
   5   7   4  458.75   13.80
  -5   7  -4  467.25   19.60
   5   7   4  470.75   18.80
  -5   7  -4  438.56   20.20
  -7  -7  -4   -0.20    4.00
   7  -7   4    0.40    3.50
  -7  -7  -4    0.60    2.80
  -7   7  -4    8.30    4.70
  -7   7  -4    5.20    3.80
   7   7   4   -1.70    2.60
  -9  -7  -4  600.94   26.90
   9  -7   4  536.55   24.90
  -9  -7  -4  513.45   21.20
   9   7   4  531.95   22.90
  -9   7  -4  556.94   24.00
  -9   7  -4  589.44   23.20
  11  -7   4  188.28   18.90
 -11  -7  -4  169.88   13.10
 -11  -7  -4  195.48   20.00
  11   7   4  195.98   15.00
 -11   7  -4  152.08   14.90
 -11   7  -4  177.88   14.30
  13  -7   4  438.26   24.70
 -13  -7  -4  432.46   22.10
  13   7   4  403.06   23.10
 -13   7  -4  407.16   20.60
 -13   7  -4  404.76   22.20
  15  -7   4   81.19   13.30
 -15  -7  -4   66.49   11.80
  15   7   4   84.29   13.90
  15   7   4   77.59   13.30
 -15   7  -4   92.49   13.80
  14  -8  -4   14.20    9.60
 -14  -8   4   10.00    5.90
  14   8  -4   20.10    8.20
 -14   8   4   14.40    6.20
  12  -8  -4   80.29   16.40
  12   8  -4  107.59   12.90
 -12   8   4   96.89   12.20
  12   8  -4   89.09   13.60
  10  -8  -4  393.36   26.20
  10   8  -4  398.86   21.70
 -10   8   4  405.76   19.80
  10   8  -4  420.86   20.00
   8  -8  -4   16.70    7.80
   8   8  -4    9.60    3.60
   8   8  -4    8.10    3.80
   8   8  -4   15.50    4.70
   8   8  -4    6.20    4.20
  -8   8   4   20.20    5.40
   6  -8  -4 1007.70   38.50
   6   8  -4 1069.89   30.50
   6   8  -4 1085.49   30.10
   6   8  -4 1087.79   28.10
  -6   8   4 1018.00   29.10
   6   8  -4 1096.19   29.30
   4  -8  -4  602.04   28.70
   4   8  -4  640.84   21.10
   4   8  -4  599.44   21.70
  -4   8   4  651.53   18.50
  -4   8   4  648.04   21.70
   4   8  -4  605.44   21.70
  -2  -8   4  148.69   10.30
   2  -8  -4  168.48   19.10
  -2   8   4  144.49    9.10
   2   8  -4  158.88   11.30
   2   8  -4  143.19   10.90
  -2   8   4  148.29    9.90
   2   8  -4  143.89    9.10
   0  -8   4   21.40    5.50
   0  -8  -4   15.00    7.10
   0   8  -4   14.70    5.40
   0   8   4   10.10    3.40
   0   8   4   15.30    4.00
   0   8  -4   26.50    6.30
  -2  -8  -4  112.99   15.30
   2  -8   4   89.49   10.50
  -2   8  -4   85.59   11.00
  -2   8  -4   87.59   10.40
   2   8   4   96.79   10.10
   2   8   4   87.09    8.40
   4  -8   4  207.38   14.20
  -4  -8  -4  211.18   17.10
   4   8   4  180.08    9.30
  -4   8  -4  195.38   13.70
  -4   8  -4  178.28   12.80
   4   8   4  172.48   11.50
  -6  -8  -4  625.44   28.50
   6  -8   4  642.54   25.80
  -6   8  -4  667.23   24.70
  -6   8  -4  658.03   25.00
   6   8   4  627.04   23.40
  -8  -8  -4  494.85   26.00
   8  -8   4  536.65   25.10
  -8  -8  -4  506.15   21.20
  -8   8  -4  529.65   22.70
   8   8   4  519.65   22.80
  -8   8  -4  521.35   22.60
 -10  -8  -4   -0.50    3.40
  10  -8   4   -2.40    3.10
 -10  -8  -4   -1.70    4.30
  10   8   4    5.40    4.60
 -10   8  -4   -0.90    3.60
 -10   8  -4    1.70    3.80
 -12  -8  -4    1.40    4.00
 -12  -8  -4   -1.60    4.60
  12  -8   4   -3.70    3.30
 -12   8  -4   -3.30    3.30
  12   8   4   -0.70    3.40
  14  -8   4   -1.00    3.80
 -14  -8  -4    9.30    5.60
 -14   8  -4   10.10    5.90
  14   8   4    7.60    6.40
  14   8   4    2.10    5.60
  13  -9  -4   59.89   14.00
  13   9  -4   49.10   11.10
 -13   9   4   36.30    8.60
  13   9  -4   57.39   10.50
  11  -9  -4  565.14   32.50
  11   9  -4  556.04   27.10
  11   9  -4  553.04   24.10
 -11   9   4  519.15   23.50
   9  -9  -4    1.60    6.20
   9   9  -4    8.90    5.30
  -9   9   4   13.90    5.30
   9   9  -4   -1.70    3.30
   7  -9  -4  290.67   22.30
   7   9  -4  281.27   14.70
   7   9  -4  296.67   17.00
   7   9  -4  274.97   15.40
   7   9  -4  291.67   15.10
  -7   9   4  302.87   16.40
   5  -9  -4   -0.10    5.40
   5   9  -4    0.20    2.70
  -5   9   4    6.20    3.60
   5   9  -4    9.20    4.00
   5   9  -4    0.70    3.10
   5   9  -4    5.30    3.30
  -3  -9   4   26.90    6.20
   3  -9  -4   42.70   10.80
   3   9  -4   26.20    5.80
   3   9  -4   28.80    6.40
   3   9  -4   40.80    7.70
  -3   9   4   34.50    5.80
  -3   9   4   30.00    6.40
   1  -9  -4  493.65   26.10
  -1  -9   4  483.15   19.90
   1   9  -4  511.05   20.30
   1   9  -4  528.45   21.20
  -1   9   4  528.05   18.70
  -1   9   4  515.95   18.50
  -1  -9  -4   22.30    7.70
   1  -9   4   18.20    5.60
  -1   9  -4   17.10    5.60
   1   9   4   16.10    4.20
   1   9   4   18.20    4.90
  -1   9  -4   18.00    5.80
  -3  -9  -4  521.65   27.00
   3  -9   4  506.05   21.90
  -3   9  -4  495.85   21.30
   3   9   4  504.55   19.70
   3   9   4  477.55   16.30
  -3   9  -4  500.55   21.30
   5  -9   4   16.90    5.80
  -5  -9  -4    6.20    5.70
  -5   9  -4   13.30    5.10
   5   9   4   22.00    6.10
  -7  -9  -4  123.89   17.10
   7  -9   4   75.49   11.60
   7   9   4   83.59   11.40
  -7   9  -4   93.29   12.40
   9  -9   4  234.08   17.40
  -9  -9  -4  221.88   23.00
  -9   9  -4  210.48   15.30
   9   9   4  207.58   15.60
  11  -9   4   16.70    7.40
 -11  -9  -4   25.20    8.60
 -11   9  -4   26.50    7.60
  11   9   4   19.90    6.80
 -13  -9  -4  394.36   26.30
  13  -9   4  454.25   26.10
  13   9   4  420.96   24.00
 -13   9  -4  442.76   23.40
  12 -10  -4  283.87   28.90
  12  10  -4  312.57   22.00
  12  10  -4  294.97   18.40
 -12  10   4  332.47   19.90
  10 -10  -4  302.87   30.20
  10  10  -4  223.18   15.40
 -10  10   4  236.78   16.20
  10  10  -4  252.97   18.00
   8 -10  -4    0.30    6.90
   8  10  -4   11.40    5.70
   8  10  -4    5.00    3.80
   8  10  -4   10.70    5.10
  -8  10   4    1.90    4.20
   6 -10  -4   93.39   16.30
   6  10  -4  119.99   13.00
   6  10  -4  140.59   13.30
   6  10  -4   99.29   11.60
  -6  10   4  125.09   12.80
   6  10  -4  123.89   12.60
   4 -10  -4  348.97   24.50
  -4  10   4  345.37   15.10
   4  10  -4  379.36   17.90
   4  10  -4  354.86   17.80
  -4  10   4  367.16   17.40
   2 -10  -4   77.19   13.60
  -2 -10   4   98.89   11.80
   2  10  -4   82.89   10.60
  -2  10   4   79.69    9.10
  -2  10   4   94.99   10.70
   0 -10   4   28.50    6.70
   0 -10  -4   31.60    9.60
   0  10  -4   26.90    6.50
   0  10   4   36.70    6.60
   0  10   4   42.30    7.30
   2 -10   4  215.78   15.00
  -2 -10  -4  205.58   21.10
   2  10   4  228.38   13.50
  -2  10  -4  194.18   14.20
   2  10   4  211.48   11.60
   4 -10   4   86.99   12.30
  -4 -10  -4   74.59   13.20
   4  10   4   76.19    9.90
  -4  10  -4   81.29   11.30
   6 -10   4  112.19   14.20
  -6 -10  -4   83.29   15.00
  -6  10  -4   84.19   12.10
   6  10   4   67.49   10.00
  -8 -10  -4  329.17   23.20
   8 -10   4  291.87   19.60
   8  10   4  294.97   17.80
  -8  10  -4  296.47   18.60
  10 -10   4   -4.20    3.60
 -10 -10  -4    7.00    6.20
 -10  10  -4    2.00    4.60
  10  10   4   -3.10    3.50
 -12 -10  -4   36.30   10.80
  12 -10   4   30.40    9.20
  12  10   4   38.70    9.10
 -12  10  -4   23.00    7.80
  11 -11  -4   10.00    8.30
 -11  11   4    1.00    5.00
  11  11  -4    3.40    5.60
   9 -11  -4   34.90   11.40
   9  11  -4   12.60    6.00
  -9  11   4   25.90    7.20
   7 -11  -4   -5.30    5.70
   7  11  -4   -2.00    3.40
   7  11  -4    0.60    3.60
  -7  11   4   -0.70    3.70
   5 -11  -4  945.21   41.80
  -5  11   4  933.21   29.70
   5  11  -4  877.41   29.80
   5  11  -4  959.30   28.90
   3 -11  -4   11.40    7.90
   3  11  -4   10.40    4.90
   3  11  -4    7.80    4.60
  -3  11   4    9.40    4.30
  -3  11   4    3.20    3.40
  -1 -11   4  220.88   15.00
   1 -11  -4  239.48   25.60
   1  11  -4  202.28   14.30
  -1  11   4  216.38   13.10
  -1  11   4  222.08   13.40
   1 -11   4 1275.57   37.30
  -1 -11  -4 1294.57   46.70
   1  11   4 1267.17   31.10
   1  11   4 1219.08   33.50
  -1  11  -4 1278.47   36.70
   3 -11   4   26.80    7.00
  -3 -11  -4   24.70    8.90
  -3  11  -4   30.20    7.60
   3  11   4   35.80    7.50
  -5 -11  -4    2.70    6.30
   5 -11   4   -1.70    3.80
   5  11   4   12.50    5.40
  -5  11  -4   10.70    5.40
  -7 -11  -4  136.29   19.80
   7 -11   4  118.89   15.50
   7  11   4  107.09   13.20
  -7  11  -4  113.79   14.40
  -9 -11  -4  235.08   24.80
   9 -11   4  252.07   19.00
  -9  11  -4  238.48   17.80
   9  11   4  192.98   15.60
 -11 -11  -4   20.60    9.40
  11 -11   4   45.70   12.30
  11  11   4   58.39   17.50
 -11  11  -4   33.20    9.10
  10  12  -4  531.95   27.50
   8 -12  -4   -0.80    7.50
   8  12  -4    7.40    4.40
  -8  12   4    8.50    5.30
   6 -12  -4  281.77   28.50
   6  12  -4  308.77   18.40
  -6  12   4  295.67   17.70
   4 -12  -4  897.91   40.90
   4  12  -4  858.91   28.70
  -4  12   4  862.71   28.70
   4  12  -4  845.72   30.70
   2 -12  -4  100.69   17.80
  -2  12   4   86.99   10.70
   2  12  -4   79.49   11.80
   2  12  -4   96.39   12.00
  -2  12   4   79.99   10.50
   0 -12   4   82.99   12.20
   0 -12  -4   82.49   15.20
   0  12   4  108.29   12.00
   0  12  -4   77.09   11.00
   0  12   4   83.49   10.10
  -2 -12  -4   26.50   10.00
   2 -12   4   38.40    8.30
   2  12   4   34.00    7.10
  -2  12  -4   37.60    8.30
   4 -12   4   81.69   12.70
  -4 -12  -4   77.29   15.00
   4  12   4   99.69   12.50
  -4  12  -4   58.69   10.40
   6 -12   4  443.96   24.60
  -6 -12  -4  499.35   30.30
   6  12   4  450.55   22.70
  -6  12  -4  468.45   24.10
   8 -12   4   26.20    8.30
  -8 -12  -4   18.00    8.60
  -8  12  -4   29.80    8.30
   8  12   4   35.40    8.50
   7 -13  -4   53.39   21.10
  -7  13   4   58.19   16.40
   7  13  -4   34.70    8.50
   5 -13  -4  154.38   22.90
   5  13  -4  125.59   15.00
  -5  13   4  124.99   14.10
   5  13  -4  134.09   15.00
   3 -13  -4   55.49   14.70
   3  13  -4   55.09    9.50
  -3  13   4   51.59    9.00
  -3  13   4   64.79    9.60
   3  13  -4   55.09   10.30
   1 -13  -4  370.06   27.40
   1  13  -4  360.76   20.20
   1  13  -4  368.26   21.50
  -1  13   4  323.37   17.80
  -1  13   4  367.26   18.10
  -1 -13  -4  624.64   35.60
   1 -13   4  582.24   27.00
   1  13   4  625.14   33.30
  -1  13  -4  643.24   26.90
   1  13   4  627.44   25.30
   3 -13   4   87.29   12.90
  -3 -13  -4   87.09   17.50
   3  13   4   60.59   10.10
  -3  13  -4   90.39   13.40
  -5 -13  -4   91.09   17.90
   5 -13   4   63.99   11.40
   5  13   4   56.89   10.50
  -5  13  -4   91.59   14.10
  -4  14   4    4.70    5.60
   4  14  -4   13.20    6.10
   4  14  -4    6.50    4.90
   2  14  -4   75.49   11.70
   2  14  -4   75.79   12.50
  -2  14   4   98.39   12.30
  -2  14   4   77.29   11.10
   0 -14  -4   70.79   26.50
   0  14   4   58.49   10.00
   0  14   4   79.69   12.50
   0  14  -4   78.69   12.70
   0  14  -4   47.00    9.70
   2  14   4   25.40    7.20
  -2  14  -4   41.10   10.30
  16   0  -5    1.90    5.30
 -16   0   5   -1.10    4.40
 -14   0   5   -4.30    3.10
 -14   0   5    0.20    3.50
  14   0  -5    6.70    5.70
 -12   0   5    0.40    3.20
  12   0  -5    4.40    4.70
  10   0  -5    2.50    3.20
 -10   0   5   -0.40    2.70
  10   0  -5   -5.50    3.00
   8   0  -5    0.80    2.60
  -8   0   5    1.00    2.90
   8   0  -5    0.20    3.40
   6   0  -5    1.90    2.40
  -6   0   5   -1.60    2.50
   6   0  -5   -1.10    2.80
   4   0  -5    3.30    2.60
   4   0  -5    0.50    2.30
  -4   0   5    0.70    2.80
  -2   0   5    0.20    1.60
  -2   0   5   -0.30    2.70
   2   0  -5    0.50    2.20
   2   0  -5    0.50    2.10
   0   0  -5    0.20    2.00
   0   0   5   -1.00    1.90
   0   0  -5   11.90    4.40
   0   0   5    0.80    2.40
   2   0   5   21.90    5.10
  -2   0  -5    0.10    3.00
  -2   0  -5    4.20    2.20
   2   0   5   -1.70    1.70
  -4   0  -5    0.70    1.60
  -4   0  -5    1.70    3.60
   4   0   5    1.20    2.20
   4   0   5   -0.10    2.30
   6   0   5   -0.20    2.30
   6   0   5    1.30    3.00
  -6   0  -5    3.40    4.60
  -8   0  -5    1.70    2.30
   8   0   5    7.30    4.30
  -8   0  -5   -2.80    3.50
  10   0   5    0.40    3.50
 -10   0  -5    4.20    4.10
 -12   0  -5   -1.80    4.50
  12   0   5   -1.70    3.80
  14   0   5   -0.80    5.10
 -14   0  -5    2.10    4.50
 -16   0  -5    0.70    4.90
  16   0   5   -2.70    3.70
 -17  -1   5    3.30    5.10
  17   1  -5    4.10   11.60
 -17   1   5    4.40    5.00
  15  -1  -5   77.59   13.80
 -15  -1   5   95.59   13.70
  15   1  -5   87.59   14.00
 -15   1   5   99.69   13.10
 -13  -1   5  370.86   20.00
 -13  -1   5  389.16   19.20
  13  -1  -5  381.66   22.90
 -13   1   5  338.97   18.80
 -13   1   5  372.36   18.50
  13   1  -5  336.57   21.00
 -11  -1   5   17.40    5.90
  11  -1  -5   22.00    7.10
  11  -1  -5   23.00    6.00
 -11   1   5   24.80    5.90
  11   1  -5   32.80    7.90
  11   1  -5   28.60    6.40
   9  -1  -5  334.97   15.80
  -9  -1   5  377.86   17.70
   9  -1  -5  347.27   19.10
  -9   1   5  372.46   16.90
   9   1  -5  331.27   17.60
   9   1  -5  340.67   16.50
   7  -1  -5   49.70    8.70
  -7  -1   5   43.60    7.50
   7  -1  -5   44.50    6.90
   7   1  -5   58.19    7.90
   7   1  -5   54.49    8.60
  -7   1   5   57.19    8.30
   5  -1  -5   29.30    5.80
  -5  -1   5   20.30    5.10
   5  -1  -5   25.50    6.00
   5   1  -5   33.90    6.10
   5   1  -5   33.30    6.00
  -5   1   5   23.70    5.10
   3  -1  -5 2212.28   42.70
  -3  -1   5 2193.58   32.00
   3  -1  -5 2175.68   43.20
  -3  -1   5 2191.38   43.10
   3   1  -5 2114.29   43.40
  -3   1   5 2203.78   31.90
   3   1  -5 2208.48   39.60
  -3   1   5 2127.59   41.30
  -1  -1   5  139.89    9.70
  -1  -1   5  156.78    8.70
   1  -1  -5  159.48    9.80
   1  -1  -5  155.18   11.10
   1   1  -5  139.29   10.70
  -1   1   5  139.49    9.20
  -1   1   5  159.28    8.20
  -1  -1  -5   27.40    6.10
   1  -1   5   36.10    6.20
  -1  -1  -5   42.20    6.00
   1  -1   5   41.30    6.20
   1   1   5   36.40    5.60
   1   1   5   31.50    5.70
  -1   1  -5   30.40    6.70
  -1   1  -5   36.40    4.50
  -3  -1  -5  264.67   11.10
   3  -1   5  277.07   13.90
  -3  -1  -5  278.17   16.20
   3  -1   5  255.87   12.60
  -3   1  -5  252.87    7.60
   3   1   5  242.98   11.70
   3   1   5  274.77   13.30
  -3   1  -5  291.97   17.20
   5  -1   5   66.19    9.30
  -5  -1  -5   73.39    6.00
   5  -1   5   87.39    9.00
  -5  -1  -5   74.99   11.30
  -5   1  -5   73.89   11.20
   5   1   5   73.59    7.90
   5   1   5   77.99    9.60
   7  -1   5   91.49   11.60
  -7  -1  -5   87.99    6.80
  -7  -1  -5   92.89   12.80
   7   1   5   98.79    7.30
   7   1   5  101.49   11.80
  -7   1  -5  109.79   14.10
  -9  -1  -5   16.90    6.40
   9  -1   5   32.50    7.60
  -9   1  -5   23.10    5.00
  -9   1  -5   20.00    7.00
   9   1   5   42.70    8.40
 -11  -1  -5  667.33   30.00
  11  -1   5  789.52   30.20
  11   1   5  700.73   28.20
 -11   1  -5  769.02   32.00
 -13  -1  -5    9.40    6.70
  13  -1   5   24.00    7.40
  13   1   5   21.60    7.00
 -13   1  -5    8.60    6.30
  15  -1   5    5.50    5.10
 -15  -1  -5   -2.60    4.70
 -15   1  -5    6.40    6.90
  15   1   5    1.70    5.00
 -16  -2   5  385.56   22.50
  16  -2  -5  312.97   22.90
 -16   2   5  383.26   21.40
  16   2  -5  377.96   24.80
  14  -2  -5  403.36   24.40
 -14  -2   5  353.26   20.50
 -14   2   5  356.06   18.90
  14   2  -5  382.96   22.80
 -14   2   5  341.57   19.40
  12  -2  -5  170.08   12.20
 -12  -2   5  194.28   13.90
  12  -2  -5  164.88   18.00
  12   2  -5  197.18   16.00
 -12   2   5  199.28   13.50
 -10  -2   5    3.30    4.10
  10  -2  -5    5.40    4.60
  10  -2  -5    3.70    3.20
  10   2  -5   -0.20    3.30
 -10   2   5   -3.40    2.30
  10   2  -5    4.50    3.60
   8  -2  -5 3293.27   57.19
   8  -2  -5 3476.15   65.29
  -8  -2   5 3367.86   60.49
  -8   2   5 3342.07   58.09
   8   2  -5 3328.27   59.69
   8   2  -5 3363.06   61.09
   6  -2  -5  426.26   17.10
  -6  -2   5  479.65   19.10
   6  -2  -5  434.76   19.70
   6   2  -5  404.36   17.30
  -6   2   5  416.26   16.90
   6   2  -5  420.26   17.30
  -4  -2   5  238.38    8.00
   4  -2  -5  259.97   14.30
   4  -2  -5  222.78   12.40
  -4  -2   5  239.58   13.40
   4   2  -5  229.88   11.40
   4   2  -5  247.48   13.60
   2  -2  -5  602.74   21.00
  -2  -2   5  589.04   15.70
  -2  -2   5  577.14   20.10
   2  -2  -5  601.14   21.20
  -2   2   5  619.04   19.60
   2   2  -5  607.84   16.50
   2   2  -5  599.04   21.60
  -2   2   5  598.14   15.20
   0  -2  -5   14.00    5.20
   0  -2  -5    9.90    3.70
   0  -2   5   13.50    4.50
   0  -2   5   16.50    4.20
   0   2  -5    5.70    3.70
   0   2   5   24.30    4.60
   0   2   5    9.50    3.50
   0   2  -5   14.70    3.00
  -2  -2  -5 1376.76   36.80
   2  -2   5 1357.76   32.20
   2  -2   5 1449.76   33.00
  -2  -2  -5 1371.56   30.40
   2   2   5 1393.06   30.10
   2   2   5 1419.86   31.30
  -2   2  -5 1395.76   37.90
  -4  -2  -5  115.99    8.40
   4  -2   5  117.29    8.70
   4  -2   5  122.89   12.20
  -4  -2  -5   99.59   12.10
   4   2   5  125.49   12.30
   4   2   5  116.69    8.10
  -4   2  -5   94.89   11.90
  -6  -2  -5  605.14   25.50
  -6  -2  -5  560.14   18.20
   6  -2   5  577.14   22.50
   6   2   5  590.14   22.50
  -6   2  -5  571.94   25.10
   6   2   5  582.04   17.40
   8  -2   5  124.39   13.60
  -8  -2  -5  159.28   16.20
  -8  -2  -5  132.79    9.40
  -8   2  -5  139.49   10.10
   8   2   5  143.49   14.60
   8   2   5  155.88   12.90
  -8   2  -5  161.98   17.30
  10  -2   5  196.28   15.30
 -10  -2  -5  168.28   18.00
 -10   2  -5  210.88   12.30
  10   2   5  197.68   14.90
 -10   2  -5  224.58   17.60
  12  -2   5  121.19   15.10
 -12  -2  -5  122.49   16.70
  12   2   5  119.09   14.70
 -12   2  -5  124.49   16.60
 -14  -2  -5   75.89   13.60
  14  -2   5  102.19   14.90
 -14   2  -5   81.39   14.50
  14   2   5   92.79   13.80
  16  -2   5 1349.16   44.60
 -16  -2  -5 1395.56   49.10
 -16   2  -5 1401.86   48.90
  16   2   5 1302.27   44.30
 -17   3   5    5.30    5.40
  15  -3  -5   35.30   10.30
 -15  -3   5   46.00   10.40
  15   3  -5   56.79   12.20
 -15   3   5   47.00    9.10
 -15   3   5   49.30    9.80
  13  -3  -5  653.23   30.70
  13   3  -5  661.13   29.20
 -13   3   5  720.23   26.70
 -11  -3   5    1.00    3.50
  11  -3  -5    3.70    2.80
  11  -3  -5   -3.40    3.50
  11   3  -5   -0.20    2.80
 -11   3   5    5.90    4.10
  11   3  -5    6.20    4.40
  -9  -3   5  357.56   17.50
   9  -3  -5  324.07   15.10
   9  -3  -5  346.97   19.90
   9   3  -5  384.76   18.80
  -9   3   5  341.67   16.50
   9   3  -5  336.97   17.10
   7  -3  -5   -1.90    3.50
  -7  -3   5    4.90    3.70
   7  -3  -5    2.00    2.50
  -7   3   5    3.50    3.30
   7   3  -5    1.30    3.00
   7   3  -5    2.40    2.80
   5  -3  -5   64.99   10.10
   5  -3  -5   83.09    8.90
  -5  -3   5   92.79   10.70
   5   3  -5   63.59    8.70
  -5   3   5   82.79    9.10
   5   3  -5   75.39    8.50
   3  -3  -5 3267.97   59.99
   3  -3  -5 3240.38   55.59
  -3  -3   5 3187.28   46.00
  -3  -3   5 3220.68   56.99
   3   3  -5 3186.78   48.90
   3   3  -5 3217.48   57.59
  -3   3   5 3129.29   53.29
  -3   3   5 3184.88   44.40
   1  -3  -5  601.34   21.40
   1  -3  -5  583.44   21.50
  -1  -3   5  539.35   20.00
  -1  -3   5  570.74   17.20
  -1   3   5  575.04   16.20
   1   3  -5  535.55   21.40
  -1   3   5  561.34   18.20
   1   3  -5  574.14   14.50
   1  -3   5    4.50    3.60
  -1  -3  -5   -1.50    2.10
   1  -3   5    0.20    2.40
  -1  -3  -5   -1.70    3.00
   1   3   5    1.00    2.00
  -1   3  -5    8.80    5.00
   1   3   5   13.00    3.70
   3  -3   5 1757.52   39.30
  -3  -3  -5 1733.43   42.60
   3  -3   5 1720.53   37.60
  -3  -3  -5 1780.22   37.60
  -3   3  -5 1754.12   44.20
   3   3   5 1744.13   36.80
   3   3   5 1708.93   33.60
   5  -3   5  528.35   21.60
  -5  -3  -5  489.75   18.40
  -5  -3  -5  518.25   23.10
  -5   3  -5  488.15   22.90
   5   3   5  489.75   19.60
  -5   3  -5  500.95   18.90
   5   3   5  513.65   16.30
  -7  -3  -5    9.40    5.70
  -7  -3  -5   26.50    5.90
   7  -3   5   18.10    6.00
  -7   3  -5   15.00    6.00
   7   3   5   20.00    5.90
  -7   3  -5   19.80    5.20
   7   3   5   18.30    3.90
  -9  -3  -5   51.79   10.30
   9  -3   5   53.39    9.90
  -9  -3  -5   55.69    8.10
   9   3   5   52.19    9.90
  -9   3  -5   44.00    7.10
  -9   3  -5   47.60    9.80
 -11  -3  -5 1679.23   48.70
  11  -3   5 1728.63   47.00
 -11   3  -5 1748.63   49.90
  11   3   5 1737.23   47.00
 -11   3  -5 1696.83   42.50
  13  -3   5   15.30    7.00
 -13  -3  -5    2.70    4.50
  13   3   5   17.10    7.30
 -13   3  -5    8.40    6.30
 -15  -3  -5   -1.60    5.50
  15  -3   5    3.20    5.00
  15   3   5    1.30    4.20
 -15   3  -5   -0.90    4.90
 -16  -4   5   76.79   13.20
  16  -4  -5   61.49   14.30
 -16   4   5   55.99   10.50
  16   4  -5   95.19   15.70
  14  -4  -5   -2.60    5.20
  14  -4  -5   -0.10    3.30
  14   4  -5    3.00    5.70
 -14   4   5   -2.00    3.30
  12  -4  -5    4.60    5.60
  12  -4  -5   11.30    4.20
  12   4  -5    6.60    5.30
 -12   4   5   10.10    4.60
  12   4  -5   -0.80    3.80
 -10  -4   5  598.44   23.40
  10  -4  -5  576.64   20.60
  10  -4  -5  583.14   27.30
  10   4  -5  565.54   24.10
  10   4  -5  604.74   23.70
 -10   4   5  569.54   22.10
  -8  -4   5  342.27   17.40
   8  -4  -5  314.77   14.70
   8  -4  -5  320.57   19.40
  -8   4   5  311.87   15.60
   8   4  -5  324.87   16.60
   8   4  -5  331.77   16.70
   6  -4  -5  303.27   14.50
   6  -4  -5  321.37   18.60
  -6  -4   5  329.27   16.50
  -6   4   5  310.27   14.70
   6   4  -5  297.77   15.40
   6   4  -5  295.37   14.30
  -4  -4   5   48.80    8.10
   4  -4  -5   31.40    7.90
   4  -4  -5   34.90    6.30
  -4  -4   5   44.80    5.40
   4   4  -5   50.89    6.70
   4   4  -5   31.30    6.30
  -4   4   5   32.90    5.90
  -2  -4   5  930.51   27.80
   2  -4  -5  939.11   29.50
  -2  -4   5  983.10   23.30
   2  -4  -5 1000.00   27.60
   2   4  -5  988.70   21.20
  -2   4   5 1019.40   21.40
   2   4  -5  994.70   29.20
  -2   4   5  968.70   25.20
   0  -4  -5   50.09    8.50
   0  -4   5   33.70    6.30
   0  -4   5   45.90    6.70
   0  -4  -5   35.60    7.00
   0   4   5   44.00    6.40
   0   4  -5   41.90    7.70
   0   4   5   36.40    5.50
   2  -4   5    3.40    3.00
  -2  -4  -5    2.80    3.30
   2  -4   5   -1.40    2.60
  -2  -4  -5   -0.10    3.40
   2   4   5    2.30    2.20
   2   4   5    0.90    2.60
  -2   4  -5   -0.70    3.70
  -4  -4  -5   65.19    9.50
  -4  -4  -5   84.29   10.20
   4  -4   5   70.29    9.50
  -4   4  -5   73.49    9.20
   4   4   5   80.19    9.40
  -4   4  -5   76.59   11.40
   4   4   5   78.09    7.70
   6  -4   5   43.50    8.90
  -6  -4  -5   18.50    5.50
  -6  -4  -5   18.10    6.20
  -6   4  -5   15.20    6.40
   6   4   5   20.30    5.80
  -6   4  -5   16.70    4.90
   6   4   5   30.90    5.10
   8  -4   5  176.18   13.70
  -8  -4  -5  167.78   13.90
  -8  -4  -5  172.68   12.40
  -8   4  -5  182.58   15.10
  -8   4  -5  182.48   12.30
   8   4   5  170.68   13.40
  10  -4   5  300.97   19.00
 -10  -4  -5  311.77   16.60
 -10  -4  -5  300.97   19.20
  10   4   5  333.87   19.50
 -10   4  -5  321.07   16.10
 -10   4  -5  351.86   21.50
  12  -4   5   17.50    6.80
 -12  -4  -5   19.40    7.20
 -12   4  -5   31.30    9.00
  12   4   5   17.20    6.70
 -14  -4  -5   11.40    7.30
  14  -4   5   15.50    7.30
  14   4   5   24.90    8.10
 -14   4  -5   20.00    8.10
  16  -4   5  381.56   23.90
 -16  -4  -5  315.47   23.00
  16   4   5  319.57   22.60
 -16   4  -5  352.86   24.10
  15  -5  -5  450.15   29.00
 -15   5   5  485.15   23.40
  15   5  -5  426.76   25.50
  13  -5  -5  381.86   20.50
  13  -5  -5  366.36   24.70
  13   5  -5  411.86   23.30
  13   5  -5  417.86   21.40
 -13   5   5  416.46   20.80
 -11  -5   5    0.30    3.70
  11  -5  -5    9.10    5.80
  11  -5  -5    5.50    3.50
 -11   5   5    8.90    4.70
  11   5  -5   10.60    4.90
  11   5  -5    5.40    5.20
   9  -5  -5   58.89   11.10
  -9  -5   5   45.40    8.70
   9  -5  -5   49.60    7.40
   9   5  -5   44.00    8.10
  -9   5   5   40.40    7.60
   9   5  -5   44.10    8.40
   7  -5  -5   73.39    8.60
  -7  -5   5   72.79   10.10
   7  -5  -5   72.69   11.90
   7   5  -5   99.99   11.30
   7   5  -5   83.29   10.10
  -7   5   5   83.49   10.20
   5  -5  -5    2.80    3.90
  -5  -5   5    0.40    3.30
   5  -5  -5    4.20    3.10
   5   5  -5    1.20    2.50
  -5   5   5   -0.60    2.60
   5   5  -5    3.10    3.20
   3  -5  -5  365.56   16.10
  -3  -5   5  354.16   13.50
  -3  -5   5  349.07   16.80
   3  -5  -5  366.16   19.70
   3   5  -5  355.36   13.20
   3   5  -5  344.87   17.00
  -3   5   5  373.86   12.10
  -3   5   5  349.67   15.20
   1  -5  -5  524.95   20.60
  -1  -5   5  483.25   17.30
  -1  -5   5  456.05   19.20
   1  -5  -5  496.05   22.00
  -1   5   5  494.05   15.70
   1   5  -5  489.25   20.80
  -1   5   5  496.55   17.20
   1  -5   5   64.69    8.90
  -1  -5  -5   58.99    8.90
  -1  -5  -5   56.59    9.20
   1  -5   5   67.69    9.30
  -1   5  -5   45.00    8.80
   1   5   5   62.89    7.50
   1   5   5   60.09    7.30
  -3  -5  -5    9.50    4.80
  -3  -5  -5   11.00    4.90
   3  -5   5    2.40    2.80
  -3   5  -5    0.80    4.50
   3   5   5    6.30    3.10
   3   5   5    4.20    3.20
  -3   5  -5    3.30    3.00
  -5  -5  -5   11.40    4.90
  -5  -5  -5   17.40    5.80
   5  -5   5   20.40    6.30
   5   5   5   15.70    3.90
  -5   5  -5    7.30    5.50
  -5   5  -5    5.90    3.90
   5   5   5   10.30    4.30
   7  -5   5   93.89   12.70
  -7  -5  -5  120.69   13.50
  -7  -5  -5  107.29   13.30
  -7   5  -5  101.19   11.10
   7   5   5  110.89   12.60
  -7   5  -5  117.69   14.60
  -9  -5  -5  378.16   19.30
   9  -5   5  344.27   20.50
  -9  -5  -5  369.26   20.50
  -9   5  -5  365.16   21.30
   9   5   5  357.86   19.20
  -9   5  -5  373.66   17.90
  11  -5   5  158.28   17.70
 -11  -5  -5  165.08   17.40
 -11  -5  -5  166.98   16.40
 -11   5  -5  166.78   12.70
 -11   5  -5  152.78   17.20
  11   5   5  144.99   15.90
  13  -5   5   -0.70    4.20
 -13  -5  -5   -0.90    5.30
 -13   5  -5    1.40    5.10
  13   5   5   -0.70    4.70
 -15  -5  -5   87.19   14.70
  15  -5   5  109.69   16.50
  15   5   5   84.09   13.90
 -15   5  -5   61.99   13.30
 -16   6   5   25.30    8.20
  14  -6  -5    8.60    7.70
  14   6  -5    0.60    4.30
 -14   6   5   -0.60    4.00
  14   6  -5   13.10    7.10
  12  -6  -5   91.09   15.90
  12   6  -5   66.39   11.50
 -12   6   5   91.69   12.20
  12   6  -5   88.29   11.90
 -10  -6   5   12.80    5.30
  10  -6  -5   14.90    7.40
 -10   6   5   15.70    5.60
  10   6  -5   20.30    6.50
  10   6  -5   22.60    6.70
  -8  -6   5 2206.28   47.20
   8  -6  -5 2277.67   58.19
  -8   6   5 2138.09   46.30
   8   6  -5 2115.59   48.00
   8   6  -5 2139.19   47.00
  -6  -6   5  689.93   24.60
   6  -6  -5  620.84   28.60
   6  -6  -5  635.74   20.70
   6   6  -5  648.94   21.60
   6   6  -5  649.34   24.00
  -6   6   5  664.03   22.80
  -4  -6   5   18.10    4.30
   4  -6  -5   15.40    6.40
   4  -6  -5   22.40    5.40
  -4  -6   5   25.40    6.00
   4   6  -5   20.30    5.70
  -4   6   5   19.40    5.10
   4   6  -5   19.40    4.40
  -2  -6   5  311.27   16.50
   2  -6  -5  345.37   16.20
  -2  -6   5  296.97   13.80
   2  -6  -5  327.97   19.10
  -2   6   5  294.57   14.10
  -2   6   5  322.97   12.40
   2   6  -5  268.67   15.40
   0  -6   5  466.05   18.40
   0  -6  -5  398.36   18.00
   0  -6  -5  428.26   21.30
   0   6  -5  388.46   18.10
   0   6   5  415.96   15.30
   0   6  -5  415.26   19.80
   0   6   5  439.26   16.20
  -2  -6  -5  398.06   20.70
  -2  -6  -5  398.76   18.20
   2  -6   5  401.06   18.30
  -2   6  -5  366.86   19.90
  -2   6  -5  391.36   18.50
   2   6   5  403.06   16.40
   2   6   5  384.56   14.70
   4  -6   5 1608.94   40.60
  -4  -6  -5 1612.14   38.70
  -4  -6  -5 1550.74   41.60
   4   6   5 1604.44   31.50
  -4   6  -5 1542.35   38.70
  -4   6  -5 1513.65   41.70
   4   6   5 1538.05   36.00
   6  -6   5  619.54   25.70
  -6  -6  -5  676.93   25.10
  -6  -6  -5  693.13   27.10
  -6   6  -5  647.54   24.20
  -6   6  -5  679.83   27.80
   6   6   5  639.94   23.90
   8  -6   5  614.14   27.20
  -8  -6  -5  601.04   25.60
  -8  -6  -5  634.44   25.50
   8   6   5  595.64   24.40
  -8   6  -5  608.54   23.60
  -8   6  -5  660.33   27.80
  10  -6   5    0.10    4.30
 -10  -6  -5    3.30    4.10
 -10  -6  -5    1.20    3.70
 -10   6  -5    4.30    5.00
 -10   6  -5    0.40    3.40
  10   6   5   -3.00    3.70
  12  -6   5    1.80    4.40
 -12  -6  -5    9.80    6.20
 -12  -6  -5    8.50    5.50
 -12   6  -5   12.50    6.50
 -12   6  -5   18.50    6.20
  12   6   5    9.50    5.50
  14  -6   5   98.79   14.90
 -14  -6  -5   96.89   14.80
  14   6   5   88.79   14.20
 -14   6  -5   66.29   12.60
 -16   6  -5 1183.48   44.60
 -15   7   5   72.89   12.40
  15   7  -5   74.29   15.70
  13  -7  -5  907.21   41.10
  13   7  -5  906.21   33.10
 -13   7   5 1001.70   34.00
  13   7  -5  906.51   35.60
  11  -7  -5   47.40   12.30
  11   7  -5   44.20    9.10
  11   7  -5   35.90    8.40
 -11   7   5   62.49   10.30
   9  -7  -5   12.60    7.00
  -9  -7   5   14.40    5.30
   9   7  -5   17.90    6.00
   9   7  -5   21.70    6.20
  -9   7   5    7.50    4.30
   7  -7  -5   44.70   10.10
  -7  -7   5   54.79    9.00
   7   7  -5   42.30    7.60
   7   7  -5   65.79    9.70
  -7   7   5   58.79    8.90
   5  -7  -5  384.06   22.80
   5   7  -5  474.45   17.90
  -5   7   5  375.96   17.30
   5   7  -5  398.96   16.30
   5   7  -5  421.46   19.50
  -3  -7   5 1705.63   36.10
   3  -7  -5 1672.23   47.40
   3   7  -5 1697.53   40.80
   3   7  -5 1672.63   40.50
  -3   7   5 1705.53   37.50
   1  -7  -5 1056.19   36.30
  -1  -7   5  985.60   28.00
   1   7  -5  965.70   30.90
  -1   7   5  993.70   25.00
  -1   7   5  994.80   26.50
   1   7  -5  978.90   30.20
  -1  -7  -5   21.80    6.70
   1  -7   5   18.10    5.60
  -1   7  -5   27.40    6.40
  -1   7  -5   16.30    6.30
   1   7   5   14.60    4.30
   1   7   5   22.00    5.20
  -3  -7  -5 1657.83   37.30
  -3  -7  -5 1659.43   44.90
   3  -7   5 1601.54   41.00
  -3   7  -5 1570.54   42.50
   3   7   5 1643.34   33.00
   3   7   5 1631.44   37.10
  -3   7  -5 1631.34   40.60
  -5  -7  -5  393.66   18.20
   5  -7   5  407.96   21.00
  -5  -7  -5  445.76   22.70
   5   7   5  453.95   19.60
  -5   7  -5  423.46   20.10
  -5   7  -5  431.86   21.50
   7  -7   5   38.20    8.50
  -7  -7  -5   50.09    9.80
  -7  -7  -5   36.20    7.20
  -7   7  -5   34.30    8.20
  -7   7  -5   47.50    8.80
   7   7   5   30.40    7.30
  -9  -7  -5  231.68   15.70
  -9  -7  -5  257.97   18.00
   9  -7   5  217.68   16.70
   9   7   5  212.58   15.30
  -9   7  -5  239.28   15.80
  -9   7  -5  209.58   16.20
 -11  -7  -5 1512.85   43.30
  11  -7   5 1563.34   47.50
 -11  -7  -5 1524.25   45.40
  11   7   5 1440.06   43.60
 -11   7  -5 1545.05   41.70
 -11   7  -5 1460.85   44.60
  13  -7   5  124.39   16.70
 -13  -7  -5  121.09   15.40
 -13   7  -5  145.99   17.60
 -13   7  -5  169.18   20.80
  13   7   5  148.19   17.90
 -15  -7  -5   23.80    8.80
 -15   7  -5   13.60    7.00
  14   8  -5   21.00    7.20
 -14   8   5   17.70    7.60
  14   8  -5   22.80    8.60
  12  -8  -5    2.70    5.90
  12   8  -5    6.70    5.40
  12   8  -5    2.70    4.40
 -12   8   5   -1.20    4.30
  10  -8  -5  377.86   26.40
 -10   8   5  420.26   20.50
  10   8  -5  442.36   22.00
  10   8  -5  438.86   22.30
   8  -8  -5  278.27   21.50
  -8   8   5  292.17   16.80
   8   8  -5  319.97   18.20
   8   8  -5  314.17   16.50
   8   8  -5  292.37   16.90
   6  -8  -5   79.79   13.80
  -6   8   5  105.29   12.10
   6   8  -5  106.69   12.40
   6   8  -5   78.19    9.90
   6   8  -5  105.19   12.50
   6   8  -5  113.59   12.70
   4  -8  -5  222.98   18.10
  -4  -8   5  189.58   11.70
  -4   8   5  197.08   12.70
   4   8  -5  223.58   14.70
   4   8  -5  201.98   13.80
  -2  -8   5  769.12   24.50
   2  -8  -5  717.43   31.50
   2   8  -5  710.13   25.90
   2   8  -5  726.63   26.50
  -2   8   5  712.23   23.00
  -2   8   5  732.03   21.20
   0  -8  -5   -0.20    5.00
   0  -8   5    2.20    3.50
   0   8   5    3.10    3.00
   0   8  -5    5.20    3.80
   0   8   5    3.30    3.00
   0   8  -5    4.50    4.50
  -2  -8  -5   54.79   10.40
   2  -8   5   65.99    9.70
   2   8   5   58.69    8.10
  -2   8  -5   72.29   11.30
  -2   8  -5   49.60    8.80
   2   8   5   62.19    7.90
  -4  -8  -5  281.37   19.60
   4  -8   5  301.87   18.30
  -4   8  -5  306.87   17.40
  -4   8  -5  279.47   17.80
   4   8   5  301.97   16.00
   4   8   5  305.87   13.10
  -6  -8  -5   34.00    9.30
   6  -8   5   45.60    9.20
  -6   8  -5   38.00    7.80
   6   8   5   34.70    7.70
  -6   8  -5   39.90    8.70
  -8  -8  -5   66.99   11.80
   8  -8   5   69.39   12.00
  -8   8  -5   75.49   11.60
  -8   8  -5   60.89   10.10
   8   8   5   63.59   10.30
 -10  -8  -5  407.86   23.70
  10  -8   5  396.76   23.80
 -10   8  -5  397.96   22.00
  10   8   5  331.77   20.00
 -10   8  -5  374.16   20.90
  12  -8   5   19.60    8.40
 -12  -8  -5   10.50    5.90
 -12   8  -5   21.50    7.10
  12   8   5   13.60    6.70
  14   8   5    4.80    6.50
  13   9  -5  547.75   26.40
  13   9  -5  545.25   27.80
  11  -9  -5   60.39   13.90
 -11   9   5   59.89   10.40
  11   9  -5   61.19   11.50
  11   9  -5   74.09   12.00
   9  -9  -5  827.42   38.80
   9   9  -5  870.31   30.70
  -9   9   5  836.02   29.80
   9   9  -5  816.82   30.30
   7  -9  -5   52.09   11.90
   7   9  -5   62.59   10.40
  -7   9   5   59.39    9.30
   7   9  -5   39.50    7.90
   5  -9  -5  185.38   21.10
   5   9  -5  193.08   12.70
   5   9  -5  175.78   13.40
  -5   9   5  182.48   13.00
   5   9  -5  200.38   14.10
   3  -9  -5    3.20    6.10
  -3  -9   5    0.10    2.90
  -3   9   5    0.40    3.40
   3   9  -5    5.00    4.00
   3   9  -5    3.60    3.80
   1  -9  -5 1470.75   46.40
  -1  -9   5 1421.06   37.40
   1   9  -5 1451.65   39.00
   1   9  -5 1398.06   38.90
  -1   9   5 1453.15   33.20
  -1   9   5 1385.56   33.40
  -1  -9  -5    3.10    5.30
   1  -9   5    1.40    3.70
  -1   9  -5    5.20    4.60
   1   9   5    3.40    3.10
   1   9   5    6.50    3.80
  -1   9  -5    7.50    5.00
  -3  -9  -5    3.70    5.00
   3  -9   5    1.30    3.80
  -3   9  -5    0.00    3.40
  -3   9  -5    5.60    5.00
   3   9   5    2.70    3.50
   3   9   5   -1.50    2.20
   5  -9   5   18.80    6.80
  -5  -9  -5   13.80    7.40
  -5   9  -5   14.60    6.10
  -5   9  -5   15.10    6.30
   5   9   5    7.90    4.80
  -7  -9  -5   12.70    6.60
   7  -9   5   20.60    7.50
  -7   9  -5   21.00    7.00
   7   9   5    6.50    5.20
  -9  -9  -5 1047.50   39.90
   9  -9   5 1053.19   38.70
   9   9   5 1032.70   35.60
  -9   9  -5 1067.29   35.90
  11  -9   5   97.99   15.00
 -11  -9  -5   74.39   13.90
  11   9   5   88.39   13.30
 -11   9  -5   87.19   13.40
 -13  -9  -5   86.19   15.30
 -13   9  -5  115.09   15.20
  12  10  -5   25.90    8.40
  12  10  -5   37.10    9.30
  10 -10  -5    5.80    8.20
  10  10  -5    1.70    4.40
 -10  10   5   -1.90    3.40
   8 -10  -5  940.21   41.40
   8  10  -5  874.21   31.90
  -8  10   5  856.61   30.20
   6 -10  -5  555.44   31.10
  -6  10   5  559.34   23.10
   6  10  -5  503.45   21.90
   6  10  -5  558.54   23.80
   6  10  -5  535.75   22.50
   4 -10  -5  290.37   22.90
   4  10  -5  279.57   16.80
   4  10  -5  317.47   17.80
  -4  10   5  290.27   16.20
   4  10  -5  316.57   17.10
   2 -10  -5   26.30    8.60
  -2 -10   5   28.80    6.50
  -2  10   5   22.10    5.50
   2  10  -5   21.60    6.60
  -2  10   5   19.40    6.00
   0 -10  -5  586.34   30.80
   0 -10   5  604.14   25.20
   0  10  -5  648.74   26.20
   0  10   5  642.14   22.60
   0  10   5  668.53   22.30
  -2 -10  -5   43.70   10.80
   2 -10   5   37.10    8.80
   2  10   5   38.60    7.70
  -2  10  -5   28.40    7.40
   2  10   5   36.00    6.40
   4 -10   5 2815.12   62.69
  -4 -10  -5 2888.31   70.19
  -4  10  -5 2849.42   61.59
   4  10   5 2877.91   57.89
  -6 -10  -5  505.55   28.30
   6 -10   5  463.45   24.80
   6  10   5  494.05   23.00
  -6  10  -5  476.85   23.60
   8 -10   5  687.53   31.30
  -8 -10  -5  667.53   32.80
   8  10   5  667.53   28.30
  -8  10  -5  623.64   28.20
  10 -10   5  228.08   23.60
 -10 -10  -5  201.48   22.40
 -10  10  -5  177.58   19.10
  10  10   5  217.08   17.00
 -12 -10  -5  141.89   20.60
 -12  10  -5  156.18   18.00
   9 -11  -5   21.30    9.80
  -9  11   5   20.70    7.10
   7 -11  -5   11.80    8.40
   7  11  -5   11.90    5.80
  -7  11   5   15.30    6.30
   5 -11  -5  172.78   23.00
   5  11  -5  164.98   16.20
   5  11  -5  160.48   16.00
  -5  11   5  125.09   13.40
   3 -11  -5  315.17   24.20
   3  11  -5  334.57   18.80
   3  11  -5  325.97   18.80
  -3  11   5  326.17   17.30
   1 -11  -5  535.75   31.30
  -1 -11   5  504.85   22.90
  -1  11   5  503.75   20.80
  -1  11   5  505.85   20.80
   1  11  -5  552.14   24.30
   1 -11   5  116.29   14.30
  -1 -11  -5  136.69   19.70
  -1  11  -5   82.49   12.00
   1  11   5  114.89   11.60
   1  11   5  122.39   13.40
  -3 -11  -5  221.28   23.90
   3 -11   5  209.28   20.20
  -3  11  -5  177.38   17.60
   3  11   5  168.18   13.60
  -5 -11  -5   26.60   10.00
   5 -11   5   34.40    8.80
  -5  11  -5   31.40    8.30
   5  11   5   27.30    7.30
  -7 -11  -5   28.90    9.60
   7 -11   5   35.60    9.70
   7  11   5   19.20    6.80
  -7  11  -5   27.60    8.40
  -9 -11  -5  282.77   23.10
   9 -11   5  292.77   21.90
   9  11   5  276.77   19.30
  -9  11  -5  299.77   20.60
   6 -12  -5   80.29   16.30
   6  12  -5   62.69   10.00
  -6  12   5   58.29   10.00
   4 -12  -5  272.67   28.10
  -4  12   5  276.57   17.20
   4  12  -5  296.27   18.10
   4  12  -5  295.17   18.10
   2 -12  -5   45.20   13.30
  -2  12   5   22.20    6.40
   2  12  -5   24.10    7.40
   0 -12  -5   14.20    8.60
   0 -12   5   14.30    6.20
   0  12  -5   19.40    7.10
   0  12   5   14.70    5.50
   0  12   5   20.10    5.70
  -2 -12  -5  199.88   23.30
   2 -12   5  162.78   17.40
   2  12   5  204.38   14.90
  -2  12  -5  205.78   19.40
   4 -12   5  299.87   20.50
  -4 -12  -5  262.57   27.30
  -4  12  -5  298.37   20.00
   4  12   5  273.17   17.70
   6 -12   5   38.60   10.00
  -6 -12  -5   15.70    8.80
  -6  12  -5   25.40    7.50
   6  12   5   32.20    7.90
   5  13  -5  145.69   15.40
   5  13  -5  141.49   15.40
   3  13  -5    9.70    5.50
   3  13  -5   10.00    5.30
  -3  13   5   -1.50    4.00
   1 -13  -5 1291.67   51.89
  -1  13   5 1316.37   36.20
   1  13  -5 1284.27   40.30
   1 -13   5   20.30    7.40
  -1 -13  -5   24.10   10.30
  -1  13  -5   26.50    8.20
   1  13   5   24.30    6.90
   3 -13   5   32.70    9.10
  -3 -13  -5   28.40   16.80
   3  13   5   22.60    6.70
  -3  13  -5   31.50   10.90
   5  13   5    3.30    5.40
  14   0  -6  157.88   19.60
  14   0  -6  121.89   14.40
 -14   0   6  124.79   14.60
 -12   0   6   81.49   11.50
  12   0  -6   91.19   13.80
  12   0  -6   85.49   11.80
  10   0  -6 1550.54   40.00
 -10   0   6 1573.54   40.60
  10   0  -6 1567.24   43.80
   8   0  -6   60.19    9.30
  -8   0   6   47.70    8.40
   8   0  -6   43.50    8.10
  -6   0   6   55.79    9.30
   6   0  -6   47.20    8.10
   6   0  -6   48.40    8.20
   4   0  -6  363.96   16.60
   4   0  -6  365.26   17.70
  -4   0   6  351.66   16.90
   2   0  -6 1241.98   35.30
   2   0  -6 1250.67   29.70
  -2   0   6 1239.28   32.20
   0   0  -6 1964.40   47.50
   0   0  -6 1892.11   35.90
   0   0   6 1925.61   37.40
   0   0   6 1923.01   41.20
   2   0   6 3372.06   56.89
   2   0   6 3326.37   57.39
  -2   0  -6 3348.17   66.89
   4   0   6  468.05   19.50
  -4   0  -6  463.45   23.00
   4   0   6  481.55   18.20
   6   0   6 4661.53   79.59
   6   0   6 4626.34   70.59
  -6   0  -6 4500.95   84.89
  -8   0  -6   51.29   11.00
   8   0   6   43.90    8.90
   8   0   6   43.00    6.80
  10   0   6   75.89   11.80
 -10   0  -6  106.89   15.20
 -12   0  -6    0.30    4.60
  12   0   6    5.90    4.90
 -14   0  -6 1602.94   53.19
  14   0   6 1507.85   47.30
  15  -1  -6  762.12   34.90
  15  -1  -6  741.23   29.70
  15   1  -6  779.92   30.70
  15   1  -6  729.73   33.70
  13  -1  -6  210.28   21.00
  13  -1  -6  204.28   14.80
 -13  -1   6  224.48   15.60
  13   1  -6  201.68   16.80
  13   1  -6  182.38   14.60
 -13   1   6  208.68   15.20
  11  -1  -6  140.69   14.30
 -11  -1   6  170.58   16.30
  11  -1  -6  174.48   18.40
  11   1  -6  171.08   17.70
  11   1  -6  161.98   16.00
 -11   1   6  138.29   14.00
   9  -1  -6   22.60    7.40
  -9  -1   6   35.80    7.50
   9  -1  -6   35.60    7.40
   9   1  -6   27.50    7.10
  -9   1   6   40.00    7.80
   9   1  -6   37.20    7.50
   7  -1  -6  740.23   25.40
   7  -1  -6  767.72   27.50
  -7  -1   6  753.42   26.00
   7   1  -6  759.22   26.20
   7   1  -6  730.33   25.70
  -7   1   6  754.32   25.70
   5  -1  -6  993.10   29.50
   5  -1  -6  946.31   29.30
  -5  -1   6 1021.50   30.20
  -5   1   6  979.60   28.60
   5   1  -6  974.30   30.00
   5   1  -6 1009.00   28.50
   3  -1  -6  937.41   27.20
   3  -1  -6  857.91   28.40
  -3  -1   6  921.71   27.80
  -3   1   6  894.71   27.00
   3   1  -6  922.21   24.70
   3   1  -6  919.41   29.30
  -1  -1   6  235.78   13.50
   1  -1  -6  245.08   13.00
   1  -1  -6  249.78   15.80
  -1  -1   6  249.88   12.00
  -1   1   6  255.87   13.90
   1   1  -6  242.78   15.50
   1   1  -6  245.28   11.40
  -1   1   6  271.97   11.70
  -1  -1  -6 1223.58   36.60
   1  -1   6 1253.17   32.30
   1  -1   6 1205.18   29.90
  -1  -1  -6 1247.78   28.50
   1   1   6 1170.28   30.30
   1   1   6 1232.58   29.20
  -1   1  -6 1185.48   36.30
  -3  -1  -6    7.70    3.20
   3  -1   6    7.40    3.60
  -3  -1  -6    7.40    5.00
   3  -1   6    5.40    3.50
   3   1   6    7.60    3.90
   3   1   6    3.30    3.00
  -3   1  -6    2.60    4.70
   5  -1   6  393.46   18.80
  -5  -1  -6  371.66   20.70
   5  -1   6  380.56   16.60
  -5   1  -6  351.76   20.80
   5   1   6  390.76   16.00
   5   1   6  377.16   17.90
   7  -1   6  233.58   15.30
  -7  -1  -6  244.58   17.80
   7  -1   6  260.17   13.60
   7   1   6  248.98   15.70
   7   1   6  271.37   13.20
  -7   1  -6  260.17   18.70
   9  -1   6  311.67   18.50
  -9  -1  -6  325.27   21.20
   9   1   6  336.47   19.30
  -9   1  -6  326.97   20.90
  -9   1  -6  283.27   14.60
 -11  -1  -6  887.81   36.70
  11  -1   6  844.62   32.00
  11   1   6  824.72   31.90
 -11   1  -6  791.12   34.50
 -13  -1  -6    1.50    5.20
  13  -1   6    5.80    6.10
  13   1   6    3.20    4.50
 -13   1  -6    1.90    5.40
  15  -1   6   15.20    7.30
 -15  -1  -6   16.60    8.50
  15   1   6   10.60    6.00
 -15   1  -6   21.50    9.10
  16  -2  -6    7.60    5.30
  14  -2  -6   53.29   12.30
  14  -2  -6   59.89   10.20
  14   2  -6   76.69   13.40
  14   2  -6   56.19   10.20
 -14   2   6   60.89   10.60
  12  -2  -6    4.50    5.80
  12  -2  -6    6.90    4.70
 -12  -2   6    0.50    4.00
  12   2  -6    3.20    4.80
  12   2  -6    9.70    5.20
 -12   2   6    1.30    4.10
 -10  -2   6   36.50    8.00
  10  -2  -6   34.10    8.60
  10  -2  -6   16.90    4.90
 -10   2   6   21.10    6.30
  10   2  -6   19.70    6.00
  10   2  -6   20.70    7.00
   8  -2  -6  175.58   12.50
   8  -2  -6  186.78   15.00
  -8  -2   6  197.18   13.90
   8   2  -6  194.88   13.80
   8   2  -6  225.18   14.60
  -8   2   6  212.38   13.90
   6  -2  -6  194.28   14.30
  -6  -2   6  238.68   14.60
   6  -2  -6  197.58   13.10
   6   2  -6  197.88   14.00
  -6   2   6  200.98   12.90
   6   2  -6  205.78   12.80
   4  -2  -6   87.29   10.90
  -4  -2   6   67.09    9.60
   4  -2  -6   69.19   10.10
  -4   2   6   88.79   10.40
   4   2  -6   65.79    9.90
   4   2  -6   72.39    8.40
   2  -2  -6    5.10    4.20
   2  -2  -6   12.30    4.80
  -2  -2   6   11.60    4.70
  -2  -2   6    4.30    2.80
   2   2  -6    8.60    4.40
   2   2  -6    8.10    3.20
  -2   2   6   15.10    4.40
   0  -2   6  249.28   12.90
   0  -2  -6  273.97   14.00
   0  -2   6  236.58   13.90
   0  -2  -6  250.37   16.10
   0   2   6  260.37   12.20
   0   2   6  238.58   13.10
   0   2  -6  247.88   16.30
  -2  -2  -6   57.49    7.90
   2  -2   6   52.29    7.70
  -2  -2  -6   47.30    9.20
   2  -2   6   44.00    7.30
   2   2   6   57.69    7.90
  -2   2  -6   50.89    9.80
   2   2   6   51.69    7.60
   4  -2   6    2.40    3.10
  -4  -2  -6    9.70    5.00
  -4  -2  -6    0.70    2.50
   4  -2   6    4.50    3.70
  -4   2  -6    0.60    4.80
   4   2   6    6.30    3.60
   4   2   6    3.60    3.40
  -6  -2  -6    4.80    4.80
   6  -2   6    5.00    3.40
   6  -2   6    3.10    3.70
   6   2   6   -2.70    3.10
   6   2   6    0.60    2.50
  -6   2  -6   -0.40    4.00
   8  -2   6   -2.20    2.80
  -8  -2  -6   -3.70    3.20
  -8   2  -6   -0.90    2.80
   8   2   6    1.00    3.50
  -8   2  -6    3.80    4.30
  10  -2   6   75.29   11.50
 -10  -2  -6   75.39   13.30
  10   2   6   75.69   11.90
 -10   2  -6   87.19   13.80
  12  -2   6   96.49   13.90
 -12  -2  -6  114.19   16.70
 -12   2  -6  102.09   15.30
  12   2   6  101.49   14.60
 -14  -2  -6   13.00    8.50
  14  -2   6   12.30    6.00
 -14   2  -6    6.80    6.20
  14   2   6   24.20    8.70
  15  -3  -6  737.83   35.90
  15  -3  -6  660.73   27.50
 -15   3   6  685.33   28.80
  15   3  -6  694.53   30.40
  15   3  -6  655.93   31.50
  13  -3  -6    0.90    6.00
  13  -3  -6    0.20    3.70
  13   3  -6    6.00    5.70
  13   3  -6   -2.90    3.80
 -13   3   6    2.40    4.00
 -11  -3   6  319.07   18.40
  11  -3  -6  290.97   16.50
  11  -3  -6  329.47   22.00
  11   3  -6  355.26   20.40
  11   3  -6  275.17   17.70
 -11   3   6  316.57   17.90
  -9  -3   6   21.00    6.10
   9  -3  -6   36.10    9.10
   9  -3  -6   20.00    6.00
  -9   3   6   11.60    4.40
   9   3  -6   16.40    5.90
   9   3  -6    5.50    4.30
   7  -3  -6  263.67   17.40
  -7  -3   6  298.77   16.80
   7  -3  -6  275.27   15.30
   7   3  -6  294.77   15.50
   7   3  -6  306.07   17.10
  -7   3   6  280.97   15.60
  -5  -3   6  823.32   27.90
   5  -3  -6  797.32   28.40
   5  -3  -6  820.12   26.50
   5   3  -6  792.82   27.60
  -5   3   6  751.72   24.90
   5   3  -6  845.22   24.40
  -3  -3   6 1324.67   35.10
   3  -3  -6 1341.77   36.30
   3  -3  -6 1327.97   35.80
  -3   3   6 1306.37   32.70
   3   3  -6 1261.07   27.90
   3   3  -6 1248.68   35.80
  -1  -3   6   50.19    7.00
   1  -3  -6   57.89    8.80
  -1  -3   6   50.59    8.20
   1  -3  -6   50.89    9.10
  -1   3   6   64.69    7.30
   1   3  -6   44.20    8.80
  -1   3   6   42.50    7.00
  -1  -3  -6 1273.67   32.70
  -1  -3  -6 1234.48   36.60
   1  -3   6 1262.77   32.90
   1  -3   6 1286.27   33.60
  -1   3  -6 1186.18   37.20
   1   3   6 1246.58   30.50
   1   3   6 1267.57   30.20
  -3  -3  -6  146.59   15.80
   3  -3   6  133.49   13.80
  -3  -3  -6  124.79   10.10
   3  -3   6  139.49   13.40
   3   3   6  152.78   11.20
  -3   3  -6  122.79   14.70
   3   3   6  143.79    9.90
   5  -3   6   22.30    5.90
  -5  -3  -6   26.20    7.60
   5  -3   6   20.30    5.90
  -5  -3  -6   19.90    5.30
   5   3   6   13.00    4.60
   5   3   6   15.50    4.30
  -5   3  -6   12.70    6.20
  -7  -3  -6  924.91   34.10
   7  -3   6  874.91   30.80
   7   3   6  937.81   31.30
  -7   3  -6  933.51   34.30
  -7   3  -6  902.81   27.90
   9  -3   6  606.94   26.40
  -9  -3  -6  613.64   28.80
  -9   3  -6  608.54   22.80
   9   3   6  648.24   27.10
  -9   3  -6  620.04   28.90
  11  -3   6  606.24   27.80
 -11  -3  -6  583.74   29.70
 -11   3  -6  693.33   32.10
  11   3   6  612.24   27.60
 -13  -3  -6  228.88   23.70
  13  -3   6  208.48   17.30
 -13   3  -6  210.68   21.90
  13   3   6  237.28   18.30
 -15  -3  -6   44.40   11.30
  15  -3   6   40.10   11.30
 -15   3  -6   62.49   14.10
  15   3   6   47.60   12.80
  14  -4  -6   37.40    8.60
  14  -4  -6   30.10   10.10
  14   4  -6   33.20    8.30
 -14   4   6   40.20    8.80
  14   4  -6   41.20   10.70
  12  -4  -6    2.10    3.80
  12  -4  -6    4.60    5.40
 -12  -4   6    3.70    4.60
  12   4  -6   10.10    5.60
  12   4  -6    2.30    3.60
 -12   4   6    3.50    4.40
  10  -4  -6 1442.66   45.60
 -10  -4   6 1470.95   40.30
  10  -4  -6 1380.56   36.70
 -10   4   6 1404.56   38.90
  10   4  -6 1415.26   40.20
  10   4  -6 1460.45   41.10
  -8  -4   6   20.20    6.20
   8  -4  -6   38.90    9.50
   8  -4  -6   22.20    5.80
   8   4  -6   22.60    6.20
  -8   4   6   11.10    4.70
   8   4  -6   22.30    6.30
  -6  -4   6  154.08   15.30
   6  -4  -6   63.29   10.80
   6  -4  -6   49.99    8.30
  -6   4   6   58.89    8.50
   6   4  -6   56.89    9.20
   6   4  -6   50.99    7.70
  -4  -4   6  213.98   14.10
   4  -4  -6  221.88   14.20
   4  -4  -6  182.78   14.40
   4   4  -6  200.88   12.50
  -4   4   6  208.18   12.70
   4   4  -6  212.58   14.60
   2  -4  -6  444.46   21.00
  -2  -4   6  463.25   20.60
   2  -4  -6  466.55   21.10
  -2  -4   6  461.35   16.50
  -2   4   6  429.06   17.80
   2   4  -6  477.85   22.10
   0  -4  -6 1396.26   36.90
   0  -4   6 1444.36   34.10
   0  -4  -6 1409.56   38.50
   0  -4   6 1272.27   35.20
   0   4   6 1413.96   33.10
   0   4   6 1424.66   31.10
   0   4  -6 1448.26   41.00
  -2  -4  -6 1910.51   42.60
  -2  -4  -6 1926.71   46.60
   2  -4   6 1925.81   43.40
   2  -4   6 1836.12   42.80
  -2   4  -6 1842.22   48.80
   2   4   6 1850.41   38.30
   2   4   6 1934.21   40.10
  -4  -4  -6  296.17   15.80
   4  -4   6  314.57   17.40
  -4  -4  -6  245.98   16.90
   4   4   6  288.17   15.60
  -4   4  -6  270.37   18.50
   4   4   6  293.77   13.60
  -6  -4  -6 2203.58   46.30
   6  -4   6 2221.08   51.49
  -6  -4  -6 2163.88   53.29
   6   4   6 2172.68   49.50
  -6   4  -6 2116.49   46.70
   6   4   6 2164.58   40.50
  -6   4  -6 2169.58   53.69
  -8  -4  -6   38.70    9.20
   8  -4   6   62.39   10.70
  -8   4  -6   23.40    6.10
   8   4   6   49.20    9.20
  -8   4  -6   44.20   10.80
  10  -4   6    7.60    5.30
 -10  -4  -6    0.10    4.30
 -10   4  -6   10.00    5.90
 -10   4  -6    2.80    3.50
  10   4   6   -1.50    4.20
  12  -4   6   26.30    7.70
 -12  -4  -6   15.50    7.60
  12   4   6   20.40    7.20
 -12   4  -6   12.10    7.20
  14  -4   6 1039.60   39.00
 -14  -4  -6  969.40   40.20
  14   4   6 1000.10   38.20
 -14   4  -6 1017.10   41.30
  15   5  -6  390.66   29.00
 -15   5   6  407.86   22.80
  13  -5  -6  427.36   27.40
 -13   5   6  455.45   23.10
  13   5  -6  429.26   22.90
  13   5  -6  406.96   23.90
  11  -5  -6    3.40    5.50
 -11  -5   6   -5.20    3.70
  11  -5  -6    3.40    5.20
  11   5  -6    4.00    5.00
  11   5  -6   -1.80    3.90
 -11   5   6    3.10    4.40
   9  -5  -6   14.50    7.10
  -9  -5   6    8.10    5.20
   9  -5  -6   17.60    5.50
   9   5  -6   13.90    5.90
   9   5  -6   17.40    5.80
  -9   5   6   16.90    5.80
   7  -5  -6  134.09   11.10
   7  -5  -6  140.69   16.90
  -7  -5   6  151.48   15.10
   7   5  -6  160.28   13.20
   7   5  -6  147.19   11.40
  -7   5   6  137.19   13.10
   5  -5  -6  963.70   34.50
  -5  -5   6  979.50   31.30
   5  -5  -6  984.30   29.50
   5   5  -6  933.51   31.30
  -5   5   6  942.81   28.60
  -3  -5   6   86.29   10.50
  -3  -5   6  110.39   13.00
   3  -5  -6  101.99   12.00
   3  -5  -6  112.69   14.20
   3   5  -6   86.59   11.20
  -3   5   6   86.99   10.00
  -1  -5   6  497.45   19.00
  -1  -5   6  491.05   21.10
   1  -5  -6  535.75   23.80
   1  -5  -6  506.75   22.20
   1   5  -6  486.45   23.00
  -1   5   6  496.05   18.80
  -1  -5  -6  318.37   17.60
   1  -5   6  318.27   16.60
   1  -5   6  309.97   16.90
  -1  -5  -6  333.27   18.50
  -1   5  -6  328.67   19.70
   1   5   6  349.96   15.30
   1   5   6  327.37   14.80
  -3  -5  -6   46.90    8.90
  -3  -5  -6   35.80    8.20
   3  -5   6   45.60    8.30
   3   5   6   25.60    5.50
   3   5   6   22.80    5.60
  -3   5  -6   39.80    9.00
  -3   5  -6   32.90    7.20
  -5  -5  -6 1220.58   34.70
  -5  -5  -6 1118.49   36.30
   5  -5   6 1189.58   36.90
  -5   5  -6 1152.08   33.60
  -5   5  -6 1195.08   38.90
   5   5   6 1231.08   34.10
   5   5   6 1136.19   28.00
  -7  -5  -6    5.60    5.00
  -7  -5  -6    1.40    3.90
   7  -5   6   10.80    5.70
   7   5   6    0.70    3.50
  -7   5  -6    3.70    3.60
  -7   5  -6   -2.00    3.70
   9  -5   6   67.39   11.20
  -9  -5  -6   95.09   13.60
  -9   5  -6   90.09   11.60
  -9   5  -6   88.99   14.00
   9   5   6   76.69   12.30
 -11  -5  -6  322.47   21.70
  11  -5   6  309.67   21.00
  11   5   6  291.97   20.00
 -11   5  -6  344.67   22.50
 -11   5  -6  323.87   18.20
 -13  -5  -6    7.10    6.10
  13  -5   6   15.40    7.20
  13   5   6   17.50    7.10
 -13   5  -6   19.50    8.20
 -14   6   6  344.27   21.10
  14   6  -6  393.76   24.50
  12  -6  -6    0.10    6.00
 -12   6   6   -0.10    3.90
  12   6  -6    1.30    5.10
  12   6  -6   -5.30    3.90
  10  -6  -6   51.89   12.30
 -10  -6   6   51.99    9.50
 -10   6   6   63.69   10.30
  10   6  -6   64.19   10.70
  10   6  -6   52.79    9.70
  -8  -6   6  620.84   25.20
   8  -6  -6  616.04   30.10
  -8   6   6  590.14   23.60
   8   6  -6  593.94   25.30
   8   6  -6  584.04   23.40
  -6  -6   6  689.33   26.20
   6  -6  -6  717.63   31.50
   6   6  -6  727.93   27.90
  -6   6   6  714.03   25.20
  -4  -6   6  155.08   15.20
   4  -6  -6  115.19   15.00
   4  -6  -6  129.89   13.30
   4   6  -6  154.08   15.90
  -4   6   6  127.69   12.20
  -2  -6   6    0.50    3.80
   2  -6  -6   12.00    5.60
  -2  -6   6    0.90    3.00
   2  -6  -6    3.00    4.40
  -2   6   6    5.10    3.40
   2   6  -6   -0.20    3.90
   0  -6   6  902.81   28.20
   0  -6  -6  889.31   29.50
   0  -6  -6  922.41   32.40
   0   6   6  891.31   26.10
   0   6  -6  893.31   32.60
   0   6   6  897.31   24.80
  -2  -6  -6  153.18   16.40
  -2  -6  -6  141.29   14.70
   2  -6   6  150.58   14.90
  -2   6  -6  133.69   15.70
   2   6   6  146.59   10.30
  -2   6  -6  137.69   13.70
   2   6   6  139.39   10.50
   4  -6   6   41.00    8.50
  -4  -6  -6   40.00    8.70
  -4  -6  -6   37.10    8.70
  -4   6  -6   40.40    9.10
  -4   6  -6   30.70    6.90
   4   6   6   43.30    7.90
   4   6   6   26.00    5.30
  -6  -6  -6   65.89   11.10
  -6  -6  -6   54.29   10.40
   6  -6   6   56.19   10.00
  -6   6  -6   53.99   10.90
   6   6   6   58.39    9.60
  -6   6  -6   73.09   10.90
  -8  -6  -6   -1.80    3.60
  -8  -6  -6    2.20    4.00
   8  -6   6    0.00    4.50
  -8   6  -6    7.10    4.50
  -8   6  -6    2.00    4.30
   8   6   6   -0.20    3.50
 -10  -6  -6  255.17   18.80
  10  -6   6  289.77   20.80
 -10   6  -6  243.28   18.60
 -10   6  -6  265.37   17.10
  10   6   6  289.67   19.20
  12  -6   6  327.47   22.30
 -12  -6  -6  332.97   22.90
 -12   6  -6  370.76   23.90
  12   6   6  353.36   22.60
 -14  -6  -6   28.90   10.00
 -14   6  -6   23.60    9.00
  13   7  -6   74.59   12.40
 -13   7   6   82.29   12.40
  13   7  -6   78.19   13.20
  11  -7  -6   97.69   17.20
  11   7  -6  110.19   14.50
  11   7  -6  102.19   13.90
 -11   7   6  112.09   14.00
   9  -7  -6    4.80    5.80
  -9  -7   6    1.80    4.70
   9   7  -6   10.90    5.60
  -9   7   6    9.10    4.60
  -7  -7   6   95.39   12.50
   7  -7  -6  103.49   15.90
   7   7  -6   94.59   12.60
  -7   7   6   86.49   11.00
   5  -7  -6  456.15   25.60
  -5  -7   6  490.45   22.90
   5   7  -6  473.25   22.50
  -5   7   6  491.25   20.90
  -3  -7   6  467.75   18.40
   3  -7  -6  444.76   24.50
   3   7  -6  468.65   22.40
  -3   7   6  461.15   19.40
   1  -7  -6  541.65   26.20
  -1  -7   6  557.64   21.90
   1   7  -6  495.55   23.80
  -1   7   6  550.34   20.50
   1   7  -6  532.85   23.10
   1  -7   6  216.98   14.60
  -1  -7  -6  151.68   16.50
   1   7   6  205.28   12.40
   1   7   6  188.18   11.80
  -1   7  -6  203.18   14.50
  -1   7  -6  191.68   15.10
  -3  -7  -6   89.89   12.90
   3  -7   6   80.79   11.80
   3   7   6   79.09   10.20
  -3   7  -6   74.59   10.90
  -3   7  -6   98.89   14.00
   3   7   6   79.19    8.90
  -5  -7  -6  153.48   15.50
  -5  -7  -6  161.28   17.20
   5  -7   6  167.88   17.20
  -5   7  -6  142.99   14.40
  -5   7  -6  159.08   17.00
   5   7   6  148.89   12.40
  -7  -7  -6  948.11   32.50
  -7  -7  -6  888.31   32.60
   7  -7   6  917.61   34.40
  -7   7  -6  878.51   33.90
  -7   7  -6  934.91   31.90
   7   7   6  877.91   30.90
  -9  -7  -6  415.26   22.50
  -9  -7  -6  364.26   21.30
   9  -7   6  353.06   22.10
  -9   7  -6  401.66   23.00
   9   7   6  394.86   21.90
  -9   7  -6  389.56   20.90
 -11  -7  -6   33.30    9.10
  11  -7   6   44.10   10.30
 -11   7  -6   48.40   10.10
 -11   7  -6   38.60   10.20
  11   7   6   21.70    7.30
 -13  -7  -6  461.85   26.30
 -13   7  -6  421.66   25.80
  12   8  -6  294.07   20.00
  12   8  -6  268.67   27.80
 -12   8   6  371.16   39.50
  10  -8  -6 1146.39   45.80
 -10   8   6 1116.79   36.70
  10   8  -6 1140.69   38.40
   8  -8  -6   31.50    9.80
   8   8  -6   35.40    8.00
   8   8  -6   33.30    8.40
  -8   8   6   28.20    7.70
   6  -8  -6  114.79   17.00
  -6   8   6  112.09   12.90
   6   8  -6   93.79   12.10
   6   8  -6  107.39   14.10
   4  -8  -6   43.40   10.30
  -4   8   6   78.89   10.80
   4   8  -6   86.69   12.30
   4   8  -6   80.69   11.50
  -2  -8   6    2.50    3.70
   2  -8  -6    3.80    5.20
  -2   8   6    2.70    3.60
   2   8  -6    9.50    5.10
   2   8  -6    9.40    5.10
   0  -8   6  467.55   21.60
   0  -8  -6  449.26   24.30
   0   8   6  468.65   19.00
   0   8  -6  464.35   22.40
   0   8   6  452.55   18.60
   0   8  -6  462.15   23.60
  -2  -8  -6  411.56   23.30
   2  -8   6  476.55   22.80
   2   8   6  370.56   16.50
   2   8   6  394.96   18.30
  -2   8  -6  380.86   21.80
  -2   8  -6  417.36   21.20
  -4  -8  -6   51.19   10.80
   4  -8   6   34.60    8.70
  -4   8  -6   42.80    9.70
   4   8   6   40.50    8.00
  -4   8  -6   48.80    9.50
   6  -8   6  159.28   17.40
  -6  -8  -6  123.49   15.80
  -6   8  -6  128.09   15.80
   6   8   6  138.49   14.50
  -6   8  -6  140.79   15.70
   8  -8   6   51.89   11.20
  -8  -8  -6   41.60    9.40
  -8   8  -6   26.00    8.60
  -8   8  -6   28.20    7.70
   8   8   6   29.20    7.50
  10  -8   6   89.89   14.70
 -10  -8  -6   83.89   13.50
 -10   8  -6   88.49   13.10
 -10   8  -6  108.19   15.30
  10   8   6   95.99   14.70
 -12   8  -6  188.58   31.10
 -12   8  -6  183.38   18.50
  11   9  -6   21.00    7.20
   9  -9  -6   27.10   10.00
   9   9  -6   11.80    6.10
  -9   9   6   12.00    5.90
   7  -9  -6   15.50    7.60
   7   9  -6   25.20    7.40
   7   9  -6   25.50    7.90
  -7   9   6   28.10    7.70
   5  -9  -6  641.44   32.60
   5   9  -6  683.33   27.60
   5   9  -6  694.93   28.20
  -5   9   6  716.43   26.70
  -3  -9   6    3.40    3.50
   3  -9  -6    7.40    6.20
  -3   9   6    1.60    3.70
   3   9  -6    0.50    4.50
   3   9  -6    7.50    5.00
  -1  -9   6   79.69   11.80
   1  -9  -6   85.59   14.30
  -1   9   6   63.59    8.90
   1   9  -6   67.69   10.90
   1   9  -6   68.59   11.70
  -1  -9  -6   79.99   14.00
   1  -9   6   74.49   12.00
   1   9   6   78.79    9.70
  -1   9  -6   82.29   12.10
  -1   9  -6   72.59   11.90
   1   9   6   80.69   10.30
   3  -9   6   11.00    5.60
  -3  -9  -6    6.50    5.40
  -3   9  -6    4.90    5.00
  -3   9  -6    7.70    5.60
   3   9   6    4.20    4.30
  -5  -9  -6  541.35   28.20
   5  -9   6  568.54   27.50
  -5   9  -6  581.94   26.30
   5   9   6  524.35   23.20
  -5   9  -6  517.55   25.10
   7  -9   6   16.10    6.80
  -7  -9  -6   32.90    9.60
  -7   9  -6   17.70    7.20
   7   9   6   37.70    8.90
  -9  -9  -6  113.69   16.40
   9  -9   6   98.29   15.40
  -9   9  -6   86.79   13.00
   9   9   6   89.19   13.10
 -11  -9  -6   56.49   12.30
 -11   9  -6   42.40   10.00
  10  10  -6    7.60    6.10
   8 -10  -6  179.78   22.90
   8  10  -6  161.38   19.90
  -8  10   6  161.08   16.60
   8  10  -6  159.88   17.90
   6 -10  -6  298.17   24.10
  -6  10   6  322.97   18.80
   6  10  -6  257.57   18.00
   6  10  -6  309.57   18.80
   4 -10  -6    8.10    6.50
   4  10  -6   10.50    5.20
  -4  10   6    0.00    3.40
   4  10  -6    8.30    5.20
  -2 -10   6   29.20    7.20
   2 -10  -6   20.40    8.00
   2  10  -6   27.80    8.30
   2  10  -6   23.90    7.30
  -2  10   6   18.60    6.10
   0 -10   6  323.67   19.40
   0 -10  -6  357.76   24.50
   0  10   6  332.87   17.00
   0  10  -6  354.06   20.60
  -2 -10  -6   27.00    8.90
   2 -10   6   39.00    9.50
  -2  10  -6   38.70    9.10
   2  10   6   40.40    8.80
   2  10   6   47.90    8.80
  -4 -10  -6   65.69   12.90
   4 -10   6   71.39   12.30
  -4  10  -6   75.99   12.20
   4  10   6   71.89   11.00
  -6 -10  -6  135.69   18.30
   6 -10   6  118.19   16.00
   6  10   6  114.79   13.70
  -6  10  -6  126.49   15.20
   8 -10   6   13.80    7.00
  -8 -10  -6   10.10    7.00
  -8  10  -6   10.40    5.70
   8  10   6    0.60    4.90
 -10 -10  -6  105.69   16.10
   7  11  -6  464.85   23.30
   5 -11  -6  198.08   23.70
  -5  11   6  190.38   17.50
   5  11  -6  190.38   18.10
   3 -11  -6   99.89   16.50
  -3  11   6  100.69   12.20
   3  11  -6  118.09   14.80
   1 -11  -6  557.74   31.80
  -1 -11   6  498.45   24.50
   1  11  -6  501.25   25.00
  -1  11   6  529.35   22.40
   1 -11   6    4.50    5.40
  -1 -11  -6    3.00    5.90
   1  11   6    6.00    4.20
  -1  11  -6    4.20    5.20
  -3 -11  -6   -2.30    5.50
   3 -11   6    2.80    5.00
  -3  11  -6    6.50    5.20
   3  11   6    3.10    4.70
   5 -11   6   85.29   13.90
  -5 -11  -6   59.29   13.30
  -5  11  -6   90.79   14.40
   5  11   6   72.59   11.80
  -7 -11  -6  490.05   29.10
   7  11   6  463.35   24.20
   6  12  -6  224.48   16.90
   4  12  -6   37.90    9.70
  -4  12   6   28.00    7.40
   2 -12  -6   74.09   16.00
  -2  12   6   92.69   12.30
   2  12  -6   62.29   11.10
   0 -12   6   53.49   10.70
   0 -12  -6   56.49   13.20
   0  12  -6   37.30    9.80
   0  12   6   50.99    8.90
  -2 -12  -6  239.28   25.40
   2 -12   6  245.68   19.10
   2  12   6  247.28   16.80
  -2  12  -6  249.88   25.10
   4 -12   6    0.70    6.10
   4  12   6    4.90    4.90
 -14   0   7    3.80    5.20
  14   0  -7    2.00    4.50
  14   0  -7   -5.90    5.00
  12   0  -7    2.70    3.80
 -12   0   7    1.50    4.50
  12   0  -7    1.80    5.60
 -10   0   7   -1.80    4.10
  10   0  -7    2.60    3.60
  10   0  -7    2.50    5.00
   8   0  -7    0.00    4.20
   8   0  -7    1.70    3.80
  -8   0   7    0.50    3.40
   6   0  -7   -0.70    3.50
  -6   0   7   -2.20    3.20
   6   0  -7    5.40    4.00
   4   0  -7   -1.50    2.80
   4   0  -7    5.30    3.90
  -4   0   7    0.80    3.40
  -2   0   7   -1.20    2.60
   2   0  -7    0.80    3.40
   0   0   7   -0.10    3.30
   0   0  -7    0.20    4.20
  -2   0  -7    3.60    4.70
   2   0   7   -1.30    2.70
   2   0   7    0.40    2.70
   4   0   7   -1.60    2.90
  -4   0  -7   -1.00    4.20
   4   0   7    4.00    3.70
  -6   0  -7    4.50    4.90
   6   0   7    0.60    3.40
   6   0   7    1.10    3.10
   8   0   7   -2.60    3.40
   8   0   7    5.10    3.70
  -8   0  -7    0.90    5.20
 -10   0  -7   -2.20    3.90
  10   0   7   -2.80    3.90
 -12   0  -7   -4.80    4.00
  12   0   7   -1.10    4.50
 -15   1   7  107.49   16.00
  13  -1  -7    6.10    4.80
 -13  -1   7    6.70    5.50
  13  -1  -7    1.40    5.40
  13   1  -7   -1.00    4.00
  13   1  -7    5.30    6.20
 -13   1   7   12.00    6.50
 -11  -1   7   73.49   11.70
  11  -1  -7   76.19   13.10
  11  -1  -7   68.39   11.10
 -11   1   7   80.29   12.20
  11   1  -7   87.99   13.40
  11   1  -7   96.19   13.60
   9  -1  -7  152.18   16.60
  -9  -1   7  168.98   16.60
   9  -1  -7  176.98   14.10
  -9   1   7  176.98   16.70
   9   1  -7  180.88   17.80
   9   1  -7  174.28   14.10
  -7  -1   7  631.24   25.90
   7  -1  -7  683.63   27.10
   7  -1  -7  647.14   26.10
   7   1  -7  661.03   25.00
  -7   1   7  674.33   26.20
   7   1  -7  626.44   26.10
   5  -1  -7  150.78   12.70
  -5  -1   7  175.08   16.40
   5  -1  -7  138.29   14.50
   5   1  -7  128.49   14.30
  -5   1   7  177.38   16.20
   5   1  -7  133.39   11.10
   3  -1  -7   58.89    9.00
  -3  -1   7   64.59    9.80
   3  -1  -7   66.59   11.00
   3   1  -7   80.39   12.10
  -3   1   7   66.99    9.90
   1  -1  -7   84.49    9.90
   1  -1  -7   80.59   12.10
  -1  -1   7   77.79   10.10
   1   1  -7  114.29   14.60
  -1   1   7   81.29   10.30
   1  -1   7   63.29    9.10
  -1  -1  -7   79.49   12.30
   1  -1   7   57.79    8.30
   1   1   7   48.90    8.00
   1   1   7   57.59    8.00
  -1   1  -7   69.19   11.70
   3  -1   7  474.65   20.30
  -3  -1  -7  510.15   24.80
   3  -1   7  478.85   20.30
   3   1   7  482.95   19.60
   3   1   7  488.25   20.10
  -3   1  -7  478.95   24.80
  -5  -1  -7  159.78   17.50
   5  -1   7  150.88   11.50
   5  -1   7  150.88   12.20
   5   1   7  161.08   11.30
   5   1   7  160.88   13.10
  -5   1  -7  129.79   16.30
   7  -1   7  149.88   15.80
   7  -1   7  146.09   13.40
  -7  -1  -7  149.09   17.70
   7   1   7  125.09   14.30
  -7   1  -7  135.99   17.00
   7   1   7  162.18   11.30
  -9  -1  -7  301.77   21.30
   9  -1   7  312.37   19.60
   9   1   7  254.47   18.00
  -9   1  -7  300.07   21.60
 -11  -1  -7  150.78   19.80
  11  -1   7  106.79   14.50
  11   1   7  119.29   15.60
 -11   1  -7   97.59   16.20
 -13  -1  -7  203.88   22.50
  13  -1   7  229.58   18.50
  13   1   7  194.78   20.40
 -13   1  -7  222.08   23.60
  14  -2  -7  398.66   29.70
  14  -2  -7  408.66   22.50
 -14   2   7  432.66   23.30
  14   2  -7  413.56   25.30
 -12  -2   7 1489.45   43.00
  12  -2  -7 1430.66   41.90
  12  -2  -7 1474.15   47.80
 -12   2   7 1438.56   42.20
  12   2  -7 1492.15   45.10
  12   2  -7 1532.75   44.70
  10  -2  -7  308.67   20.20
 -10  -2   7  313.77   19.00
  10  -2  -7  282.67   17.80
 -10   2   7  265.47   17.10
  10   2  -7  296.57   19.00
  10   2  -7  300.47   18.70
   8  -2  -7  313.77   17.90
   8  -2  -7  291.67   19.00
  -8  -2   7  270.07   17.30
  -8   2   7  343.27   18.90
   8   2  -7  303.77   17.40
   8   2  -7  300.17   18.30
   6  -2  -7  480.15   23.10
  -6  -2   7  456.25   21.60
   6  -2  -7  414.86   20.50
  -6   2   7  460.65   21.00
   6   2  -7  436.96   22.00
   6   2  -7  441.46   19.70
  -4  -2   7  118.29   13.60
   4  -2  -7   91.49   12.30
   4  -2  -7  106.99   13.50
  -4   2   7   87.79   11.20
   4   2  -7   84.59   11.90
  -2  -2   7  728.43   26.60
   2  -2  -7  701.33   28.50
   2  -2  -7  764.62   25.90
   2   2  -7  717.83   29.40
  -2   2   7  687.03   25.10
   0  -2   7   36.30    7.70
   0  -2  -7   18.50    6.70
   0  -2  -7   35.60    6.90
   0  -2   7   38.50    8.40
   0   2   7   28.20    6.40
   0   2  -7   24.90    7.40
   2  -2   7  148.79   14.50
   2  -2   7  133.09   13.20
  -2  -2  -7  119.09   14.70
   2   2   7  155.68   11.50
  -2   2  -7  129.89   16.20
   2   2   7  161.28   11.30
   4  -2   7  492.55   21.60
   4  -2   7  496.15   20.40
  -4  -2  -7  475.75   24.40
   4   2   7  455.65   18.80
  -4   2  -7  507.55   26.00
   4   2   7  471.75   20.30
   6  -2   7   13.10    5.60
  -6  -2  -7   25.70    7.90
   6  -2   7    8.10    4.20
   6   2   7    4.60    3.30
  -6   2  -7   15.10    6.90
   6   2   7   17.40    6.10
  -8  -2  -7  745.93   32.60
   8  -2   7  751.42   29.50
  -8   2  -7  869.51   35.20
   8   2   7  830.62   30.60
  -8   2  -7  801.02   26.60
  10  -2   7  102.69   14.30
 -10  -2  -7   92.69   14.60
 -10   2  -7  104.59   15.60
  10   2   7  142.09   16.90
 -12  -2  -7  227.18   24.30
  12  -2   7  224.98   18.20
 -12   2  -7  254.17   21.00
  12   2   7  215.08   17.90
  13  -3  -7    2.50    6.20
  13  -3  -7    9.50    5.40
 -13   3   7   16.00    6.70
  13   3  -7   23.10    8.70
  13   3  -7    7.00    5.50
 -11  -3   7  455.85   23.60
  11  -3  -7  431.36   21.60
  11  -3  -7  469.05   26.80
  11   3  -7  434.56   23.70
 -11   3   7  443.66   22.70
  11   3  -7  421.76   23.00
   9  -3  -7    7.30    5.80
   9  -3  -7    3.20    4.00
  -9  -3   7    4.80    4.90
  -9   3   7    5.70    4.20
   9   3  -7    4.80    4.10
   9   3  -7    5.90    5.40
   7  -3  -7  708.23   26.90
   7  -3  -7  711.03   29.40
  -7  -3   7  724.93   28.40
   7   3  -7  688.53   28.40
  -7   3   7  657.43   26.00
   7   3  -7  723.73   28.80
   5  -3  -7  126.29   14.00
   5  -3  -7  127.29   14.70
  -5  -3   7  118.59   13.50
  -5   3   7  125.59   13.60
   5   3  -7   89.59   12.10
   3  -3  -7   96.29   12.40
  -3  -3   7   66.89   10.10
   3  -3  -7   59.99   10.70
  -3   3   7   62.49    9.20
   3   3  -7   80.69   12.10
   1  -3  -7  369.86   18.80
  -1  -3   7  431.26   20.60
   1  -3  -7  385.26   21.00
  -1   3   7  397.36   18.50
   1   3  -7  433.36   23.40
  -1  -3  -7  555.64   21.70
  -1  -3  -7  523.95   25.00
   1  -3   7  506.75   22.00
   1  -3   7  540.85   21.80
   1   3   7  549.25   21.40
   1   3   7  581.24   30.30
  -1   3  -7  506.35   25.70
   3  -3   7  295.97   16.90
  -3  -3  -7  282.67   19.00
   3  -3   7  278.77   16.00
   3   3   7  264.57   14.60
   3   3   7  319.37   16.30
  -3   3  -7  276.17   19.40
   5  -3   7  469.45   22.20
  -5  -3  -7  447.26   23.60
   5  -3   7  446.96   20.40
   5   3   7  457.15   20.90
   5   3   7  483.85   18.90
  -5   3  -7  454.25   25.10
  -7  -3  -7  665.63   30.20
   7  -3   7  615.24   26.40
  -7   3  -7  666.53   24.70
  -7   3  -7  620.34   29.40
   7   3   7  693.93   27.30
   9  -3   7 1020.50   35.70
  -9  -3  -7  912.51   37.20
   9   3   7 1014.40   35.20
  -9   3  -7  966.40   30.30
  -9   3  -7 1002.90   38.40
  11  -3   7  231.28   18.10
 -11  -3  -7  272.37   21.20
 -11   3  -7  260.57   20.80
  11   3   7  214.58   17.50
  13  -3   7  127.79   16.60
 -13  -3  -7  143.99   19.80
  13   3   7  116.19   16.00
 -13   3  -7  138.29   19.10
  14   4  -7   31.50   10.30
  12  -4  -7  194.48   21.80
  12  -4  -7  188.48   15.00
 -12  -4   7  237.48   17.60
  12   4  -7  241.58   18.40
  12   4  -7  224.48   17.50
 -12   4   7  190.88   18.10
  10  -4  -7   -0.10    5.40
 -10  -4   7    3.30    4.40
  10  -4  -7    3.90    4.20
  10   4  -7   -2.70    3.70
  10   4  -7    4.90    4.80
 -10   4   7   -1.90    3.40
   8  -4  -7   96.39   12.10
  -8  -4   7   85.89   12.20
   8  -4  -7   84.19   13.50
  -8   4   7   68.89   11.20
   8   4  -7   72.99   11.80
  -6  -4   7  411.56   21.50
   6  -4  -7  459.75   21.70
   6  -4  -7  446.16   23.80
   6   4  -7  415.66   22.00
  -6   4   7  423.46   20.30
  -4  -4   7  395.96   20.60
   4  -4  -7  428.06   21.20
   4  -4  -7  438.06   22.50
  -4   4   7  376.16   18.60
   4   4  -7  396.76   21.80
   2  -4  -7   90.19   12.80
  -2  -4   7   70.09   10.60
   2  -4  -7   69.89   11.00
   2   4  -7   56.89   10.70
  -2   4   7   54.19    8.40
   0  -4  -7    0.90    3.40
   0  -4  -7    0.70    4.30
   0  -4   7    1.20    3.50
   0  -4   7    0.80    3.30
   0   4   7   -0.40    2.40
   0   4  -7    1.10    4.70
  -2  -4  -7  353.06   18.20
   2  -4   7  353.76   18.20
   2  -4   7  358.86   18.70
  -2  -4  -7  334.07   19.90
  -2   4  -7  322.07   20.80
   2   4   7  313.37   16.10
   2   4   7  328.07   16.30
  -4  -4  -7   94.39   13.80
   4  -4   7   84.59   11.90
   4   4   7   76.39    9.70
   4   4   7   97.79   11.90
  -4   4  -7   68.79   12.20
  -6  -4  -7   18.70    7.40
   6  -4   7   15.70    6.40
  -6   4  -7   24.10    8.20
  -6   4  -7   55.59    9.30
   6   4   7   25.60    7.40
  -8  -4  -7   68.09   12.30
   8  -4   7   45.00    9.70
   8   4   7   45.40    9.30
  -8   4  -7   48.80   10.70
  -8   4  -7   55.89    9.20
 -10  -4  -7    5.80    6.10
  10  -4   7   -2.20    4.50
 -10   4  -7    6.80    4.80
 -10   4  -7   21.40    7.80
  10   4   7    7.00    5.40
  12  -4   7   82.89   13.80
 -12  -4  -7   74.09   14.10
 -12   4  -7   60.39   13.20
  12   4   7   56.49   11.40
  13   5  -7   28.30    8.70
 -11  -5   7   48.10   10.00
  11  -5  -7   46.90   11.70
  11   5  -7   54.09   10.70
 -11   5   7   51.49    9.90
  -9  -5   7   70.99   11.90
   9  -5  -7   65.99   13.20
  -9   5   7   72.19   11.30
   9   5  -7   74.99   12.50
   7  -5  -7  478.85   26.30
   7  -5  -7  449.66   21.60
  -7  -5   7  467.55   23.40
   7   5  -7  475.05   24.20
  -7   5   7  477.65   22.00
  -5  -5   7   80.79   11.70
   5  -5  -7  102.69   13.10
   5  -5  -7   75.89   12.30
  -5   5   7   77.39   10.10
   5   5  -7   60.89   11.10
   3  -5  -7  133.59   15.50
   3  -5  -7  140.19   15.30
  -3  -5   7  133.89   14.50
  -3   5   7  142.29   14.00
   3   5  -7  163.98   17.90
  -1  -5   7  122.99   14.00
   1  -5  -7  117.89   14.20
   1  -5  -7  135.39   15.70
   1   5  -7  130.49   15.90
  -1   5   7  148.29   13.90
  -1  -5  -7   81.09   11.40
  -1  -5  -7   67.99   11.10
   1  -5   7   74.49   10.60
   1  -5   7   90.59   12.10
   1   5   7   87.19   10.50
  -1   5  -7   95.59   14.60
  -3  -5  -7  124.29   15.10
  -3  -5  -7   97.29   12.20
   3  -5   7  110.99   13.60
   3   5   7  122.19   12.90
  -3   5  -7  133.99   16.60
   3   5   7   82.39   10.00
  -3   5  -7   94.29   11.70
  -5  -5  -7  106.29   14.00
   5  -5   7   85.59   12.10
  -5   5  -7   83.89   11.20
  -5   5  -7  122.89   16.10
   5   5   7  115.19   13.50
   7  -5   7    3.00    4.90
  -7  -5  -7    5.50    5.80
   7   5   7    2.60    4.40
  -7   5  -7    1.70    3.80
  -7   5  -7    2.80    5.10
  -9  -5  -7   65.99   12.60
   9  -5   7   78.89   12.60
  -9   5  -7   80.29   11.40
  -9   5  -7   82.29   14.00
   9   5   7   83.09   13.10
 -11  -5  -7   57.79   12.80
  11  -5   7   52.09   11.20
  11   5   7   82.09   13.70
 -11   5  -7   96.19   16.10
 -13  -5  -7    2.30    6.30
  10  -6  -7    1.90    5.60
 -10  -6   7    4.40    4.70
  10   6  -7    2.90    5.00
 -10   6   7    4.50    5.10
   8  -6  -7  344.27   23.60
  -8  -6   7  343.27   20.20
  -8   6   7  327.47   19.20
   8   6  -7  356.66   21.40
  -6  -6   7  344.27   19.60
   6  -6  -7  286.17   20.80
   6   6  -7  344.87   20.60
  -6   6   7  327.77   18.30
  -4  -6   7   75.69   11.30
   4  -6  -7   79.39   13.30
   4   6  -7   78.29   12.50
  -4   6   7   75.19   10.00
   2  -6  -7  540.55   26.20
  -2  -6   7  531.75   24.40
  -2   6   7  536.15   21.90
   2   6  -7  514.25   25.70
   0  -6  -7  553.14   24.80
   0  -6  -7  534.85   25.20
   0  -6   7  535.45   22.90
   0   6  -7  565.04   27.40
   0   6   7  559.74   21.80
  -2  -6  -7   -1.80    4.10
  -2  -6  -7    6.80    5.10
   2  -6   7   -1.30    3.80
  -2   6  -7    1.30    5.10
   2   6   7   -2.20    3.10
  -2   6  -7    2.40    3.70
   2   6   7    2.90    3.50
  -4  -6  -7 1193.38   38.40
  -4  -6  -7 1228.58   37.50
   4  -6   7 1177.08   38.00
  -4   6  -7 1185.28   36.30
  -4   6  -7 1143.09   40.00
   4   6   7 1188.48   31.30
   4   6   7 1219.18   35.30
   6  -6   7   28.50    7.70
  -6  -6  -7   25.20    8.20
  -6  -6  -7   16.20   10.60
  -6   6  -7   11.50    5.60
   6   6   7   22.10    7.20
  -6   6  -7   12.60    6.90
  -8  -6  -7   10.70    6.70
   8  -6   7   17.90    7.00
  -8   6  -7    4.80    4.60
  -8   6  -7    3.80    6.10
   8   6   7   17.40    6.40
 -10  -6  -7  186.28   20.40
  10  -6   7  182.08   20.00
  10   6   7  177.68   18.80
 -10   6  -7  149.39   18.50
 -10   6  -7  187.18   18.00
 -12  -6  -7  468.15   28.10
 -12   6  -7  459.45   27.40
  11   7  -7  339.77   26.10
   9  -7  -7   29.70    9.90
  -9  -7   7   31.10    8.60
   9   7  -7   37.20    9.00
  -9   7   7   40.50    9.10
  -7  -7   7  583.74   26.70
   7  -7  -7  581.74   30.60
  -7   7   7  590.94   25.70
   7   7  -7  607.64   27.90
  -5  -7   7    3.70    4.30
   5  -7  -7   28.00    8.80
   5   7  -7   16.60    7.00
  -5   7   7    6.60    5.10
   3  -7  -7   33.30    8.90
   3   7  -7   78.89   13.20
  -3   7   7   74.49   10.50
   1  -7  -7  824.02   33.30
  -1   7   7  813.72   26.90
   1   7  -7  803.02   30.40
   1   7  -7  818.52   33.50
  -1  -7  -7  319.17   20.50
   1  -7   7  346.87   19.60
   1   7   7  345.47   16.90
  -1   7  -7  334.77   22.20
  -1   7  -7  331.17   19.50
   3  -7   7   83.19   12.60
  -3  -7  -7   67.09   11.70
   3   7   7   75.79   11.00
  -3   7  -7   69.49   11.30
  -3   7  -7   54.49   11.00
   3   7   7   62.79    8.90
  -5  -7  -7  449.56   23.70
   5  -7   7  440.76   24.10
  -5   7  -7  453.85   22.80
  -5   7  -7  445.26   24.80
   5   7   7  453.75   22.00
  -7  -7  -7  548.25   36.40
   7  -7   7  553.84   27.50
  -7   7  -7  537.15   24.80
  -7   7  -7  539.65   27.60
   7   7   7  530.85   25.30
   9  -7   7  990.90   38.30
   9   7   7  971.20   36.60
  -9   7  -7 1063.99   39.40
  -9   7  -7 1084.79   35.80
 -11   7  -7  196.88   19.20
 -11   7  -7  157.28   18.90
  10   8  -7   20.50    8.00
   8  -8  -7   12.30    8.00
  -8   8   7    6.50    4.70
   8   8  -7    3.90    4.90
   8   8  -7    8.50    6.00
   6  -8  -7  432.96   27.00
   6   8  -7  403.26   23.20
   6   8  -7  404.56   22.50
  -6   8   7  415.16   21.10
   4  -8  -7  246.88   20.30
   4   8  -7  244.68   18.70
   4   8  -7  247.78   17.80
  -4   8   7  248.78   16.20
   2  -8  -7    7.30    6.10
   2   8  -7    9.70    5.50
  -2   8   7   13.50    5.40
   2   8  -7    7.80    5.80
   0  -8  -7   45.90   10.10
   0  -8   7   86.79   12.60
   0   8  -7   49.10   10.40
   0   8  -7   61.39   10.70
   0   8   7   75.89   10.30
  -2  -8  -7  374.16   22.70
   2  -8   7  414.86   22.70
  -2   8  -7  403.46   24.00
   2   8   7  426.96   18.90
  -2   8  -7  429.16   22.70
  -4  -8  -7   26.10    8.60
   4  -8   7   32.90    9.00
   4   8   7   31.70    7.50
  -4   8  -7   17.40    7.80
  -4   8  -7   21.40    6.80
   6  -8   7   15.10    7.00
  -6  -8  -7   37.10    9.60
   6   8   7   26.50    7.90
  -6   8  -7   19.80    8.50
  -6   8  -7   32.70    8.10
   8  -8   7  236.98   23.20
  -8   8  -7  214.08   19.80
  -8   8  -7  279.57   20.40
   8   8   7  211.18   17.30
 -10   8  -7   14.90    6.90
  10   8   7   -1.90    7.60
 -10   8  -7   -1.70    4.70
   9   9  -7    6.00    6.40
   7  -9  -7  248.68   26.70
   7   9  -7  248.88   18.10
   7   9  -7  255.27   19.40
  -7   9   7  245.28   16.90
   5  -9  -7  877.11   39.10
  -5   9   7  910.71   31.60
   5   9  -7  892.61   35.40
   5   9  -7  902.51   34.20
   3  -9  -7  295.77   22.20
  -3   9   7  274.77   16.80
   3   9  -7  266.17   18.70
   3   9  -7  246.88   18.80
   1  -9  -7  347.07   23.10
   1   9  -7  324.97   21.70
  -1   9   7  329.37   17.90
   1   9  -7  324.87   20.50
   1  -9   7  158.28   17.50
  -1  -9  -7  117.99   16.50
   1   9   7  126.39   12.80
  -1   9  -7   95.69   13.40
  -1   9  -7  114.89   15.70
   3  -9   7   34.40    8.70
  -3  -9  -7   35.00    9.60
  -3   9  -7   53.69   10.40
  -3   9  -7   35.70    9.80
  -5  -9  -7  302.87   21.80
   5  -9   7  294.27   20.90
  -5   9  -7  261.27   19.20
  -5   9  -7  243.18   18.10
   5   9   7  265.07   17.80
  -7  -9  -7   27.20    9.00
   7  -9   7    9.90    6.60
  -7   9  -7    8.40    6.30
   7   9   7   18.50    7.10
   6  10  -7   73.59   12.40
   6  10  -7   96.79   14.50
   4 -10  -7    1.60    5.90
  -4  10   7    5.50    5.10
   4  10  -7    6.70    5.50
   4  10  -7    7.10    5.80
   2 -10  -7  367.86   25.00
   2  10  -7  307.97   20.60
   2  10  -7  309.67   21.70
  -2  10   7  338.77   18.50
   0 -10   7 1164.58   38.60
   0 -10  -7 1017.10   41.10
   0  10  -7  998.40   36.70
   0  10   7 1076.99   32.90
   2 -10   7  101.19   14.70
  -2 -10  -7  115.19   17.00
  -2  10  -7   99.99   13.80
   4 -10   7 1318.67   44.20
  -4 -10  -7 1258.27   45.00
   4  10   7 1312.37   39.40
  -4  10  -7 1322.87   42.70
  -6 -10  -7   53.89   12.30
   6 -10   7   53.79   11.60
   6  10   7   53.39   10.40
  -3  11   7   27.50    7.40
   1 -11  -7  487.35   33.70
  -1  11   7  484.35   22.20
   1 -11   7    4.50    6.10
  -1 -11  -7    2.30    6.40
  -3 -11  -7   48.20   13.60
   3 -11   7   46.00   11.30
 -12   0   8    6.30    5.80
  12   0  -8    4.80    6.60
  12   0  -8    2.80    5.50
  10   0  -8  126.19   16.60
 -10   0   8  154.28   17.60
  10   0  -8  176.48   18.40
  -8   0   8  689.33   28.90
   8   0  -8  728.73   29.50
   8   0  -8  696.83   29.30
  -6   0   8   41.70    9.20
   6   0  -8   50.19    9.90
  -4   0   8  955.40   32.80
   4   0  -8  963.60   36.10
  -2   0   8   80.89   11.50
   2   0  -8   86.19   14.50
   0   0  -8  300.47   20.70
   0   0   8  333.47   18.40
   2   0   8 2954.60   59.39
  -2   0  -8 3069.19   70.19
   4   0   8  218.78   14.60
  -4   0  -8  217.18   22.10
   4   0   8  206.08   14.10
  -6   0  -8   81.49   13.80
   6   0   8  120.49   12.90
   6   0   8  109.19   13.60
   8   0   8   90.89   13.40
  -8   0  -8   96.49   15.10
  10   0   8 1076.89   38.40
 -10   0  -8 1118.39   42.50
 -11  -1   8   32.70    8.70
  11  -1  -8   22.30    7.70
  11  -1  -8   20.20    8.30
 -11   1   8   18.30    7.20
  11   1  -8   34.10    9.70
  11   1  -8   31.30    9.00
   9  -1  -8  916.31   34.40
   9  -1  -8  898.01   34.40
  -9  -1   8  991.20   35.30
  -9   1   8  921.81   34.00
   9   1  -8  913.21   34.90
   7  -1  -8   15.40    6.90
  -7  -1   8   35.10    8.70
   7  -1  -8   27.40    7.60
  -7   1   8   22.50    7.40
   7   1  -8   21.50    7.10
   5  -1  -8  257.87   18.60
  -5  -1   8  198.78   15.10
  -5   1   8  236.88   16.40
   5   1  -8  251.77   18.40
  -3  -1   8 1517.15   41.70
   3  -1  -8 1417.66   44.30
   3   1  -8 1525.65   45.80
  -3   1   8 1475.75   41.00
  -1  -1   8   63.59   10.10
   1  -1  -8   37.40    9.60
  -1   1   8   55.99   10.10
   1   1  -8   68.49   12.80
  -1  -1  -8    5.20    5.80
   1  -1   8    7.60    4.30
   1   1   8    6.70    4.60
  -1   1  -8    3.50    6.20
   3  -1   8   -1.30    3.10
   3  -1   8   -1.00    3.00
  -3  -1  -8    0.10    5.00
   3   1   8    1.80    3.70
  -3   1  -8    9.00    5.50
   5  -1   8   59.49   10.10
  -5  -1  -8   65.29   11.80
   5  -1   8   76.09   10.40
  -5   1  -8   80.09   13.80
   5   1   8   82.19   11.00
   5   1   8   71.19   10.80
   7  -1   8  596.54   23.30
  -7  -1  -8  598.34   29.80
   7  -1   8  580.74   25.70
  -7   1  -8  607.44   30.00
   7   1   8  607.74   26.40
   9  -1   8    0.00    4.10
  -9  -1  -8    3.80    6.30
  -9   1  -8    2.90    5.80
   9   1   8   -1.20    4.30
  11  -1   8   13.00    6.00
 -11  -1  -8   12.30    7.20
  11   1   8   18.00    7.30
 -11   1  -8   16.60    8.50
 -12  -2   8   11.00    6.70
  12  -2  -8    5.80    5.40
  12  -2  -8    8.00    7.40
 -12   2   8   -1.10    6.00
  12   2  -8    2.10    6.20
 -10  -2   8   96.39   13.40
  10  -2  -8  114.59   16.20
  10  -2  -8  107.89   14.90
 -10   2   8   96.19   13.40
  10   2  -8  104.39   14.60
   8  -2  -8    6.40    5.90
   8  -2  -8   -2.70    3.90
  -8  -2   8    5.80    4.90
  -8   2   8    9.40    6.00
   8   2  -8   -0.30    3.20
   6  -2  -8   61.79   10.70
  -6  -2   8   63.79   11.40
   6  -2  -8   69.09   11.90
  -6   2   8   68.79   11.80
   6   2  -8   70.19   12.00
   4  -2  -8   63.69   11.40
  -4  -2   8   65.59   10.50
   4  -2  -8   68.69   12.90
   4   2  -8   62.59   11.70
  -4   2   8   65.99   10.60
   2  -2  -8  205.38   20.50
  -2  -2   8  160.08   16.10
   2   2  -8  177.28   19.10
  -2   2   8  166.08   15.60
   0  -2  -8    6.80    5.90
   0  -2   8    5.40    4.30
   0   2   8   10.90    4.90
   0   2  -8   -1.80    4.10
  -2  -2  -8    2.90    5.50
   2  -2   8    9.30    5.00
  -2   2  -8    5.50    5.70
   2   2   8    4.50    3.90
  -4  -2  -8   35.90    9.60
   4  -2   8   32.90    7.90
   4  -2   8   47.90    8.80
  -4   2  -8   30.20    9.30
   4   2   8   28.70    7.40
   4   2   8   45.00    8.20
   6  -2   8   33.00    8.00
   6  -2   8   20.40    6.70
  -6  -2  -8   29.60    9.30
   6   2   8   28.00    6.80
   6   2   8   33.30    8.40
  -6   2  -8   30.00    9.10
  -8  -2  -8   26.40    8.50
   8  -2   8   30.70    7.90
   8   2   8   17.70    6.80
  -8   2  -8   26.30    9.10
  -8   2  -8   25.70    6.70
  10  -2   8    3.80    5.00
 -10  -2  -8    4.70    6.00
 -10   2  -8    0.60    5.50
  10   2   8    9.10    6.50
  11  -3  -8   20.90    7.60
 -11  -3   8   37.40    9.40
  11  -3  -8   25.80    9.50
 -11   3   8   29.50    8.90
  -9  -3   8  330.07   20.80
   9  -3  -8  341.67   22.10
   9  -3  -8  380.16   21.70
  -9   3   8  365.86   21.00
   9   3  -8  317.27   21.10
   7  -3  -8   87.89   13.70
  -7  -3   8  102.29   13.60
   7  -3  -8  115.69   14.80
   7   3  -8   97.09   14.20
  -7   3   8  120.89   14.40
   5  -3  -8  373.56   21.50
  -5  -3   8  368.36   21.00
   5  -3  -8  436.66   23.60
  -5   3   8  384.36   20.50
   5   3  -8  371.56   22.30
   3  -3  -8  820.62   30.10
   3  -3  -8  811.52   32.80
  -3  -3   8  733.43   29.00
   3   3  -8  778.92   33.00
  -3   3   8  792.32   29.00
  -1  -3   8   78.09   12.00
   1  -3  -8  109.29   15.00
   1   3  -8   87.39   13.90
  -1   3   8   82.39   11.40
   1  -3   8   -4.30    3.60
  -1  -3  -8   -1.00    4.40
  -1   3  -8    0.10    5.60
   1   3   8    1.30    3.80
  -3  -3  -8  328.67   21.30
   3  -3   8  385.36   19.70
   3  -3   8  369.66   19.90
   3   3   8  372.36   18.50
  -3   3  -8  383.96   24.00
   5  -3   8   47.40    8.90
  -5  -3  -8   41.70   10.20
   5  -3   8   39.50    8.60
  -5   3  -8   33.00    9.40
   5   3   8   29.30    7.40
   5   3   8   36.00    7.40
   7  -3   8  998.10   35.20
  -7  -3  -8  997.00   38.30
  -7   3  -8  964.40   38.00
   7   3   8 1021.80   34.80
  -7   3  -8  957.80   31.20
  -9  -3  -8  152.48   18.40
   9  -3   8  118.09   15.80
  -9   3  -8  156.98   20.10
   9   3   8  110.59   14.50
 -11  -3  -8   70.59   13.70
  11  -3   8   71.99   12.60
  11   3   8   71.99   12.70
  10  -4  -8  147.69   18.70
  10  -4  -8  176.98   18.00
 -10  -4   8  165.38   18.20
 -10   4   8  196.38   19.40
  10   4  -8  175.28   19.50
   8  -4  -8  412.86   24.60
  -8  -4   8  405.16   22.90
   8  -4  -8  380.76   21.50
  -8   4   8  379.66   21.60
   8   4  -8  394.46   23.30
   6  -4  -8   12.60    6.80
   6  -4  -8   19.00    7.50
  -6  -4   8    3.70    4.90
  -6   4   8    2.20    4.40
   6   4  -8    7.50    5.60
  -4  -4   8  739.93   29.70
   4  -4  -8  707.13   30.70
   4  -4  -8  733.43   30.00
   4   4  -8  663.83   30.90
  -4   4   8  742.23   27.90
   2  -4  -8   58.09   11.40
   2  -4  -8   44.20    8.90
  -2  -4   8   40.60    8.70
  -2   4   8   46.50    8.60
   2   4  -8   48.50   11.00
   0  -4   8  232.68   16.00
   0  -4  -8  225.38   18.00
   0   4  -8  232.58   19.20
   0   4   8  226.88   15.20
   2  -4   8 1857.71   47.00
  -2  -4  -8 1782.32   50.29
  -2   4  -8 1872.01   54.59
   2   4   8 1820.22   43.70
  -4  -4  -8   46.10   10.60
   4  -4   8   39.30    9.10
  -4   4  -8   31.90    9.70
   4   4   8   71.19   10.10
   6  -4   8    4.60    4.80
  -6  -4  -8   10.00    6.70
  -6   4  -8    6.20    4.70
  -6   4  -8   -1.20    4.20
   6   4   8   10.40    5.30
   8  -4   8   38.00    9.20
  -8  -4  -8   67.59   13.00
  -8   4  -8   58.39   10.10
  -8   4  -8   46.10   11.40
   8   4   8   86.59   13.10
  10  -4   8  461.15   25.60
 -10  -4  -8  473.85   27.90
  10   4   8  407.06   24.00
 -10   4  -8  438.06   26.50
 -11  -5   8   19.40    7.90
  -9  -5   8  867.51   33.90
   9  -5  -8  853.61   37.40
   9   5  -8  869.31   35.90
  -9   5   8  885.21   33.40
   7  -5  -8   55.49   11.60
  -7  -5   8   26.60    8.00
  -7   5   8   65.49   11.00
   7   5  -8   28.90    9.00
   5  -5  -8   98.09   14.80
  -5  -5   8   87.19   12.60
   5  -5  -8   96.99   14.30
  -5   5   8   83.49   11.90
   5   5  -8   62.89   11.60
  -3  -5   8  777.52   29.90
   3  -5  -8  794.72   31.90
   3  -5  -8  730.33   30.70
  -3   5   8  799.12   29.00
   3   5  -8  764.42   33.20
  -1  -5   8   -0.90    4.20
   1  -5  -8    4.90    5.00
   1  -5  -8   -3.30    4.10
  -1   5   8    1.90    3.60
   1   5  -8   -0.50    4.90
   1  -5   8  192.98   18.00
  -1  -5  -8  153.28   17.20
  -1   5  -8  189.98   21.10
   1   5   8  185.18   13.90
   3  -5   8  146.99   16.20
  -3  -5  -8  156.38   17.80
  -3   5  -8  184.78   17.40
  -3   5  -8  163.68   18.80
   3   5   8  136.19   13.40
  -5  -5  -8    7.30    6.20
   5  -5   8    6.90    5.30
  -5   5  -8    3.10    5.90
  -5   5  -8    9.80    5.30
   5   5   8    4.90    4.80
   7  -5   8  183.68   19.00
  -7  -5  -8  226.58   22.60
  -7   5  -8  165.48   16.20
  -7   5  -8  225.78   22.80
   7   5   8  198.18   19.10
   9  -5   8   13.60    6.80
  -9  -5  -8   15.40    7.90
  -9   5  -8   13.10    5.80
  -9   5  -8    0.80    5.60
   9   5   8   13.90    6.50
 -10  -6   8  381.26   22.50
   8  -6  -8   41.40   10.90
  -8  -6   8   24.90    7.50
   8   6  -8   39.10   10.40
  -8   6   8   44.50   10.00
  -6  -6   8  141.89   16.40
   6  -6  -8  192.98   22.10
   6   6  -8  137.19   18.10
  -6   6   8  148.29   15.50
   4  -6  -8  294.27   21.10
  -4  -6   8  282.37   19.20
   4   6  -8  250.27   19.60
  -4   6   8  282.77   17.80
   2  -6  -8  638.94   29.50
  -2  -6   8  664.43   28.20
   2   6  -8  609.44   30.70
  -2   6   8  618.34   25.40
   0  -6  -8    7.50    5.70
   0   6   8   24.20    6.50
   0   6  -8    8.30    6.20
  -2   6  -8   -5.00    5.00
  -2   6  -8   -1.10    4.10
   2   6   8   -1.20    3.60
   4  -6   8  155.08   17.10
  -4  -6  -8  180.38   19.20
  -4   6  -8  169.18   20.10
  -4   6  -8  158.68   16.80
   6  -6   8  112.39   15.40
  -6  -6  -8  119.09   16.40
  -6   6  -8  101.29   13.60
   6   6   8  109.29   14.20
  -6   6  -8  107.09   16.00
  -8  -6  -8   57.89   12.10
   8  -6   8   96.39   14.20
  -8   6  -8   67.49   13.70
   8   6   8   84.49   13.40
  -8   6  -8   70.39   11.10
 -10  -6  -8   37.40   10.50
 -10   6  -8   43.40    9.70
  -9  -7   8   14.90    7.30
  -7  -7   8    8.10    6.60
   7  -7  -8   13.80    8.00
   7   7  -8   10.80    6.50
  -7   7   8   13.40    6.50
  -5  -7   8  345.17   21.50
   5  -7  -8  348.77   23.90
   5   7  -8  310.67   21.90
  -5   7   8  329.07   19.40
   3  -7  -8   17.30    7.50
   3   7  -8    9.20    5.80
  -3   7   8    9.40    5.00
   1  -7  -8    3.20    5.20
   1   7  -8   16.40    7.60
   1   7  -8    1.10    4.10
  -1   7   8   10.10    5.50
  -1  -7  -8   15.00    6.80
  -1   7  -8   11.10    7.20
  -1   7  -8   20.60    7.60
   1   7   8   15.20    5.90
   3  -7   8  639.74   28.70
  -3   7  -8  665.93   28.30
  -3   7  -8  581.04   29.50
   5  -7   8   18.00    7.60
  -5   7  -8   15.50    7.60
  -5   7  -8   15.20    6.40
   7  -7   8  550.54   27.90
   7   7   8  558.74   27.20
  -7   7  -8  474.25   24.30
  -7   7  -8  510.55   28.00
  -9   7  -8  289.27   22.30
   6  -8  -8    6.00    5.90
   6   8  -8    3.20    5.20
   6   8  -8   -0.60    5.00
   4  -8  -8  263.87   21.40
  -4   8   8  302.97   18.50
   4   8  -8  314.67   21.00
   4   8  -8  275.37   20.90
   2  -8  -8   32.90    9.80
   2   8  -8   52.29   12.40
  -2   8   8   39.10    8.30
   2   8  -8   33.60    9.20
   0  -8  -8   95.49   14.80
   0   8   8  122.29   13.30
   0   8  -8  110.49   15.00
   0   8  -8  112.89   16.50
  -2  -8  -8  381.86   23.20
  -2   8  -8  404.56   25.20
  -2   8  -8  433.56   23.70
   4  -8   8   65.19   12.20
  -4   8  -8   64.99   11.40
  -4   8  -8   70.39   13.40
   6  -8   8   76.39   13.00
  -6   8  -8   51.09   15.90
  -6   8  -8   75.29   13.50
   6   8   8   59.19   11.60
   5   9  -8   35.40    9.90
   3  -9  -8  154.78   19.80
   3   9  -8  177.08   20.80
  -3   9   8  173.38   16.60
   1  -9  -8   12.00    7.20
   1   9  -8   18.00   11.50
  -1   9   8    6.80    5.30
   1   9  -8    7.20    7.00
  -1  -9  -8  236.28   19.90
  -1   9  -8  239.58   23.30
   1   9   8  242.98   17.40
  -3  -9  -8   12.60    7.70
   3  -9   8   10.70    7.10
  -3   9  -8    4.30    6.70
   5  -9   8    0.80    5.20
  -5   9  -8   -8.70    4.70
   0  10   8    2.80    4.40
   8   0  -9   -0.50    4.20
  -8   0   9    2.50    5.50
   6   0  -9    4.40    5.40
  -6   0   9   -0.70    4.10
   4   0  -9    4.00    4.80
  -4   0   9    3.70    4.60
   2   0  -9    4.60    6.20
  -2   0   9    0.60    4.40
   0   0  -9    2.90    5.50
   0   0   9    0.40    4.30
   2   0   9   -0.80    3.80
  -2   0  -9   -2.60    4.00
  -4   0  -9   -4.10    5.70
   4   0   9    1.00    4.30
   6   0   9   -3.00    3.90
  -6   0  -9   -2.10    5.30
  -8   0  -9    3.70    6.90
   8   0   9    4.40    4.70
   9  -1  -9  211.78   23.50
   7  -1  -9   38.30   10.60
  -7  -1   9   45.10   10.10
  -7   1   9   46.70   10.00
   7   1  -9   28.30    9.10
  -5  -1   9   35.20    8.50
   5  -1  -9   30.40    8.80
   5   1  -9   37.40    9.90
  -5   1   9   37.70    9.10
  -3  -1   9    7.50    5.70
   3  -1  -9    4.20    5.80
  -3   1   9   -1.30    4.30
   3   1  -9    0.30    4.80
  -1  -1   9  365.76   20.90
   1  -1  -9  384.46   25.30
   1   1  -9  385.26   25.00
  -1   1   9  379.56   20.90
  -1  -1  -9    1.80    5.40
   1  -1   9    8.20    5.50
  -1   1  -9    7.60    7.30
   1   1   9    8.70    5.20
  -3  -1  -9  126.19   17.50
   3  -1   9  136.49   14.80
   3   1   9  122.29   14.20
  -3   1  -9  115.19   16.50
   5  -1   9  526.65   23.50
  -5  -1  -9  548.75   28.80
  -5   1  -9  521.35   28.40
   5   1   9  572.54   24.20
   7  -1   9    4.90    5.30
  -7  -1  -9   -1.60    5.30
   7  -1   9    5.40    6.80
   7   1   9    5.50    5.00
  -7   1  -9   -1.60    5.30
   9  -1   9    0.00    4.90
   9   1   9    7.50    6.00
   8  -2  -9   74.69   13.50
  -8  -2   9   92.09   14.00
   6  -2  -9  557.94   28.30
  -6  -2   9  520.55   26.40
   6   2  -9  582.54   30.10
  -6   2   9  541.75   26.30
  -4  -2   9    8.60    5.60
   4  -2  -9    5.10    5.80
   4   2  -9    3.90    5.50
  -4   2   9    6.50    5.60
  -2  -2   9   90.79   13.20
   2  -2  -9   89.29   14.70
  -2   2   9   90.49   12.50
   2   2  -9   92.29   14.70
   0  -2   9 1033.40   35.50
   0  -2  -9 1078.69   41.00
   0   2   9 1062.09   34.80
   0   2  -9 1109.19   43.10
   2  -2   9   12.60    6.30
  -2  -2  -9   10.30    6.40
   2   2   9   -0.50    4.20
  -2   2  -9    9.80    7.20
  -4  -2  -9  184.78   20.40
   4  -2   9  155.98   16.00
   4   2   9  186.18   17.00
  -4   2  -9  150.38   19.20
   6  -2   9  100.89   13.30
   6  -2   9  125.99   15.50
  -6  -2  -9  108.79   15.90
  -6   2  -9  122.49   17.80
   8  -2   9   18.70    7.30
  -8  -2  -9   34.00   10.30
   8   2   9   25.20    7.70
   9  -3  -9   95.59   15.70
   9  -3  -9  108.29   15.70
   7  -3  -9    7.00    6.00
  -7  -3   9    1.90    5.00
   7   3  -9   10.30    7.70
  -7   3   9   -2.50    4.80
  -5  -3   9  232.88   21.60
   5  -3  -9  203.98   22.20
  -5   3   9  207.68   19.40
   5   3  -9  200.28   21.90
  -3  -3   9   43.60    9.40
   3  -3  -9   27.20    9.20
  -3   3   9   37.90    8.60
   3   3  -9   36.90   11.50
  -1  -3   9  508.15   24.80
   1  -3  -9  437.76   26.30
  -1   3   9  474.05   23.20
   1   3  -9  459.85   27.30
   1  -3   9    5.90    4.90
  -1  -3  -9   -1.70    6.00
  -1   3  -9   -5.20    5.00
   1   3   9    9.50    5.40
   3  -3   9   45.90    9.10
  -3  -3  -9   46.30   10.40
   3   3   9   47.50    9.20
  -3   3  -9   35.90   11.00
  -5  -3  -9 1309.07   44.20
  -5   3  -9 1258.97   45.50
  -7  -3  -9   12.50    8.00
   7  -3   9    1.10    5.00
  -7   3  -9    0.60    5.60
  -7   3  -9    1.80    4.00
   9  -3   9   20.00   13.10
   9   3   9   24.80    8.80
   8  -4  -9  264.07   20.90
   6  -4  -9   14.50    7.20
  -6  -4   9   17.40    7.10
   6   4  -9   16.90    8.10
  -6   4   9   13.10    6.90
   4  -4  -9   73.19   12.90
  -4  -4   9   85.49   13.20
   4   4  -9   90.29   14.90
  -4   4   9   88.79   12.90
  -2  -4   9  136.39   16.40
   2  -4  -9  106.69   15.70
  -2   4   9  116.39   14.00
   2   4  -9  112.09   17.50
   0  -4  -9  330.27   22.50
   0  -4   9  363.06   20.80
   0   4   9  309.87   19.00
   0   4  -9  301.27   23.60
  -2  -4  -9   -2.20    5.50
   2  -4   9    6.80    5.20
  -2   4  -9    2.50    5.90
   2   4   9   -1.60    3.60
  -4  -4  -9   -5.50    4.30
  -4   4  -9    3.10    5.50
  -6  -4  -9   82.49   14.20
   6  -4   9   81.29   13.10
  -6   4  -9   78.09   11.80
  -6   4  -9   59.19   13.20
  -8  -4  -9   16.30    9.20
   8  -4   9   11.60    6.70
  -8   4  -9    5.70    5.40
   8   4   9   21.40    7.80
   7  -5  -9  471.65   27.40
  -5  -5   9   44.60   10.20
   5   5  -9   45.20   12.60
  -5   5   9   29.90    8.60
  -3  -5   9    6.20    5.10
  -3   5   9   -4.80    4.00
   3   5  -9    1.20    6.10
  -1  -5   9    3.90    5.40
   1  -5  -9    6.80    6.70
   1   5  -9   -0.80    4.50
  -1   5   9   15.40    6.00
   1  -5   9    0.70    4.30
  -1  -5  -9   -1.50    5.70
  -1   5  -9    4.00    6.80
   1   5   9    6.70    4.50
  -3  -5  -9   52.59   11.30
   3   5   9   82.89   11.70
  -3   5  -9   59.79   10.50
  -3   5  -9   67.99   13.70
  -5  -5  -9   93.39   14.70
  -5   5  -9  101.79   16.20
  -5   5  -9   64.29   10.90
   7  -5   9   59.29   12.20
  -7  -5  -9   64.19   13.30
  -7   5  -9   38.00    9.30
   6  -6  -9  209.38   22.20
   4  -6  -9    9.60   11.30
  -4   6   9    4.20    8.40
  -2  -6   9  217.08   22.50
   2   6  -9  236.48   24.60
  -2   6   9  253.77   17.70
   0   6  -9  888.81   39.00
   0   6   9  972.60   33.40
   2   6   9    2.50    4.40
  -2   6  -9   -1.60    4.70
  -2   6  -9    7.40    6.60
  -4   6  -9    3.20    7.80
   6  -6   9   14.00    7.10
   3  -7  -9   76.29   14.10
  -1   7   9  130.19   14.90
   1   7  -9   99.79   25.90
   1   7   9   15.30    6.40
   0   0  10  369.66   24.50
   2   0  10    6.20    5.60
   4   0  10   39.20    9.20
   1  -1 -10    5.10    8.00
   1  -1  10   11.20    6.90
   1   1  10   10.80    6.50
   3  -1  10  601.34   27.60
   3   1  10  608.14   27.20
   2  -2 -10   26.00   10.40
   0  -2 -10    4.50    6.70
   0   2  10    8.50    6.40
   2   2  10  100.49   13.60
   4   2  10    1.40    4.50
   3  -3 -10    3.40    7.30
   1  -3 -10   58.69   13.30
  -1  -3 -10   26.40   10.50
   1   3  10   26.60    8.70
   0   0   0    0.00    0.00

_computing_structure_solution     'SHELXT 2018/2 (Sheldrick, 2018)'
;
_shelx_hkl_checksum              95842
loop_
_space_group_symop_operation_xyz
'x, y, z'
'-x, y, -z+1/2'
'x+1/2, y+1/2, z'
'-x+1/2, y+1/2, -z+1/2'
'-x, -y, -z'
'x, -y, z-1/2'
'-x+1/2, -y+1/2, -z'
'x+1/2, -y+1/2, z-1/2'
loop_
_atom_site_label
_atom_site_type_symbol
_atom_site_fract_x
_atom_site_fract_y
_atom_site_fract_z
_atom_site_U_iso_or_equiv
_atom_site_adp_type
_atom_site_occupancy
_atom_site_site_symmetry_order
_atom_site_calc_flag
_atom_site_refinement_flags_posn
_atom_site_refinement_flags_adp
_atom_site_refinement_flags_occupancy
_atom_site_disorder_assembly
_atom_site_disorder_group
Ba2 Ba 0.000000 0.40193(2) 0.250000 0.01036(7) Uani 1 2 d S T P . .
Ba1 Ba 0.37676(2) 0.37156(2) 0.04181(3) 0.01277(6) Uani 1 1 d . . . . .
In In 0.29613(2) 0.12293(2) 0.41715(3) 0.00937(6) Uani 1 1 d . . . . .
As2 As 0.34321(2) 0.08718(3) 0.06670(5) 0.00950(7) Uani 1 1 d . . . . .
As1 As 0.11400(2) 0.17352(3) 0.47136(5) 0.01040(8) Uani 1 1 d . . . . .
loop_
_atom_site_aniso_label
_atom_site_aniso_U_11
_atom_site_aniso_U_22
_atom_site_aniso_U_33
_atom_site_aniso_U_23
_atom_site_aniso_U_13
_atom_site_aniso_U_12
Ba2 0.00989(13) 0.01183(13) 0.00937(13) 0.000 0.00058(10) 0.000
Ba1 0.01121(10) 0.00954(10) 0.01755(11) 0.00014(7) -0.00101(7) 0.00011(7)
In 0.00948(11) 0.00852(10) 0.01010(11) -0.00005(8) 0.00047(8) 0.00021(8)
As1 0.00885(16) 0.00890(15) 0.01346(17) -0.00036(12) -0.00008(12) -0.00013(12)
As2 0.01049(16) 0.00831(15) 0.00971(15) -0.00075(12) 0.00136(12) -0.00011(12)
loop_
_atom_type_symbol
_atom_type_description
_atom_type_scat_dispersion_real
_atom_type_scat_dispersion_imag
_atom_type_scat_source
As As 0.0499 2.0058 'International Tables Vol C Tables 4.2.6.8 and 6.1.1.4'
Ba Ba -0.3244 2.2819 'International Tables Vol C Tables 4.2.6.8 and 6.1.1.4'
In In -0.7276 1.3100 'International Tables Vol C Tables 4.2.6.8 and 6.1.1.4'
loop_
_geom_angle_atom_site_label_1
_geom_angle_atom_site_label_2
_geom_angle_atom_site_label_3
_geom_angle
_geom_angle_site_symmetry_1
_geom_angle_site_symmetry_3
Ba1 Ba2 Ba1 84.217(12) 7 8_456
In Ba2 Ba1 89.195(11) 4 7
In Ba2 Ba1 86.485(9) 8_455 8_456
In Ba2 Ba1 87.290(10) 7_556 8_456
In Ba2 Ba1 87.290(9) 8_455 7
In Ba2 Ba1 157.682(5) 3_455 7
In Ba2 Ba1 89.195(10) 3_455 8_456
In Ba2 Ba1 157.682(5) 4 8_456
In Ba2 Ba1 86.485(9) 7_556 7
In Ba2 In 171.606(10) 8_455 7_556
In Ba2 In 114.544(10) 8_455 4
In Ba2 In 114.544(9) 7_556 3_455
In Ba2 In 71.003(10) 8_455 3_455
In Ba2 In 71.003(9) 7_556 4
In Ba2 In 104.241(14) 4 3_455
As1 Ba2 Ba1 58.762(11) . 7
As1 Ba2 Ba1 54.090(11) . 8_456
As1 Ba2 Ba1 54.090(11) 2 7
As1 Ba2 Ba1 58.762(11) 2 8_456
As1 Ba2 In 104.507(12) 2 3_455
As1 Ba2 In 127.481(11) 2 7_556
As1 Ba2 In 104.507(12) . 4
As1 Ba2 In 131.615(9) . 3_455
As1 Ba2 In 44.150(8) . 7_556
As1 Ba2 In 127.481(11) . 8_455
As1 Ba2 In 131.615(10) 2 4
As1 Ba2 In 44.150(8) 2 8_455
As1 Ba2 As1 83.715(16) 2 .
As2 Ba2 Ba1 123.258(10) 4 8_456
As2 Ba2 Ba1 50.210(9) 8_456 8_456
As2 Ba2 Ba1 123.258(10) 3_455 7
As2 Ba2 Ba1 134.107(11) 7 8_456
As2 Ba2 Ba1 111.940(11) 3_455 8_456
As2 Ba2 Ba1 134.107(11) 8_456 7
As2 Ba2 Ba1 50.210(9) 7 7
As2 Ba2 Ba1 111.940(11) 4 7
As2 Ba2 In 43.421(9) 3_455 8_455
As2 Ba2 In 134.672(11) 7 3_455
As2 Ba2 In 95.251(13) 8_456 7_556
As2 Ba2 In 85.067(14) 8_456 8_455
As2 Ba2 In 85.067(14) 7 7_556
As2 Ba2 In 144.814(11) 4 8_455
As2 Ba2 In 89.485(13) 3_455 4
As2 Ba2 In 89.485(13) 4 3_455
As2 Ba2 In 95.251(14) 7 8_455
As2 Ba2 In 144.814(11) 3_455 7_556
As2 Ba2 In 43.421(9) 4 7_556
As2 Ba2 In 41.050(10) 3_455 3_455
As2 Ba2 In 41.050(10) 4 4
As2 Ba2 In 134.672(11) 8_456 4
As2 Ba2 In 41.460(8) 7 4
As2 Ba2 In 41.460(8) 8_456 3_455
As2 Ba2 As1 165.993(9) 4 2
As2 Ba2 As1 91.716(12) 8_456 .
As2 Ba2 As1 91.507(12) 7 .
As2 Ba2 As1 91.507(12) 8_456 2
As2 Ba2 As1 91.716(12) 7 2
As2 Ba2 As1 165.993(9) 3_455 .
As2 Ba2 As1 87.444(13) 4 .
As2 Ba2 As1 87.444(13) 3_455 2
As2 Ba2 As2 77.644(12) 7 4
As2 Ba2 As2 99.617(12) 8_456 4
As2 Ba2 As2 103.160(17) 4 3_455
As2 Ba2 As2 175.672(15) 8_456 7
As2 Ba2 As2 77.644(12) 8_456 3_455
As2 Ba2 As2 99.617(12) 7 3_455
Ba2 Ba1 Ba1 80.553(11) 7 7
Ba2 Ba1 Ba1 149.788(5) 7 6_566
Ba2 Ba1 Ba1 93.581(12) 7 5_665
Ba1 Ba1 Ba1 164.685(11) 7 5_665
Ba1 Ba1 Ba1 117.981(7) 7 6_566
Ba1 Ba1 Ba1 73.616(9) 5_665 6_566
In Ba1 Ba2 151.617(8) 4 7
In Ba1 Ba2 87.705(12) . 7
In Ba1 Ba1 85.872(13) 4 7
In Ba1 Ba1 56.869(8) . 7
In Ba1 Ba1 137.506(9) . 5_665
In Ba1 Ba1 93.076(13) 4 5_665
In Ba1 Ba1 84.264(11) . 6_566
In Ba1 Ba1 58.132(8) 4 6_566
In Ba1 In 105.526(10) 4 .
As1 Ba1 Ba2 52.763(7) 8 7
As1 Ba1 Ba2 135.194(10) 4 7
As1 Ba1 Ba2 112.833(10) 7_556 7
As1 Ba1 Ba2 51.360(7) 7 7
As1 Ba1 Ba1 132.262(12) 8 7
As1 Ba1 Ba1 79.696(8) 7 7
As1 Ba1 Ba1 46.599(9) 7_556 6_566
As1 Ba1 Ba1 101.987(7) 8 6_566
As1 Ba1 Ba1 149.240(9) 7 6_566
As1 Ba1 Ba1 94.189(9) 7_556 7
As1 Ba1 Ba1 128.291(11) 4 7
As1 Ba1 Ba1 101.125(9) 7_556 5_665
As1 Ba1 Ba1 46.921(10) 8 5_665
As1 Ba1 Ba1 53.238(10) 4 6_566
As1 Ba1 Ba1 85.584(8) 7 5_665
As1 Ba1 Ba1 48.913(9) 4 5_665
As1 Ba1 In 44.164(9) 4 4
As1 Ba1 In 125.613(11) 7 .
As1 Ba1 In 41.442(8) 7_556 .
As1 Ba1 In 92.828(8) 7_556 4
As1 Ba1 In 139.995(10) 8 4
As1 Ba1 In 135.567(10) 4 .
As1 Ba1 In 106.334(9) 8 .
As1 Ba1 In 101.806(8) 7 4
As1 Ba1 As1 95.833(9) 4 8
As1 Ba1 As1 78.286(9) 8 7
As1 Ba1 As1 95.275(9) 8 7_556
As1 Ba1 As1 163.604(12) 7_556 7
As1 Ba1 As1 96.007(10) 4 7
As1 Ba1 As1 99.667(10) 4 7_556
As2 Ba1 Ba2 113.378(9) 7 7
As2 Ba1 Ba2 50.299(10) . 7
As2 Ba1 Ba1 137.624(11) . 5_665
As2 Ba1 Ba1 124.688(10) . 6_566
As2 Ba1 Ba1 95.554(8) 7 6_566
As2 Ba1 Ba1 128.410(12) 7 5_665
As2 Ba1 Ba1 44.621(10) 7 7
As2 Ba1 Ba1 45.820(8) . 7
As2 Ba1 In 40.843(9) . .
As2 Ba1 In 43.889(9) 7 4
As2 Ba1 In 129.297(12) . 4
As2 Ba1 In 88.789(10) 7 .
As2 Ba1 As1 157.765(11) 7 8
As2 Ba1 As1 79.651(9) 7 7
As2 Ba1 As1 90.708(10) . 8
As2 Ba1 As1 79.045(9) . 7_556
As2 Ba1 As1 85.916(9) . 7
As2 Ba1 As1 106.737(10) 7 7_556
As2 Ba1 As1 173.429(11) . 4
As2 Ba1 As1 83.743(9) 7 4
As2 Ba1 As2 90.441(10) . 7
Ba2 In Ba2 65.456(10) 7_556 3_545
Ba2 In Ba1 90.489(10) 3_545 .
Ba2 In Ba1 104.663(10) 7_556 .
Ba1 In Ba2 92.725(13) 4_545 3_545
Ba1 In Ba2 113.798(10) 4_545 7_556
Ba1 In Ba1 138.978(8) 4_545 .
In In Ba2 156.350(11) 7_556 3_545
In In Ba2 98.058(11) 7_556 7_556
In In Ba1 76.962(12) 7_556 .
In In Ba1 109.952(14) 7_556 4_545
As1 In Ba2 131.862(13) . 7_556
As1 In Ba2 151.348(11) . 3_545
As1 In Ba2 104.810(14) 7_556 3_545
As1 In Ba2 60.752(11) 7_556 7_556
As1 In Ba1 103.475(11) . .
As1 In Ba1 59.498(12) 7_556 .
As1 In Ba1 60.356(12) . 4_545
As1 In Ba1 155.296(12) 7_556 4_545
As1 In In 52.286(10) . 7_556
As1 In In 51.548(12) 7_556 7_556
As1 In As1 103.834(13) . 7_556
As2 In Ba2 113.310(13) . 7_556
As2 In Ba2 55.387(8) . 3_545
As2 In Ba2 59.001(10) 6_556 7_556
As2 In Ba2 53.031(10) 6_556 3_545
As2 In Ba1 97.701(11) . 4_545
As2 In Ba1 52.377(11) . .
As2 In Ba1 143.170(12) 6_556 .
As2 In Ba1 58.540(12) 6_556 4_545
As2 In In 134.298(16) 6_556 7_556
As2 In In 124.780(13) . 7_556
As2 In As1 119.527(16) 6_556 7_556
As2 In As1 114.820(13) . .
As2 In As1 111.598(13) 6_556 .
As2 In As1 106.536(13) . 7_556
As2 In As2 100.922(12) . 6_556
Ba2 As1 Ba1 73.146(10) . 8_456
Ba2 As1 Ba1 69.877(9) . 7
Ba2 As1 Ba1 125.708(10) . 7_556
Ba1 As1 Ba2 138.547(12) 4_545 .
Ba1 As1 Ba1 99.451(9) 8_456 7
Ba1 As1 Ba1 83.416(9) 4_545 7_556
Ba1 As1 Ba1 82.366(9) 8_456 7_556
Ba1 As1 Ba1 84.166(9) 4_545 8_456
Ba1 As1 Ba1 163.606(12) 7_556 7
Ba1 As1 Ba1 80.582(8) 4_545 7
In As1 Ba2 75.098(14) 7_556 .
In As1 Ba2 123.246(12) . .
In As1 Ba1 122.535(13) 7_556 8_456
In As1 Ba1 159.642(14) . 8_456
In As1 Ba1 79.061(11) 7_556 7_556
In As1 Ba1 77.889(10) . 7
In As1 Ba1 94.696(11) . 7_556
In As1 Ba1 145.108(14) 7_556 4_545
In As1 Ba1 112.646(12) 7_556 7
In As1 Ba1 75.480(10) . 4_545
In As1 In 76.166(13) . 7_556
Ba2 As2 Ba2 80.384(12) 7 3_545
Ba2 As2 Ba1 119.960(14) 7 7
Ba1 As2 Ba2 79.491(9) . 7
Ba1 As2 Ba2 122.308(14) . 3_545
Ba1 As2 Ba2 146.163(12) 7 3_545
Ba1 As2 Ba1 89.559(10) . 7
In As2 Ba2 85.509(12) 6 7
In As2 Ba2 77.579(13) 6 3_545
In As2 Ba2 148.698(14) . 7
In As2 Ba2 83.563(12) . 3_545
In As2 Ba1 151.967(15) 6 .
In As2 Ba1 86.781(11) . .
In As2 Ba1 87.616(12) . 7
In As2 Ba1 77.571(11) 6 7
In As2 In 116.978(14) . 6
loop_
_geom_bond_atom_site_label_1
_geom_bond_atom_site_label_2
_geom_bond_distance
_geom_bond_site_symmetry_2
Ba2 Ba1 4.1032(5) 8_456
Ba2 Ba1 4.1032(5) 7
Ba2 In 4.0064(5) 4
Ba2 In 3.7805(5) 8_455
Ba2 In 3.7805(5) 7_556
Ba2 In 4.0064(5) 3_455
Ba2 As1 3.4133(5) .
Ba2 As1 3.4133(5) 2
Ba2 As2 3.2108(5) 8_456
Ba2 As2 3.3182(5) 4
Ba2 As2 3.3182(5) 3_455
Ba2 As2 3.2108(5) 7
Ba1 Ba1 4.5651(6) 7
Ba1 Ba1 4.5833(6) 5_665
Ba1 Ba1 4.6010(5) 6_566
Ba1 In 3.7481(5) 4
Ba1 In 4.0422(5) .
Ba1 As1 3.7364(6) 7
Ba1 As1 3.3651(6) 4
Ba1 As1 3.5473(6) 7_556
Ba1 As1 3.4725(6) 8
Ba1 As2 3.2067(6) .
Ba1 As2 3.2739(6) 7
In In 3.3446(6) 7_556
In As1 2.7249(5) 7_556
In As1 2.6976(6) .
In As2 2.6477(5) .
In As2 2.6608(5) 6_556
