#------------------------------------------------------------------------------
#$Date: 2021-03-23 10:27:50 +0200 (Tue, 23 Mar 2021) $
#$Revision: 263241 $
#$URL: file:///home/coder/svn-repositories/cod/cif/1/56/11/1561196.cif $
#------------------------------------------------------------------------------
#
# This file is available in the Crystallography Open Database (COD),
# http://www.crystallography.net/
#
# All data on this site have been placed in the public domain by the
# contributors.
#
data_1561196
loop_
_publ_author_name
'Duan, Hui'
'Dan, Wenyan'
'Fang, Xiangdong'
_publ_section_title
;
 Zinc-coordinated MOFs complexes regulated by hydrogen bonds: Synthesis,
 structure and luminescence study toward broadband white-light emission
;
_journal_name_full               'Journal of Solid State Chemistry'
_journal_page_first              159
_journal_page_last               164
_journal_paper_doi               10.1016/j.jssc.2018.01.024
_journal_volume                  260
_journal_year                    2018
_chemical_formula_sum            'C10 H12 N6 O6 Zn'
_chemical_formula_weight         377.63
_space_group_crystal_system      monoclinic
_space_group_IT_number           13
_space_group_name_Hall           '-P 2yc'
_space_group_name_H-M_alt        'P 1 2/c 1'
_atom_sites_solution_hydrogens   mixed
_cell_angle_alpha                90
_cell_angle_beta                 100.705(2)
_cell_angle_gamma                90
_cell_formula_units_Z            2
_cell_length_a                   7.8496(5)
_cell_length_b                   5.3514(3)
_cell_length_c                   16.5895(10)
_cell_measurement_reflns_used    9888
_cell_measurement_temperature    296(2)
_cell_measurement_theta_max      27.50
_cell_measurement_theta_min      3.28
_cell_volume                     684.74(7)
_computing_cell_refinement       'Bruker SAINT'
_computing_data_collection       'Bruker APEX3'
_computing_data_reduction        'Bruker SAINT'
_computing_molecular_graphics    'Bruker SHELXTL'
_computing_publication_material  'Bruker SHELXTL'
_computing_structure_refinement  'SHELXL-2016/6 (Sheldrick, 2016)'
_computing_structure_solution    'SHELXS-97 (Sheldrick 2008)'
_diffrn_ambient_temperature      296(2)
_diffrn_measured_fraction_theta_full 0.998
_diffrn_measured_fraction_theta_max 0.991
_diffrn_measurement_device_type  'Bruker APEX-III CMOS'
_diffrn_measurement_method       '\f and \w scans'
_diffrn_radiation_type           MoK\a
_diffrn_radiation_wavelength     0.71073
_diffrn_reflns_av_R_equivalents  0.0260
_diffrn_reflns_av_unetI/netI     0.0154
_diffrn_reflns_Laue_measured_fraction_full 0.998
_diffrn_reflns_Laue_measured_fraction_max 0.991
_diffrn_reflns_limit_h_max       10
_diffrn_reflns_limit_h_min       -10
_diffrn_reflns_limit_k_max       6
_diffrn_reflns_limit_k_min       -6
_diffrn_reflns_limit_l_max       21
_diffrn_reflns_limit_l_min       -21
_diffrn_reflns_number            14986
_diffrn_reflns_point_group_measured_fraction_full 0.998
_diffrn_reflns_point_group_measured_fraction_max 0.991
_diffrn_reflns_theta_full        25.242
_diffrn_reflns_theta_max         27.578
_diffrn_reflns_theta_min         3.282
_exptl_absorpt_coefficient_mu    1.839
_exptl_absorpt_correction_type   multi-scan
_exptl_absorpt_process_details   sadabs
_exptl_crystal_colour            colourless
_exptl_crystal_density_diffrn    1.832
_exptl_crystal_description       sheet
_exptl_crystal_F_000             384
_exptl_crystal_size_max          0.37
_exptl_crystal_size_mid          0.08
_exptl_crystal_size_min          0.03
_exptl_transmission_factor_max   0.7456
_exptl_transmission_factor_min   0.6451
_refine_diff_density_max         0.283
_refine_diff_density_min         -0.349
_refine_diff_density_rms         0.063
_refine_ls_extinction_method     none
_refine_ls_goodness_of_fit_ref   1.075
_refine_ls_hydrogen_treatment    mixed
_refine_ls_matrix_type           full
_refine_ls_number_parameters     113
_refine_ls_number_reflns         1574
_refine_ls_number_restraints     0
_refine_ls_restrained_S_all      1.075
_refine_ls_R_factor_all          0.0295
_refine_ls_R_factor_gt           0.0245
_refine_ls_shift/su_max          0.000
_refine_ls_shift/su_mean         0.000
_refine_ls_structure_factor_coef Fsqd
_refine_ls_weighting_details
'w=1/[\s^2^(Fo^2^)+(0.0349P)^2^+0.3254P] where P=(Fo^2^+2Fc^2^)/3'
_refine_ls_weighting_scheme      calc
_refine_ls_wR_factor_gt          0.0620
_refine_ls_wR_factor_ref         0.0641
_reflns_Friedel_coverage         0.000
_reflns_Friedel_fraction_full    .
_reflns_Friedel_fraction_max     .
_reflns_number_gt                1422
_reflns_number_total             1574
_reflns_threshold_expression     'I > 2\s(I)'
_cod_data_source_file            2.cif
_cod_data_source_block           170327c
_cod_original_sg_symbol_H-M      'P 2/c'
_cod_database_code               1561196
_shelx_space_group_comment
; 
The symmetry employed for this shelxl refinement is uniquely defined 
by the following loop, which should always be used as a source of 
symmetry information in preference to the above space-group names. 
They are only intended as comments. 
;
_shelx_res_file
; 
  
TITL 170327c_a.res in P2/c 
    170327c.res 
    created by SHELXL-2016/6 at 16:45:27 on 15-Oct-2017 
REM Old TITL 170327c in P2/c 
REM SHELXT solution in P2/c 
REM R1 0.120,  Rweak 0.003,  Alpha 0.018,  Orientation as input 
REM Formula found by SHELXT:  C14 N6 O2 Zn 
CELL  0.71073   7.8496   5.3514  16.5895   90.000  100.705   90.000 
ZERR    2.000   0.0005   0.0003   0.0010    0.000    0.002    0.000 
LATT  1 
SYMM -X, Y, 1/2-Z 
SFAC C H N O ZN 
UNIT 20 24 12 12 2 
TEMP 23.00 
L.S. 10 
BOND $H 
LIST 4 
acta 
conf 
EQIV $1 x, -y+2, z+1/2 
HTAB O3 N1_$1 
EQIV $2 x, -y+1, z-1/2 
HTAB N3 O2_$2 
EQIV $3 x, y+1, z 
HTAB O3 O2_$3 
EQIV $4 -x+2, -y, -z+1 
HTAB N3 N2_$4 
FMAP 2 
PLAN 20 
WGHT    0.034900    0.325400 
FVAR       0.26952 
ZN1   5    0.500000    1.012865    0.750000    10.50000    0.03901    0.02078 = 
         0.01751    0.00000    0.01145    0.00000 
H3C   2    0.700260    1.286709    0.842383    11.00000    0.05564 
O1    4    0.553060    0.920801    0.638090    11.00000    0.03953    0.03459 = 
         0.03318   -0.00987    0.01358    0.00715 
N1    3    0.725683    0.542209    0.450217    11.00000    0.02735    0.02246 = 
         0.01706   -0.00034    0.00423    0.00421 
C1    1    0.655481    0.741749    0.657648    11.00000    0.03472    0.02217 = 
         0.02484   -0.00502    0.01407   -0.00941 
O2    4    0.704318    0.681615    0.731778    11.00000    0.08308    0.02710 = 
         0.02088   -0.00197    0.01905   -0.00654 
H3D   2    0.702669    1.364985    0.771144    11.00000    0.05757 
N2    3    0.873942    0.251629    0.549777    11.00000    0.02972    0.02158 = 
         0.02086    0.00095    0.00559    0.00424 
C2    1    0.717728    0.597639    0.592215    11.00000    0.02558    0.01987 = 
         0.02023   -0.00294    0.00822   -0.00319 
N3    3    0.870727    0.198540    0.412310    11.00000    0.03416    0.02781 = 
         0.01957   -0.00315    0.00582    0.00787 
AFIX  93 
H3A   2    0.932911    0.066690    0.424300    11.00000   -1.20000 
H3B   2    0.840168    0.243873    0.361962    11.00000   -1.20000 
AFIX   0 
O3    4    0.696698    1.239548    0.797585    11.00000    0.05668    0.02673 = 
         0.01972   -0.00102    0.01059   -0.01121 
C3    1    0.674665    0.667920    0.510404    11.00000    0.02323    0.02047 = 
         0.02255   -0.00097    0.00537    0.00209 
AFIX  43 
H3    2    0.606848    0.809841    0.497188    11.00000   -1.20000 
AFIX   0 
C4    1    0.821558    0.333051    0.471948    11.00000    0.01854    0.01972 = 
         0.02019   -0.00177    0.00485   -0.00197 
C5    1    0.821882    0.386427    0.607901    11.00000    0.03336    0.02489 = 
         0.01760    0.00215    0.00494    0.00190 
AFIX  43 
H5    2    0.857056    0.336794    0.662168    11.00000   -1.20000 
REM ##### 
REM ##### 
AFIX   0 
HKLF 4 
  
  
  
  
REM  170327c_a.res in P2/c 
REM R1 =  0.0245 for    1422 Fo > 4sig(Fo)  and  0.0295 for all    1574 data 
REM    113 parameters refined using      0 restraints 
  
END 
  
WGHT      0.0349      0.3254 
  
REM Highest difference peak  0.283,  deepest hole -0.349,  1-sigma level  0.063 
Q1    1   0.6851  0.6645  0.6239  11.00000  0.05    0.28 
Q2    1   0.6626  0.5845  0.7454  11.00000  0.05    0.25 
Q3    1   0.6424  0.6566  0.6998  11.00000  0.05    0.24 
Q4    1   0.7472  0.4839  0.5994  11.00000  0.05    0.23 
Q5    1   0.7857  0.6719  0.7324  11.00000  0.05    0.20 
Q6    1   0.5673  1.0011  0.6062  11.00000  0.05    0.19 
Q7    1   0.6137  1.1274  0.4900  11.00000  0.05    0.19 
Q8    1   0.6693  0.6136  0.5494  11.00000  0.05    0.19 
Q9    1   0.8373  0.2546  0.4449  11.00000  0.05    0.18 
Q10   1   0.6595  1.1067  0.5653  11.00000  0.05    0.18 
Q11   1   0.7353  0.6323  0.4860  11.00000  0.05    0.18 
Q12   1   0.6696  0.5715  0.5863  11.00000  0.05    0.18 
Q13   1   0.7882  0.4449  0.4598  11.00000  0.05    0.17 
Q14   1   0.5850  0.4034  0.4487  11.00000  0.05    0.16 
Q15   1   0.6010  1.3089  0.7984  11.00000  0.05    0.16 
Q16   1   0.4522  0.7550  0.5584  11.00000  0.05    0.16 
Q17   1   0.8790  0.3141  0.5195  11.00000  0.05    0.15 
Q18   1   0.5000  0.5000  0.5000  10.50000  0.05    0.15 
Q19   1   0.8372  0.2901  0.5117  11.00000  0.05    0.15 
Q20   1   0.6647  0.5109  0.4258  11.00000  0.05    0.15 
;
_shelx_res_checksum              71144
_shelx_hkl_file
; 
   2   0   0  195.90    3.93 
  -2   0   0  196.60    3.93 
   2   0   0  197.40    3.92 
  -2   0   0  186.88    3.91 
  -2   0   0  191.12    3.93 
  -2   0   0  194.31    3.92 
   3   0   0   74.01    1.85 
  -3   0   0   83.29    1.80 
  -3   0   0   81.29    1.78 
  -3   0   0   84.12    1.82 
   3   0   0   83.59    1.81 
  -3   0   0   81.83    1.82 
   3   0   0   80.24    1.79 
   4   0   0   38.83    1.04 
  -4   0   0   38.19    1.06 
  -4   0   0   40.06    1.08 
  -4   0   0   39.55    1.02 
   4   0   0   39.48    1.03 
  -5   0   0  320.08    6.58 
  -5   0   0  316.12    6.57 
  -5   0   0  315.63    6.53 
  -5   0   0  318.47    6.50 
   5   0   0  315.31    6.51 
   5   0   0  312.13    6.53 
   5   0   0  315.78    6.55 
  -6   0   0  116.68    2.65 
  -6   0   0  117.84    2.70 
  -6   0   0  115.71    2.75 
  -6   0   0  113.20    2.74 
   6   0   0  114.67    2.69 
   6   0   0  116.64    2.72 
   6   0   0  114.57    2.66 
   7   0   0    2.94    0.44 
   7   0   0    2.29    0.42 
   7   0   0    1.55    0.45 
  -7   0   0    3.01    0.54 
  -7   0   0    3.20    0.70 
  -7   0   0    2.54    0.53 
   7   0   0    2.08    0.45 
  -7   0   0    1.46    0.43 
   8   0   0    1.11    0.47 
  -8   0   0    1.75    0.52 
   8   0   0    1.71    0.45 
  -8   0   0    1.57    0.53 
  -8   0   0    0.76    0.41 
   8   0   0    1.55    0.48 
  -9   0   0    9.05    1.05 
   9   0   0    8.70    0.94 
 -10   0   0    1.47    0.79 
  10   0   0    2.82    0.89 
   0  -1   0    0.63    0.09 
   0  -1   0    0.54    0.09 
   0  -1   0    0.62    0.10 
   0   1   0    0.54    0.10 
   0   1   0    0.60    0.10 
   0   1   0    0.54    0.15 
   0   1   0    0.37    0.08 
   1  -1   0  290.29    5.96 
  -1  -1   0  301.72    5.85 
  -1  -1   0  312.71    5.84 
   1  -1   0  302.14    5.95 
   1  -1   0  285.15    6.03 
   1  -1   0  304.60    5.96 
  -1  -1   0  295.68    5.84 
   1   1   0  280.26    5.86 
   1   1   0  293.53    5.84 
   1   1   0  298.39    5.84 
  -1   1   0  300.49    5.97 
  -1   1   0  294.27    5.95 
   1   1   0  306.60    5.85 
  -1   1   0  305.78    5.97 
  -1   1   0  285.53    5.96 
   2  -1   0 1000.00   19.68 
  -2   1   0  991.33   19.66 
   3  -1   0  296.03    6.01 
   3  -1   0  303.91    6.01 
  -3  -1   0  285.61    5.84 
   3  -1   0  297.58    6.02 
  -3  -1   0  284.45    5.87 
  -3  -1   0  288.79    5.84 
   3  -1   0  293.58    6.03 
   3   1   0  289.73    5.84 
  -3   1   0  296.22    6.03 
   3   1   0  286.54    5.86 
   3   1   0  283.81    5.83 
  -3   1   0  294.08    5.99 
  -3   1   0  304.91    6.02 
  -3   1   0  292.58    6.03 
   4  -1   0   33.99    1.03 
  -4  -1   0   33.15    0.91 
   4  -1   0   36.45    1.07 
  -4  -1   0   36.80    0.88 
  -4  -1   0   33.86    0.88 
   4  -1   0   35.73    1.04 
   4  -1   0   36.18    1.05 
   4   1   0   35.77    1.03 
   4   1   0   33.93    0.89 
  -4   1   0   33.64    1.01 
   4   1   0   36.10    0.88 
   4   1   0   34.86    0.88 
  -4   1   0   33.33    1.05 
  -4   1   0   32.85    1.06 
  -4   1   0   34.02    1.05 
  -5  -1   0   21.98    0.73 
   5  -1   0   23.46    0.92 
   5  -1   0   22.83    0.90 
  -5  -1   0   22.38    0.76 
  -5  -1   0   24.22    0.72 
  -5  -1   0   22.38    0.77 
   5  -1   0   24.43    0.89 
   5  -1   0   22.78    0.88 
  -5   1   0   24.51    0.93 
   5   1   0   22.93    0.71 
  -5   1   0   21.50    0.92 
   5   1   0   21.75    0.72 
   5   1   0   22.96    0.74 
   5   1   0   23.27    0.73 
  -5   1   0   22.65    0.91 
  -5   1   0   22.98    0.84 
  -6  -1   0   15.73    0.72 
   6  -1   0   16.06    0.79 
   6  -1   0   16.12    0.90 
  -6  -1   0   16.70    0.69 
   6  -1   0   16.96    0.84 
  -6  -1   0   16.27    0.76 
   6  -1   0   17.74    0.88 
  -6  -1   0   17.25    0.67 
   6   1   0   16.21    0.70 
  -6   1   0   16.40    0.89 
   6   1   0   16.27    0.68 
  -6   1   0   15.56    0.90 
  -6   1   0   17.13    0.88 
   6   1   0   16.47    0.69 
   6   1   0   17.53    0.67 
  -6   1   0   17.23    0.79 
   7  -1   0   31.05    1.17 
   7  -1   0   34.37    1.27 
   7  -1   0   30.77    1.26 
   7  -1   0   31.50    1.31 
  -7  -1   0   32.45    1.03 
  -7  -1   0   29.95    1.10 
  -7  -1   0   30.72    1.14 
   7   1   0   31.85    1.09 
  -7   1   0   32.40    1.30 
   7   1   0   30.13    1.04 
  -7   1   0   31.24    1.27 
  -7   1   0   29.85    1.15 
  -7   1   0   30.12    1.33 
   7   1   0   33.37    1.04 
   8  -1   0   16.55    1.04 
  -8  -1   0   16.10    0.96 
  -8  -1   0   15.72    0.83 
   8  -1   0   15.99    1.18 
  -8  -1   0   17.11    1.03 
  -8   1   0   18.71    1.22 
   8   1   0   17.60    0.93 
  -8   1   0   13.98    1.23 
  -8   1   0   17.18    0.99 
   8   1   0   16.28    0.86 
   8   1   0   17.73    0.97 
  -9  -1   0   -0.19    0.50 
   9  -1   0   -0.48    0.53 
  -9   1   0    1.00    0.69 
   9   1   0    0.59    0.42 
   0  -2   0   35.39    0.90 
   0  -2   0   37.04    0.87 
   0  -2   0   35.95    0.88 
   0  -2   0   34.84    0.89 
   0   2   0   35.93    0.89 
   0   2   0   36.50    0.89 
   0   2   0   34.11    0.87 
   0   2   0   35.64    0.88 
  -1  -2   0  253.89    5.32 
   1  -2   0  261.28    5.44 
   1  -2   0  268.94    5.45 
   1  -2   0  264.07    5.43 
  -1  -2   0  264.66    5.29 
   1  -2   0  275.31    5.42 
  -1  -2   0  264.95    5.30 
   1   2   0  261.23    5.30 
   1   2   0  270.26    5.30 
   1   2   0  265.85    5.29 
  -1   2   0  274.43    5.45 
  -1   2   0  264.70    5.42 
  -1   2   0  263.70    5.43 
  -2  -2   0  336.61    6.77 
   2  -2   0  346.18    7.05 
  -2  -2   0  344.65    6.78 
   2  -2   0  351.88    7.04 
  -2  -2   0  338.40    6.81 
  -2  -2   0  342.97    6.83 
   2  -2   0  342.03    7.05 
   2  -2   0  351.28    7.03 
   2   2   0  333.89    6.81 
  -2   2   0  349.99    7.05 
  -2   2   0  346.64    7.02 
  -2   2   0  348.19    7.06 
   2   2   0  342.64    6.80 
  -3  -2   0  146.68    3.03 
   3  -2   0  153.75    3.36 
  -3  -2   0  156.28    3.11 
  -3  -2   0  156.44    3.04 
   3  -2   0  149.38    3.38 
  -3  -2   0  154.60    3.11 
  -3   2   0  153.55    3.40 
  -3   2   0  154.18    3.41 
   3   2   0  152.12    3.09 
   3   2   0  157.30    3.11 
  -3   2   0  150.81    3.37 
  -3   2   0  152.77    3.35 
  -4  -2   0  277.01    5.65 
   4  -2   0  290.44    6.06 
  -4  -2   0  292.67    5.64 
   4  -2   0  283.63    6.03 
   4  -2   0  292.98    6.02 
  -4  -2   0  270.45    5.74 
   4  -2   0  282.38    6.02 
  -4  -2   0  283.24    5.74 
  -4   2   0  283.70    6.05 
  -4   2   0  294.63    6.08 
  -4   2   0  286.22    6.00 
   4   2   0  283.44    5.72 
  -4   2   0  290.66    6.03 
   4   2   0  276.80    5.71 
   5  -2   0    6.09    0.66 
   5  -2   0    6.30    0.63 
  -5  -2   0    6.04    0.40 
   5  -2   0    5.95    0.60 
  -5  -2   0    6.57    0.33 
  -5  -2   0    6.21    0.40 
   5  -2   0    5.91    0.70 
   5   2   0    5.69    0.36 
   5   2   0    6.42    0.26 
  -5   2   0    5.98    0.59 
   5   2   0    6.02    0.37 
  -5   2   0    5.74    0.67 
   5   2   0    6.26    0.27 
  -5   2   0    5.20    0.67 
  -5   2   0    6.59    0.74 
   6  -2   0    0.57    0.50 
   6  -2   0    0.18    0.45 
  -6  -2   0    0.27    0.19 
  -6  -2   0    0.45    0.26 
  -6  -2   0   -0.02    0.21 
  -6  -2   0    0.39    0.24 
   6  -2   0    0.03    0.39 
   6  -2   0    0.60    0.34 
  -6   2   0    0.14    0.36 
  -6   2   0   -0.19    0.61 
   6   2   0    0.41    0.22 
   6   2   0    0.37    0.21 
  -6   2   0    0.01    0.41 
   6   2   0    0.59    0.20 
  -6   2   0    0.17    0.53 
   6   2   0    0.26    0.18 
   7  -2   0   17.03    1.18 
   7  -2   0   18.24    1.21 
   7  -2   0   18.65    1.08 
  -7  -2   0   16.77    0.77 
   7  -2   0   18.32    1.05 
  -7  -2   0   16.87    0.82 
   7   2   0   16.40    0.71 
   7   2   0   18.57    0.75 
   7   2   0   16.41    0.76 
  -7   2   0   18.69    1.17 
   7   2   0   16.66    0.59 
  -7   2   0   16.76    1.22 
  -7   2   0   17.33    1.02 
  -7   2   0   18.18    1.20 
   8  -2   0    7.59    0.99 
   8  -2   0    7.16    1.05 
  -8  -2   0    7.32    0.83 
  -8  -2   0    7.70    0.72 
  -8  -2   0    7.28    0.59 
   8  -2   0    9.38    1.63 
   8   2   0    7.32    0.72 
  -8   2   0    8.25    1.23 
   8   2   0    6.29    0.51 
  -8   2   0    8.79    0.95 
   8   2   0    7.63    0.61 
  -8   2   0    7.80    1.22 
  -9  -2   0   14.40    0.98 
   9  -2   0   15.05    1.31 
  -9   2   0   18.49    1.54 
   9   2   0   15.15    0.85 
   0  -3   0  291.52    5.85 
   0  -3   0  278.11    5.89 
   0  -3   0  289.35    5.89 
   0  -3   0  287.03    5.86 
   0   3   0  287.24    5.87 
   0   3   0  281.35    5.86 
   0   3   0  292.77    5.88 
   1  -3   0  132.20    2.93 
  -1  -3   0  135.79    2.84 
  -1  -3   0  131.39    2.77 
   1  -3   0  132.21    2.96 
  -1  -3   0  127.66    2.83 
   1  -3   0  136.67    2.93 
  -1  -3   0  135.53    2.80 
   1  -3   0  133.31    2.96 
  -1   3   0  132.32    2.93 
  -1   3   0  135.27    2.96 
   1   3   0  130.45    2.81 
   1   3   0  137.59    2.80 
   1   3   0  133.65    2.80 
   1   3   0  131.75    2.81 
  -2  -3   0   22.20    0.56 
   2  -3   0   22.84    0.82 
   2  -3   0   21.20    0.84 
  -2  -3   0   22.13    0.54 
  -2  -3   0   20.79    0.60 
   2  -3   0   21.78    0.83 
  -2  -3   0   21.04    0.62 
   2  -3   0   22.60    0.83 
   2   3   0   21.58    0.58 
  -2   3   0   22.78    0.85 
  -2   3   0   20.55    0.79 
   2   3   0   20.35    0.59 
   2   3   0   21.90    0.52 
   2   3   0   22.79    0.52 
  -2   3   0   21.90    0.83 
  -2   3   0   21.51    0.84 
   3  -3   0   38.20    1.23 
   3  -3   0   38.19    1.20 
   3  -3   0   37.51    1.19 
   3  -3   0   37.99    1.24 
  -3  -3   0   37.45    0.91 
  -3  -3   0   38.58    0.88 
   3   3   0   38.91    0.87 
   3   3   0   37.10    0.87 
  -3   3   0   38.51    1.24 
  -3   3   0   37.20    1.24 
  -3   3   0   37.49    1.21 
  -3   3   0   36.62    1.18 
   4  -3   0   42.66    1.39 
  -4  -3   0   43.55    1.00 
   4  -3   0   41.77    1.36 
  -4  -3   0   42.22    1.00 
   4  -3   0   43.53    1.44 
   4  -3   0   42.51    1.38 
  -4   3   0   41.99    1.39 
  -4   3   0   42.64    1.35 
   4   3   0   40.72    0.95 
  -4   3   0   42.34    1.42 
  -4   3   0   41.97    1.40 
   4   3   0   43.65    0.97 
  -5  -3   0   25.89    0.72 
   5  -3   0   24.95    1.13 
   5  -3   0   25.31    1.16 
   5  -3   0   25.92    1.12 
   5  -3   0   27.05    1.23 
  -5  -3   0   25.40    0.72 
  -5   3   0   26.49    1.10 
  -5   3   0   25.47    1.18 
  -5   3   0   25.74    1.18 
  -5   3   0   24.92    1.16 
   5   3   0   25.35    0.67 
   5   3   0   25.44    0.68 
  -6  -3   0   61.23    1.46 
   6  -3   0   61.45    1.97 
   6  -3   0   60.47    1.92 
   6  -3   0   58.22    1.91 
   6  -3   0   59.94    2.03 
  -6  -3   0   58.41    1.44 
   6   3   0   60.92    1.40 
  -6   3   0   60.88    1.99 
  -6   3   0   59.08    1.95 
  -6   3   0   60.96    1.88 
   6   3   0   60.27    1.38 
  -6   3   0   60.15    1.99 
   7  -3   0   21.39    1.48 
   7  -3   0   18.61    1.26 
  -7  -3   0   18.72    0.79 
  -7  -3   0   18.17    0.75 
   7  -3   0   17.98    1.41 
   7  -3   0   18.91    1.27 
  -7   3   0   17.74    1.20 
   7   3   0   18.50    0.67 
   7   3   0   19.37    0.72 
  -7   3   0   18.93    1.39 
  -7   3   0   20.87    1.39 
  -7   3   0   19.88    1.37 
   8  -3   0    0.34    0.62 
  -8  -3   0    0.21    0.36 
  -8  -3   0    0.32    0.42 
  -8   3   0   -0.57    0.76 
   8   3   0    0.23    0.35 
   8   3   0    0.12    0.28 
   9  -3   0    1.41    0.79 
  -9  -3   0    2.64    0.53 
   9   3   0    3.04    0.48 
  -9   3   0    2.21    0.98 
   9   3   0    2.50    0.42 
   0  -4   0   89.18    2.14 
   0  -4   0   87.78    2.07 
   0  -4   0   91.25    2.14 
   0   4   0   85.77    2.08 
   0   4   0   91.48    2.10 
   0   4   0   89.33    2.09 
   0   4   0   84.26    2.17 
   1  -4   0   44.97    1.36 
  -1  -4   0   46.62    1.25 
   1  -4   0   46.23    1.33 
   1  -4   0   46.44    1.37 
  -1  -4   0   46.19    1.17 
  -1  -4   0   46.63    1.26 
   1  -4   0   46.91    1.32 
  -1  -4   0   48.74    1.20 
  -1   4   0   47.25    1.34 
   1   4   0   46.52    1.22 
   1   4   0   46.96    1.19 
   1   4   0   48.67    1.23 
   1   4   0   48.16    1.20 
  -1   4   0   45.72    1.35 
  -1   4   0   45.84    1.35 
  -2  -4   0   39.68    1.09 
   2  -4   0   39.86    1.33 
  -2  -4   0   40.02    1.02 
   2  -4   0   42.40    1.30 
  -2  -4   0   40.38    1.06 
   2  -4   0   41.99    1.35 
   2  -4   0   42.03    1.29 
  -2  -4   0   41.16    0.97 
  -2   4   0   39.31    1.32 
   2   4   0   42.20    0.95 
  -2   4   0   40.26    1.29 
   2   4   0   40.62    1.03 
   2   4   0   42.56    0.96 
   2   4   0   41.02    1.06 
  -2   4   0   41.46    1.30 
   3  -4   0   11.11    0.82 
  -3  -4   0   12.74    0.47 
   3  -4   0   13.12    0.90 
   3  -4   0   11.62    0.84 
  -3  -4   0   12.24    0.51 
  -3   4   0   11.78    0.84 
   3   4   0   11.62    0.45 
  -3   4   0   11.41    0.78 
   3   4   0   12.07    0.44 
  -3   4   0   12.12    0.86 
  -4  -4   0    7.56    0.37 
   4  -4   0    6.33    0.90 
   4  -4   0    9.73    0.92 
   4  -4   0    7.44    0.81 
   4  -4   0    7.52    0.79 
  -4  -4   0    7.60    0.46 
  -4   4   0    8.81    0.90 
  -4   4   0    9.12    0.91 
  -4   4   0    8.39    0.85 
   4   4   0    8.07    0.34 
  -4   4   0    8.84    0.80 
   4   4   0    7.46    0.33 
  -5  -4   0   52.17    1.21 
  -5  -4   0   52.50    1.20 
   5  -4   0   53.61    1.85 
   5  -4   0   51.08    1.75 
   5  -4   0   52.70    1.81 
   5  -4   0   51.75    1.89 
  -5   4   0   50.82    1.85 
  -5   4   0   51.37    1.87 
  -5   4   0   52.57    1.75 
  -5   4   0   54.72    1.85 
   6  -4   0   14.14    1.33 
  -6  -4   0    9.43    0.47 
   6  -4   0    9.17    1.34 
  -6  -4   0    9.30    0.45 
   6  -4   0   10.87    1.10 
   6  -4   0    9.05    1.09 
  -6   4   0   10.79    1.32 
  -6   4   0   10.83    1.18 
  -6   4   0    9.98    1.07 
  -6   4   0   10.29    1.28 
   7  -4   0    6.91    1.27 
  -7  -4   0    6.24    0.45 
   7  -4   0    7.86    1.31 
   7  -4   0    4.98    0.96 
   7  -4   0    8.61    1.61 
  -7  -4   0    6.43    0.47 
  -7   4   0    6.55    0.92 
  -7   4   0    4.53    1.06 
  -7   4   0    6.51    1.06 
  -7   4   0   11.87    1.54 
  -8  -4   0   13.59    0.65 
  -8  -4   0   14.29    0.64 
   8  -4   0   12.71    1.56 
  -8   4   0   16.19    1.80 
   0  -5   0   24.89    0.95 
   0  -5   0   23.99    1.19 
   0  -5   0   25.08    1.01 
   0   5   0   23.53    0.96 
   0   5   0   23.33    0.95 
   0   5   0   24.40    0.97 
   1  -5   0    7.79    0.75 
   1  -5   0    7.11    0.69 
  -1  -5   0    7.60    0.61 
  -1  -5   0    7.50    0.61 
   1  -5   0    7.05    0.72 
   1   5   0    7.69    0.63 
  -1   5   0    8.20    0.70 
   1   5   0    6.97    0.57 
  -1   5   0    7.66    0.73 
  -1   5   0    6.85    0.69 
   1   5   0    8.00    0.59 
   1   5   0    7.58    0.59 
  -2  -5   0   17.89    0.77 
   2  -5   0   16.16    0.99 
  -2  -5   0   16.84    0.63 
   2  -5   0   16.62    1.04 
  -2  -5   0   16.68    0.73 
   2  -5   0   17.71    0.95 
  -2   5   0   17.34    0.96 
  -2   5   0   16.36    0.99 
   2   5   0   17.22    0.69 
  -2   5   0   16.49    0.98 
   2   5   0   16.24    0.69 
   2   5   0   17.28    0.54 
   2   5   0   16.70    0.56 
   3  -5   0   41.48    1.53 
  -3  -5   0   37.26    1.10 
   3  -5   0   40.73    1.57 
  -3  -5   0   37.35    1.05 
   3  -5   0   37.67    1.44 
   3   5   0   37.37    1.03 
  -3   5   0   38.52    1.45 
   3   5   0   38.79    1.01 
  -3   5   0   39.96    1.49 
  -3   5   0   37.17    1.46 
   4  -5   0   13.33    1.20 
  -4  -5   0   11.41    0.56 
   4  -5   0   11.54    1.03 
  -4  -5   0   11.33    0.51 
   4  -5   0   10.92    1.05 
  -4   5   0   12.50    1.06 
   4   5   0   11.74    0.45 
   4   5   0   12.21    0.45 
  -4   5   0   10.55    1.01 
  -4   5   0   10.43    1.11 
   5  -5   0    8.89    1.13 
   5  -5   0   11.16    1.16 
  -5  -5   0   10.40    0.43 
  -5  -5   0   10.11    0.43 
  -5   5   0    9.23    1.18 
  -5   5   0   11.16    1.18 
   6  -5   0    4.49    0.90 
  -6   5   0    3.20    0.77 
   0  -6   0    3.22    0.53 
   0  -6   0    4.59    0.85 
   0   6   0    3.43    0.52 
   0   6   0    4.56    0.73 
   0   6   0    3.62    0.74 
   1  -6   0    7.81    0.90 
  -1  -6   0    7.87    0.73 
  -1  -6   0    7.84    0.77 
  -1  -6   0    6.65    0.80 
  -1   6   0    9.23    0.88 
   1   6   0    7.64    0.77 
   1   6   0    8.64    0.76 
   1   6   0    8.57    0.73 
  -2  -6   0    7.86    0.71 
  -2  -6   0    7.32    0.74 
   2  -6   0    7.80    1.03 
  -2  -6   0    8.74    0.59 
   2   6   0    8.84    0.70 
   2   6   0    8.45    0.65 
  -2   6   0    7.24    0.95 
   3  -6   0   12.79    1.16 
  -3  -6   0   12.20    0.74 
  -3  -6   0   12.76    0.73 
   3   6   0   12.59    0.66 
  -3   6   0   13.60    1.13 
   3   6   0   11.56    0.65 
   4  -6   0    9.77    1.28 
  -4  -6   0   10.16    0.61 
  -4  -6   0    9.01    0.59 
   4   6   0    8.67    0.48 
   4   6   0    9.05    0.47 
  -4   6   0   11.01    1.25 
   5  -6   0    1.60    0.69 
  -5   6   0    1.71    0.76 
 -10   0   1   -0.85    0.66 
  10   0  -1    0.10    0.57 
  -9   0   1    0.08    0.56 
   9   0  -1    0.29    0.48 
   8   0  -1    0.28    0.43 
  -8   0   1   -0.71    0.49 
   8   0  -1   -0.12    0.42 
  -8   0   1    0.94    0.49 
  -8   0   1    0.30    0.38 
   8   0  -1   -0.15    0.37 
   7   0  -1    0.24    0.31 
  -7   0   1    0.39    0.37 
  -7   0   1   -0.34    0.28 
   7   0  -1   -0.20    0.38 
   7   0  -1    0.10    0.33 
  -7   0   1   -0.17    0.36 
  -6   0   1    0.13    0.23 
   6   0  -1   -0.04    0.26 
   6   0  -1   -0.08    0.25 
   6   0  -1   -0.10    0.24 
   6   0  -1   -0.13    0.30 
  -6   0   1   -0.30    0.28 
  -6   0   1    0.03    0.28 
  -6   0   1    0.02    0.30 
  -5   0   1   -0.30    0.17 
  -5   0   1   -0.21    0.24 
   5   0  -1   -0.15    0.24 
   5   0  -1   -0.13    0.22 
   5   0  -1   -0.31    0.20 
  -5   0   1   -0.27    0.24 
  -5   0   1   -0.33    0.23 
   5   0  -1   -0.08    0.20 
   4   0  -1   -0.26    0.21 
   4   0  -1    0.17    0.17 
  -4   0   1    0.20    0.19 
  -4   0   1    0.21    0.20 
   4   0  -1    0.01    0.16 
  -4   0   1    0.00    0.14 
  -4   0   1   -0.17    0.18 
   4   0  -1   -0.33    0.14 
   3   0  -1   -0.06    0.13 
  -3   0   1   -0.04    0.11 
   3   0  -1   -0.04    0.12 
   3   0  -1   -0.02    0.11 
  -3   0   1    0.08    0.14 
   3   0  -1   -0.10    0.15 
  -3   0   1   -0.16    0.13 
  -3   0   1    0.17    0.15 
  -2   0   1   -0.01    0.10 
   2   0  -1   -0.01    0.11 
   2   0  -1   -0.01    0.13 
   2   0  -1   -0.02    0.08 
  -2   0   1   -0.09    0.11 
  -2   0   1    0.08    0.11 
   2   0  -1   -0.08    0.11 
  -2   0   1   -0.04    0.10 
  -1   0  -1    0.09    0.06 
  -1   0  -1    0.24    0.09 
  -1   0  -1    0.13    0.08 
   1   0   1    0.18    0.08 
   1   0   1    0.19    0.07 
  -1   0  -1    0.15    0.07 
  -2   0  -1    0.01    0.10 
  -2   0  -1    0.04    0.11 
  -2   0  -1    0.23    0.13 
  -2   0  -1    0.03    0.12 
   2   0   1    0.21    0.14 
   2   0   1   -0.01    0.11 
   3   0   1    0.16    0.14 
  -3   0  -1    0.14    0.15 
  -3   0  -1   -0.05    0.16 
  -3   0  -1   -0.22    0.15 
   3   0   1    0.02    0.17 
  -3   0  -1    0.04    0.12 
  -4   0  -1    0.06    0.16 
   4   0   1    0.01    0.36 
  -4   0  -1    0.13    0.19 
   4   0   1   -0.05    0.17 
  -4   0  -1   -0.17    0.18 
   4   0   1   -0.03    0.17 
  -5   0  -1   -0.02    0.20 
   5   0   1    0.17    0.21 
  -5   0  -1    0.31    0.26 
   5   0   1    0.00    0.26 
   5   0   1   -0.04    0.22 
  -5   0  -1    0.03    0.25 
  -5   0  -1    0.05    0.26 
  -6   0  -1   -0.18    0.30 
   6   0   1    0.02    0.26 
  -6   0  -1   -0.06    0.25 
   6   0   1    0.08    0.27 
  -6   0  -1    0.11    0.33 
   6   0   1   -0.43    0.25 
  -6   0  -1   -0.40    0.31 
   6   0   1    1.02    0.36 
  -7   0  -1   -0.02    0.38 
  -7   0  -1   -0.35    0.29 
  -7   0  -1    0.00    0.39 
   7   0   1    0.20    0.40 
  -7   0  -1    0.34    0.39 
   7   0   1    0.49    0.35 
   7   0   1    0.22    0.36 
   7   0   1    0.09    0.31 
   8   0   1    0.16    0.45 
  -8   0  -1    0.41    0.38 
  -8   0  -1    0.29    0.57 
  -8   0  -1    0.19    0.49 
   8   0   1    0.56    0.47 
   8   0   1    0.18    0.40 
  -9   0  -1    0.98    0.58 
   9   0   1   -0.22    0.48 
 -10   1   1    0.47    0.84 
  -9  -1   1    0.22    0.49 
   9  -1  -1   -0.21    0.49 
  -9   1   1    0.12    0.69 
   9   1  -1   -0.21    0.38 
   8  -1  -1    1.99    0.56 
  -8  -1   1    1.77    0.50 
  -8  -1   1    1.98    0.47 
   8  -1  -1    1.11    0.56 
  -8   1   1    1.60    0.45 
   8   1  -1    2.26    0.43 
   8   1  -1    1.59    0.39 
  -8   1   1    0.50    0.53 
   8   1  -1    1.19    0.41 
  -8   1   1    2.12    0.60 
  -7  -1   1    2.56    0.36 
   7  -1  -1    2.48    0.56 
   7  -1  -1    2.37    0.50 
   7  -1  -1    2.74    0.48 
  -7  -1   1    2.34    0.40 
  -7  -1   1    3.82    0.63 
   7   1  -1    2.37    0.36 
   7   1  -1    2.78    0.50 
  -7   1   1    1.78    0.48 
  -7   1   1    1.67    0.55 
  -7   1   1    2.57    0.44 
   7   1  -1    2.48    0.37 
  -7   1   1    1.79    0.49 
   6  -1  -1    0.49    0.32 
   6  -1  -1   -0.29    0.29 
   6  -1  -1    0.35    0.41 
  -6  -1   1    0.43    0.25 
  -6  -1   1    0.03    0.28 
  -6  -1   1    0.15    0.20 
   6  -1  -1    0.69    0.36 
  -6  -1   1    0.17    0.24 
   6   1  -1    0.27    0.21 
  -6   1   1    0.23    0.36 
  -6   1   1    0.04    0.36 
   6   1  -1   -0.10    0.24 
  -6   1   1    0.39    0.29 
   6   1  -1    0.49    0.24 
   6   1  -1    0.32    0.24 
  -6   1   1    0.08    0.35 
   5  -1  -1   21.62    0.85 
  -5  -1   1   22.45    0.69 
   5  -1  -1   22.37    0.85 
   5  -1  -1   21.98    0.86 
  -5  -1   1   21.83    0.72 
   5  -1  -1   21.29    0.89 
  -5  -1   1   23.43    0.68 
  -5  -1   1   22.96    0.75 
  -5   1   1   22.86    0.88 
   5   1  -1   23.26    0.72 
  -5   1   1   22.15    0.88 
  -5   1   1   21.83    0.91 
   5   1  -1   21.30    0.69 
   5   1  -1   23.97    0.69 
  -5   1   1   21.76    0.82 
   5   1  -1   22.91    0.69 
  -4  -1   1   50.70    1.23 
   4  -1  -1   51.33    1.39 
   4  -1  -1   53.84    1.38 
   4  -1  -1   51.41    1.38 
  -4  -1   1   53.46    1.20 
   4  -1  -1   52.02    1.38 
  -4  -1   1   51.14    1.19 
  -4  -1   1   51.68    1.24 
  -4   1   1   53.46    1.42 
   4   1  -1   52.80    1.19 
   4   1  -1   54.12    1.20 
   4   1  -1   53.27    1.22 
   4   1  -1   52.45    1.21 
  -4   1   1   53.43    1.36 
  -4   1   1   51.37    1.38 
  -4   1   1   51.14    1.39 
   3  -1  -1   19.34    0.67 
  -3  -1   1   18.58    0.48 
   3  -1  -1   19.14    0.68 
   3  -1  -1   18.85    0.65 
   3  -1  -1   18.14    0.65 
  -3  -1   1   19.24    0.51 
  -3  -1   1   20.20    0.49 
  -3  -1   1   18.13    0.51 
   3   1  -1   19.74    0.50 
  -3   1   1   19.11    0.64 
   3   1  -1   19.09    0.48 
  -3   1   1   19.22    0.68 
  -3   1   1   18.32    0.66 
   3   1  -1   18.46    0.50 
  -3   1   1   19.46    0.69 
   3   1  -1   18.78    0.48 
   2  -1  -1  626.98   12.04 
   2  -1  -1  607.84   12.04 
   2  -1  -1  576.75   12.10 
  -2   1   1  604.09   12.02 
  -2   1   1  593.72   12.06 
  -2   1   1  605.97   12.04 
  -2   1   1  616.55   12.02 
   1  -1  -1   12.37    0.41 
   1  -1  -1   12.43    0.44 
   1  -1  -1   11.79    0.41 
   1  -1  -1   12.07    0.41 
  -1  -1   1   12.78    0.27 
   1   1  -1   13.18    0.27 
  -1   1   1   12.65    0.40 
  -1   1   1   12.15    0.43 
  -1   1   1   12.20    0.42 
   0  -1   1   37.18    0.82 
   0  -1  -1   36.90    0.84 
   0  -1  -1   37.60    0.83 
   0  -1   1   37.67    0.83 
   0  -1   1   39.77    0.84 
   0  -1  -1   38.84    0.84 
   0   1  -1   37.45    0.83 
   0   1  -1   37.85    0.84 
   0   1   1   37.72    0.85 
   0   1  -1   35.01    0.82 
   1  -1   1    8.15    0.33 
  -1  -1  -1    7.83    0.25 
  -1  -1  -1    8.03    0.25 
  -1  -1  -1    7.96    0.26 
   1  -1   1    7.82    0.33 
  -1  -1  -1    7.96    0.24 
   1   1   1    7.67    0.25 
   1   1   1    8.09    0.25 
  -1   1  -1    7.35    0.34 
   1   1   1    8.13    0.25 
  -1   1  -1    7.81    0.35 
  -1   1  -1    8.14    0.35 
   1   1   1    8.01    0.25 
  -2  -1  -1  519.84   10.36 
  -2  -1  -1  505.85   10.34 
  -2  -1  -1  533.51   10.35 
   2  -1   1  519.13   10.45 
   2  -1   1  533.78   10.49 
  -2   1  -1  539.44   10.47 
  -2   1  -1  517.46   10.62 
   2   1   1  532.19   10.35 
   2   1   1  509.84   10.34 
  -2   1  -1  546.43   10.49 
   2   1   1  530.98   10.35 
  -2   1  -1  499.83   10.54 
   3  -1   1   67.58    1.64 
  -3  -1  -1   68.02    1.50 
  -3  -1  -1   68.81    1.54 
  -3  -1  -1   69.12    1.55 
   3  -1   1   68.34    1.68 
   3  -1   1   68.80    1.64 
  -3  -1  -1   68.87    1.51 
   3  -1   1   68.88    1.67 
  -3   1  -1   69.80    1.68 
   3   1   1   67.97    1.52 
   3   1   1   70.22    1.53 
   3   1   1   70.97    1.53 
  -3   1  -1   70.71    1.66 
  -3   1  -1   68.26    1.63 
   3   1   1   67.74    1.50 
   4  -1   1  101.55    2.33 
  -4  -1  -1   96.33    2.33 
   4  -1   1   98.32    2.32 
   4  -1   1   99.77    2.35 
   4  -1   1  101.55    2.33 
  -4  -1  -1   96.88    2.21 
  -4  -1  -1  102.81    2.17 
  -4  -1  -1   99.92    2.18 
   4   1   1   99.87    2.18 
  -4   1  -1  102.44    2.35 
   4   1   1   99.25    2.19 
  -4   1  -1   96.53    2.34 
  -4   1  -1  101.15    2.37 
   4   1   1  100.89    2.17 
   5  -1   1   18.51    0.87 
   5  -1   1   17.84    0.81 
  -5  -1  -1   18.13    0.70 
   5  -1   1   18.06    0.79 
  -5  -1  -1   18.53    0.68 
  -5  -1  -1   18.32    0.65 
   5  -1   1   18.42    0.78 
   5   1   1   17.60    0.66 
  -5   1  -1   17.15    0.84 
   5   1   1   19.43    0.68 
  -5   1  -1   17.36    0.83 
  -5   1  -1   18.38    0.76 
  -5   1  -1   18.56    0.86 
   5   1   1   18.62    0.65 
  -6  -1  -1   -0.39    0.31 
   6  -1   1    0.14    0.34 
  -6  -1  -1    0.34    0.28 
  -6  -1  -1    0.27    0.28 
   6  -1   1    0.18    0.36 
   6  -1   1    0.51    0.41 
   6  -1   1    0.05    0.30 
  -6  -1  -1    0.05    0.23 
  -6   1  -1    0.24    0.25 
  -6   1  -1    0.34    0.42 
   6   1   1    0.02    0.24 
  -6   1  -1   -0.37    0.40 
  -6   1  -1    0.12    0.35 
   6   1   1    0.08    0.26 
   6   1   1   -0.05    0.23 
   6   1   1    0.12    0.27 
   7  -1   1    0.78    0.46 
   7  -1   1    1.08    0.41 
   7  -1   1    0.31    0.49 
  -7  -1  -1    1.55    0.44 
   7  -1   1    1.32    0.45 
  -7  -1  -1    1.38    0.35 
  -7  -1  -1    1.39    0.39 
  -7   1  -1    1.73    0.51 
  -7   1  -1    2.20    0.58 
   7   1   1    1.56    0.38 
   7   1   1    1.42    0.34 
  -7   1  -1    1.83    0.53 
  -7   1  -1    1.36    0.42 
   7   1   1    2.14    0.38 
  -8  -1  -1    1.51    0.41 
   8  -1   1    0.26    0.59 
   8  -1   1    0.68    0.50 
  -8  -1  -1    2.06    0.49 
   8  -1   1    1.23    0.60 
  -8  -1  -1    0.71    0.49 
  -8   1  -1    0.90    0.61 
   8   1   1    0.98    0.67 
  -8   1  -1    0.78    0.49 
   8   1   1    1.50    0.42 
   8   1   1    0.67    0.41 
  -8   1  -1    2.42    0.71 
  -9  -1  -1    0.67    0.54 
   9  -1   1    2.20    0.67 
   9   1   1    2.04    0.52 
  -9   1  -1    1.38    0.77 
   9  -2  -1    0.70    0.71 
  -9  -2   1    0.23    0.44 
   9   2  -1    0.32    0.46 
   9   2  -1    0.37    0.38 
  -9   2   1   -0.85    0.75 
   8  -2  -1    0.55    0.56 
   8  -2  -1    0.77    0.67 
  -8  -2   1    1.25    0.31 
  -8  -2   1    1.38    0.40 
   8  -2  -1    1.39    0.57 
  -8  -2   1    0.26    0.42 
   8   2  -1    1.24    0.24 
  -8   2   1    0.84    0.52 
  -8   2   1    1.40    0.66 
  -8   2   1    1.36    0.63 
   8   2  -1    1.17    0.38 
   8   2  -1    0.66    0.32 
  -7  -2   1    6.30    0.62 
  -7  -2   1    5.97    0.55 
   7  -2  -1    6.72    0.99 
  -7  -2   1    5.24    0.46 
   7  -2  -1    4.79    0.86 
   7  -2  -1    5.18    0.94 
  -7  -2   1    5.10    0.41 
   7  -2  -1    6.35    0.84 
  -7   2   1    5.61    0.80 
  -7   2   1    3.54    0.65 
   7   2  -1    5.42    0.49 
   7   2  -1    6.09    0.31 
  -7   2   1    5.61    0.91 
   7   2  -1    6.12    0.32 
   7   2  -1    5.75    0.53 
  -7   2   1    5.69    0.97 
   6  -2  -1    5.23    0.67 
  -6  -2   1    3.74    0.44 
  -6  -2   1    4.32    0.41 
  -6  -2   1    3.97    0.32 
   6  -2  -1    4.70    0.59 
   6  -2  -1    3.43    0.56 
  -6  -2   1    3.79    0.30 
   6  -2  -1    4.09    0.67 
   6   2  -1    4.12    0.40 
   6   2  -1    3.96    0.38 
  -6   2   1    5.00    0.66 
  -6   2   1    3.97    0.64 
  -6   2   1    4.67    0.65 
  -6   2   1    4.01    0.58 
   5  -2  -1   12.43    0.74 
   5  -2  -1   12.49    0.76 
   5  -2  -1   11.54    0.74 
  -5  -2   1   12.13    0.48 
   5  -2  -1   12.80    0.80 
  -5  -2   1   11.14    0.34 
  -5  -2   1   11.89    0.48 
  -5  -2   1   12.65    0.34 
   5   2  -1   12.48    0.44 
  -5   2   1   12.44    0.82 
  -5   2   1   12.57    0.72 
   5   2  -1   11.82    0.45 
  -5   2   1   11.39    0.78 
  -5   2   1   13.92    0.79 
   4  -2  -1  160.17    3.56 
   4  -2  -1  157.60    3.57 
   4  -2  -1  161.96    3.61 
  -4  -2   1  158.33    3.26 
  -4  -2   1  162.87    3.26 
   4  -2  -1  160.60    3.59 
  -4   2   1  162.03    3.61 
   4   2  -1  155.95    3.23 
  -4   2   1  157.24    3.54 
  -4   2   1  158.08    3.59 
   4   2  -1  162.08    3.24 
  -4   2   1  158.39    3.57 
   3  -2  -1    1.07    0.30 
   3  -2  -1    1.08    0.26 
   3  -2  -1    1.48    0.28 
   3  -2  -1    1.15    0.27 
  -3  -2   1    1.78    0.15 
  -3  -2   1    1.43    0.15 
   3   2  -1    1.26    0.12 
  -3   2   1    1.97    0.39 
  -3   2   1    1.20    0.29 
   3   2  -1    1.57    0.13 
  -3   2   1    1.23    0.32 
  -3   2   1    0.82    0.25 
  -2  -2   1   77.59    1.57 
   2  -2  -1   75.27    1.80 
   2  -2  -1   74.01    1.83 
   2  -2  -1   78.93    1.84 
   2  -2  -1   77.36    1.84 
   2   2  -1   81.63    1.57 
  -2   2   1   78.14    1.85 
  -2   2   1   79.15    1.83 
   2   2  -1   76.20    1.57 
  -2   2   1   74.96    1.94 
  -2   2   1   77.09    1.81 
  -1  -2   1    2.24    0.17 
   1  -2  -1    2.32    0.31 
   1  -2  -1    2.67    0.32 
   1  -2  -1    2.78    0.32 
  -1  -2   1    2.81    0.20 
   1  -2  -1    3.13    0.32 
  -1  -2   1    2.92    0.19 
   1   2  -1    3.00    0.19 
  -1   2   1    2.45    0.29 
   1   2  -1    2.80    0.18 
  -1   2   1    2.20    0.31 
  -1   2   1    2.58    0.31 
  -1   2   1    2.60    0.28 
   1   2  -1    2.56    0.19 
   0  -2  -1    0.69    0.16 
   0  -2   1    0.75    0.16 
   0  -2   1    0.70    0.14 
   0  -2   1    0.58    0.15 
   0  -2   1    0.51    0.14 
   0  -2  -1    0.49    0.17 
   0  -2  -1    0.66    0.16 
   0   2   1    0.80    0.16 
   0   2  -1    0.69    0.16 
   0   2   1    0.87    0.17 
   0   2  -1    0.56    0.14 
   0   2  -1    0.57    0.15 
   0   2   1    0.75    0.16 
   0   2  -1    0.49    0.15 
   0   2   1    0.60    0.14 
   1  -2   1   40.02    1.03 
  -1  -2  -1   39.37    0.93 
  -1  -2  -1   40.75    0.90 
   1  -2   1   39.54    1.01 
  -1  -2  -1   39.26    0.91 
  -1  -2  -1   38.12    0.93 
   1  -2   1   38.49    1.02 
   1  -2   1   37.85    1.00 
   1   2   1   40.19    0.92 
   1   2   1   38.77    0.91 
  -1   2  -1   40.43    1.03 
   1   2   1   38.84    0.91 
  -1   2  -1   39.07    1.00 
  -1   2  -1   39.91    1.04 
   1   2   1   39.07    0.92 
  -2  -2  -1    0.21    0.11 
   2  -2   1   -0.03    0.19 
   2  -2   1   -0.28    0.18 
  -2  -2  -1    0.10    0.11 
  -2  -2  -1    0.16    0.11 
   2  -2   1    0.10    0.22 
  -2  -2  -1    0.15    0.10 
   2  -2   1    0.07    0.17 
   2   2   1    0.24    0.11 
   2   2   1    0.22    0.10 
  -2   2  -1    0.18    0.22 
  -2   2  -1   -0.01    0.21 
  -2   2  -1    0.12    0.21 
   2   2   1    0.11    0.10 
   2   2   1    0.09    0.10 
  -2   2  -1   -0.14    0.15 
   3  -2   1   80.43    1.94 
   3  -2   1   79.23    1.97 
  -3  -2  -1   80.10    1.66 
  -3  -2  -1   77.05    1.68 
  -3  -2  -1   81.01    1.72 
   3  -2   1   77.23    1.92 
  -3  -2  -1   80.56    1.71 
   3   2   1   78.97    1.70 
  -3   2  -1   77.47    1.96 
   3   2   1   80.80    1.65 
   3   2   1   83.97    1.71 
  -3   2  -1   80.07    1.98 
  -3   2  -1   78.94    1.95 
  -3   2  -1   77.13    1.91 
  -4  -2  -1   31.47    0.84 
   4  -2   1   33.03    1.10 
   4  -2   1   31.12    1.12 
  -4  -2  -1   32.64    0.77 
  -4  -2  -1   31.58    0.78 
  -4  -2  -1   30.13    0.84 
   4  -2   1   29.98    1.05 
  -4   2  -1   30.63    1.12 
  -4   2  -1   32.70    1.12 
   4   2   1   32.25    0.77 
   4   2   1   32.31    0.83 
  -4   2  -1   31.27    1.08 
   4   2   1   31.42    0.74 
   4   2   1   31.18    0.81 
   5  -2   1   11.66    0.75 
  -5  -2  -1   12.31    0.55 
   5  -2   1   12.96    0.83 
   5  -2   1   12.76    0.76 
  -5  -2  -1   12.75    0.49 
   5  -2   1   12.11    0.81 
  -5  -2  -1   12.81    0.47 
  -5  -2  -1   11.79    0.54 
   5   2   1   12.51    0.53 
   5   2   1   12.03    0.50 
  -5   2  -1   10.74    0.79 
   5   2   1   12.36    0.51 
  -5   2  -1   12.42    0.84 
  -5   2  -1   13.36    0.87 
   5   2   1   12.59    0.52 
   6  -2   1   12.59    0.86 
  -6  -2  -1   12.74    0.54 
  -6  -2  -1   13.04    0.65 
   6  -2   1   14.28    0.95 
  -6  -2  -1   11.85    0.57 
   6  -2   1   11.88    1.00 
   6  -2   1   12.86    0.86 
  -6   2  -1   13.34    0.83 
   6   2   1   12.18    0.59 
   6   2   1   12.79    0.51 
  -6   2  -1   13.68    1.02 
  -6   2  -1   12.67    0.98 
   6   2   1   12.83    0.54 
  -6   2  -1   13.77    0.96 
  -7  -2  -1    1.47    0.32 
   7  -2   1    1.36    0.56 
   7  -2   1    2.23    0.65 
   7  -2   1    1.04    0.49 
   7  -2   1    1.66    0.72 
  -7  -2  -1    1.56    0.37 
  -7  -2  -1    1.59    0.39 
   7   2   1    1.54    0.36 
  -7   2  -1    1.32    0.66 
  -7   2  -1    0.51    0.52 
  -7   2  -1    2.15    0.58 
   7   2   1    1.31    0.31 
   7   2   1    1.41    0.32 
  -7   2  -1    1.95    0.51 
  -8  -2  -1    0.06    0.45 
  -8  -2  -1    0.85    0.36 
  -8  -2  -1   -0.22    0.38 
   8  -2   1    0.90    0.53 
   8  -2   1    0.89    0.51 
   8   2   1    0.14    0.34 
   8   2   1    0.19    0.40 
   8   2   1   -0.13    0.32 
  -8   2  -1    0.83    0.72 
  -8   2  -1   -0.11    0.53 
  -9  -2  -1    3.32    0.59 
   9  -2   1    2.30    0.71 
  -9   2  -1    2.36    0.91 
   9   2   1    4.20    0.69 
   9  -3  -1    1.98    0.84 
  -9  -3   1    2.33    0.47 
   9   3  -1    2.78    0.44 
   9   3  -1    2.56    0.38 
  -9   3   1    1.74    0.95 
   8  -3  -1    0.44    1.03 
  -8  -3   1    0.30    0.33 
   8  -3  -1   -0.58    0.69 
  -8  -3   1    0.34    0.38 
  -8   3   1    0.09    0.84 
   8   3  -1   -0.23    0.26 
   7  -3  -1    0.95    0.56 
  -7  -3   1   -0.03    0.27 
   7  -3  -1    0.01    0.60 
   7  -3  -1    0.69    0.56 
  -7  -3   1    0.65    0.30 
   7  -3  -1    1.40    0.68 
  -7   3   1    0.54    0.71 
  -7   3   1    0.99    0.77 
  -7   3   1    1.72    0.71 
   7   3  -1    0.78    0.22 
   7   3  -1    0.29    0.24 
  -7   3   1    1.28    0.59 
   6  -3  -1   49.85    1.81 
  -6  -3   1   48.27    1.20 
  -6  -3   1   51.01    1.20 
   6  -3  -1   49.59    1.71 
   6  -3  -1   50.32    1.75 
   6  -3  -1   50.37    1.71 
   6   3  -1   51.20    1.15 
   6   3  -1   48.76    1.13 
  -6   3   1   50.68    1.68 
  -6   3   1   49.50    1.79 
  -6   3   1   49.73    1.78 
  -6   3   1   49.53    1.76 
   5  -3  -1    3.64    0.56 
   5  -3  -1    1.96    0.39 
  -5  -3   1    2.91    0.26 
   5  -3  -1    2.74    0.47 
   5  -3  -1    3.88    0.64 
  -5  -3   1    2.49    0.26 
  -5   3   1    2.28    0.45 
   5   3  -1    2.69    0.20 
   5   3  -1    3.17    0.22 
  -5   3   1    2.48    0.53 
  -5   3   1    1.90    0.51 
  -5   3   1    3.13    0.56 
   4  -3  -1    0.06    0.33 
   4  -3  -1    0.03    0.30 
  -4  -3   1    0.13    0.12 
   4  -3  -1    0.25    0.41 
  -4  -3   1    0.10    0.11 
   4  -3  -1   -0.19    0.34 
  -4   3   1   -0.08    0.31 
  -4   3   1   -0.11    0.37 
  -4   3   1   -0.03    0.34 
  -4   3   1    0.09    0.30 
  -3  -3   1   14.35    0.42 
   3  -3  -1   13.87    0.74 
   3  -3  -1   14.78    0.76 
  -3  -3   1   15.24    0.40 
   3  -3  -1   15.21    0.79 
   3  -3  -1   14.17    0.76 
   3   3  -1   13.90    0.38 
  -3   3   1   14.01    0.71 
  -3   3   1   15.57    0.79 
  -3   3   1   14.56    0.76 
   3   3  -1   14.88    0.38 
  -3   3   1   14.98    0.77 
  -2  -3   1    2.04    0.14 
  -2  -3   1    2.30    0.17 
   2  -3  -1    2.32    0.37 
   2  -3  -1    1.41    0.26 
  -2  -3   1    1.97    0.24 
  -2  -3   1    1.89    0.22 
   2  -3  -1    1.80    0.30 
   2  -3  -1    2.36    0.36 
  -2   3   1    1.78    0.31 
  -2   3   1    2.31    0.41 
   2   3  -1    2.12    0.22 
  -2   3   1    1.40    0.24 
   2   3  -1    2.14    0.21 
  -2   3   1    1.68    0.31 
  -1  -3   1   13.08    0.49 
   1  -3  -1   13.19    0.61 
   1  -3  -1   13.46    0.58 
  -1  -3   1   13.69    0.46 
  -1  -3   1   13.46    0.49 
   1  -3  -1   12.98    0.59 
   1  -3  -1   12.18    0.60 
  -1  -3   1   13.61    0.44 
  -1   3   1   12.44    0.58 
   1   3  -1   14.22    0.48 
   1   3  -1   14.09    0.46 
   1   3  -1   13.88    0.47 
  -1   3   1   13.13    0.61 
   1   3  -1   13.49    0.46 
   0  -3  -1    0.19    0.21 
   0  -3  -1    0.16    0.18 
   0  -3  -1    0.02    0.16 
   0  -3   1   -0.02    0.17 
   0  -3   1    0.19    0.17 
   0  -3   1    0.19    0.20 
   0  -3  -1    0.06    0.18 
   0  -3   1   -0.10    0.16 
   0   3   1   -0.09    0.19 
   0   3   1    0.15    0.18 
   0   3  -1    0.06    0.18 
   0   3  -1    0.19    0.17 
   0   3   1    0.12    0.18 
   0   3   1    0.06    0.18 
   0   3  -1    0.11    0.18 
   0   3  -1    0.03    0.17 
  -1  -3  -1   25.59    0.74 
   1  -3   1   27.94    0.85 
  -1  -3  -1   27.08    0.72 
   1  -3   1   26.76    0.87 
   1  -3   1   26.44    0.87 
   1  -3   1   26.70    0.84 
  -1  -3  -1   25.82    0.78 
  -1   3  -1   25.72    0.83 
   1   3   1   26.20    0.75 
   1   3   1   23.88    0.78 
  -1   3  -1   26.36    0.87 
   1   3   1   26.36    0.74 
  -1   3  -1   26.60    0.94 
   1   3   1   27.88    0.74 
  -2  -3  -1   11.19    0.40 
   2  -3   1   10.02    0.59 
  -2  -3  -1   10.53    0.41 
   2  -3   1   11.24    0.63 
   2  -3   1   10.05    0.58 
  -2  -3  -1   10.55    0.36 
   2  -3   1   11.19    0.60 
  -2   3  -1   10.67    0.60 
  -2   3  -1   10.95    0.58 
  -2   3  -1   11.11    0.62 
   2   3   1   10.26    0.41 
  -2   3  -1   10.73    0.61 
   2   3   1   10.49    0.39 
   2   3   1   11.13    0.37 
   2   3   1   10.85    0.38 
  -3  -3  -1    0.83    0.17 
   3  -3   1    0.50    0.31 
  -3  -3  -1    1.07    0.19 
   3  -3   1    0.55    0.31 
   3  -3   1    0.52    0.31 
  -3  -3  -1    0.71    0.13 
  -3  -3  -1    0.56    0.22 
   3  -3   1    0.67    0.27 
  -3   3  -1    0.88    0.31 
  -3   3  -1    0.53    0.35 
   3   3   1    0.80    0.15 
  -3   3  -1    0.38    0.32 
  -3   3  -1    0.80    0.30 
   3   3   1    0.79    0.15 
   4  -3   1   -0.13    0.37 
  -4  -3  -1    0.61    0.18 
   4  -3   1    0.46    0.33 
   4  -3   1    0.71    0.32 
  -4  -3  -1    0.54    0.18 
   4  -3   1    0.60    0.37 
   4   3   1    0.68    0.17 
  -4   3  -1    0.27    0.39 
   4   3   1    0.48    0.15 
  -4   3  -1    0.43    0.37 
  -4   3  -1    0.20    0.32 
  -4   3  -1    0.24    0.30 
  -5  -3  -1    5.70    0.41 
   5  -3   1    5.14    0.66 
   5  -3   1    5.77    0.79 
   5  -3   1    4.81    0.69 
  -5  -3  -1    5.63    0.40 
   5  -3   1    4.78    0.73 
   5   3   1    5.34    0.37 
   5   3   1    5.56    0.35 
  -5   3  -1    5.91    0.76 
  -5   3  -1    5.97    0.83 
  -5   3  -1    5.03    0.69 
  -5   3  -1    5.39    0.85 
  -6  -3  -1    2.96    0.46 
   6  -3   1    3.88    0.65 
   6  -3   1    3.23    0.57 
  -6  -3  -1    3.60    0.47 
   6  -3   1    3.18    0.72 
   6  -3   1    3.69    0.69 
  -6   3  -1    5.12    0.82 
  -6   3  -1    4.28    0.76 
  -6   3  -1    3.84    0.75 
   6   3   1    3.74    0.42 
  -6   3  -1    2.97    0.60 
   6   3   1    4.18    0.39 
   7  -3   1   21.98    1.30 
   7  -3   1   19.75    1.27 
   7  -3   1   22.83    1.49 
   7  -3   1   24.23    1.55 
  -7  -3  -1   19.97    0.83 
  -7  -3  -1   19.80    0.85 
  -7   3  -1   20.26    1.43 
  -7   3  -1   20.51    1.44 
  -7   3  -1   19.62    1.26 
  -7   3  -1   20.27    1.54 
   7   3   1   20.95    0.79 
   7   3   1   20.94    0.76 
   8  -3   1    4.13    0.84 
  -8  -3  -1    6.99    0.78 
  -8  -3  -1    4.68    0.70 
   8   3   1    4.45    0.68 
  -8   3  -1    6.56    1.09 
   8   3   1    4.69    0.57 
   8  -4  -1   13.07    1.51 
  -8   4   1   12.62    1.81 
   7  -4  -1    6.72    1.23 
   7  -4  -1    4.95    0.82 
   7  -4  -1    9.51    1.57 
   7  -4  -1    5.58    1.18 
  -7   4   1    5.23    0.89 
  -7   4   1    4.64    0.97 
  -7   4   1    4.38    0.85 
  -7   4   1    5.38    0.97 
   6  -4  -1    4.32    0.87 
   6  -4  -1    3.58    0.75 
   6  -4  -1    2.50    0.84 
   6  -4  -1    2.94    0.61 
  -6   4   1    4.09    0.77 
  -6   4   1    3.54    0.83 
  -6   4   1    3.33    0.78 
  -6   4   1    4.88    0.71 
   5  -4  -1    0.54    0.45 
   5  -4  -1    1.33    0.46 
   5  -4  -1    1.36    0.92 
   5  -4  -1    1.36    0.63 
  -5   4   1   -0.35    0.50 
  -5   4   1    0.10    0.42 
  -5   4   1    0.52    0.58 
  -5   4   1    0.55    0.54 
   4  -4  -1    0.35    0.48 
   4  -4  -1    0.41    0.48 
   4  -4  -1    0.10    0.37 
   4  -4  -1   -0.24    0.40 
  -4  -4   1    0.13    0.14 
  -4  -4   1    0.04    0.16 
  -4   4   1    0.16    0.47 
  -4   4   1    0.71    0.41 
  -4   4   1    0.14    0.42 
  -4   4   1   -0.70    0.35 
   3  -4  -1   47.56    1.52 
  -3  -4   1   47.92    1.14 
   3  -4  -1   48.65    1.57 
   3  -4  -1   47.01    1.55 
  -3  -4   1   48.61    1.12 
   3   4  -1   50.29    1.09 
  -3   4   1   48.53    1.57 
   3   4  -1   46.26    1.09 
  -3   4   1   46.25    1.48 
  -2  -4   1   23.39    0.73 
   2  -4  -1   22.88    0.97 
   2  -4  -1   24.09    1.02 
   2  -4  -1   25.03    0.97 
  -2  -4   1   23.06    0.61 
  -2  -4   1   24.20    0.75 
  -2  -4   1   23.82    0.63 
   2  -4  -1   24.13    0.96 
   2   4  -1   23.56    0.70 
   2   4  -1   23.39    0.70 
  -2   4   1   25.19    0.98 
  -2   4   1   23.21    0.97 
   2   4  -1   24.31    0.56 
   2   4  -1   23.76    0.56 
  -2   4   1   23.96    1.00 
  -2   4   1   23.13    0.95 
  -1  -4   1    1.00    0.27 
  -1  -4   1    1.25    0.25 
   1  -4  -1    1.33    0.30 
  -1  -4   1    1.10    0.22 
   1  -4  -1    1.13    0.30 
   1  -4  -1    1.33    0.34 
  -1  -4   1    1.06    0.26 
   1  -4  -1    1.09    0.32 
   1   4  -1    0.90    0.25 
  -1   4   1    1.50    0.36 
   1   4  -1    1.12    0.25 
   1   4  -1    1.36    0.25 
  -1   4   1    1.04    0.31 
   1   4  -1    1.02    0.24 
   0  -4   1    4.55    0.43 
   0  -4  -1    3.63    0.50 
   0  -4  -1    3.65    0.46 
   0  -4  -1    4.42    0.43 
   0  -4  -1    4.33    0.50 
   0  -4   1    4.23    0.48 
   0  -4   1    4.26    0.50 
   0  -4   1    4.72    0.45 
   0   4   1    3.96    0.47 
   0   4   1    5.10    0.48 
   0   4  -1    4.40    0.46 
   0   4   1    4.16    0.46 
   0   4   1    4.22    0.49 
   0   4  -1    4.19    0.44 
   1  -4   1   -0.01    0.27 
   1  -4   1    0.22    0.27 
  -1  -4  -1   -0.19    0.23 
   1  -4   1   -0.46    0.28 
  -1  -4  -1   -0.10    0.23 
   1  -4   1    0.14    0.26 
  -1  -4  -1   -0.01    0.23 
  -1  -4  -1   -0.36    0.18 
   1   4   1    0.08    0.21 
  -1   4  -1    0.42    0.26 
   1   4   1   -0.02    0.22 
  -1   4  -1   -0.10    0.28 
   1   4   1    0.26    0.25 
   1   4   1   -0.31    0.19 
  -1   4  -1   -0.04    0.25 
  -1   4  -1   -0.01    0.26 
   2  -4   1    7.46    0.63 
  -2  -4  -1    7.42    0.39 
  -2  -4  -1    7.76    0.46 
  -2  -4  -1    7.27    0.49 
   2  -4   1    7.67    0.68 
   2  -4   1    8.57    0.68 
   2  -4   1    8.21    0.66 
   2   4   1    7.62    0.44 
   2   4   1    8.31    0.39 
  -2   4  -1    8.54    0.67 
  -2   4  -1    8.56    0.65 
  -2   4  -1    6.83    0.67 
   2   4   1    7.12    0.44 
   2   4   1    7.82    0.43 
   3  -4   1   -0.30    0.29 
  -3  -4  -1   -0.02    0.22 
  -3  -4  -1    0.22    0.13 
  -3  -4  -1    0.55    0.15 
   3  -4   1   -0.12    0.39 
  -3  -4  -1    0.31    0.21 
   3  -4   1    0.46    0.44 
   3   4   1    0.30    0.18 
  -3   4  -1   -0.09    0.37 
  -3   4  -1    0.13    0.33 
   3   4   1    0.44    0.19 
  -3   4  -1    0.62    0.43 
   4  -4   1    0.38    0.44 
   4  -4   1    0.15    0.44 
   4  -4   1    0.32    0.53 
  -4  -4  -1    0.30    0.21 
   4  -4   1    0.15    0.38 
  -4  -4  -1   -0.22    0.21 
   4   4   1    0.77    0.33 
  -4   4  -1    0.59    0.39 
   4   4   1    0.24    0.17 
  -4   4  -1    0.18    0.50 
  -4   4  -1   -0.19    0.33 
  -4   4  -1    0.05    0.51 
   5  -4   1    5.88    0.86 
  -5  -4  -1    5.66    0.44 
   5  -4   1    5.08    0.68 
   5  -4   1    6.33    1.02 
  -5  -4  -1    5.93    0.45 
   5  -4   1    5.77    1.05 
  -5   4  -1    4.75    0.86 
  -5   4  -1    6.02    1.05 
   5   4   1    5.37    0.35 
  -5   4  -1    5.25    0.91 
  -5   4  -1    6.37    0.85 
   5   4   1    5.83    0.37 
  -6  -4  -1    0.14    0.25 
   6  -4   1   -0.04    0.71 
   6  -4   1    0.51    0.60 
   6  -4   1    0.71    0.70 
  -6  -4  -1    0.03    0.27 
   6  -4   1    0.17    0.50 
   6   4   1   -0.02    0.22 
  -6   4  -1   -0.07    0.70 
  -6   4  -1    1.20    0.75 
  -6   4  -1    0.86    0.63 
  -6   4  -1    0.47    0.65 
   7  -4   1   -1.19    0.72 
   7  -4   1   -1.50    0.91 
  -7  -4  -1    0.85    0.35 
   7  -4   1    1.09    0.84 
  -7  -4  -1    0.44    0.31 
   7   4   1    0.51    0.25 
  -7   4  -1    0.73    0.98 
   7   4   1    0.39    0.21 
  -7   4  -1    1.36    1.03 
  -7   4  -1    0.07    0.72 
  -7   4  -1   -0.27    0.86 
   8  -4   1    0.14    0.90 
  -8  -4  -1   -0.04    0.36 
  -8  -4  -1    0.31    0.41 
   8   4   1    0.28    0.23 
  -8   4  -1    0.19    1.11 
   8   4   1    0.20    0.28 
   7  -5  -1    0.96    0.93 
  -7   5   1   -0.42    0.82 
   6  -5  -1    1.11    0.71 
  -6   5   1    1.18    0.71 
   5  -5  -1   16.73    1.27 
   5  -5  -1   17.42    1.34 
  -5   5   1   18.15    1.34 
  -5   5   1   16.83    1.25 
  -4  -5   1   16.02    0.56 
   4  -5  -1   16.81    1.14 
  -4  -5   1   16.19    0.54 
   4  -5  -1   16.54    1.19 
   4  -5  -1   15.29    1.27 
  -4   5   1   15.77    1.23 
  -4   5   1   17.14    1.13 
  -4   5   1   17.00    1.21 
  -3  -5   1    1.48    0.30 
   3  -5  -1    1.75    0.60 
  -3  -5   1    0.30    0.25 
   3  -5  -1    0.47    0.50 
   3  -5  -1    0.67    0.46 
  -3   5   1    0.06    0.45 
  -3   5   1    0.58    0.48 
   3   5  -1    0.29    0.21 
  -3   5   1    1.59    0.54 
   3   5  -1    0.71    0.22 
  -2  -5   1    0.80    0.21 
  -2  -5   1    0.70    0.24 
   2  -5  -1    0.68    0.44 
   2  -5  -1    0.58    0.47 
  -2  -5   1    0.50    0.30 
  -2  -5   1    0.82    0.32 
   2  -5  -1    0.77    0.40 
  -2   5   1    1.17    0.43 
  -2   5   1    0.43    0.40 
   2   5  -1    0.50    0.26 
  -2   5   1    0.92    0.48 
   2   5  -1    0.70    0.27 
   1  -5  -1   13.34    0.84 
   1  -5  -1   13.04    0.87 
  -1  -5   1   12.22    0.71 
   1  -5  -1   13.60    0.81 
  -1  -5   1   12.40    0.69 
  -1  -5   1   11.06    0.71 
   1   5  -1   13.47    0.63 
   1   5  -1   12.88    0.67 
   1   5  -1   12.82    0.67 
  -1   5   1   13.02    0.81 
  -1   5   1   12.25    0.80 
  -1   5   1   13.57    0.85 
   1   5  -1   13.13    0.67 
   0  -5  -1   13.99    0.82 
   0  -5   1   13.15    0.81 
   0  -5  -1   13.63    0.77 
   0  -5   1   14.86    0.76 
   0  -5   1   13.70    0.79 
   0   5  -1   14.24    0.76 
   0   5   1   13.63    0.80 
   0   5  -1   13.29    0.74 
   0   5   1   13.49    0.76 
   0   5   1   14.58    0.78 
   0   5  -1   13.26    0.77 
  -1  -5  -1    0.00    0.33 
  -1  -5  -1    0.31    0.32 
   1  -5   1   -0.58    0.34 
   1  -5   1    0.42    0.36 
  -1  -5  -1   -0.26    0.31 
   1  -5   1    0.66    0.42 
   1   5   1    0.33    0.29 
  -1   5  -1    0.41    0.34 
  -1   5  -1    0.34    0.36 
  -1   5  -1    0.28    0.41 
   1   5   1    0.25    0.28 
  -2  -5  -1    1.01    0.34 
   2  -5   1    0.91    0.46 
  -2  -5  -1    1.38    0.33 
  -2  -5  -1    0.96    0.29 
   2  -5   1    1.04    0.52 
   2  -5   1    0.79    0.45 
   2   5   1    1.16    0.30 
   2   5   1    1.22    0.29 
  -2   5  -1    0.61    0.44 
  -2   5  -1    1.07    0.48 
   2   5   1    0.81    0.30 
  -2   5  -1    1.66    0.45 
   2   5   1    1.41    0.31 
  -3  -5  -1    6.48    0.56 
  -3  -5  -1    7.90    0.53 
   3  -5   1    8.90    0.88 
   3  -5   1    9.09    0.91 
   3  -5   1    8.17    1.03 
  -3   5  -1    6.90    0.82 
  -3   5  -1    8.24    0.93 
   3   5   1    6.50    0.50 
  -3   5  -1    6.53    0.90 
   3   5   1    8.44    0.49 
  -4  -5  -1    1.49    0.32 
   4  -5   1    0.85    0.65 
   4  -5   1    1.04    0.57 
   4  -5   1    1.55    0.57 
  -4  -5  -1    1.70    0.30 
   4   5   1    1.55    0.26 
  -4   5  -1    2.26    0.66 
   4   5   1    1.58    0.26 
  -4   5  -1    1.51    0.66 
  -4   5  -1    1.42    0.51 
   5  -5   1    4.27    0.87 
  -5  -5  -1    4.44    0.46 
   5   5   1    3.96    0.34 
   5   5   1    4.19    0.31 
  -5   5  -1    2.85    0.68 
  -5   5  -1    4.91    0.81 
  -6  -5  -1    2.35    0.28 
  -6  -5  -1    2.37    0.39 
   6  -5   1    3.81    0.85 
  -6   5  -1    3.12    0.78 
   5  -6  -1    2.54    0.72 
  -5   6   1    4.04    0.86 
  -4  -6   1    2.33    0.33 
   4  -6  -1    2.89    0.83 
  -4  -6   1    3.33    0.47 
  -4   6   1    2.17    0.72 
  -3  -6   1    2.65    0.43 
   3  -6  -1    3.47    0.75 
  -3  -6   1    3.12    0.43 
   3   6  -1    3.01    0.58 
   3   6  -1    4.08    0.49 
  -3   6   1    4.89    0.77 
   2  -6  -1    3.75    0.71 
  -2  -6   1    4.91    0.64 
  -2  -6   1    4.08    0.60 
  -2  -6   1    4.61    0.70 
   2   6  -1    4.16    0.61 
   2   6  -1    4.62    0.58 
  -2   6   1    5.50    0.94 
  -1  -6   1   -0.12    0.43 
  -1  -6   1    0.88    0.42 
  -1  -6   1   -0.10    0.38 
   1  -6  -1    0.30    0.48 
   1   6  -1    0.32    0.44 
   1   6  -1    0.65    0.42 
  -1   6   1    0.62    0.48 
   1   6  -1   -0.11    0.35 
   0  -6   1    5.52    0.80 
   0  -6  -1    7.28    1.12 
   0  -6   1    6.63    0.88 
   0  -6  -1    7.75    0.82 
   0   6  -1    5.97    0.75 
   0   6  -1    7.40    1.02 
   0   6  -1    7.81    0.78 
   0   6   1    6.83    0.77 
   0   6   1    7.06    0.79 
  -1  -6  -1   16.56    0.93 
  -1  -6  -1   15.26    0.93 
   1  -6   1   16.49    1.05 
  -1  -6  -1   14.52    0.93 
   1   6   1   15.09    0.90 
   1   6   1   15.61    0.86 
  -1   6  -1   16.37    0.99 
   1   6   1   15.98    0.89 
   2  -6   1   -0.07    0.53 
  -2  -6  -1   -0.16    0.43 
  -2  -6  -1   -0.17    0.38 
  -2  -6  -1   -0.26    0.35 
  -2   6  -1    0.50    0.48 
   2   6   1   -0.06    0.34 
   2   6   1    0.44    0.37 
  -3  -6  -1    0.90    0.40 
   3  -6   1    1.14    0.58 
  -3  -6  -1    1.03    0.41 
   3   6   1    0.96    0.36 
  -3   6  -1    0.28    0.58 
   3   6   1    1.33    0.34 
   4  -6   1    4.33    0.83 
  -4  -6  -1    4.50    0.58 
  -4  -6  -1    3.35    0.58 
   4   6   1    2.88    0.46 
   4   6   1    3.29    0.50 
  -4   6  -1    2.61    0.72 
 -10   0   2    3.09    0.76 
  10   0  -2    3.07    0.62 
  -9   0   2    3.65    0.69 
   9   0  -2    3.72    0.57 
   8   0  -2    3.51    0.50 
   8   0  -2    4.36    0.78 
  -8   0   2    2.72    0.56 
   8   0  -2    2.70    0.48 
  -8   0   2    2.41    0.45 
  -8   0   2    2.45    0.52 
  -7   0   2   14.49    0.73 
  -7   0   2   16.27    0.83 
   7   0  -2   15.27    0.83 
   7   0  -2   15.46    0.84 
  -7   0   2   15.20    0.87 
   7   0  -2   15.72    0.76 
   6   0  -2   24.60    0.88 
  -6   0   2   22.45    0.81 
   6   0  -2   23.73    0.88 
  -6   0   2   23.50    0.91 
  -6   0   2   22.02    0.93 
  -6   0   2   23.74    0.88 
   6   0  -2   23.73    0.84 
   6   0  -2   23.61    0.87 
  -5   0   2   66.27    1.60 
   5   0  -2   68.42    1.65 
  -5   0   2   65.36    1.67 
   5   0  -2   67.19    1.62 
  -5   0   2   68.52    1.64 
   5   0  -2   64.81    1.64 
  -5   0   2   66.01    1.68 
   5   0  -2   67.04    1.64 
  -4   0   2  105.74    2.36 
   4   0  -2  112.07    2.35 
  -4   0   2  110.39    2.33 
  -4   0   2   99.48    2.40 
   4   0  -2  102.81    2.33 
   4   0  -2  104.54    2.46 
   4   0  -2  105.69    2.34 
  -4   0   2  108.67    2.37 
  -3   0   2   11.48    0.44 
   3   0  -2   11.90    0.45 
  -3   0   2   12.19    0.43 
  -3   0   2   11.99    0.46 
   3   0  -2   12.70    0.45 
   3   0  -2   11.65    0.43 
  -3   0   2   12.05    0.44 
  -2   0   2   70.11    1.50 
  -2   0   2   68.49    1.51 
   2   0  -2   69.71    1.51 
   2   0  -2   69.09    1.51 
  -2   0   2   70.31    1.52 
   2   0  -2   70.77    1.51 
  -2   0   2   72.61    1.50 
  -1   0   2  329.39    6.74 
  -1   0   2  351.86    6.73 
  -1   0  -2  909.65   19.53 
   1   0   2  968.04   19.60 
  -2   0  -2  423.66    8.60 
  -2   0  -2  429.47    8.57 
  -2   0  -2  425.50    8.58 
   2   0   2  433.06    8.58 
   2   0   2  441.75    8.60 
  -2   0  -2  424.75    8.59 
   2   0   2  429.86    8.58 
   3   0   2   37.52    1.00 
  -3   0  -2   36.66    0.96 
  -3   0  -2   36.18    0.99 
  -3   0  -2   37.15    0.98 
   3   0   2   36.79    0.99 
  -3   0  -2   36.05    0.99 
   3   0   2   36.56    0.96 
   4   0   2  289.76    6.10 
  -4   0  -2  298.21    6.10 
   4   0   2  297.05    6.06 
  -4   0  -2  296.18    6.10 
  -4   0  -2  283.54    6.08 
  -4   0  -2  297.77    6.04 
   5   0   2   76.42    1.90 
  -5   0  -2   75.60    1.83 
  -5   0  -2   77.96    1.89 
  -5   0  -2   72.81    1.90 
   5   0   2   76.59    1.86 
  -5   0  -2   76.24    1.91 
   5   0   2   69.16    1.87 
  -6   0  -2   26.07    1.03 
  -6   0  -2   26.21    1.05 
   6   0   2   25.93    0.97 
   6   0   2   26.36    1.03 
  -6   0  -2   24.81    0.92 
  -6   0  -2   26.28    1.04 
   6   0   2   26.68    1.00 
  -7   0  -2   58.01    1.69 
   7   0   2   60.55    1.83 
  -7   0  -2   59.96    1.80 
  -7   0  -2   61.06    1.86 
   7   0   2   61.72    1.75 
  -7   0  -2   60.29    1.81 
   7   0   2   61.82    1.74 
   8   0   2   14.45    0.96 
   8   0   2   13.42    0.96 
  -8   0  -2   14.69    1.07 
  -8   0  -2   13.32    1.04 
  -8   0  -2   13.89    0.92 
  -9   0  -2    3.39    0.68 
   9   0   2    3.09    0.60 
  10  -1  -2    3.94    0.79 
 -10   1   2    5.30    0.93 
   9  -1  -2   10.83    1.11 
  -9  -1   2    9.72    0.92 
  -9   1   2   10.26    1.20 
   9   1  -2    9.51    0.79 
   9   1  -2   10.00    1.08 
  -8  -1   2    3.50    0.45 
   8  -1  -2    4.25    0.66 
  -8  -1   2    3.57    0.50 
  -8  -1   2    3.92    0.55 
   8  -1  -2    3.46    0.56 
   8  -1  -2    3.54    0.56 
   8   1  -2    4.09    0.58 
  -8   1   2    2.61    0.63 
  -8   1   2    3.80    0.69 
   8   1  -2    3.80    0.62 
  -8   1   2    4.23    0.73 
   8   1  -2    4.58    0.69 
   7  -1  -2   12.28    0.88 
  -7  -1   2   12.27    0.76 
   7  -1  -2   12.95    0.87 
   7  -1  -2   15.64    0.94 
  -7  -1   2   11.32    0.65 
  -7  -1   2   12.65    0.62 
  -7  -1   2   12.60    0.71 
  -7   1   2   11.61    0.77 
   7   1  -2   12.23    0.70 
   7   1  -2   11.42    0.63 
   7   1  -2   13.03    0.64 
  -7   1   2   12.81    0.90 
   7   1  -2   11.64    0.63 
  -7   1   2   14.33    0.95 
  -7   1   2   11.89    0.92 
  -6  -1   2   29.65    0.96 
  -6  -1   2   30.27    0.90 
  -6  -1   2   30.81    0.88 
  -6  -1   2   30.68    0.98 
   6  -1  -2   31.03    1.11 
   6  -1  -2   30.62    1.11 
   6  -1  -2   31.57    1.09 
   6  -1  -2   30.30    1.13 
   6   1  -2   29.09    0.91 
  -6   1   2   30.76    1.12 
  -6   1   2   31.13    1.17 
  -6   1   2   30.39    1.06 
   6   1  -2   30.20    0.89 
   6   1  -2   29.32    0.93 
  -6   1   2   30.37    1.14 
   6   1  -2   32.13    0.89 
   5  -1  -2   19.37    0.81 
  -5  -1   2   19.28    0.66 
  -5  -1   2   20.12    0.63 
  -5  -1   2   20.36    0.69 
   5  -1  -2   20.76    0.84 
   5  -1  -2   19.80    0.81 
   5  -1  -2   20.15    0.81 
  -5  -1   2   20.82    0.62 
   5   1  -2   21.50    0.63 
  -5   1   2   20.46    0.79 
   5   1  -2   20.39    0.65 
  -5   1   2   21.05    0.87 
  -5   1   2   20.58    0.83 
   5   1  -2   19.12    0.64 
   5   1  -2   20.17    0.62 
  -5   1   2   20.23    0.83 
   4  -1  -2   79.55    1.94 
  -4  -1   2   81.41    1.74 
  -4  -1   2   81.35    1.79 
   4  -1  -2   85.01    1.97 
   4  -1  -2   79.33    1.93 
  -4  -1   2   82.39    1.79 
  -4  -1   2   82.78    1.74 
   4  -1  -2   80.53    1.95 
  -4   1   2   81.80    1.93 
  -4   1   2   83.46    1.99 
   4   1  -2   82.33    1.77 
   4   1  -2   77.99    1.76 
  -4   1   2   79.54    1.96 
  -4   1   2   81.76    1.95 
   4   1  -2   80.99    1.74 
   4   1  -2   83.71    1.74 
  -3  -1   2   57.62    1.26 
  -3  -1   2   59.96    1.22 
  -3  -1   2   57.32    1.22 
  -3  -1   2   56.81    1.26 
   3  -1  -2   57.90    1.43 
   3  -1  -2   56.29    1.42 
   3  -1  -2   57.08    1.41 
   3   1  -2   58.16    1.25 
   3   1  -2   59.20    1.21 
   3   1  -2   59.92    1.25 
   3   1  -2   61.10    1.22 
  -3   1   2   57.60    1.42 
  -3   1   2   57.99    1.41 
   2  -1  -2    1.20    0.23 
  -2  -1   2    1.24    0.10 
   2  -1  -2    1.22    0.22 
   2  -1  -2    1.39    0.22 
   2  -1  -2    0.96    0.18 
  -2  -1   2    1.33    0.12 
   2   1  -2    1.13    0.11 
  -2   1   2    0.92    0.18 
  -2   1   2    1.00    0.21 
   2   1  -2    1.27    0.11 
  -2   1   2    1.67    0.24 
   1  -1  -2  352.81    6.99 
   1  -1  -2  347.24    6.98 
  -1  -1   2  340.07    6.87 
  -1  -1   2  338.64    6.85 
   1  -1  -2  346.62    7.09 
   1  -1  -2  363.49    7.00 
  -1   1   2  351.13    7.00 
  -1   1   2  355.20    6.99 
   1   1  -2  348.78    6.87 
   1   1  -2  358.84    6.85 
   1   1  -2  357.42    6.85 
   1   1  -2  327.01    6.86 
  -1   1   2  354.24    7.00 
   0  -1  -2  469.38    9.07 
   0  -1   2  440.94    9.06 
   0  -1  -2  474.05    9.06 
   0  -1  -2  470.63    9.07 
   0  -1  -2  471.05    9.16 
   0  -1   2  461.94    9.05 
   0   1  -2  441.64    9.07 
   0   1  -2  433.33    9.05 
   1  -1   2  140.30    2.95 
   1  -1   2  140.52    2.92 
  -1  -1  -2  143.06    2.89 
   1  -1   2  138.03    2.95 
   1  -1   2  141.10    2.93 
  -1  -1  -2  139.00    2.86 
  -1  -1  -2  139.56    2.87 
  -1  -1  -2  141.89    2.86 
   1   1   2  139.89    2.88 
  -1   1  -2  142.01    2.95 
  -1   1  -2  138.51    2.94 
   1   1   2  142.34    2.86 
   1   1   2  140.71    2.87 
   1   1   2  144.90    2.87 
  -1   1  -2  142.48    2.94 
  -2  -1  -2  174.94    3.61 
  -2  -1  -2  181.83    3.59 
  -2  -1  -2  173.10    3.62 
   2  -1   2  175.35    3.73 
   2  -1   2  169.15    3.77 
  -2  -1  -2  178.06    3.60 
   2  -1   2  179.13    4.01 
   2   1   2  177.72    3.60 
  -2   1  -2  180.55    3.72 
  -2   1  -2  169.79    3.74 
  -2   1  -2  180.73    3.71 
   2   1   2  178.85    3.62 
   2   1   2  177.39    3.60 
   2   1   2  178.19    3.59 
  -3  -1  -2  183.02    3.83 
  -3  -1  -2  180.14    3.79 
   3  -1   2  185.74    3.95 
  -3  -1  -2  182.74    3.80 
  -3  -1  -2  188.90    3.83 
   3  -1   2  188.13    3.92 
   3  -1   2  182.60    3.91 
   3   1   2  179.68    3.79 
  -3   1  -2  184.21    3.94 
   3   1   2  186.82    3.82 
  -3   1  -2  192.60    3.95 
  -3   1  -2  181.02    3.94 
   3   1   2  184.34    3.81 
   3   1   2  179.94    3.80 
  -4  -1  -2  181.91    3.84 
   4  -1   2  182.28    3.97 
   4  -1   2  181.63    3.97 
  -4  -1  -2  185.07    3.83 
   4  -1   2  187.14    4.03 
  -4  -1  -2  181.26    3.88 
  -4  -1  -2  184.04    3.88 
   4   1   2  184.09    3.86 
   4   1   2  187.14    3.86 
  -4   1  -2  178.69    4.00 
  -4   1  -2  187.48    4.00 
   4   1   2  183.30    3.83 
   4   1   2  184.67    3.86 
  -4   1  -2  180.71    4.01 
   5  -1   2  127.13    2.98 
  -5  -1  -2  130.38    2.91 
  -5  -1  -2  128.07    2.86 
   5  -1   2  129.48    3.05 
   5  -1   2  126.95    2.98 
  -5  -1  -2  125.27    2.90 
  -5  -1  -2  133.76    2.84 
   5  -1   2  131.75    3.01 
  -5   1  -2  131.19    2.97 
   5   1   2  132.48    2.84 
  -5   1  -2  132.81    3.04 
  -5   1  -2  127.21    3.03 
   5   1   2  128.57    2.86 
  -5   1  -2  128.28    3.05 
   5   1   2  126.24    2.90 
   5   1   2  129.50    2.87 
  -6  -1  -2   42.73    1.29 
   6  -1   2   43.21    1.39 
   6  -1   2   42.78    1.48 
   6  -1   2   45.22    1.45 
   6  -1   2   42.54    1.40 
  -6  -1  -2   43.18    1.32 
  -6  -1  -2   45.27    1.24 
   6   1   2   42.42    1.26 
  -6   1  -2   43.95    1.47 
  -6   1  -2   42.65    1.35 
   6   1   2   46.04    1.25 
  -6   1  -2   43.92    1.50 
   6   1   2   44.98    1.28 
  -6   1  -2   45.57    1.49 
  -7  -1  -2    9.75    0.68 
   7  -1   2    9.45    0.82 
  -7  -1  -2    9.14    0.74 
   7  -1   2    8.45    0.93 
   7  -1   2    9.46    0.95 
   7  -1   2    9.55    0.95 
   7   1   2   10.26    0.69 
  -7   1  -2   10.80    1.00 
   7   1   2    9.84    0.71 
  -7   1  -2   10.53    0.81 
  -7   1  -2    9.52    1.03 
   7   1   2    9.86    0.73 
  -7   1  -2   11.31    1.03 
   8  -1   2    7.98    0.92 
   8  -1   2    6.82    1.08 
  -8  -1  -2    8.71    0.88 
   8  -1   2    9.12    0.94 
  -8  -1  -2    9.20    0.75 
  -8  -1  -2    8.54    0.99 
  -8   1  -2   10.54    1.19 
   8   1   2    8.03    0.75 
   8   1   2    8.33    0.77 
  -8   1  -2    9.19    0.90 
   8   1   2    8.63    0.81 
  -8   1  -2    9.09    1.13 
  -9  -1  -2   11.19    1.05 
   9  -1   2   10.61    1.17 
  -9   1  -2   11.16    1.37 
   9   1   2   11.86    0.94 
   9  -2  -2    2.86    0.72 
  -9  -2   2    3.56    0.53 
   9   2  -2    3.19    0.45 
   9   2  -2    3.88    0.54 
  -9   2   2    3.61    0.86 
   8  -2  -2   21.99    1.49 
  -8  -2   2   22.55    0.93 
   8  -2  -2   23.75    1.33 
  -8  -2   2   20.29    0.96 
   8  -2  -2   21.82    1.37 
   8   2  -2   21.73    0.89 
   8   2  -2   21.28    0.84 
  -8   2   2   24.45    1.43 
  -8   2   2   22.19    1.22 
  -8   2   2   23.75    1.43 
  -7  -2   2   14.24    0.49 
   7  -2  -2   14.71    1.06 
   7  -2  -2   16.12    1.14 
   7  -2  -2   14.09    1.03 
  -7  -2   2   15.50    0.70 
  -7  -2   2   14.55    0.50 
  -7  -2   2   15.53    0.73 
   7  -2  -2   16.13    1.00 
   7   2  -2   15.65    0.64 
   7   2  -2   16.20    0.66 
  -7   2   2   16.49    1.06 
  -7   2   2   14.00    0.96 
  -7   2   2   14.93    1.05 
  -7   2   2   15.78    1.14 
  -6  -2   2   21.72    0.55 
   6  -2  -2   23.69    1.05 
  -6  -2   2   22.62    0.75 
  -6  -2   2   24.72    0.56 
   6  -2  -2   24.10    1.11 
   6  -2  -2   22.60    1.07 
  -6  -2   2   22.93    0.75 
   6  -2  -2   22.86    1.06 
  -6   2   2   23.63    1.09 
   6   2  -2   22.69    0.71 
  -6   2   2   24.15    1.12 
   6   2  -2   23.28    0.71 
  -6   2   2   23.59    1.12 
  -6   2   2   22.47    1.01 
   5  -2  -2    7.64    0.64 
  -5  -2   2    6.95    0.37 
   5  -2  -2    7.88    0.69 
  -5  -2   2    7.26    0.36 
   5  -2  -2    6.94    0.65 
   5  -2  -2    6.80    0.64 
  -5   2   2    6.97    0.60 
   5   2  -2    6.97    0.33 
   5   2  -2    6.24    0.33 
  -5   2   2    6.88    0.68 
  -5   2   2    6.95    0.69 
  -5   2   2    5.73    0.64 
   4  -2  -2    0.87    0.32 
  -4  -2   2    1.07    0.14 
   4  -2  -2    0.70    0.32 
   4  -2  -2    0.73    0.27 
   4  -2  -2    0.86    0.47 
  -4  -2   2    1.00    0.14 
   4   2  -2    0.97    0.12 
  -4   2   2    0.83    0.34 
   4   2  -2    0.84    0.11 
  -4   2   2    1.18    0.32 
  -4   2   2    0.23    0.26 
  -4   2   2    1.09    0.36 
   3  -2  -2  328.00    6.96 
   3  -2  -2  346.86    6.95 
   3  -2  -2  338.13    6.97 
   3  -2  -2  337.15    6.95 
  -3   2   2  334.74    6.93 
  -3   2   2  339.10    6.94 
  -3   2   2  330.32    6.96 
  -3   2   2  336.70    6.99 
  -2  -2   2  387.60    7.70 
  -2  -2   2  381.71    7.69 
   2  -2  -2  400.11    7.98 
   2  -2  -2  404.31    7.96 
   2   2  -2  394.12    7.69 
  -2   2   2  399.01    8.00 
   2   2  -2  371.81    7.68 
  -2   2   2  399.73    7.97 
  -2   2   2  386.65    7.94 
  -1  -2   2   18.79    0.50 
   1  -2  -2   19.57    0.63 
  -1  -2   2   19.93    0.48 
   1  -2  -2   19.23    0.61 
  -1  -2   2   17.90    0.56 
  -1  -2   2   19.45    0.47 
   1  -2  -2   18.99    0.65 
   1  -2  -2   18.37    0.63 
  -1   2   2   19.55    0.64 
   1   2  -2   18.85    0.51 
   1   2  -2   19.52    0.48 
  -1   2   2   19.04    0.62 
   1   2  -2   19.42    0.48 
   1   2  -2   18.79    0.49 
  -1   2   2   18.65    0.64 
  -1   2   2   18.57    0.63 
   0  -2  -2   63.61    1.41 
   0  -2  -2   60.18    1.42 
   0  -2   2   63.53    1.39 
   0  -2  -2   61.34    1.45 
   0  -2   2   62.15    1.42 
   0  -2  -2   64.27    1.43 
   0  -2   2   61.29    1.41 
   0  -2   2   63.62    1.40 
   0   2   2   61.30    1.43 
   0   2  -2   64.62    1.41 
   0   2  -2   60.84    1.40 
   0   2  -2   61.80    1.41 
   0   2   2   63.20    1.44 
   0   2  -2   62.61    1.40 
   0   2   2   60.65    1.42 
  -1  -2  -2   37.41    0.92 
   1  -2   2   37.43    1.01 
  -1  -2  -2   39.58    0.91 
  -1  -2  -2   37.86    0.93 
  -1  -2  -2   39.19    0.95 
   1  -2   2   38.47    1.02 
   1  -2   2   37.65    1.00 
   1  -2   2   37.76    0.99 
  -1   2  -2   39.91    1.03 
   1   2   2   37.92    0.92 
  -1   2  -2   39.32    1.02 
   1   2   2   38.23    0.93 
   1   2   2   38.67    0.93 
   1   2   2   38.56    0.93 
  -2  -2  -2  287.62    5.79 
  -2  -2  -2  287.48    5.74 
   2  -2   2  297.68    5.92 
   2  -2   2  284.69    5.96 
  -2  -2  -2  284.37    5.75 
   2  -2   2  288.92    5.95 
   2  -2   2  285.02    5.92 
   2   2   2  286.51    5.75 
  -2   2  -2  283.10    5.91 
   2   2   2  266.51    5.75 
  -2   2  -2  295.38    5.95 
   2   2   2  291.11    5.76 
  -2   2  -2  288.11    5.95 
  -2   2  -2  290.37    5.95 
  -3  -2  -2  371.06    7.60 
   3  -2   2  375.29    7.78 
   3  -2   2  374.46    7.80 
  -3  -2  -2  382.61    7.56 
   3  -2   2  391.58    7.79 
  -3  -2  -2  375.08    7.54 
   3  -2   2  378.54    7.83 
  -3  -2  -2  377.40    7.58 
   3   2   2  381.08    7.56 
  -3   2  -2  385.53    7.82 
  -3   2  -2  385.45    7.81 
   3   2   2  372.21    7.53 
   3   2   2  373.64    7.57 
   3   2   2  361.28    7.56 
  -3   2  -2  390.60    7.83 
  -3   2  -2  377.22    7.76 
   4  -2   2   27.26    0.98 
  -4  -2  -2   27.65    0.79 
   4  -2   2   25.68    0.98 
   4  -2   2   27.62    1.01 
  -4  -2  -2   26.53    0.75 
  -4  -2  -2   26.07    0.79 
   4  -2   2   26.99    1.04 
  -4  -2  -2   28.51    0.73 
   4   2   2   27.18    0.75 
   4   2   2   27.08    0.76 
   4   2   2   26.76    0.77 
  -4   2  -2   25.84    0.94 
  -4   2  -2   27.95    1.03 
   4   2   2   27.34    0.72 
  -4   2  -2   26.90    1.04 
  -4   2  -2   26.56    1.02 
   5  -2   2   30.32    1.20 
  -5  -2  -2   27.95    0.89 
  -5  -2  -2   27.26    0.87 
   5  -2   2   27.81    1.13 
  -5  -2  -2   26.84    0.82 
   5  -2   2   26.24    1.08 
   5  -2   2   26.94    1.07 
  -5  -2  -2   28.00    0.80 
  -5   2  -2   27.68    1.17 
  -5   2  -2   27.65    1.12 
  -5   2  -2   29.11    1.21 
  -5   2  -2   26.87    1.04 
   5   2   2   28.07    0.85 
   5   2   2   27.99    0.81 
   5   2   2   28.58    0.78 
   5   2   2   26.13    0.83 
   6  -2   2   52.45    1.67 
  -6  -2  -2   50.01    1.43 
   6  -2   2   54.13    1.75 
   6  -2   2   52.72    1.77 
  -6  -2  -2   51.85    1.36 
   6  -2   2   55.87    1.71 
  -6  -2  -2   51.73    1.45 
  -6  -2  -2   52.52    1.47 
   6   2   2   51.24    1.34 
   6   2   2   53.85    1.41 
  -6   2  -2   54.40    1.79 
   6   2   2   52.55    1.32 
  -6   2  -2   54.60    1.76 
  -6   2  -2   52.33    1.63 
   6   2   2   52.71    1.42 
  -6   2  -2   54.91    1.82 
   7  -2   2   22.59    1.17 
  -7  -2  -2   22.94    0.99 
  -7  -2  -2   22.60    0.84 
   7  -2   2   22.57    1.41 
   7  -2   2   21.90    1.17 
   7  -2   2   23.96    1.35 
  -7  -2  -2   24.04    0.97 
   7   2   2   23.38    0.93 
  -7   2  -2   23.35    1.39 
   7   2   2   20.08    0.80 
  -7   2  -2   25.50    1.19 
   7   2   2   24.22    0.89 
  -7   2  -2   24.22    1.33 
  -7   2  -2   25.35    1.40 
   8  -2   2    6.35    1.04 
  -8  -2  -2    7.67    0.88 
  -8  -2  -2    7.82    0.68 
  -8  -2  -2    6.64    0.77 
   8  -2   2    6.71    1.03 
  -8   2  -2    6.71    0.91 
  -8   2  -2    8.88    1.14 
   8   2   2    6.77    0.78 
   8   2   2    7.65    0.67 
   8   2   2    6.01    0.66 
   9  -2   2    0.57    0.69 
  -9  -2  -2    0.35    0.50 
   9   2   2   -0.44    0.41 
  -9   2  -2   -0.53    0.87 
  -9  -3   2    6.18    0.70 
  -9  -3   2    3.99    0.74 
   9  -3  -2    4.12    0.99 
   9   3  -2    4.15    0.51 
   9   3  -2    5.43    0.59 
  -9   3   2    5.33    1.01 
  -8  -3   2   26.63    0.91 
   8  -3  -2   26.93    1.59 
  -8  -3   2   27.02    0.99 
   8  -3  -2   31.72    1.87 
   8   3  -2   24.71    0.77 
  -8   3   2   28.72    1.72 
   8   3  -2   27.31    0.81 
  -8   3   2   24.66    1.85 
  -7  -3   2    5.01    0.44 
  -7  -3   2    6.40    0.47 
   7  -3  -2    7.93    1.24 
   7  -3  -2    6.21    1.04 
   7  -3  -2    6.75    0.98 
   7  -3  -2    5.92    0.83 
  -7   3   2    6.36    1.16 
  -7   3   2    5.70    0.85 
  -7   3   2    5.47    0.85 
   7   3  -2    6.46    0.36 
  -7   3   2    6.39    0.99 
   7   3  -2    5.92    0.33 
   6  -3  -2    0.33    0.54 
   6  -3  -2    0.58    0.52 
   6  -3  -2    0.21    0.41 
  -6  -3   2    0.00    0.18 
   6  -3  -2    0.27    0.58 
  -6   3   2   -0.60    0.40 
  -6   3   2    0.25    0.55 
  -6   3   2    0.08    0.41 
  -6   3   2    0.55    0.57 
   5  -3  -2   71.33    2.02 
   5  -3  -2   71.87    2.07 
   5  -3  -2   69.42    2.00 
  -5   3   2   71.27    2.02 
  -5   3   2   68.52    2.03 
  -5   3   2   68.09    1.96 
   4  -3  -2   93.14    2.40 
   4  -3  -2   91.63    2.35 
   4  -3  -2   93.81    2.41 
   4  -3  -2   93.50    2.35 
  -4   3   2   93.68    2.40 
  -4   3   2   91.87    2.41 
  -4   3   2   92.33    2.33 
  -4   3   2   92.45    2.37 
   3  -3  -2   50.38    1.45 
  -3  -3   2   46.55    1.02 
   3  -3  -2   47.27    1.42 
  -3  -3   2   49.24    1.01 
   3  -3  -2   48.99    1.43 
   3  -3  -2   49.66    1.41 
  -3   3   2   48.06    1.45 
  -3   3   2   48.74    1.41 
  -3   3   2   45.86    1.37 
  -3   3   2   46.96    1.43 
  -2  -3   2   75.26    1.65 
   2  -3  -2   78.27    1.89 
  -2  -3   2   76.65    1.65 
   2  -3  -2   77.89    1.91 
   2  -3  -2   76.04    1.93 
   2  -3  -2   73.92    1.92 
   2   3  -2   75.07    1.62 
   2   3  -2   76.75    1.63 
  -2   3   2   78.38    1.93 
  -2   3   2   76.49    1.91 
  -2   3   2   78.16    1.94 
  -2   3   2   78.02    1.90 
  -1  -3   2   20.00    0.55 
  -1  -3   2   19.49    0.57 
  -1  -3   2   19.12    0.61 
   1  -3  -2   19.03    0.75 
   1  -3  -2   19.75    0.74 
  -1  -3   2   19.37    0.60 
   1  -3  -2   19.99    0.72 
   1  -3  -2   19.62    0.71 
   1   3  -2   19.53    0.59 
  -1   3   2   18.54    0.70 
   1   3  -2   19.38    0.57 
   1   3  -2   19.34    0.56 
  -1   3   2   19.59    0.72 
  -1   3   2   20.62    0.75 
   1   3  -2   19.95    0.57 
   0  -3  -2  119.69    2.66 
   0  -3  -2  122.99    2.69 
   0  -3  -2  123.61    2.71 
   0  -3   2  124.98    2.65 
   0  -3  -2  124.22    2.74 
   0  -3   2  120.82    2.65 
   0  -3   2  123.54    2.69 
   0  -3   2  119.79    2.68 
   0   3  -2  125.13    2.67 
   0   3   2  126.52    2.69 
   0   3  -2  121.95    2.67 
   0   3   2  123.99    2.69 
   0   3   2  123.08    2.70 
   0   3  -2  124.00    2.67 
   0   3   2  119.41    2.69 
   0   3  -2  120.28    2.65 
   1  -3   2  262.19    5.40 
  -1  -3  -2  268.28    5.30 
  -1  -3  -2  259.89    5.31 
   1  -3   2  259.33    5.45 
   1  -3   2  259.26    5.44 
   1  -3   2  268.66    5.41 
  -1  -3  -2  238.21    5.42 
  -1  -3  -2  260.87    5.37 
  -1   3  -2  258.02    5.42 
   1   3   2  253.73    5.32 
   1   3   2  266.16    5.33 
   1   3   2  267.57    5.32 
  -1   3  -2  254.01    5.44 
  -1   3  -2  261.82    5.40 
   2  -3   2   52.69    1.48 
   2  -3   2   54.07    1.44 
  -2  -3  -2   52.50    1.26 
  -2  -3  -2   52.49    1.21 
   2  -3   2   51.85    1.44 
   2  -3   2   51.70    1.42 
  -2  -3  -2   51.39    1.29 
  -2  -3  -2   53.78    1.24 
  -2   3  -2   51.09    1.41 
   2   3   2   53.21    1.23 
  -2   3  -2   53.00    1.45 
   2   3   2   54.21    1.23 
  -2   3  -2   53.47    1.46 
  -2   3  -2   53.98    1.47 
   2   3   2   53.10    1.24 
  -3  -3  -2   28.27    0.82 
  -3  -3  -2   28.71    0.74 
   3  -3   2   29.19    1.05 
   3  -3   2   29.18    1.04 
   3  -3   2   29.06    1.04 
   3  -3   2   27.01    1.08 
  -3  -3  -2   29.11    0.75 
  -3  -3  -2   28.65    0.78 
   3   3   2   29.08    0.73 
  -3   3  -2   29.06    1.07 
  -3   3  -2   29.66    1.06 
  -3   3  -2   29.56    1.11 
  -3   3  -2   30.24    1.03 
   3   3   2   29.65    0.77 
   3   3   2   28.83    0.73 
   3   3   2   27.17    0.77 
   4  -3   2   45.37    1.46 
   4  -3   2   47.20    1.54 
   4  -3   2   46.32    1.47 
  -4  -3  -2   45.96    1.17 
  -4  -3  -2   42.57    1.05 
   4  -3   2   45.74    1.45 
  -4  -3  -2   45.75    1.06 
  -4  -3  -2   45.30    1.15 
   4   3   2   45.85    1.00 
   4   3   2   45.70    1.12 
  -4   3  -2   46.04    1.50 
  -4   3  -2   48.12    1.57 
  -4   3  -2   46.72    1.51 
   4   3   2   46.49    1.00 
   4   3   2   44.48    1.13 
  -4   3  -2   46.76    1.43 
  -5  -3  -2   39.40    1.49 
  -5  -3  -2   39.00    0.98 
   5  -3   2   42.54    1.48 
   5  -3   2   42.26    1.55 
   5  -3   2   43.63    1.51 
   5  -3   2   41.21    1.45 
  -5  -3  -2   42.26    1.13 
  -5  -3  -2   41.70    0.98 
  -5   3  -2   41.92    1.51 
  -5   3  -2   42.25    1.59 
   5   3   2   42.02    1.09 
  -5   3  -2   42.87    1.56 
   5   3   2   41.47    1.20 
  -5   3  -2   43.13    1.45 
  -6  -3  -2   16.33    0.72 
   6  -3   2   15.36    1.05 
   6  -3   2   15.70    1.08 
  -6  -3  -2   15.83    0.51 
   6  -3   2   18.38    1.25 
  -6  -3  -2   14.32    0.50 
  -6  -3  -2   15.78    0.73 
   6  -3   2   14.67    1.27 
   6   3   2   14.93    0.67 
  -6   3  -2   13.58    1.31 
   6   3   2   15.79    0.64 
  -6   3  -2   13.89    1.01 
  -6   3  -2   16.07    1.24 
  -6   3  -2   15.55    1.12 
  -7  -3  -2    3.81    0.50 
   7  -3   2    4.34    0.82 
   7  -3   2    4.76    1.00 
   7  -3   2    3.94    0.68 
   7  -3   2    3.58    0.70 
  -7  -3  -2    3.38    0.58 
  -7  -3  -2    4.30    0.39 
  -7   3  -2    4.46    0.73 
   7   3   2    3.82    0.50 
   7   3   2    3.20    0.56 
  -7   3  -2    4.30    0.78 
  -7   3  -2    3.94    0.90 
  -7   3  -2    4.67    0.90 
   8  -3   2   12.50    1.32 
  -8  -3  -2   10.53    0.88 
  -8  -3  -2   12.18    0.84 
   8   3   2   10.83    0.82 
   8   3   2   10.40    0.71 
  -8   3  -2   11.34    1.59 
   8  -4  -2   -0.72    0.79 
  -8   4   2    1.15    0.91 
   7  -4  -2   21.82    1.48 
   7  -4  -2   22.14    1.93 
   7  -4  -2   21.94    1.49 
   7  -4  -2   21.37    1.79 
  -7   4   2   23.19    1.70 
  -7   4   2   23.31    1.63 
  -7   4   2   21.70    1.43 
  -7   4   2   21.16    1.58 
   6  -4  -2   56.08    1.94 
   6  -4  -2   53.86    2.06 
   6  -4  -2   55.26    1.97 
   6  -4  -2   53.18    2.10 
  -6   4   2   54.12    1.91 
  -6   4   2   55.97    2.01 
   5  -4  -2   37.87    1.54 
   5  -4  -2   39.15    1.57 
   5  -4  -2   38.94    1.63 
   5  -4  -2   39.00    1.51 
  -5   4   2   36.31    1.56 
  -5   4   2   38.51    1.55 
  -5   4   2   37.69    1.50 
   4  -4  -2   37.23    1.42 
   4  -4  -2   39.74    1.43 
   4  -4  -2   37.44    1.41 
   4  -4  -2   37.50    1.47 
  -4   4   2   36.81    1.38 
  -4   4   2   37.96    1.43 
  -4   4   2   34.55    1.44 
  -4   4   2   38.09    1.44 
   3  -4  -2    2.89    0.54 
   3  -4  -2    2.34    0.49 
   3  -4  -2    2.66    0.50 
  -3  -4   2    1.93    0.26 
  -3  -4   2    1.76    0.27 
   3  -4  -2    2.12    0.48 
  -3   4   2    1.90    0.42 
  -3   4   2    2.34    0.50 
   3   4  -2    2.12    0.22 
  -3   4   2    2.60    0.62 
   3   4  -2    1.99    0.23 
  -3   4   2    1.58    0.43 
   2  -4  -2   23.23    0.99 
  -2  -4   2   22.99    0.58 
  -2  -4   2   23.66    0.71 
   2  -4  -2   23.64    0.96 
   2  -4  -2   22.58    0.94 
  -2  -4   2   24.23    0.59 
  -2  -4   2   22.35    0.71 
   2  -4  -2   22.03    0.98 
   2   4  -2   23.01    0.68 
  -2   4   2   24.64    1.02 
  -2   4   2   23.77    0.99 
  -2   4   2   22.29    0.94 
  -2   4   2   23.18    0.96 
   2   4  -2   22.21    0.67 
   1  -4  -2  150.85    3.50 
  -1  -4   2  154.32    3.25 
  -1  -4   2  151.36    3.23 
   1  -4  -2  157.07    3.45 
  -1  -4   2  150.80    3.32 
  -1  -4   2  151.28    3.32 
   1  -4  -2  152.86    3.48 
   1  -4  -2  152.35    3.42 
  -1   4   2  152.98    3.45 
   1   4  -2  156.90    3.25 
   1   4  -2  157.14    3.25 
   1   4  -2  156.61    3.31 
   1   4  -2  148.81    3.27 
  -1   4   2  154.57    3.47 
  -1   4   2  156.18    3.47 
   0  -4   2   87.56    2.01 
   0  -4  -2   84.45    2.11 
   0  -4   2   84.69    2.01 
   0  -4   2   81.90    2.20 
   0  -4   2   84.27    2.06 
   0  -4  -2   86.09    2.03 
   0  -4  -2   84.09    2.05 
   0  -4  -2   86.15    2.09 
   0   4   2   86.96    2.07 
   0   4  -2   86.96    2.03 
   0   4   2   86.21    2.07 
   0   4   2   87.19    2.07 
   0   4  -2   87.88    2.04 
   0   4   2   89.72    2.08 
   0   4  -2   84.25    2.02 
  -1  -4  -2   39.64    1.05 
  -1  -4  -2   39.15    1.08 
  -1  -4  -2   37.86    1.10 
   1  -4   2   38.29    1.22 
  -1  -4  -2   38.43    1.15 
   1  -4   2   37.64    1.20 
   1  -4   2   38.19    1.16 
   1  -4   2   38.26    1.16 
   1   4   2   38.28    1.07 
  -1   4  -2   38.15    1.20 
   1   4   2   37.81    1.09 
  -1   4  -2   37.31    1.17 
  -1   4  -2   38.02    1.19 
  -1   4  -2   36.34    1.15 
   1   4   2   37.38    1.07 
   1   4   2   40.54    1.09 
   2  -4   2   16.83    0.89 
   2  -4   2   17.29    0.85 
  -2  -4  -2   17.41    0.70 
   2  -4   2   18.55    0.84 
  -2  -4  -2   17.18    0.65 
   2  -4   2   18.45    0.87 
  -2  -4  -2   17.41    0.63 
  -2  -4  -2   16.97    0.58 
   2   4   2   17.55    0.62 
   2   4   2   17.26    0.62 
   2   4   2   18.46    0.60 
   2   4   2   16.98    0.65 
  -2   4  -2   17.03    0.81 
  -2   4  -2   16.59    0.84 
  -2   4  -2   16.51    0.87 
  -3  -4  -2   29.11    0.90 
  -3  -4  -2   29.73    0.78 
   3  -4   2   28.55    1.16 
   3  -4   2   29.70    1.17 
   3  -4   2   27.84    1.20 
  -3  -4  -2   28.33    0.75 
  -3  -4  -2   29.22    0.85 
  -3   4  -2   29.03    1.18 
   3   4   2   28.28    0.81 
   3   4   2   27.85    0.84 
   3   4   2   29.53    0.71 
  -3   4  -2   30.06    1.14 
  -3   4  -2   27.68    1.19 
  -3   4  -2   27.53    1.34 
   3   4   2   29.86    0.71 
  -4  -4  -2   29.63    0.87 
   4  -4   2   29.47    1.29 
   4  -4   2   30.24    1.26 
   4  -4   2   30.92    1.38 
  -4  -4  -2   28.91    0.91 
   4  -4   2   30.41    1.25 
  -4   4  -2   30.20    1.29 
  -4   4  -2   31.05    1.24 
   4   4   2   28.44    0.83 
  -4   4  -2   30.19    1.34 
  -4   4  -2   28.52    1.31 
   4   4   2   29.30    0.83 
  -5  -4  -2    5.57    0.49 
  -5  -4  -2    4.48    0.48 
   5  -4   2    6.61    1.05 
   5  -4   2    3.30    0.53 
   5  -4   2    4.35    0.76 
   5  -4   2    4.58    0.64 
  -5   4  -2    5.87    0.99 
  -5   4  -2    6.17    1.09 
   5   4   2    5.64    0.44 
  -5   4  -2    5.75    0.91 
  -5   4  -2    6.33    1.04 
   6  -4   2   14.88    1.38 
   6  -4   2   13.85    1.24 
   6  -4   2   13.17    1.23 
   6  -4   2   15.58    1.51 
  -6  -4  -2   13.75    0.68 
  -6  -4  -2   12.23    0.67 
  -6   4  -2   15.52    1.19 
   6   4   2   13.71    0.62 
  -6   4  -2   13.91    1.37 
   6   4   2   13.15    0.56 
  -6   4  -2   11.96    1.27 
  -6   4  -2   13.17    1.42 
  -7  -4  -2    7.27    0.63 
   7  -4   2    5.33    0.90 
   7  -4   2    5.56    0.87 
  -7  -4  -2    7.43    0.82 
   7  -4   2    8.70    1.80 
  -7   4  -2    8.65    1.18 
   7   4   2    5.43    0.48 
   7   4   2    6.18    0.57 
  -7   4  -2    8.68    1.29 
   7  -5  -2    4.23    0.80 
  -7   5   2    7.87    1.09 
   6  -5  -2   17.34    1.47 
  -6   5   2   21.43    1.48 
   5  -5  -2    8.59    1.23 
   5  -5  -2    7.89    1.12 
  -5   5   2    9.39    1.17 
  -5   5   2    9.57    1.13 
   4  -5  -2   16.26    1.14 
   4  -5  -2   16.36    1.28 
   4  -5  -2   18.74    1.24 
  -4  -5   2   16.95    0.56 
  -4  -5   2   17.29    0.50 
  -4   5   2   16.05    1.14 
  -4   5   2   17.07    1.16 
  -4   5   2   16.18    1.26 
  -3  -5   2   49.90    1.26 
   3  -5  -2   52.56    1.79 
  -3  -5   2   49.03    1.24 
   3  -5  -2   51.89    1.72 
   3  -5  -2   47.99    1.77 
  -3   5   2   51.43    1.77 
  -3   5   2   50.86    1.70 
  -3   5   2   51.59    1.74 
   3   5  -2   49.16    1.19 
   3   5  -2   50.37    1.19 
  -2  -5   2   31.31    0.79 
   2  -5  -2   32.97    1.27 
  -2  -5   2   30.98    0.99 
   2  -5  -2   32.04    1.31 
  -2  -5   2   31.60    0.81 
   2  -5  -2   31.88    1.33 
  -2  -5   2   31.30    0.99 
  -2   5   2   31.89    1.26 
   2   5  -2   31.57    0.94 
   2   5  -2   31.72    0.95 
  -2   5   2   31.18    1.28 
   1  -5  -2   23.86    1.04 
  -1  -5   2   21.74    0.88 
   1  -5  -2   21.97    1.01 
  -1  -5   2   22.20    0.89 
   1  -5  -2   20.75    1.05 
  -1  -5   2   22.73    0.81 
  -1   5   2   22.80    1.00 
   1   5  -2   22.37    0.85 
   1   5  -2   22.25    0.82 
  -1   5   2   21.64    0.98 
   1   5  -2   21.75    0.82 
  -1   5   2   23.98    1.05 
   1   5  -2   21.40    0.81 
   0  -5  -2   17.91    0.88 
   0  -5  -2   18.18    0.93 
   0  -5  -2   20.76    1.07 
   0  -5   2   17.69    0.86 
   0  -5   2   19.66    0.93 
   0  -5   2   18.65    0.84 
   0   5  -2   19.71    0.87 
   0   5  -2   18.87    0.88 
   0   5   2   19.39    0.88 
   0   5  -2   19.66    0.84 
   0   5   2   20.82    0.93 
  -1  -5  -2   27.92    1.06 
  -1  -5  -2   28.17    0.99 
   1  -5   2   27.80    1.07 
   1  -5   2   27.07    1.14 
  -1  -5  -2   28.10    1.01 
   1  -5   2   26.14    1.10 
  -1   5  -2   27.12    1.12 
  -1   5  -2   26.86    1.06 
  -1   5  -2   26.78    1.10 
   1   5   2   28.72    1.03 
   1   5   2   27.12    0.99 
   1   5   2   28.64    0.97 
   2  -5   2   23.26    1.10 
  -2  -5  -2   22.18    0.87 
  -2  -5  -2   22.42    0.90 
   2  -5   2   22.21    1.16 
  -2  -5  -2   22.77    0.82 
   2  -5   2   20.64    1.04 
  -2   5  -2   22.43    1.05 
   2   5   2   21.38    0.78 
   2   5   2   21.83    0.84 
  -2   5  -2   22.28    1.10 
   2   5   2   22.37    0.81 
  -2   5  -2   21.53    1.11 
   3  -5   2    5.26    0.84 
  -3  -5  -2    5.83    0.43 
  -3  -5  -2    5.70    0.59 
   3  -5   2    5.59    0.97 
   3  -5   2    5.65    0.84 
  -3  -5  -2    6.18    0.55 
  -3   5  -2    5.14    0.71 
  -3   5  -2    4.60    0.79 
   3   5   2    4.97    0.50 
  -3   5  -2    5.91    0.94 
   3   5   2    5.39    0.47 
   4  -5   2   14.64    1.12 
   4  -5   2   14.09    1.13 
  -4  -5  -2   15.41    0.67 
  -4  -5  -2   13.66    0.72 
   4  -5   2   14.70    1.25 
   4   5   2   14.84    0.62 
   4   5   2   13.44    0.61 
  -4   5  -2   12.78    1.18 
  -4   5  -2   14.15    1.11 
  -4   5  -2   15.85    1.26 
  -5  -5  -2    7.60    0.59 
  -5  -5  -2    6.51    0.59 
   5  -5   2    7.76    1.15 
   5   5   2    6.68    0.45 
  -5   5  -2    8.24    1.38 
  -5   5  -2    6.08    1.10 
   5   5   2    7.46    0.81 
   6  -5   2    3.91    0.85 
  -6  -5  -2    4.57    0.56 
  -6  -5  -2    3.71    0.56 
  -6   5  -2    4.85    0.85 
   6   5   2    3.70    0.40 
   5  -6  -2    6.60    1.04 
  -5   6   2    5.47    0.95 
   4  -6  -2   20.71    1.51 
  -4  -6   2   18.18    0.62 
  -4  -6   2   19.40    0.62 
  -4   6   2   21.61    1.46 
  -3  -6   2   25.63    0.91 
  -3  -6   2   25.80    0.91 
   3  -6  -2   27.56    1.50 
   3   6  -2   24.33    0.92 
  -3   6   2   27.12    1.45 
   3   6  -2   24.03    0.81 
  -2  -6   2   14.63    0.86 
  -2  -6   2   15.89    0.83 
   2  -6  -2   17.34    1.23 
   2   6  -2   16.18    0.76 
   2   6  -2   15.47    0.80 
  -2   6   2   15.67    1.14 
  -1  -6   2   25.01    1.08 
  -1  -6   2   22.85    0.94 
   1  -6  -2   23.28    1.23 
  -1  -6   2   23.46    1.05 
   1   6  -2   24.98    1.04 
   1   6  -2   24.51    0.99 
   1   6  -2   23.33    0.94 
  -1   6   2   25.08    1.21 
   0  -6  -2    6.70    0.86 
   0  -6   2    5.34    0.66 
   0  -6   2    5.30    0.74 
   0   6   2    7.31    0.78 
   0   6  -2    5.75    0.77 
   0   6  -2    6.50    0.74 
   0   6   2    7.25    0.80 
   0   6  -2    6.69    1.21 
  -1  -6  -2    0.69    0.50 
  -1  -6  -2    1.32    0.49 
   1  -6   2    0.87    0.52 
   1   6   2    0.50    0.43 
   1   6   2    0.38    0.40 
  -1   6  -2    0.81    0.45 
   1   6   2    0.79    0.48 
  -2  -6  -2   20.76    1.02 
   2  -6   2   21.00    1.23 
  -2  -6  -2   20.78    0.98 
  -2  -6  -2   20.27    0.86 
   2   6   2   19.85    0.92 
   2   6   2   21.83    0.80 
   2   6   2   20.24    0.92 
  -2   6  -2   21.10    1.19 
   3  -6   2    7.61    1.06 
  -3  -6  -2    8.65    0.74 
  -3  -6  -2    7.36    0.74 
   3   6   2    7.48    0.66 
   3   6   2    8.27    0.65 
  -3   6  -2    7.89    1.09 
   4  -6   2    5.29    0.80 
  -4  -6  -2    3.60    0.66 
   4   6   2    5.14    0.59 
   4   6   2    4.87    0.54 
  -4   6  -2    7.19    1.21 
 -10   0   3    0.09    0.65 
  10   0  -3   -0.05    0.53 
  -9   0   3   -0.31    0.54 
   9   0  -3   -0.26    0.43 
   8   0  -3    0.18    0.40 
  -8   0   3   -0.37    0.44 
   8   0  -3   -0.55    0.35 
  -8   0   3   -0.94    0.40 
   8   0  -3    0.11    0.48 
  -8   0   3   -0.60    0.34 
   7   0  -3    0.31    0.33 
  -7   0   3    0.22    0.35 
   7   0  -3   -0.48    0.35 
  -7   0   3   -0.17    0.26 
  -7   0   3    0.25    0.51 
   7   0  -3    0.06    0.30 
   6   0  -3   -0.59    0.23 
  -6   0   3   -0.27    0.27 
  -6   0   3   -0.06    0.28 
   6   0  -3    0.27    0.25 
  -6   0   3   -0.03    0.22 
   6   0  -3    0.29    0.28 
  -6   0   3    0.29    0.29 
   6   0  -3   -0.31    0.23 
   5   0  -3    0.04    0.22 
  -5   0   3    0.08    0.23 
   5   0  -3   -0.07    0.19 
  -5   0   3   -0.06    0.23 
  -5   0   3   -0.01    0.18 
  -5   0   3   -0.22    0.21 
   5   0  -3   -0.32    0.19 
   5   0  -3   -0.06    0.19 
   4   0  -3   -0.16    0.15 
  -4   0   3   -0.11    0.15 
   4   0  -3   -0.06    0.15 
  -4   0   3    0.14    0.18 
  -4   0   3   -0.19    0.18 
   4   0  -3   -0.10    0.16 
  -3   0   3    0.08    0.14 
  -3   0   3    0.26    0.15 
   3   0  -3    0.06    0.14 
  -3   0   3    0.01    0.15 
   3   0  -3    0.12    0.15 
   3   0  -3   -0.12    0.13 
   3   0  -3    0.03    0.12 
  -3   0   3    0.04    0.13 
  -2   0   3    0.07    0.10 
   2   0  -3    0.10    0.11 
   2   0  -3   -0.04    0.08 
  -2   0   3    0.04    0.11 
   2   0  -3    0.12    0.13 
  -2   0   3   -0.04    0.11 
   2   0  -3    0.10    0.12 
  -2   0   3    0.05    0.11 
  -1   0   3   -0.04    0.09 
  -1   0   3    0.04    0.08 
   1   0  -3    0.04    0.08 
  -1   0   3    0.06    0.08 
   0   0  -3    0.24    0.10 
   0   0   3    0.20    0.14 
   0   0  -3    0.29    0.09 
   0   0   3    0.19    0.09 
   0   0   3    0.05    0.07 
   0   0  -3    0.19    0.09 
   0   0  -3    0.22    0.11 
   0   0   3    0.09    0.14 
   1   0   3    0.03    0.13 
  -1   0  -3   -0.13    0.12 
  -1   0  -3    0.46    0.21 
   1   0   3    0.22    0.21 
   1   0   3    0.19    0.15 
   1   0   3    0.02    0.12 
  -1   0  -3    0.10    0.10 
   2   0   3   -0.07    0.13 
  -2   0  -3    0.03    0.15 
   2   0   3    0.14    0.17 
  -2   0  -3    0.02    0.12 
   2   0   3    0.17    0.15 
  -2   0  -3    0.07    0.11 
  -2   0  -3    0.03    0.16 
   2   0   3    0.05    0.13 
   3   0   3   -0.16    0.16 
   3   0   3   -0.08    0.20 
  -3   0  -3   -0.16    0.13 
   3   0   3   -0.06    0.15 
   3   0   3    0.01    0.15 
  -3   0  -3    0.08    0.19 
  -3   0  -3   -0.01    0.18 
  -3   0  -3   -0.01    0.18 
  -4   0  -3    0.26    0.24 
  -4   0  -3    0.18    0.23 
  -4   0  -3    0.04    0.17 
   4   0   3    0.09    0.20 
   4   0   3    0.05    0.24 
   4   0   3    0.02    0.15 
   4   0   3    0.40    0.22 
  -4   0  -3   -0.09    0.23 
   5   0   3    0.18    0.31 
  -5   0  -3    0.03    0.22 
  -5   0  -3   -0.32    0.24 
  -5   0  -3    0.58    0.33 
   5   0   3    0.02    0.25 
  -5   0  -3   -0.13    0.25 
   5   0   3    0.24    0.24 
   6   0   3    0.07    0.30 
  -6   0  -3   -0.13    0.36 
  -6   0  -3   -0.24    0.28 
  -6   0  -3   -0.38    0.30 
  -6   0  -3   -0.04    0.33 
   6   0   3   -0.19    0.30 
   6   0   3    0.27    0.39 
   6   0   3    0.42    0.32 
  -7   0  -3   -0.15    0.43 
   7   0   3   -0.19    0.37 
   7   0   3   -0.22    0.36 
  -7   0  -3   -0.01    0.40 
  -7   0  -3    0.33    0.37 
  -8   0  -3   -0.75    0.47 
  -8   0  -3    0.34    0.43 
   8   0   3    1.00    0.49 
  -8   0  -3   -0.11    0.56 
   8   0   3    0.21    0.46 
  -9   0  -3   -0.10    0.61 
   9   0   3    1.15    0.58 
  10  -1  -3    1.22    0.68 
 -10   1   3    1.08    0.81 
  -9  -1   3    0.08    0.46 
   9  -1  -3   -1.14    0.54 
   9   1  -3    1.46    0.48 
   9   1  -3    0.35    0.38 
  -9   1   3    0.76    0.61 
   8  -1  -3    0.56    0.44 
  -8  -1   3    0.10    0.37 
   8  -1  -3    0.04    0.48 
  -8  -1   3    0.62    0.33 
   8  -1  -3    1.07    0.51 
  -8  -1   3   -0.68    0.40 
   8   1  -3    0.47    0.37 
  -8   1   3   -0.05    0.38 
  -8   1   3   -0.34    0.51 
   8   1  -3    0.08    0.35 
   8   1  -3    0.18    0.31 
  -8   1   3    0.68    0.53 
  -7  -1   3    0.85    0.30 
   7  -1  -3    1.10    0.42 
   7  -1  -3    0.99    0.43 
  -7  -1   3    1.14    0.28 
  -7  -1   3    0.55    0.33 
   7  -1  -3    0.47    0.44 
  -7  -1   3    1.14    0.34 
   7   1  -3    0.75    0.28 
  -7   1   3    0.93    0.37 
  -7   1   3    0.50    0.43 
   7   1  -3    0.91    0.32 
  -7   1   3    0.78    0.46 
  -7   1   3    0.66    0.41 
   7   1  -3    0.73    0.32 
   6  -1  -3   11.85    0.74 
   6  -1  -3   10.92    0.75 
  -6  -1   3   10.20    0.52 
  -6  -1   3   10.49    0.49 
  -6  -1   3   10.79    0.58 
  -6  -1   3   10.62    0.58 
   6  -1  -3    8.48    0.65 
   6  -1  -3   10.62    0.70 
   6   1  -3   10.55    0.54 
   6   1  -3   10.77    0.55 
  -6   1   3   10.11    0.67 
  -6   1   3   11.05    0.73 
   6   1  -3   10.60    0.50 
  -6   1   3   11.24    0.76 
   6   1  -3   12.11    0.51 
  -6   1   3   10.84    0.78 
  -5  -1   3    0.26    0.20 
  -5  -1   3    0.13    0.17 
   5  -1  -3   -0.27    0.28 
   5  -1  -3    0.38    0.27 
  -5  -1   3    0.40    0.16 
  -5  -1   3    0.69    0.21 
   5  -1  -3    0.30    0.24 
   5  -1  -3    0.46    0.27 
  -5   1   3    0.00    0.24 
   5   1  -3    0.38    0.19 
  -5   1   3    0.61    0.25 
  -5   1   3    0.37    0.29 
   5   1  -3    0.50    0.17 
   5   1  -3    0.42    0.18 
   5   1  -3    0.31    0.17 
  -5   1   3    0.15    0.28 
  -4  -1   3    1.02    0.18 
   4  -1  -3    0.55    0.22 
   4  -1  -3    1.28    0.26 
  -4  -1   3    1.05    0.14 
  -4  -1   3    0.96    0.15 
   4  -1  -3    0.64    0.24 
   4  -1  -3    0.96    0.25 
  -4  -1   3    0.98    0.19 
  -4   1   3    0.41    0.24 
  -4   1   3    0.78    0.27 
   4   1  -3    1.09    0.17 
  -4   1   3    0.87    0.24 
   4   1  -3    1.16    0.19 
   4   1  -3    0.96    0.15 
   4   1  -3    1.03    0.16 
  -4   1   3    0.88    0.26 
   3  -1  -3    1.04    0.24 
   3  -1  -3    0.82    0.22 
   3  -1  -3    0.61    0.20 
  -3  -1   3    0.77    0.13 
  -3  -1   3    0.83    0.10 
  -3  -1   3    0.83    0.14 
  -3  -1   3    0.83    0.14 
   3  -1  -3    0.97    0.23 
   3   1  -3    0.90    0.13 
  -3   1   3    0.68    0.21 
   3   1  -3    0.95    0.13 
  -3   1   3    0.97    0.22 
  -3   1   3    0.46    0.20 
   3   1  -3    0.98    0.13 
   3   1  -3    0.79    0.12 
  -3   1   3    0.80    0.20 
   2  -1  -3   23.50    0.69 
  -2  -1   3   23.38    0.53 
   2  -1  -3   22.61    0.68 
  -2  -1   3   24.37    0.51 
   2  -1  -3   22.87    0.71 
   2  -1  -3   23.15    0.69 
  -2  -1   3   21.30    0.57 
  -2  -1   3   23.76    0.51 
   2   1  -3   23.54    0.50 
  -2   1   3   23.15    0.69 
   2   1  -3   23.56    0.50 
  -2   1   3   22.60    0.70 
   2   1  -3   23.26    0.53 
  -2   1   3   23.35    0.68 
  -2   1   3   22.81    0.71 
  -1  -1   3  210.45    4.08 
  -1  -1   3  196.74    4.08 
  -1  -1   3  204.71    4.09 
   1  -1  -3  207.28    4.19 
   1  -1  -3  200.76    4.18 
  -1  -1   3  205.15    4.09 
   1   1  -3  206.49    4.08 
  -1   1   3  202.28    4.20 
   1   1  -3  213.35    4.09 
  -1   1   3  204.76    4.18 
   1   1  -3  200.26    4.08 
   1   1  -3  200.73    4.08 
  -1   1   3  211.22    4.20 
   0  -1  -3   25.74    0.69 
   0  -1  -3   26.63    0.67 
   0  -1   3   25.09    0.67 
   0  -1  -3   26.76    0.67 
   0  -1  -3   25.17    0.66 
   0  -1   3   26.10    0.65 
   0  -1   3   25.74    0.66 
   0  -1   3   26.46    0.65 
   0   1  -3   26.46    0.65 
   0   1   3   25.55    0.67 
   0   1  -3   26.13    0.66 
   0   1   3   26.11    0.68 
   0   1   3   26.32    0.67 
   0   1   3   25.43    0.67 
  -1  -1  -3   59.78    1.33 
   1  -1   3   60.51    1.38 
  -1  -1  -3   61.56    1.32 
  -1  -1  -3   58.99    1.35 
   1  -1   3   59.52    1.38 
   1  -1   3   59.57    1.37 
  -1  -1  -3   59.76    1.32 
   1   1   3   60.25    1.34 
  -1   1  -3   59.86    1.39 
   1   1   3   58.42    1.32 
  -1   1  -3   60.55    1.39 
  -1   1  -3   59.27    1.40 
  -1   1  -3   62.07    1.37 
   2  -1   3    0.90    0.21 
   2  -1   3    0.39    0.18 
  -2  -1  -3    0.59    0.17 
   2  -1   3    0.47    0.15 
  -2  -1  -3    0.91    0.16 
   2  -1   3    0.63    0.23 
  -2  -1  -3    0.74    0.14 
  -2  -1  -3    0.73    0.16 
   2   1   3    0.85    0.18 
  -2   1  -3    0.94    0.21 
   2   1   3    0.61    0.15 
   2   1   3    0.73    0.15 
  -2   1  -3    0.49    0.15 
   2   1   3    0.67    0.15 
  -2   1  -3    0.74    0.19 
  -2   1  -3    0.73    0.19 
   3  -1   3    0.24    0.22 
  -3  -1  -3   -0.04    0.15 
   3  -1   3    0.08    0.17 
  -3  -1  -3    0.02    0.15 
   3  -1   3   -0.01    0.19 
   3  -1   3    0.14    0.15 
  -3  -1  -3    0.42    0.18 
  -3  -1  -3    0.25    0.17 
   3   1   3    0.14    0.15 
  -3   1  -3    0.49    0.23 
  -3   1  -3    0.00    0.19 
   3   1   3    0.36    0.16 
   3   1   3    0.22    0.15 
   3   1   3    0.30    0.18 
  -3   1  -3    0.15    0.21 
  -3   1  -3    0.01    0.23 
   4  -1   3    0.93    0.29 
  -4  -1  -3    0.63    0.23 
  -4  -1  -3    0.74    0.23 
   4  -1   3    0.91    0.32 
   4  -1   3    0.63    0.27 
  -4  -1  -3    0.92    0.21 
  -4  -1  -3    1.09    0.24 
  -4   1  -3    1.12    0.33 
   4   1   3    0.51    0.19 
  -4   1  -3    0.65    0.28 
   4   1   3    0.80    0.24 
  -4   1  -3    0.95    0.33 
   4   1   3    0.68    0.21 
   4   1   3    0.74    0.20 
  -5  -1  -3    6.09    0.53 
   5  -1   3    6.06    0.57 
   5  -1   3    6.17    0.64 
   5  -1   3    6.11    0.69 
  -5  -1  -3    6.48    0.47 
  -5  -1  -3    6.10    0.52 
  -5  -1  -3    5.80    0.53 
  -5   1  -3    6.16    0.64 
  -5   1  -3    7.52    0.69 
   5   1   3    6.15    0.47 
   5   1   3    6.60    0.54 
   5   1   3    6.58    0.49 
   5   1   3    6.91    0.51 
  -5   1  -3    6.17    0.63 
  -6  -1  -3    0.13    0.33 
   6  -1   3    0.11    0.33 
  -6  -1  -3    0.81    0.29 
   6  -1   3    0.26    0.34 
  -6  -1  -3    0.45    0.31 
  -6  -1  -3    0.16    0.34 
   6  -1   3    1.14    0.45 
   6  -1   3    1.32    0.39 
  -6   1  -3    0.14    0.45 
  -6   1  -3   -0.24    0.44 
   6   1   3    0.36    0.30 
  -6   1  -3    0.31    0.35 
   6   1   3    0.50    0.28 
  -6   1  -3   -0.07    0.36 
   6   1   3    0.46    0.28 
   6   1   3    0.14    0.33 
  -7  -1  -3    0.83    0.41 
  -7  -1  -3    0.91    0.49 
   7  -1   3    1.84    0.54 
   7  -1   3    1.40    0.45 
  -7  -1  -3    1.29    0.38 
   7  -1   3    2.20    0.64 
  -7   1  -3    1.59    0.57 
   7   1   3    1.38    0.38 
   7   1   3    1.45    0.39 
  -7   1  -3    1.64    0.62 
  -7   1  -3    1.96    0.50 
   8  -1   3   -0.49    0.51 
   8  -1   3    0.30    0.52 
  -8  -1  -3   -0.71    0.42 
  -8  -1  -3    0.04    0.43 
  -8   1  -3   -0.48    0.46 
  -8   1  -3    1.06    0.86 
   8   1   3    0.29    0.44 
   8   1   3   -0.07    0.45 
   8   1   3    0.49    0.42 
  -8   1  -3   -0.17    0.58 
  -9  -1  -3    0.64    0.59 
   9  -1   3   -0.51    0.60 
   9   1   3    0.10    0.48 
  -9   1  -3   -0.81    0.77 
  -9  -2   3   -0.14    0.49 
  -9  -2   3    0.26    0.43 
   9  -2  -3    0.05    0.66 
   9   2  -3    0.49    0.35 
  -9   2   3    0.49    0.83 
   9   2  -3    0.28    0.43 
   8  -2  -3    3.22    0.69 
  -8  -2   3    1.99    0.46 
  -8  -2   3    2.01    0.25 
   8  -2  -3    2.43    0.71 
  -8  -2   3    2.15    0.42 
   8   2  -3    2.85    0.40 
   8   2  -3    2.63    0.48 
  -8   2   3    2.33    0.66 
  -8   2   3    1.61    0.67 
  -8   2   3    1.75    0.73 
  -7  -2   3    0.67    0.32 
   7  -2  -3    0.76    0.49 
   7  -2  -3    1.31    0.52 
   7  -2  -3    0.88    0.58 
  -7  -2   3    0.59    0.27 
   7  -2  -3    1.72    0.58 
  -7  -2   3    0.46    0.15 
  -7   2   3    0.88    0.47 
   7   2  -3    0.58    0.25 
   7   2  -3    0.82    0.26 
  -7   2   3    0.13    0.49 
  -7   2   3   -0.19    0.53 
  -7   2   3    0.32    0.45 
  -6  -2   3    7.92    0.46 
   6  -2  -3    8.20    0.75 
   6  -2  -3    7.13    0.83 
   6  -2  -3    7.32    0.76 
  -6  -2   3    7.73    0.44 
   6  -2  -3    8.73    0.82 
  -6   2   3    6.78    0.81 
  -6   2   3    7.00    0.76 
   6   2  -3    7.76    0.39 
   6   2  -3    8.31    0.42 
  -6   2   3    7.42    0.80 
  -6   2   3    8.06    0.73 
   5  -2  -3   11.24    0.75 
  -5  -2   3   10.24    0.39 
   5  -2  -3    9.49    0.70 
   5  -2  -3   10.43    0.72 
  -5  -2   3   10.43    0.41 
   5  -2  -3   10.21    0.76 
  -5   2   3   10.60    0.76 
   5   2  -3   10.42    0.37 
   5   2  -3   10.82    0.38 
  -5   2   3   10.63    0.68 
  -5   2   3   10.18    0.73 
  -5   2   3    9.70    0.74 
  -4  -2   3    0.83    0.15 
   4  -2  -3    0.89    0.28 
  -4  -2   3    0.94    0.12 
   4  -2  -3    0.92    0.35 
   4  -2  -3    0.39    0.29 
   4  -2  -3    0.65    0.31 
  -4   2   3    0.34    0.25 
  -4   2   3    0.63    0.28 
  -4   2   3    0.66    0.29 
   4   2  -3    0.92    0.13 
  -4   2   3    0.93    0.32 
   3  -2  -3   45.92    1.29 
   3  -2  -3   45.85    1.27 
   3  -2  -3   43.70    1.26 
   3  -2  -3   45.17    1.29 
  -3   2   3   47.41    1.28 
  -3   2   3   43.95    1.25 
  -3   2   3   46.32    1.30 
  -3   2   3   45.06    1.31 
  -2  -2   3   22.99    0.51 
   2  -2  -3   21.83    0.76 
   2  -2  -3   21.64    0.78 
   2  -2  -3   22.11    0.74 
  -2  -2   3   22.66    0.51 
  -2   2   3   21.03    0.73 
   2   2  -3   22.31    0.50 
  -2   2   3   22.29    0.78 
   2   2  -3   23.04    0.51 
  -1  -2   3   13.66    0.38 
   1  -2  -3   12.77    0.52 
  -1  -2   3   12.73    0.40 
   1  -2  -3   12.68    0.51 
  -1  -2   3   12.68    0.38 
   1  -2  -3   12.92    0.52 
   1  -2  -3   12.63    0.54 
  -1   2   3   12.93    0.51 
   1   2  -3   13.61    0.39 
  -1   2   3   13.15    0.52 
  -1   2   3   12.66    0.53 
   1   2  -3   13.17    0.38 
  -1   2   3   12.54    0.53 
   1   2  -3   12.85    0.38 
   1   2  -3   10.76    0.49 
   0  -2  -3  118.85    2.56 
   0  -2   3  119.52    2.55 
   0  -2  -3  121.70    2.57 
   0  -2  -3  117.70    2.55 
   0  -2   3  121.23    2.52 
   0  -2   3  119.23    2.54 
   0  -2  -3  122.61    2.60 
   0  -2   3  119.62    2.53 
   0   2  -3  120.56    2.55 
   0   2   3  118.68    2.57 
   0   2   3  120.37    2.57 
   0   2  -3  118.27    2.53 
   0   2  -3  115.31    2.52 
   0   2  -3  119.54    2.54 
  -1  -2  -3    0.13    0.14 
   1  -2   3    0.11    0.16 
  -1  -2  -3    0.27    0.17 
  -1  -2  -3    0.19    0.14 
   1  -2   3    0.18    0.17 
   1  -2   3    0.42    0.17 
   1  -2   3    0.38    0.21 
  -1  -2  -3    0.30    0.14 
  -1   2  -3    0.09    0.14 
  -1   2  -3    0.21    0.15 
   1   2   3    0.36    0.16 
  -1   2  -3    0.26    0.18 
  -1   2  -3    0.36    0.19 
   1   2   3    0.24    0.13 
   1   2   3    0.22    0.13 
   2  -2   3    5.93    0.44 
  -2  -2  -3    6.49    0.32 
   2  -2   3    6.13    0.48 
   2  -2   3    5.99    0.43 
  -2  -2  -3    6.44    0.35 
  -2  -2  -3    6.20    0.33 
   2  -2   3    6.58    0.45 
  -2   2  -3    5.94    0.47 
   2   2   3    6.39    0.33 
  -2   2  -3    5.68    0.41 
  -2   2  -3    6.41    0.49 
   2   2   3    5.35    0.39 
  -2   2  -3    6.47    0.50 
   2   2   3    6.09    0.32 
   2   2   3    6.86    0.33 
   3  -2   3    7.44    0.53 
  -3  -2  -3    8.03    0.36 
   3  -2   3    7.01    0.52 
  -3  -2  -3    6.86    0.40 
  -3  -2  -3    7.54    0.38 
   3  -2   3    7.05    0.53 
   3  -2   3    6.68    0.59 
   3   2   3    7.13    0.36 
  -3   2  -3    6.95    0.59 
   3   2   3    6.85    0.39 
   3   2   3    7.33    0.45 
  -3   2  -3    6.57    0.56 
  -3   2  -3    6.86    0.54 
  -3   2  -3    6.83    0.49 
   3   2   3    7.52    0.36 
   4  -2   3    0.51    0.28 
  -4  -2  -3    0.54    0.20 
  -4  -2  -3    0.44    0.18 
   4  -2   3   -0.16    0.27 
  -4  -2  -3    0.48    0.22 
   4  -2   3   -0.08    0.30 
   4  -2   3    0.42    0.31 
  -4  -2  -3    0.12    0.19 
  -4   2  -3    0.16    0.33 
   4   2   3    0.14    0.18 
   4   2   3    0.32    0.19 
   4   2   3    0.31    0.18 
  -4   2  -3    0.30    0.25 
  -4   2  -3    0.82    0.36 
   4   2   3    0.21    0.22 
  -4   2  -3    0.04    0.32 
   5  -2   3   -0.23    0.33 
   5  -2   3    0.26    0.32 
  -5  -2  -3   -0.09    0.24 
  -5  -2  -3    0.08    0.25 
   5  -2   3    0.63    0.46 
  -5  -2  -3    0.12    0.25 
   5  -2   3   -0.26    0.31 
  -5  -2  -3   -0.19    0.20 
   5   2   3    0.03    0.26 
   5   2   3    0.26    0.21 
   5   2   3   -0.16    0.20 
  -5   2  -3    0.69    0.43 
  -5   2  -3   -0.20    0.33 
   5   2   3   -0.06    0.22 
  -5   2  -3    0.23    0.43 
  -5   2  -3   -0.06    0.25 
  -6  -2  -3    0.36    0.27 
  -6  -2  -3    0.23    0.32 
   6  -2   3    0.58    0.54 
  -6  -2  -3    0.78    0.33 
   6  -2   3    0.66    0.46 
   6  -2   3    0.54    0.41 
  -6  -2  -3    0.87    0.36 
   6  -2   3    0.80    0.49 
   6   2   3    0.61    0.31 
   6   2   3    0.62    0.26 
  -6   2  -3    1.36    0.56 
  -6   2  -3    0.82    0.40 
   6   2   3    0.74    0.31 
   6   2   3    0.30    0.31 
  -6   2  -3    1.03    0.55 
  -6   2  -3    0.32    0.49 
   7  -2   3    0.75    0.58 
  -7  -2  -3    1.17    0.39 
   7  -2   3    0.43    0.51 
   7  -2   3    0.39    0.64 
   7  -2   3    0.86    0.51 
  -7  -2  -3    0.37    0.36 
  -7  -2  -3    0.99    0.45 
  -7   2  -3    1.86    0.73 
   7   2   3    0.33    0.35 
  -7   2  -3    0.20    0.44 
  -7   2  -3    0.77    0.61 
   7   2   3    0.56    0.36 
   7   2   3    0.54    0.31 
  -7   2  -3    1.50    0.80 
  -8  -2  -3   -0.11    0.41 
  -8  -2  -3   -0.25    0.54 
   8  -2   3   -0.01    0.63 
   8   2   3    0.50    0.44 
   8   2   3   -0.04    0.35 
  -8   2  -3    1.00    0.73 
   8   2   3   -0.35    0.51 
  -9  -2  -3    0.40    0.53 
   9  -2   3    0.76    0.77 
   9   2   3    0.21    0.42 
  -9   2  -3    0.10    0.95 
  -9  -3   3    0.33    0.41 
  -9  -3   3   -0.47    0.36 
   9  -3  -3    0.15    0.85 
   9   3  -3   -0.20    0.24 
  -9   3   3   -0.26    0.91 
   8  -3  -3    1.84    0.69 
   8  -3  -3    2.50    1.04 
  -8  -3   3    0.92    0.30 
  -8  -3   3    1.05    0.44 
   8   3  -3    1.15    0.21 
  -8   3   3    1.21    0.92 
  -8   3   3    1.78    0.82 
   7  -3  -3    0.82    0.72 
   7  -3  -3    0.24    0.55 
  -7  -3   3    0.05    0.22 
  -7  -3   3    0.16    0.21 
   7  -3  -3   -0.21    0.68 
   7  -3  -3    0.35    0.56 
  -7   3   3   -1.51    0.63 
  -7   3   3   -0.09    0.53 
  -7   3   3    0.33    0.52 
  -7   3   3   -0.69    0.62 
   6  -3  -3    0.12    0.53 
   6  -3  -3    0.03    0.46 
   6  -3  -3   -0.57    0.54 
   6  -3  -3   -0.80    0.56 
  -6   3   3    0.29    0.48 
  -6   3   3   -0.82    0.87 
  -6   3   3    0.03    0.43 
  -6   3   3    0.09    0.54 
   5  -3  -3   33.62    1.33 
   5  -3  -3   37.63    1.42 
   5  -3  -3   35.05    1.35 
   5  -3  -3   36.20    1.32 
  -5   3   3   34.73    1.37 
  -5   3   3   37.08    1.36 
  -5   3   3   35.78    1.39 
  -5   3   3   35.01    1.29 
   4  -3  -3   46.36    1.47 
   4  -3  -3   46.00    1.50 
   4  -3  -3   46.17    1.45 
  -4   3   3   46.39    1.47 
  -4   3   3   47.03    1.49 
  -4   3   3   46.95    1.53 
  -4   3   3   45.77    1.43 
   3  -3  -3   26.42    1.02 
   3  -3  -3   28.45    1.01 
   3  -3  -3   26.75    1.00 
   3  -3  -3   26.56    1.02 
  -3   3   3   28.22    1.05 
  -3   3   3   26.98    1.01 
  -3   3   3   28.09    1.00 
  -3   3   3   27.86    1.03 
  -2  -3   3   24.25    0.63 
  -2  -3   3   24.66    0.64 
   2  -3  -3   24.87    0.91 
   2  -3  -3   23.42    0.86 
   2  -3  -3   25.25    0.92 
   2  -3  -3   24.18    0.89 
   2   3  -3   23.92    0.61 
  -2   3   3   25.00    0.88 
  -2   3   3   24.37    0.91 
  -2   3   3   24.18    0.92 
   2   3  -3   24.09    0.62 
  -2   3   3   24.19    0.89 
   1  -3  -3    8.76    0.51 
   1  -3  -3    8.26    0.52 
  -1  -3   3    8.22    0.36 
  -1  -3   3    8.52    0.36 
   1  -3  -3    7.87    0.51 
   1  -3  -3    7.70    0.53 
  -1  -3   3    8.36    0.39 
  -1  -3   3    8.09    0.40 
   1   3  -3    8.04    0.37 
   1   3  -3    8.16    0.36 
  -1   3   3    9.27    0.52 
   1   3  -3    8.45    0.37 
   1   3  -3    8.70    0.39 
  -1   3   3    8.06    0.53 
  -1   3   3    8.36    0.51 
   0  -3   3    5.32    0.41 
   0  -3   3    5.27    0.37 
   0  -3  -3    5.84    0.41 
   0  -3  -3    5.62    0.43 
   0  -3  -3    5.23    0.44 
   0  -3  -3    5.39    0.39 
   0  -3   3    5.12    0.38 
   0  -3   3    4.64    0.37 
   0   3  -3    4.87    0.40 
   0   3   3    6.04    0.43 
   0   3   3    5.44    0.43 
   0   3   3    5.26    0.41 
   0   3  -3    5.32    0.39 
   0   3  -3    4.71    0.35 
   0   3  -3    5.18    0.40 
   0   3   3    4.74    0.38 
  -1  -3  -3  107.36    2.30 
  -1  -3  -3  102.24    2.29 
   1  -3   3  101.62    2.38 
   1  -3   3  100.15    2.33 
   1  -3   3  102.08    2.35 
  -1  -3  -3  105.29    2.27 
   1  -3   3  102.91    2.40 
  -1   3  -3  100.32    2.34 
   1   3   3  102.39    2.27 
  -1   3  -3  103.11    2.38 
   1   3   3  103.76    2.29 
  -1   3  -3  102.31    2.39 
   1   3   3  106.97    2.29 
   1   3   3  102.06    2.29 
   2  -3   3   26.38    0.92 
  -2  -3  -3   25.92    0.73 
  -2  -3  -3   24.76    0.79 
   2  -3   3   25.86    0.90 
   2  -3   3   25.28    0.95 
  -2  -3  -3   25.79    0.76 
  -2  -3  -3   26.09    0.77 
   2  -3   3   25.22    0.91 
   2   3   3   26.12    0.75 
  -2   3  -3   25.54    0.94 
   2   3   3   25.93    0.75 
  -2   3  -3   25.26    0.88 
   2   3   3   26.49    0.75 
  -2   3  -3   26.59    0.96 
  -2   3  -3   26.70    0.94 
   2   3   3   25.74    0.76 
   3  -3   3    0.05    0.29 
   3  -3   3    0.25    0.31 
  -3  -3  -3    0.51    0.21 
  -3  -3  -3    0.38    0.19 
   3  -3   3    0.00    0.24 
  -3  -3  -3    0.16    0.18 
   3  -3   3    0.21    0.32 
  -3  -3  -3    0.28    0.18 
  -3   3  -3    0.08    0.25 
  -3   3  -3    0.39    0.34 
   3   3   3    0.14    0.17 
  -3   3  -3    0.27    0.36 
   3   3   3    0.27    0.17 
   3   3   3    0.66    0.20 
  -3   3  -3    0.14    0.31 
   3   3   3    0.88    0.20 
   4  -3   3    5.68    0.75 
  -4  -3  -3    4.72    0.38 
   4  -3   3    6.20    0.68 
   4  -3   3    4.70    0.65 
  -4  -3  -3    4.95    0.42 
   4  -3   3    5.25    0.77 
  -4  -3  -3    5.84    0.44 
  -4  -3  -3    6.16    0.40 
   4   3   3    5.38    0.37 
   4   3   3    5.50    0.39 
  -4   3  -3    4.82    0.70 
  -4   3  -3    5.12    0.78 
  -4   3  -3    5.51    0.76 
   4   3   3    5.22    0.36 
   4   3   3    5.78    0.40 
  -4   3  -3    4.26    0.62 
  -5  -3  -3    1.59    0.32 
  -5  -3  -3    0.91    0.26 
   5  -3   3    1.86    0.48 
  -5  -3  -3    1.10    0.29 
   5  -3   3    0.65    0.53 
   5  -3   3   -0.08    0.40 
  -5  -3  -3    1.57    0.25 
   5  -3   3    0.86    0.51 
  -5   3  -3    0.53    0.56 
  -5   3  -3    1.27    0.39 
  -5   3  -3    0.70    0.58 
  -5   3  -3    0.78    0.50 
   5   3   3    1.51    0.25 
   5   3   3    1.30    0.23 
   5   3   3    0.93    0.25 
   5   3   3    1.13    0.26 
  -6  -3  -3    0.39    0.34 
  -6  -3  -3    0.20    0.34 
   6  -3   3    0.42    0.43 
   6  -3   3   -0.18    0.43 
   6  -3   3    0.52    0.65 
  -6  -3  -3   -0.27    0.26 
   6  -3   3    0.00    0.63 
   6   3   3    0.19    0.23 
  -6   3  -3   -1.20    0.65 
  -6   3  -3    0.15    0.56 
   6   3   3    0.56    0.25 
  -6   3  -3    0.02    0.76 
   6   3   3   -0.54    0.27 
  -6   3  -3    2.28    0.73 
  -7  -3  -3    0.50    0.43 
   7  -3   3    0.94    0.76 
  -7  -3  -3   -0.03    0.36 
   7  -3   3    0.25    0.59 
   7  -3   3   -0.72    0.54 
  -7  -3  -3    0.17    0.31 
   7  -3   3    0.22    0.87 
   7   3   3   -0.22    0.33 
  -7   3  -3    0.05    0.80 
  -7   3  -3    0.40    0.59 
   7   3   3   -0.03    0.30 
  -7   3  -3   -0.50    0.72 
  -7   3  -3    0.22    0.85 
   8  -3   3    0.27    0.74 
  -8  -3  -3    0.15    0.42 
  -8   3  -3   -0.86    0.86 
   8   3   3    0.51    0.39 
   8   3   3    1.28    0.46 
   8  -4  -3    0.78    0.90 
  -8   4   3   -0.20    0.96 
   7  -4  -3    4.06    0.91 
   7  -4  -3    5.89    0.94 
   7  -4  -3    7.23    1.23 
   7  -4  -3    7.67    1.25 
  -7   4   3    4.60    0.90 
  -7   4   3    3.95    0.79 
  -7   4   3    6.22    0.90 
  -7   4   3    4.55    0.99 
   6  -4  -3    3.52    0.67 
   6  -4  -3    2.29    0.61 
   6  -4  -3    4.83    0.89 
   6  -4  -3    3.93    0.82 
  -6   4   3    1.64    0.66 
  -6   4   3    3.66    0.67 
  -6   4   3    2.98    0.83 
  -6   4   3    3.63    0.84 
   5  -4  -3   -0.18    0.48 
   5  -4  -3    0.15    0.49 
   5  -4  -3    0.05    0.58 
   5  -4  -3   -0.18    0.56 
  -5   4   3   -0.43    0.53 
  -5   4   3    0.04    0.48 
  -5   4   3   -0.55    0.50 
  -5   4   3    0.02    0.49 
   4  -4  -3   26.49    1.23 
   4  -4  -3   28.00    1.20 
   4  -4  -3   27.96    1.28 
   4  -4  -3   26.90    1.24 
  -4   4   3   27.64    1.28 
  -4   4   3   29.16    1.20 
  -4   4   3   28.30    1.27 
   3  -4  -3   17.25    0.92 
   3  -4  -3   16.47    0.94 
  -3  -4   3   15.37    0.49 
  -3  -4   3   16.34    0.49 
   3  -4  -3   17.32    0.95 
   3  -4  -3   14.60    0.93 
   3   4  -3   16.05    0.44 
  -3   4   3   14.94    0.93 
  -3   4   3   17.02    0.92 
  -3   4   3   16.11    0.95 
  -3   4   3   15.68    0.89 
   3   4  -3   15.34    0.44 
  -2  -4   3   14.03    0.55 
  -2  -4   3   13.60    0.53 
  -2  -4   3   13.29    0.39 
   2  -4  -3   13.70    0.82 
  -2  -4   3   14.84    0.40 
   2  -4  -3   14.58    0.78 
   2  -4  -3   13.64    0.82 
   2   4  -3   13.55    0.50 
  -2   4   3   14.43    0.85 
  -2   4   3   14.74    0.81 
  -2   4   3   13.24    0.80 
   2   4  -3   13.69    0.51 
  -2   4   3   13.05    0.77 
   1  -4  -3   38.31    1.17 
  -1  -4   3   38.21    1.01 
   1  -4  -3   37.84    1.19 
  -1  -4   3   38.03    1.06 
   1  -4  -3   37.42    1.25 
  -1  -4   3   37.55    0.99 
  -1  -4   3   37.55    1.07 
   1  -4  -3   38.82    1.22 
  -1   4   3   38.30    1.23 
   1   4  -3   35.99    0.99 
   1   4  -3   38.65    1.01 
  -1   4   3   37.05    1.19 
   1   4  -3   37.68    1.03 
  -1   4   3   38.64    1.22 
   1   4  -3   38.07    1.05 
   0  -4  -3    0.85    0.28 
   0  -4  -3    0.99    0.29 
   0  -4  -3    1.26    0.33 
   0  -4   3    0.71    0.26 
   0  -4   3    0.97    0.28 
   0  -4   3    1.05    0.27 
   0  -4  -3    0.69    0.26 
   0  -4   3    0.59    0.52 
   0   4  -3    1.00    0.27 
   0   4   3    0.89    0.28 
   0   4  -3    0.53    0.29 
   0   4   3    0.79    0.31 
   0   4  -3    0.66    0.27 
   0   4   3    0.51    0.26 
   0   4   3    0.93    0.30 
   1  -4   3    1.06    0.30 
  -1  -4  -3    1.78    0.30 
   1  -4   3    1.51    0.36 
   1  -4   3    1.07    0.31 
  -1  -4  -3    1.27    0.32 
  -1  -4  -3    1.16    0.26 
   1  -4   3    1.32    0.35 
   1   4   3    1.49    0.28 
   1   4   3    1.68    0.30 
  -1   4  -3    1.27    0.31 
   1   4   3    1.69    0.31 
  -1   4  -3    1.20    0.31 
  -1   4  -3    1.28    0.33 
  -1   4  -3    0.87    0.32 
   1   4   3    1.26    0.27 
   2  -4   3   18.48    0.92 
   2  -4   3   17.71    0.86 
   2  -4   3   18.43    0.86 
  -2  -4  -3   18.44    0.70 
  -2  -4  -3   18.10    0.76 
  -2  -4  -3   19.19    0.70 
  -2  -4  -3   17.98    0.64 
   2  -4   3   18.98    0.88 
  -2   4  -3   17.62    0.88 
   2   4   3   17.90    0.69 
  -2   4  -3   17.77    0.85 
   2   4   3   18.13    0.68 
  -2   4  -3   18.71    0.90 
   2   4   3   18.89    0.66 
   2   4   3   18.27    0.67 
  -3  -4  -3    6.32    0.42 
   3  -4   3    4.09    0.72 
   3  -4   3    6.98    0.77 
  -3  -4  -3    7.20    0.46 
  -3  -4  -3    5.80    0.46 
   3  -4   3    6.45    0.71 
   3  -4   3    7.65    0.79 
  -3   4  -3    7.23    0.78 
   3   4   3    6.07    0.42 
  -3   4  -3    6.70    0.71 
   3   4   3    6.40    0.41 
   3   4   3    6.96    0.45 
  -3   4  -3    5.35    0.76 
  -3   4  -3    5.39    0.67 
  -4  -4  -3    0.10    0.27 
   4  -4   3    0.14    0.46 
  -4  -4  -3    0.60    0.21 
  -4  -4  -3   -0.05    0.22 
   4  -4   3   -0.01    0.46 
   4  -4   3    1.07    0.50 
   4  -4   3    0.04    0.51 
  -4  -4  -3   -0.48    0.25 
  -4   4  -3    0.08    0.44 
  -4   4  -3   -0.19    0.51 
   4   4   3    0.04    0.22 
  -4   4  -3   -0.42    0.45 
  -4   4  -3   -0.58    0.50 
   5  -4   3    3.00    0.64 
  -5  -4  -3    3.42    0.51 
   5  -4   3    1.21    0.69 
   5  -4   3    2.60    0.75 
   5  -4   3    3.11    0.66 
  -5  -4  -3    2.72    0.39 
  -5   4  -3    2.01    0.57 
  -5   4  -3    3.22    0.68 
   5   4   3    2.33    0.32 
  -5   4  -3    3.10    0.67 
   5   4   3    2.25    0.30 
  -5   4  -3    2.82    0.77 
   6  -4   3    1.36    0.60 
  -6  -4  -3    1.00    0.37 
  -6  -4  -3    0.77    0.35 
   6  -4   3    0.67    0.65 
   6  -4   3    1.61    0.73 
   6  -4   3    1.80    0.87 
   6   4   3    0.71    0.27 
   6   4   3    0.64    0.32 
  -6   4  -3    1.11    0.73 
  -6   4  -3    2.09    0.91 
  -6   4  -3    0.50    0.88 
  -6   4  -3    1.75    0.62 
   7  -4   3    1.92    0.78 
  -7  -4  -3    0.91    0.45 
   7  -4   3    1.24    0.81 
  -7  -4  -3    1.89    0.44 
  -7   4  -3    0.96    0.92 
  -7   4  -3    1.89    0.72 
   7   4   3    1.58    0.35 
   7  -5  -3    5.14    1.02 
  -7   5   3    5.31    0.94 
   6  -5  -3    5.87    0.90 
  -6   5   3    4.22    0.79 
   5  -5  -3   -0.14    0.68 
   5  -5  -3   -0.07    0.60 
  -5   5   3    0.14    0.61 
  -5   5   3   -0.43    0.62 
   4  -5  -3    0.64    0.58 
   4  -5  -3    1.22    0.69 
   4  -5  -3   -0.39    0.56 
  -4   5   3    0.31    0.55 
  -4   5   3    0.36    0.60 
  -4   5   3    0.52    0.55 
   3  -5  -3    4.23    0.62 
  -3  -5   3    4.80    0.42 
   3  -5  -3    5.38    0.98 
   3  -5  -3    3.31    0.60 
  -3  -5   3    4.71    0.41 
  -3   5   3    4.64    0.69 
   3   5  -3    4.29    0.35 
  -3   5   3    3.43    0.52 
  -3   5   3    6.21    0.95 
   3   5  -3    4.85    0.35 
  -2  -5   3   24.04    0.86 
  -2  -5   3   23.33    0.63 
   2  -5  -3   23.91    1.16 
  -2  -5   3   24.84    0.65 
  -2  -5   3   24.44    0.84 
   2  -5  -3   24.83    1.21 
   2  -5  -3   23.96    1.12 
  -2   5   3   23.24    1.12 
  -2   5   3   26.00    1.16 
   2   5  -3   24.28    0.80 
   2   5  -3   23.50    0.81 
   1  -5  -3   36.59    1.31 
   1  -5  -3   39.12    1.39 
   1  -5  -3   37.05    1.34 
  -1  -5   3   37.25    1.19 
  -1  -5   3   37.05    1.17 
  -1  -5   3   37.08    1.08 
  -1   5   3   37.02    1.31 
   1   5  -3   36.97    1.11 
   1   5  -3   37.26    1.14 
  -1   5   3   36.18    1.34 
   1   5  -3   36.63    1.08 
   0  -5   3    3.97    0.58 
   0  -5  -3    5.07    0.69 
   0  -5  -3    4.78    0.67 
   0  -5   3    5.68    0.60 
   0  -5   3    4.77    0.69 
   0  -5  -3    5.94    0.67 
   0   5   3    5.71    0.71 
   0   5  -3    4.42    0.60 
   0   5  -3    4.68    0.66 
   0   5  -3    5.14    0.58 
   0   5   3    3.94    0.59 
   0   5   3    4.65    0.63 
  -1  -5  -3    2.89    0.43 
  -1  -5  -3    2.28    0.43 
   1  -5   3    2.89    0.50 
   1  -5   3    2.89    0.45 
   1  -5   3    2.92    0.52 
  -1  -5  -3    2.50    0.44 
  -1   5  -3    1.69    0.43 
   1   5   3    3.01    0.43 
   1   5   3    3.07    0.51 
  -1   5  -3    3.94    0.62 
   1   5   3    2.35    0.45 
  -1   5  -3    1.93    0.49 
   2  -5   3    0.08    0.47 
  -2  -5  -3   -0.39    0.33 
   2  -5   3   -0.06    0.41 
  -2  -5  -3   -0.03    0.33 
  -2  -5  -3   -0.07    0.33 
   2  -5   3    0.91    0.46 
   2   5   3    0.32    0.28 
   2   5   3    0.55    0.35 
  -2   5  -3   -0.24    0.46 
  -2   5  -3    0.21    0.48 
   2   5   3    0.42    0.28 
  -2   5  -3   -0.42    0.37 
  -3  -5  -3    1.37    0.33 
  -3  -5  -3    0.51    0.36 
   3  -5   3    1.27    0.51 
   3  -5   3    1.26    0.59 
   3  -5   3    0.51    0.50 
  -3  -5  -3    1.10    0.36 
   3   5   3    1.23    0.32 
   3   5   3    1.50    0.32 
  -3   5  -3    1.14    0.57 
  -3   5  -3    1.07    0.49 
  -3   5  -3    1.53    0.57 
   3   5   3    0.85    0.27 
   4  -5   3   15.70    1.40 
  -4  -5  -3   14.07    0.78 
   4  -5   3   16.07    1.19 
  -4  -5  -3   16.33    0.75 
   4  -5   3   14.31    1.18 
  -4   5  -3   14.72    1.44 
  -4   5  -3   14.94    1.23 
   4   5   3   14.81    0.68 
  -4   5  -3   13.43    1.09 
   4   5   3   14.88    0.70 
  -5  -5  -3    5.93    0.67 
   5  -5   3    6.32    1.16 
  -5  -5  -3    5.40    0.64 
  -5   5  -3    7.82    1.18 
   5   5   3    7.13    0.57 
   5   5   3    5.61    0.52 
  -6  -5  -3    0.96    0.41 
  -6  -5  -3   -0.21    0.37 
   6  -5   3   -0.05    0.74 
   6   5   3    0.14    0.32 
   6   5   3   -0.25    0.27 
  -6   5  -3    0.10    0.79 
   5  -6  -3   21.37    1.77 
  -5   6   3   22.03    1.65 
   4  -6  -3    3.88    0.88 
  -4   6   3    1.42    0.75 
  -3  -6   3   -0.10    0.32 
   3  -6  -3    0.42    0.66 
  -3  -6   3   -0.19    0.39 
  -3   6   3   -0.23    0.61 
   3   6  -3    0.19    0.26 
   3   6  -3   -0.17    0.27 
  -2  -6   3    1.17    0.40 
   2  -6  -3    1.20    0.59 
  -2  -6   3    1.05    0.45 
   2   6  -3    1.84    0.40 
   2   6  -3    0.61    0.33 
  -2   6   3    0.63    0.53 
   1  -6  -3    7.32    0.96 
  -1  -6   3    5.47    0.69 
  -1  -6   3    5.04    0.62 
  -1  -6   3    5.93    0.65 
   1   6  -3    5.77    0.65 
   1   6  -3    5.71    0.73 
   1   6  -3    6.06    0.65 
  -1   6   3    6.31    0.86 
   0  -6   3   19.58    1.63 
   0  -6  -3   20.18    1.13 
   0  -6   3   19.47    1.05 
   0   6   3   19.90    1.24 
   0   6  -3   20.80    0.99 
   0   6  -3   20.24    1.03 
   0   6   3   20.67    1.05 
  -1  -6  -3    4.23    0.59 
   1  -6   3    4.23    0.63 
  -1   6  -3    5.40    0.80 
   1   6   3    5.17    0.73 
   1   6   3    3.75    0.54 
   2  -6   3   -0.16    0.52 
  -2  -6  -3    0.24    0.78 
  -2  -6  -3   -0.51    0.42 
   2   6   3   -0.30    0.39 
   2   6   3    0.09    0.38 
   2   6   3    0.59    0.40 
  -2   6  -3   -0.29    0.51 
   3  -6   3    1.93    0.71 
  -3   6  -3   -0.05    0.58 
   3   6   3    1.04    0.40 
   3   6   3    1.36    0.42 
   4  -6   3    6.82    1.24 
  -4  -6  -3    4.53    0.75 
  -4   6  -3    5.16    0.88 
   4   6   3    4.75    0.63 
   4   6   3    4.85    0.62 
  10   0  -4    5.55    0.71 
 -10   0   4    5.76    0.82 
  -9   0   4    5.29    0.94 
   9   0  -4    4.69    0.63 
  -8   0   4    8.31    0.89 
  -8   0   4    7.60    0.70 
   8   0  -4    8.67    0.77 
  -8   0   4    8.83    0.87 
   8   0  -4    6.30    0.72 
   7   0  -4   28.33    1.45 
  -7   0   4   26.05    1.39 
   7   0  -4   29.46    1.04 
  -7   0   4   29.62    1.01 
  -7   0   4   28.97    1.14 
   7   0  -4   31.82    1.11 
  -6   0   4   90.17    2.22 
   6   0  -4   90.24    2.16 
   6   0  -4   89.34    2.17 
  -6   0   4   87.84    2.13 
  -6   0   4   88.31    2.20 
   6   0  -4   89.83    2.14 
  -6   0   4   91.49    2.12 
   6   0  -4   89.33    2.15 
   5   0  -4  108.53    2.47 
  -5   0   4  108.74    2.44 
  -5   0   4  108.97    2.51 
  -5   0   4  110.41    2.45 
   5   0  -4  109.07    2.46 
  -5   0   4  108.40    2.50 
   5   0  -4  110.75    2.46 
   5   0  -4  108.76    2.47 
   4   0  -4   72.61    1.66 
   4   0  -4   71.99    1.67 
   4   0  -4   72.10    1.67 
  -4   0   4   71.47    1.66 
  -4   0   4   68.99    1.67 
   4   0  -4   70.95    1.66 
  -4   0   4   71.11    1.64 
  -4   0   4   70.63    1.69 
  -3   0   4    0.68    0.16 
   3   0  -4    0.38    0.17 
   3   0  -4    0.55    0.17 
   3   0  -4    0.66    0.17 
  -3   0   4    0.56    0.16 
  -3   0   4    0.41    0.16 
  -3   0   4    0.66    0.17 
   3   0  -4    0.44    0.14 
   2   0  -4    4.76    0.27 
  -2   0   4    4.87    0.27 
  -2   0   4    4.86    0.28 
  -2   0   4    4.72    0.26 
   2   0  -4    4.92    0.28 
  -2   0   4    4.88    0.28 
  -1   0   4  128.98    2.67 
  -1   0   4  128.17    2.66 
   1   0  -4  128.00    2.66 
   1   0  -4  129.94    2.66 
  -1   0   4  131.14    2.67 
   1   0  -4  126.18    2.70 
  -1   0   4  132.12    2.69 
   0   0  -4  184.66    3.70 
   0   0   4  183.66    3.72 
   0   0   4  168.05    3.78 
   0   0  -4  183.22    3.71 
   0   0   4  182.46    3.70 
   0   0   4  188.71    3.71 
   1   0   4  197.36    4.10 
  -1   0  -4  200.40    4.09 
   1   0   4  206.52    4.12 
  -1   0  -4  196.23    4.10 
  -1   0  -4  194.62    4.09 
   1   0   4  203.59    4.10 
   2   0   4    9.19    0.46 
   2   0   4    9.05    0.43 
  -2   0  -4    9.16    0.45 
  -2   0  -4    8.90    0.44 
   2   0   4    8.61    0.43 
  -2   0  -4    9.61    0.42 
  -2   0  -4   10.16    0.46 
   2   0   4    9.31    0.44 
   3   0   4   11.47    0.56 
  -3   0  -4   11.14    0.54 
  -3   0  -4   10.95    0.54 
   3   0   4   10.39    0.51 
  -3   0  -4   10.30    0.53 
  -3   0  -4   10.63    0.50 
   3   0   4   11.18    0.52 
   3   0   4   10.42    0.51 
  -4   0  -4  152.87    3.36 
  -4   0  -4  155.92    3.34 
   4   0   4  152.27    3.36 
   4   0   4  153.38    3.39 
  -4   0  -4  148.55    3.38 
   4   0   4  151.89    3.35 
  -4   0  -4  150.01    3.39 
   4   0   4  152.08    3.35 
   5   0   4   97.84    2.44 
   5   0   4  102.34    2.51 
  -5   0  -4  106.37    2.52 
  -5   0  -4  103.23    2.50 
   5   0   4   98.66    2.43 
  -5   0  -4  103.51    2.47 
  -5   0  -4  102.80    2.43 
   6   0   4   27.83    1.08 
   6   0   4   28.84    1.11 
  -6   0  -4   28.76    1.15 
  -6   0  -4   29.28    1.06 
  -6   0  -4   28.77    1.15 
  -6   0  -4   30.34    1.16 
   6   0   4   28.12    1.16 
  -7   0  -4   16.89    1.07 
   7   0   4   17.45    0.95 
   7   0   4   17.66    0.98 
  -7   0  -4   18.63    0.95 
   7   0   4   18.30    1.02 
  -7   0  -4   18.48    1.06 
  -8   0  -4    5.37    0.95 
   8   0   4    5.09    0.67 
   9   0   4    9.75    1.13 
  -9   0  -4    9.33    1.22 
  10  -1  -4   12.19    1.29 
 -10   1   4    8.21    1.42 
   9  -1  -4   17.83    1.20 
  -9  -1   4   15.68    1.01 
   9   1  -4   16.51    0.97 
   9   1  -4   15.43    0.87 
  -9   1   4   17.02    1.27 
   8  -1  -4   15.40    1.03 
  -8  -1   4   13.78    0.84 
  -8  -1   4   15.78    0.95 
   8  -1  -4   15.85    1.07 
  -8  -1   4   15.32    0.74 
   8  -1  -4   15.11    1.03 
   8   1  -4   15.32    0.79 
  -8   1   4   15.87    1.15 
   8   1  -4   15.20    0.77 
   8   1  -4   15.35    0.84 
  -8   1   4   15.17    0.96 
  -8   1   4   18.02    1.11 
   7  -1  -4   26.63    1.13 
  -7  -1   4   26.39    0.99 
  -7  -1   4   26.52    0.86 
   7  -1  -4   26.04    1.12 
  -7  -1   4   25.76    0.97 
   7  -1  -4   28.75    1.18 
  -7  -1   4   26.41    0.87 
   7   1  -4   25.28    0.93 
   7   1  -4   26.20    0.85 
  -7   1   4   26.52    1.06 
  -7   1   4   25.60    1.14 
   7   1  -4   24.98    0.90 
  -7   1   4   26.96    1.17 
   7   1  -4   26.93    0.94 
  -7   1   4   28.13    1.22 
  -6  -1   4   41.83    1.19 
   6  -1  -4   41.99    1.33 
  -6  -1   4   42.21    1.20 
   6  -1  -4   43.49    1.36 
  -6  -1   4   42.63    1.10 
  -6  -1   4   42.95    1.08 
   6  -1  -4   42.40    1.33 
  -6   1   4   41.62    1.29 
   6   1  -4   41.27    1.14 
  -6   1   4   41.19    1.38 
   6   1  -4   42.15    1.15 
   6   1  -4   42.98    1.08 
   6   1  -4   42.48    1.07 
  -6   1   4   43.63    1.34 
  -6   1   4   42.78    1.38 
   5  -1  -4   54.79    1.51 
   5  -1  -4   54.75    1.51 
   5  -1  -4   56.64    1.54 
   5  -1  -4   56.16    1.53 
  -5  -1   4   57.29    1.38 
  -5  -1   4   56.06    1.28 
  -5  -1   4   55.46    1.28 
  -5  -1   4   54.24    1.36 
  -5   1   4   55.52    1.51 
   5   1  -4   56.05    1.28 
   5   1  -4   53.97    1.33 
  -5   1   4   56.87    1.50 
  -5   1   4   55.08    1.56 
   5   1  -4   56.30    1.27 
   5   1  -4   55.84    1.33 
  -5   1   4   56.23    1.55 
  -4  -1   4   55.15    1.22 
   4  -1  -4   51.72    1.57 
   4  -1  -4   53.70    1.44 
   4  -1  -4   54.95    1.44 
   4  -1  -4   57.05    1.44 
  -4  -1   4   55.90    1.29 
  -4  -1   4   56.91    1.23 
  -4  -1   4   54.04    1.27 
   4   1  -4   55.87    1.27 
  -4   1   4   54.52    1.45 
  -4   1   4   52.72    1.47 
   4   1  -4   54.84    1.22 
  -4   1   4   55.10    1.42 
   4   1  -4   55.01    1.20 
   4   1  -4   57.99    1.27 
  -4   1   4   56.21    1.48 
   3  -1  -4   48.81    1.26 
   3  -1  -4   48.01    1.25 
  -3  -1   4   50.76    1.07 
  -3  -1   4   48.48    1.10 
  -3  -1   4   49.47    1.05 
   3  -1  -4   50.18    1.25 
   3  -1  -4   48.97    1.28 
  -3  -1   4   47.50    1.09 
  -3   1   4   48.63    1.28 
   3   1  -4   50.27    1.05 
   3   1  -4   49.17    1.06 
  -3   1   4   48.70    1.24 
  -3   1   4   47.66    1.27 
   3   1  -4   47.11    1.09 
   3   1  -4   49.67    1.09 
  -3   1   4   49.21    1.25 
  -2  -1   4  126.42    2.59 
   2  -1  -4  128.18    2.76 
   2  -1  -4  131.43    2.75 
  -2  -1   4  126.23    2.57 
   2  -1  -4  127.68    2.74 
  -2   1   4  128.99    2.73 
  -2   1   4  127.59    2.73 
   2   1  -4  130.34    2.58 
  -2   1   4  120.93    2.74 
   2   1  -4  125.67    2.58 
  -2   1   4  127.03    2.75 
   2   1  -4  127.00    2.59 
   1  -1  -4   81.46    1.80 
  -1  -1   4   81.62    1.73 
  -1  -1   4   80.72    1.71 
   1  -1  -4   82.79    1.83 
  -1  -1   4   83.96    1.73 
  -1  -1   4   80.70    1.72 
  -1   1   4   81.44    1.83 
  -1   1   4   80.27    1.79 
   1   1  -4   81.39    1.71 
   1   1  -4   80.40    1.73 
  -1   1   4   81.03    1.83 
   1   1  -4   84.04    1.72 
   1   1  -4   81.89    1.72 
   0  -1  -4   23.00    0.64 
   0  -1   4   23.81    0.63 
   0  -1   4   23.51    0.65 
   0  -1   4   23.47    0.64 
   0  -1   4   23.19    0.62 
   0  -1  -4   23.20    0.64 
   0  -1  -4   23.33    0.67 
   0   1  -4   22.93    0.64 
   0   1   4   22.50    0.66 
   0   1   4   22.52    0.64 
   0   1  -4   23.02    0.63 
   0   1   4   23.91    0.65 
   0   1   4   23.24    0.64 
  -1  -1  -4   27.98    0.73 
   1  -1   4   28.24    0.78 
  -1  -1  -4   28.57    0.77 
   1  -1   4   28.13    0.78 
  -1  -1  -4   28.29    0.74 
   1  -1   4   27.55    0.81 
   1  -1   4   28.17    0.79 
  -1  -1  -4   27.99    0.74 
  -1   1  -4   28.59    0.78 
  -1   1  -4   27.89    0.79 
  -1   1  -4   28.31    0.79 
   1   1   4   27.88    0.74 
  -1   1  -4   27.93    0.81 
   1   1   4   27.48    0.76 
   1   1   4   27.08    0.74 
  -2  -1  -4   73.54    1.68 
   2  -1   4   74.27    1.75 
  -2  -1  -4   76.16    1.68 
   2  -1   4   74.07    1.75 
  -2  -1  -4   72.70    1.70 
   2  -1   4   72.27    1.78 
  -2  -1  -4   76.55    1.67 
  -2   1  -4   73.14    1.77 
  -2   1  -4   77.70    1.80 
   2   1   4   72.42    1.68 
  -2   1  -4   73.56    1.74 
   2   1   4   78.73    1.71 
  -2   1  -4   73.33    1.76 
  -3  -1  -4  187.48    4.06 
  -3  -1  -4  196.86    4.11 
   3  -1   4  196.09    4.18 
   3  -1   4  196.72    4.17 
   3  -1   4  194.33    4.22 
  -3  -1  -4  191.25    4.11 
   3  -1   4  197.23    4.18 
  -3  -1  -4  182.44    4.24 
  -3   1  -4  198.13    4.19 
  -3   1  -4  195.75    4.21 
  -3   1  -4  197.35    4.15 
   3   1   4  206.73    4.39 
   3   1   4  195.94    4.08 
   3   1   4  192.33    4.08 
  -3   1  -4  193.68    4.20 
  -4  -1  -4   85.26    2.03 
   4  -1   4   84.06    2.09 
  -4  -1  -4   86.08    2.00 
  -4  -1  -4   85.30    1.97 
  -4  -1  -4   87.07    2.02 
   4  -1   4   85.73    2.09 
   4  -1   4   77.69    2.65 
   4  -1   4   81.39    2.08 
   4   1   4   87.94    2.03 
  -4   1  -4   85.93    2.14 
   4   1   4   85.55    1.99 
  -4   1  -4   84.47    2.07 
   4   1   4   86.39    1.99 
  -4   1  -4   82.59    2.12 
   4   1   4   82.62    1.97 
   5  -1   4   21.79    0.95 
  -5  -1  -4   22.19    0.80 
   5  -1   4   21.52    0.94 
   5  -1   4   21.81    0.94 
  -5  -1  -4   22.33    0.87 
  -5  -1  -4   22.32    0.86 
   5  -1   4   20.38    1.00 
  -5  -1  -4   22.26    0.87 
   5   1   4   22.79    0.83 
  -5   1  -4   21.32    0.94 
  -5   1  -4   21.24    1.01 
  -5   1  -4   21.41    0.97 
   5   1   4   24.08    0.84 
   5   1   4   22.56    0.81 
  -5   1  -4   22.10    1.00 
   5   1   4   21.81    0.86 
   6  -1   4   26.52    1.17 
  -6  -1  -4   27.42    1.08 
  -6  -1  -4   28.27    0.98 
   6  -1   4   27.75    1.25 
  -6  -1  -4   29.10    1.16 
   6  -1   4   25.72    1.11 
  -6  -1  -4   26.17    1.04 
   6   1   4   26.70    1.03 
   6   1   4   28.28    1.03 
  -6   1  -4   26.73    1.20 
   6   1   4   27.46    1.04 
   6   1   4   29.02    1.00 
  -6   1  -4   27.17    1.21 
  -6   1  -4   27.61    1.23 
  -7  -1  -4   23.57    1.08 
   7  -1   4   22.54    1.22 
   7  -1   4   22.00    1.16 
  -7  -1  -4   22.67    1.11 
  -7  -1  -4   23.59    0.98 
   7  -1   4   24.74    1.19 
   7   1   4   20.99    1.04 
  -7   1  -4   21.77    1.31 
  -7   1  -4   22.85    1.31 
   7   1   4   22.21    0.99 
  -7   1  -4   23.26    1.28 
  -7   1  -4   22.09    1.36 
   7   1   4   23.51    0.99 
  -8  -1  -4   14.19    1.02 
   8  -1   4   13.82    1.15 
  -8   1  -4   16.80    1.30 
   8   1   4   14.81    0.94 
   9  -1   4   10.27    1.20 
  -9  -1  -4   10.06    1.08 
   9   1   4    7.28    0.93 
  -9   1  -4    7.70    1.36 
   9  -2  -4    7.61    1.17 
  -9  -2   4    6.62    0.74 
  -9  -2   4    8.45    0.88 
   9   2  -4    6.43    0.73 
  -9   2   4    8.80    1.39 
   9   2  -4    7.99    0.63 
  -8  -2   4   40.42    1.29 
   8  -2  -4   44.31    1.69 
  -8  -2   4   40.27    1.25 
   8  -2  -4   43.93    1.74 
  -8   2   4   42.11    1.74 
   8   2  -4   41.94    1.19 
  -8   2   4   44.10    1.79 
   8   2  -4   42.16    1.21 
   7  -2  -4   44.10    1.61 
   7  -2  -4   46.28    1.67 
   7  -2  -4   45.07    1.63 
   7  -2  -4   44.31    1.59 
  -7  -2   4   44.27    1.23 
  -7  -2   4   43.75    1.20 
  -7   2   4   45.07    1.56 
   7   2  -4   45.72    1.17 
  -7   2   4   44.19    1.62 
   7   2  -4   43.81    1.15 
  -7   2   4   43.91    1.60 
  -7   2   4   42.65    1.66 
   6  -2  -4    5.00    0.68 
   6  -2  -4    6.50    0.79 
  -6  -2   4    4.67    0.38 
  -6  -2   4    4.93    0.40 
   6  -2  -4    4.35    0.57 
   6  -2  -4    4.80    0.59 
   6   2  -4    4.79    0.35 
  -6   2   4    5.37    0.76 
  -6   2   4    4.15    0.68 
   6   2  -4    4.68    0.33 
  -6   2   4    4.71    0.79 
  -6   2   4    5.33    0.77 
   5  -2  -4   15.79    0.84 
   5  -2  -4   14.41    0.82 
   5  -2  -4   16.35    0.84 
  -5  -2   4   15.75    0.50 
   5  -2  -4   15.17    0.80 
  -5  -2   4   15.10    0.49 
  -5   2   4   15.84    0.86 
  -5   2   4   16.51    0.81 
  -5   2   4   16.12    0.88 
  -5   2   4   15.79    0.84 
   5   2  -4   15.33    0.45 
   4  -2  -4   93.29    2.24 
  -4  -2   4   90.82    1.88 
  -4  -2   4   90.31    1.88 
   4  -2  -4   90.18    2.24 
   4  -2  -4   90.84    2.26 
   4  -2  -4   92.29    2.27 
  -4   2   4   88.54    2.21 
  -4   2   4   92.02    2.29 
  -4   2   4   93.36    2.25 
   4   2  -4   87.54    1.85 
   4   2  -4   96.86    1.86 
  -4   2   4   91.41    2.27 
   3  -2  -4  158.21    3.47 
   3  -2  -4  158.50    3.50 
  -3  -2   4  159.49    3.15 
  -3  -2   4  157.14    3.15 
   3  -2  -4  158.08    3.52 
   3  -2  -4  161.99    3.49 
  -3   2   4  155.15    3.46 
   3   2  -4  154.79    3.13 
  -3   2   4  160.99    3.49 
  -2  -2   4  137.00    2.83 
   2  -2  -4  136.73    3.08 
   2  -2  -4  137.28    3.06 
  -2  -2   4  138.78    2.81 
   2  -2  -4  135.90    3.05 
  -2   2   4  145.92    3.09 
  -2   2   4  143.18    3.09 
  -2   2   4  137.56    3.04 
   2   2  -4  137.00    2.80 
   2   2  -4  141.58    2.81 
  -2   2   4  137.76    3.04 
   1  -2  -4   12.64    0.52 
  -1  -2   4   11.95    0.38 
   1  -2  -4   11.61    0.54 
  -1  -2   4   12.37    0.41 
   1  -2  -4   11.23    0.50 
  -1  -2   4   12.91    0.39 
   1  -2  -4   11.60    0.52 
   1   2  -4   12.63    0.39 
  -1   2   4   11.92    0.52 
  -1   2   4   11.73    0.52 
   1   2  -4   12.12    0.40 
  -1   2   4   12.00    0.54 
   1   2  -4   12.35    0.39 
  -1   2   4   12.23    0.55 
   0  -2   4   17.92    0.58 
   0  -2  -4   17.60    0.60 
   0  -2  -4   17.23    0.60 
   0  -2  -4   18.16    0.64 
   0  -2  -4   18.30    0.59 
   0  -2   4   18.19    0.61 
   0  -2   4   17.84    0.55 
   0  -2   4   17.59    0.57 
   0   2  -4   17.92    0.56 
   0   2  -4   18.69    0.58 
   0   2   4   17.58    0.60 
   0   2   4   17.38    0.60 
   0   2  -4   18.22    0.59 
   0   2   4   18.23    0.62 
   0   2  -4   17.40    0.59 
   1  -2   4  147.51    3.11 
  -1  -2  -4  145.14    3.03 
  -1  -2  -4  144.70    3.05 
  -1  -2  -4  142.88    3.04 
  -1  -2  -4  141.34    3.08 
   1  -2   4  143.50    3.11 
   1  -2   4  146.13    3.09 
   1  -2   4  143.25    3.14 
  -1   2  -4  145.18    3.12 
  -1   2  -4  130.26    3.10 
   1   2   4  145.89    3.06 
  -1   2  -4  147.82    3.12 
  -1   2  -4  141.39    3.09 
   1   2   4  146.80    3.06 
   1   2   4  148.68    3.07 
   2  -2   4  156.21    3.54 
  -2  -2  -4  166.22    3.41 
   2  -2   4  162.01    3.53 
  -2  -2  -4  161.13    3.38 
  -2  -2  -4  156.82    3.43 
   2  -2   4  160.26    3.56 
  -2  -2  -4  167.72    3.39 
   2   2   4  161.76    3.39 
   2   2   4  159.73    3.40 
   2   2   4  163.76    3.39 
  -2   2  -4  161.71    3.50 
  -2   2  -4  153.03    3.66 
  -2   2  -4  169.07    3.55 
   2   2   4  164.57    3.41 
  -2   2  -4  162.09    3.55 
  -3  -2  -4   55.52    1.34 
   3  -2   4   54.22    1.51 
  -3  -2  -4   54.94    1.39 
   3  -2   4   57.40    1.53 
  -3  -2  -4   55.55    1.33 
   3  -2   4   52.09    1.48 
  -3  -2  -4   54.17    1.36 
   3  -2   4   57.14    1.58 
  -3   2  -4   56.27    1.55 
   3   2   4   56.26    1.33 
   3   2   4   54.37    1.35 
  -3   2  -4   56.44    1.55 
  -3   2  -4   56.19    1.55 
   3   2   4   58.04    1.38 
   3   2   4   54.63    1.35 
  -3   2  -4   55.05    1.48 
  -4  -2  -4   13.65    0.58 
  -4  -2  -4   14.86    0.57 
   4  -2   4   14.68    0.79 
   4  -2   4   14.27    0.75 
   4  -2   4   13.76    0.87 
   4  -2   4   13.52    0.74 
  -4  -2  -4   13.13    0.61 
  -4   2  -4   12.89    0.77 
   4   2   4   14.11    0.61 
  -4   2  -4   14.23    0.85 
  -4   2  -4   13.96    0.72 
  -4   2  -4   14.92    0.83 
   4   2   4   14.69    0.57 
   4   2   4   13.41    0.66 
   4   2   4   13.62    0.58 
  -5  -2  -4   45.99    1.36 
   5  -2   4   48.26    1.55 
  -5  -2  -4   46.90    1.29 
   5  -2   4   50.30    1.65 
   5  -2   4   48.06    1.52 
  -5  -2  -4   49.28    1.28 
  -5  -2  -4   48.50    1.35 
   5  -2   4   49.27    1.53 
  -5   2  -4   47.89    1.60 
  -5   2  -4   49.56    1.64 
   5   2   4   48.01    1.28 
   5   2   4   47.71    1.31 
   5   2   4   46.71    1.31 
   5   2   4   48.34    1.32 
  -5   2  -4   47.56    1.49 
  -5   2  -4   48.13    1.60 
  -6  -2  -4   44.54    1.36 
   6  -2   4   42.66    1.52 
   6  -2   4   44.45    1.56 
  -6  -2  -4   40.36    1.23 
  -6  -2  -4   45.20    1.37 
   6  -2   4   43.29    1.66 
   6  -2   4   45.01    1.63 
   6   2   4   46.27    1.32 
   6   2   4   43.08    1.30 
   6   2   4   41.16    1.24 
  -6   2  -4   45.46    1.62 
  -6   2  -4   43.39    1.66 
  -6   2  -4   42.74    1.49 
  -6   2  -4   43.53    1.70 
  -7  -2  -4   15.02    0.90 
   7  -2   4   13.77    1.31 
   7  -2   4   14.68    1.19 
   7  -2   4   14.44    1.30 
  -7  -2  -4   14.69    0.92 
   7  -2   4   15.39    1.16 
  -7  -2  -4   14.93    1.20 
   7   2   4   12.44    0.78 
  -7   2  -4   13.52    1.04 
  -7   2  -4   16.69    1.27 
   7   2   4   15.26    0.82 
  -7   2  -4   13.25    1.29 
   7   2   4   14.36    0.85 
  -8  -2  -4    9.96    0.93 
   8  -2   4    9.96    1.22 
  -8   2  -4   10.12    1.38 
   8   2   4    8.40    0.79 
   9  -2   4    2.83    0.86 
  -9   2  -4    2.59    1.14 
  -9  -3   4    5.04    0.58 
   9  -3  -4    5.21    0.91 
  -9  -3   4    6.15    0.59 
  -9   3   4    5.46    1.12 
   8  -3  -4    3.44    0.74 
  -8  -3   4    4.33    0.46 
  -8  -3   4    3.94    0.44 
  -8   3   4    2.43    0.73 
  -7  -3   4    5.93    0.34 
  -7  -3   4    5.68    0.35 
   7  -3  -4    5.86    1.02 
   7  -3  -4    5.97    0.78 
   7  -3  -4    4.82    0.85 
   7  -3  -4    6.77    0.87 
  -7   3   4    7.82    1.03 
  -7   3   4    7.16    1.14 
  -7   3   4    3.69    0.72 
  -7   3   4    6.06    0.89 
   6  -3  -4   72.71    2.17 
   6  -3  -4   74.24    2.18 
   6  -3  -4   74.49    2.21 
   6  -3  -4   70.56    2.16 
  -6   3   4   74.27    2.14 
  -6   3   4   73.51    2.20 
  -6   3   4   72.69    2.22 
  -6   3   4   71.12    2.23 
   5  -3  -4   62.86    1.88 
   5  -3  -4   60.00    1.83 
   5  -3  -4   59.22    1.84 
   5  -3  -4   61.97    1.83 
  -5   3   4   59.17    1.78 
  -5   3   4   59.96    1.88 
  -5   3   4   58.96    1.88 
  -5   3   4   61.65    1.84 
   4  -3  -4   25.61    1.04 
   4  -3  -4   24.24    1.06 
   4  -3  -4   26.00    1.06 
  -4   3   4   25.10    1.11 
  -4   3   4   26.30    1.09 
  -4   3   4   26.87    1.08 
  -4   3   4   25.65    1.03 
   3  -3  -4   54.39    1.56 
  -3  -3   4   55.19    1.14 
   3  -3  -4   55.78    1.60 
  -3  -3   4   55.17    1.15 
   3  -3  -4   53.96    1.54 
   3  -3  -4   53.61    1.59 
  -3   3   4   56.70    1.61 
  -3   3   4   55.64    1.56 
  -3   3   4   55.82    1.60 
  -2  -3   4   27.75    0.71 
   2  -3  -4   28.51    0.98 
   2  -3  -4   27.56    0.99 
  -2  -3   4   27.64    0.71 
  -2   3   4   27.52    0.96 
  -2   3   4   23.47    1.11 
   2   3  -4   27.83    0.70 
   2   3  -4   27.84    0.69 
  -2   3   4   28.80    1.00 
  -2   3   4   27.70    0.94 
   1  -3  -4  108.09    2.47 
  -1  -3   4  109.72    2.36 
   1  -3  -4  106.60    2.50 
   1  -3  -4  108.19    2.50 
  -1  -3   4  108.12    2.30 
  -1  -3   4  110.91    2.31 
  -1  -3   4  109.01    2.37 
   1  -3  -4  106.62    2.54 
  -1   3   4  105.34    2.48 
  -1   3   4  106.26    2.48 
   1   3  -4  108.17    2.33 
   1   3  -4  110.37    2.31 
   1   3  -4  109.64    2.35 
   1   3  -4  111.50    2.32 
  -1   3   4  105.33    2.50 
  -1   3   4  107.85    2.52 
   0  -3  -4  208.98    4.47 
   0  -3  -4  213.82    4.44 
   0  -3  -4  205.76    4.46 
   0  -3   4  208.66    4.46 
   0  -3   4  211.56    4.45 
   0  -3   4  214.76    4.41 
   0  -3   4  213.65    4.42 
   0  -3  -4  209.57    4.52 
   0   3  -4  211.39    4.44 
   0   3  -4  208.21    4.41 
   0   3   4  214.43    4.48 
   0   3  -4  212.56    4.44 
   0   3   4  211.50    4.48 
   0   3  -4  216.56    4.44 
   0   3   4  214.71    4.49 
   1  -3   4   59.69    1.55 
   1  -3   4   60.49    1.50 
   1  -3   4   58.77    1.52 
  -1  -3  -4   58.72    1.42 
  -1  -3  -4   58.50    1.45 
  -1  -3  -4   58.59    1.45 
   1  -3   4   59.41    1.49 
  -1  -3  -4   57.41    1.49 
  -1   3  -4   58.42    1.53 
   1   3   4   58.88    1.43 
   1   3   4   60.04    1.46 
  -1   3  -4   56.28    1.47 
  -1   3  -4   57.31    1.54 
   1   3   4   57.24    1.45 
   2  -3   4   35.90    1.12 
   2  -3   4   37.81    1.16 
  -2  -3  -4   36.24    0.99 
   2  -3   4   35.16    1.19 
   2  -3   4   35.80    1.14 
  -2  -3  -4   36.40    0.97 
  -2  -3  -4   35.90    1.05 
   2   3   4   37.16    1.00 
  -2   3  -4   36.85    1.20 
   2   3   4   37.24    1.00 
   2   3   4   34.43    0.99 
  -2   3  -4   35.72    1.17 
  -2   3  -4   37.11    1.12 
  -2   3  -4   37.37    1.17 
  -3  -3  -4   34.90    0.95 
   3  -3   4   34.45    1.24 
  -3  -3  -4   33.33    1.00 
  -3  -3  -4   33.53    0.93 
   3  -3   4   34.15    1.17 
  -3  -3  -4   34.81    0.97 
   3  -3   4   35.58    1.19 
   3  -3   4   33.30    1.16 
   3   3   4   35.58    0.95 
   3   3   4   35.44    0.95 
  -3   3  -4   33.79    1.25 
  -3   3  -4   34.30    1.21 
  -3   3  -4   33.54    1.22 
  -3   3  -4   34.01    1.14 
   3   3   4   32.16    0.95 
   3   3   4   33.56    0.95 
  -4  -3  -4   34.27    0.94 
   4  -3   4   33.99    1.30 
   4  -3   4   33.38    1.24 
  -4  -3  -4   33.41    1.04 
   4  -3   4   33.33    1.34 
  -4  -3  -4   32.91    0.96 
   4  -3   4   34.71    1.25 
  -4  -3  -4   34.69    1.01 
   4   3   4   33.39    0.98 
   4   3   4   33.63    0.95 
   4   3   4   32.25    0.97 
  -4   3  -4   32.91    1.34 
  -4   3  -4   34.60    1.23 
   4   3   4   33.61    0.93 
  -4   3  -4   36.57    1.36 
  -4   3  -4   32.35    1.27 
  -5  -3  -4   36.07    1.01 
   5  -3   4   36.41    1.39 
  -5  -3  -4   36.93    1.14 
   5  -3   4   35.71    1.49 
  -5  -3  -4   35.98    1.11 
  -5  -3  -4   33.88    1.01 
   5  -3   4   35.30    1.37 
   5  -3   4   34.46    1.50 
  -5   3  -4   37.29    1.37 
   5   3   4   34.46    1.00 
  -5   3  -4   36.75    1.56 
   5   3   4   35.42    0.99 
  -5   3  -4   36.88    1.53 
  -5   3  -4   35.52    1.45 
   5   3   4   36.62    1.08 
   5   3   4   36.39    1.07 
   6  -3   4   18.63    1.17 
   6  -3   4   16.43    1.14 
  -6  -3  -4   17.02    0.84 
   6  -3   4   16.68    1.40 
   6  -3   4   17.62    1.35 
  -6  -3  -4   17.66    0.86 
  -6  -3  -4   18.22    0.73 
  -6   3  -4   19.98    1.40 
  -6   3  -4   16.63    1.25 
  -6   3  -4   17.44    1.11 
   6   3   4   17.85    0.69 
  -6   3  -4   19.61    1.42 
   6   3   4   16.39    0.76 
   6   3   4   17.62    0.80 
   7  -3   4   15.84    1.32 
  -7  -3  -4   17.08    0.76 
   7  -3   4   15.00    1.49 
   7  -3   4   15.74    1.33 
  -7  -3  -4   14.16    0.92 
   7  -3   4   14.38    1.54 
  -7  -3  -4   13.86    0.89 
   7   3   4   15.54    0.88 
  -7   3  -4   12.73    1.20 
  -7   3  -4   17.56    1.51 
   7   3   4   14.49    0.79 
   7   3   4   14.54    0.66 
  -7   3  -4   18.88    1.60 
  -7   3  -4   17.65    1.57 
   8  -3   4    3.46    0.89 
  -8  -3  -4    3.40    0.58 
  -8   3  -4    5.31    1.12 
   8   3   4    2.92    0.50 
   8  -4  -4    2.39    0.90 
  -8   4   4    2.73    1.05 
   7  -4  -4    0.47    0.61 
   7  -4  -4    2.87    0.97 
   7  -4  -4    2.05    0.78 
  -7   4   4    2.36    0.84 
  -7   4   4    2.93    0.86 
  -7   4   4    2.48    0.76 
  -7   4   4    1.27    0.73 
   6  -4  -4   17.69    1.28 
   6  -4  -4   17.99    1.46 
   6  -4  -4   16.07    1.35 
   6  -4  -4   16.40    1.30 
  -6   4   4   17.81    1.38 
  -6   4   4   16.35    1.24 
  -6   4   4   16.86    1.30 
  -6   4   4   19.09    1.43 
   5  -4  -4   21.64    1.33 
   5  -4  -4   20.92    1.22 
   5  -4  -4   21.63    1.17 
   5  -4  -4   19.38    1.22 
  -5   4   4   20.56    1.26 
  -5   4   4   20.51    1.28 
  -5   4   4   19.56    1.13 
  -5   4   4   23.15    1.28 
   4  -4  -4   63.57    1.95 
   4  -4  -4   57.25    1.86 
   4  -4  -4   57.42    1.82 
   4  -4  -4   57.78    1.84 
  -4   4   4   59.11    1.89 
  -4   4   4   57.68    1.80 
  -4   4   4   62.40    1.92 
  -4   4   4   60.36    1.87 
   3  -4  -4   90.28    2.36 
  -3  -4   4   88.76    1.91 
   3  -4  -4   92.57    2.38 
  -3  -4   4   88.83    1.91 
   3  -4  -4   89.72    2.40 
   3  -4  -4   89.73    2.41 
   3   4  -4   92.18    1.87 
  -3   4   4   91.08    2.36 
  -3   4   4   91.75    2.42 
  -3   4   4   90.27    2.40 
  -3   4   4   89.07    2.36 
   3   4  -4   88.27    1.86 
  -2  -4   4   23.03    0.71 
  -2  -4   4   24.12    0.56 
  -2  -4   4   22.17    0.55 
   2  -4  -4   22.87    0.99 
   2  -4  -4   21.85    1.00 
   2  -4  -4   22.96    0.98 
   2  -4  -4   21.62    0.97 
  -2  -4   4   21.90    0.72 
  -2   4   4   22.72    0.97 
  -2   4   4   23.03    0.98 
  -2   4   4   22.57    1.02 
  -2   4   4   24.29    1.02 
   2   4  -4   21.88    0.68 
   2   4  -4   22.99    0.69 
  -1  -4   4   51.47    1.26 
   1  -4  -4   51.04    1.52 
   1  -4  -4   52.47    1.47 
  -1  -4   4   50.21    1.33 
  -1  -4   4   50.03    1.24 
  -1  -4   4   49.33    1.31 
   1  -4  -4   48.91    1.43 
   1  -4  -4   51.54    1.49 
   1   4  -4   51.23    1.28 
   1   4  -4   50.18    1.30 
  -1   4   4   52.07    1.50 
   1   4  -4   51.16    1.25 
  -1   4   4   48.12    1.44 
  -1   4   4   51.04    1.46 
   1   4  -4   50.34    1.24 
   0  -4  -4   73.66    1.86 
   0  -4  -4   73.33    1.82 
   0  -4  -4   74.35    1.93 
   0  -4   4   73.20    1.79 
   0  -4  -4   70.75    1.86 
   0  -4   4   72.97    1.83 
   0  -4   4   73.21    1.77 
   0   4  -4   74.32    1.80 
   0   4  -4   71.96    1.79 
   0   4   4   74.19    1.84 
   0   4  -4   74.73    1.82 
   0   4   4   74.76    1.87 
   0   4   4   71.09    1.86 
   0   4   4   72.98    1.87 
  -1  -4  -4   40.19    1.18 
  -1  -4  -4   42.19    1.16 
   1  -4   4   39.74    1.21 
  -1  -4  -4   39.75    1.21 
   1  -4   4   40.21    1.28 
  -1  -4  -4   41.54    1.25 
   1  -4   4   39.64    1.25 
   1  -4   4   39.69    1.21 
  -1   4  -4   40.30    1.26 
   1   4   4   41.68    1.18 
  -1   4  -4   40.14    1.22 
   1   4   4   40.53    1.19 
  -1   4  -4   39.94    1.25 
   1   4   4   39.78    1.18 
  -1   4  -4   40.72    1.25 
  -2  -4  -4   58.99    1.61 
   2  -4   4   60.70    1.74 
   2  -4   4   62.57    1.72 
  -2  -4  -4   59.00    1.48 
  -2  -4  -4   61.12    1.55 
   2  -4   4   61.63    1.70 
   2  -4   4   61.77    1.79 
  -2  -4  -4   60.70    1.53 
   2   4   4   60.79    1.52 
  -2   4  -4   59.77    1.69 
  -2   4  -4   59.27    1.74 
   2   4   4   58.96    1.55 
   2   4   4   61.65    1.54 
   2   4   4   63.43    1.52 
  -2   4  -4   59.06    1.73 
  -3  -4  -4   33.81    1.11 
  -3  -4  -4   36.18    1.06 
   3  -4   4   35.20    1.33 
   3  -4   4   33.75    1.87 
  -3  -4  -4   34.86    0.98 
   3  -4   4   36.03    1.34 
   3  -4   4   34.23    1.40 
  -3   4  -4   38.69    1.41 
  -3   4  -4   36.61    1.30 
  -3   4  -4   35.09    1.37 
  -3   4  -4   34.55    1.40 
   3   4   4   35.64    1.01 
   3   4   4   37.44    1.03 
   3   4   4   35.48    0.99 
   4  -4   4   26.08    1.26 
  -4  -4  -4   25.22    0.81 
   4  -4   4   26.40    1.20 
   4  -4   4   24.19    1.19 
  -4  -4  -4   25.83    0.95 
   4  -4   4   26.03    1.35 
  -4  -4  -4   24.06    0.87 
   4   4   4   25.54    0.87 
  -4   4  -4   27.80    1.37 
  -4   4  -4   24.39    1.39 
  -4   4  -4   26.68    1.28 
   4   4   4   25.21    0.86 
  -4   4  -4   26.28    1.19 
   4   4   4   26.44    0.78 
   4   4   4   25.05    0.75 
  -5  -4  -4   20.21    0.88 
   5  -4   4   20.55    1.24 
   5  -4   4   22.41    1.35 
   5  -4   4   20.85    1.39 
   5  -4   4   20.25    1.22 
  -5  -4  -4   19.86    0.86 
  -5  -4  -4   20.48    0.70 
  -5   4  -4   21.52    1.44 
  -5   4  -4   19.88    1.21 
  -5   4  -4   19.34    1.46 
   5   4   4   21.16    0.80 
   5   4   4   20.52    0.80 
  -5   4  -4   20.53    1.33 
  -6  -4  -4    3.50    0.65 
  -6  -4  -4    2.54    0.45 
   6  -4   4    2.94    0.95 
   6  -4   4    2.48    0.71 
   6  -4   4    3.89    0.72 
   6  -4   4    2.95    0.85 
  -6   4  -4    2.19    0.93 
   6   4   4    3.59    0.53 
  -6   4  -4    2.90    0.65 
  -6   4  -4    2.46    0.79 
   6   4   4    3.19    0.43 
  -6   4  -4    4.35    0.95 
   7  -4   4    1.18    0.83 
  -7  -4  -4    1.43    0.46 
   7  -4   4    0.81    0.87 
  -7  -4  -4    1.46    0.72 
   7   4   4    1.85    0.47 
  -7   4  -4    1.64    0.98 
   7   4   4    1.34    0.38 
  -7   4  -4   -0.05    0.81 
   7  -5  -4   18.27    1.83 
  -7   5   4   18.80    1.81 
   6  -5  -4    6.29    1.07 
  -6   5   4    8.05    1.30 
   5  -5  -4   10.99    1.26 
   5  -5  -4   14.18    1.36 
  -5   5   4   13.37    1.26 
  -5   5   4   12.09    1.35 
   4  -5  -4   16.40    1.25 
   4  -5  -4   16.73    1.18 
   4  -5  -4   17.96    1.24 
  -4   5   4   19.74    1.29 
  -4   5   4   20.22    1.30 
  -4   5   4   16.71    1.15 
   3  -5  -4    5.55    0.93 
  -3  -5   4    6.94    0.45 
  -3  -5   4    6.45    0.45 
   3  -5  -4    9.12    0.96 
  -3   5   4    8.75    1.16 
  -3   5   4    8.58    0.96 
   3   5  -4    6.93    0.38 
   3   5  -4    6.74    0.39 
  -3   5   4    6.78    0.89 
  -2  -5   4  106.11    2.40 
  -2  -5   4  104.53    2.41 
   2  -5  -4  104.93    2.72 
  -2  -5   4   99.52    2.16 
  -2  -5   4  106.93    2.17 
   2  -5  -4  104.27    2.75 
   2  -5  -4  103.48    2.78 
  -2   5   4  106.77    2.72 
   2   5  -4  107.36    2.37 
  -2   5   4  109.04    2.74 
   2   5  -4  103.17    2.35 
  -1  -5   4   85.61    2.00 
   1  -5  -4   86.49    2.26 
  -1  -5   4   84.22    2.12 
   1  -5  -4   86.57    2.29 
  -1  -5   4   86.12    2.11 
   1  -5  -4   87.24    2.35 
   1   5  -4   85.72    1.97 
  -1   5   4   81.15    2.24 
   1   5  -4   83.48    2.04 
  -1   5   4   85.78    2.29 
   1   5  -4   84.08    2.08 
   0  -5  -4    3.27    0.52 
   0  -5   4    2.74    0.42 
   0  -5  -4    3.30    0.47 
   0  -5   4    2.57    0.42 
   0  -5  -4    2.45    0.48 
   0  -5   4    3.75    0.67 
   0   5   4    3.33    0.50 
   0   5  -4    2.74    0.40 
   0   5  -4    2.57    0.42 
   0   5  -4    3.15    0.49 
   0   5   4    3.04    0.46 
   0   5   4    3.17    0.47 
   1  -5   4   16.73    0.98 
   1  -5   4   15.46    0.87 
   1  -5   4   15.29    0.88 
  -1  -5  -4   16.69    0.90 
  -1  -5  -4   16.55    0.84 
  -1  -5  -4   15.96    0.86 
  -1   5  -4   16.20    0.86 
  -1   5  -4   15.39    0.94 
   1   5   4   18.03    0.87 
   1   5   4   16.65    0.79 
  -1   5  -4   16.24    0.90 
   1   5   4   15.13    0.81 
  -2  -5  -4   39.03    1.30 
   2  -5   4   40.04    1.44 
   2  -5   4   38.45    1.37 
   2  -5   4   39.27    1.50 
  -2  -5  -4   39.34    1.21 
  -2  -5  -4   40.03    1.23 
  -2   5  -4   40.23    1.41 
   2   5   4   38.44    1.19 
   2   5   4   39.43    1.24 
   2   5   4   38.38    1.18 
  -2   5  -4   39.12    1.46 
  -2   5  -4   35.05    1.59 
   3  -5   4   37.15    1.43 
  -3  -5  -4   37.34    1.25 
   3  -5   4   38.68    1.51 
  -3  -5  -4   37.83    1.12 
   3  -5   4   38.25    1.60 
  -3  -5  -4   36.24    1.18 
  -3   5  -4   38.19    1.54 
   3   5   4   35.29    1.15 
   3   5   4   37.40    1.07 
  -3   5  -4   37.02    1.54 
   3   5   4   37.33    1.13 
  -3   5  -4   37.60    1.47 
  -4  -5  -4   21.14    0.89 
  -4  -5  -4   21.19    0.95 
   4  -5   4   19.96    1.26 
  -4  -5  -4   20.67    0.72 
   4  -5   4   20.24    1.57 
  -4   5  -4   19.76    1.35 
   4   5   4   20.83    0.84 
   4   5   4   18.56    0.82 
  -4   5  -4   21.09    1.25 
   5  -5   4    1.59    0.67 
  -5  -5  -4    2.49    0.47 
   5   5   4    1.60    0.40 
   5   5   4    2.47    0.38 
  -5   5  -4    2.04    0.63 
   6  -5   4    2.27    0.92 
   6   5   4    0.57    0.33 
   6   5   4    0.59    0.41 
  -6   5  -4    1.41    0.83 
   5  -6  -4   10.78    1.57 
  -5   6   4   13.13    1.52 
   4  -6  -4   14.44    1.47 
  -4   6   4   11.48    1.35 
  -3  -6   4    9.98    0.62 
   3  -6  -4   11.49    1.25 
   3   6  -4    9.71    0.54 
   3   6  -4   10.15    0.53 
  -3   6   4    9.19    1.11 
   2  -6  -4   13.85    1.21 
  -2  -6   4   14.43    0.79 
  -2  -6   4   13.41    0.82 
   2   6  -4   14.36    0.78 
  -2   6   4   13.26    1.10 
   2   6  -4   14.11    0.72 
   1  -6  -4    6.06    0.97 
  -1  -6   4    6.77    0.67 
  -1  -6   4    6.30    0.72 
  -1  -6   4    7.90    0.80 
   1   6  -4    6.27    0.66 
   1   6  -4    5.89    0.68 
  -1   6   4    7.54    0.93 
   1   6  -4    6.84    0.76 
   0  -6  -4   57.53    1.91 
   0  -6   4   61.02    1.82 
   0   6   4   60.11    1.84 
   0   6  -4   58.71    1.74 
   0   6  -4   57.72    1.76 
  -1  -6  -4   58.90    1.88 
   1  -6   4   60.72    1.90 
  -1   6  -4   58.50    1.82 
   1   6   4   59.75    2.24 
   1   6   4   57.60    1.76 
   2  -6   4    0.13    0.56 
  -2  -6  -4    0.34    0.46 
   2   6   4    0.12    0.44 
  -2   6  -4    0.21    0.50 
   2   6   4   -0.31    0.38 
   3  -6   4    2.07    0.69 
  -3  -6  -4    3.15    0.55 
   3   6   4    1.37    0.44 
  -3   6  -4    3.48    0.73 
   3   6   4    2.34    0.52 
  -4  -6  -4    5.97    0.80 
   4  -6   4    6.30    0.87 
   4   6   4    6.03    0.68 
  -4   6  -4    7.97    1.30 
  10   0  -5   -0.68    0.53 
 -10   0   5   -1.01    0.64 
   9   0  -5    1.01    0.48 
  -9   0   5    0.28    0.50 
   8   0  -5    0.21    0.40 
  -8   0   5    0.38    0.41 
  -8   0   5   -0.37    0.33 
  -8   0   5    0.37    0.53 
   8   0  -5   -0.15    0.38 
   7   0  -5    0.24    0.32 
   7   0  -5    0.34    0.33 
  -7   0   5   -0.06    0.35 
  -7   0   5   -0.11    0.30 
   7   0  -5    0.12    0.31 
  -7   0   5    0.37    0.37 
   6   0  -5    0.21    0.27 
  -6   0   5    0.38    0.30 
  -6   0   5   -0.22    0.23 
  -6   0   5   -0.04    0.25 
   6   0  -5   -0.46    0.24 
   6   0  -5    0.42    0.27 
  -6   0   5   -0.20    0.28 
   6   0  -5    0.02    0.25 
   5   0  -5   -0.01    0.23 
  -5   0   5    0.14    0.23 
  -5   0   5   -0.20    0.20 
  -5   0   5    0.04    0.22 
   5   0  -5   -0.35    0.21 
  -5   0   5    0.12    0.24 
   5   0  -5   -0.36    0.21 
   5   0  -5   -0.29    0.22 
   4   0  -5   -0.11    0.18 
  -4   0   5   -0.10    0.16 
   4   0  -5    0.07    0.18 
  -4   0   5   -0.23    0.18 
   4   0  -5   -0.02    0.15 
  -4   0   5    0.06    0.18 
  -4   0   5   -0.15    0.15 
   4   0  -5   -0.06    0.18 
  -3   0   5   -0.12    0.14 
   3   0  -5    0.08    0.15 
   3   0  -5   -0.09    0.11 
  -3   0   5   -0.04    0.15 
   3   0  -5   -0.05    0.16 
   3   0  -5    0.02    0.15 
  -3   0   5    0.17    0.17 
  -3   0   5   -0.08    0.14 
  -2   0   5    0.03    0.12 
  -2   0   5    0.01    0.13 
   2   0  -5    0.05    0.13 
  -2   0   5   -0.08    0.14 
   2   0  -5    0.01    0.11 
   1   0  -5    0.08    0.13 
  -1   0   5    0.09    0.14 
   1   0  -5    0.11    0.13 
  -1   0   5    0.02    0.12 
  -1   0   5    0.25    0.13 
   1   0  -5   -0.02    0.10 
   1   0  -5    0.21    0.13 
  -1   0   5    0.05    0.11 
   0   0   5   -0.02    0.11 
   0   0   5   -0.30    0.11 
   0   0   5    0.10    0.11 
   0   0  -5   -0.06    0.14 
   0   0  -5    0.06    0.14 
   0   0  -5   -0.08    0.15 
   0   0  -5    0.11    0.14 
   0   0   5    0.23    0.12 
  -1   0  -5    0.16    0.17 
   1   0   5   -0.14    0.15 
   1   0   5   -0.09    0.14 
  -1   0  -5    0.10    0.14 
   1   0   5    0.10    0.12 
  -1   0  -5   -0.04    0.17 
  -1   0  -5    0.29    0.16 
   2   0   5   -0.15    0.15 
   2   0   5    0.08    0.17 
  -2   0  -5    0.09    0.18 
  -2   0  -5   -0.15    0.18 
   2   0   5   -0.16    0.19 
  -2   0  -5    0.07    0.19 
   2   0   5   -0.26    0.24 
  -2   0  -5   -0.01    0.15 
  -3   0  -5    0.22    0.19 
   3   0   5    0.10    0.18 
  -3   0  -5    0.02    0.22 
   3   0   5    0.22    0.25 
   3   0   5    0.01    0.18 
  -3   0  -5    0.16    0.21 
   3   0   5    0.13    0.20 
  -3   0  -5    0.00    0.22 
   4   0   5   -0.14    0.23 
  -4   0  -5   -0.29    0.24 
  -4   0  -5   -0.32    0.19 
   4   0   5    0.05    0.27 
  -4   0  -5   -0.07    0.23 
   4   0   5    0.15    0.23 
  -4   0  -5    0.16    0.28 
   4   0   5    0.18    0.25 
   5   0   5   -0.01    0.29 
  -5   0  -5    0.43    0.30 
   5   0   5    0.49    0.29 
  -5   0  -5    0.16    0.29 
   5   0   5    0.01    0.36 
  -5   0  -5    0.21    0.35 
   5   0   5    0.12    0.25 
  -5   0  -5    0.08    0.25 
  -6   0  -5   -0.22    0.28 
   6   0   5    0.01    0.37 
   6   0   5   -0.08    0.33 
   6   0   5    0.06    0.44 
  -6   0  -5    0.40    0.43 
  -6   0  -5   -0.44    0.35 
  -6   0  -5   -0.25    0.35 
  -7   0  -5    0.05    0.37 
  -7   0  -5    0.60    0.49 
  -7   0  -5    0.37    0.45 
   7   0   5    0.28    0.45 
   7   0   5   -0.11    0.39 
   7   0   5    0.02    0.42 
  -8   0  -5    0.17    0.53 
   8   0   5   -0.14    0.52 
  -9   0  -5   -0.21    0.70 
   9   0   5    0.30    0.62 
  10  -1  -5    7.77    1.20 
 -10   1   5    4.93    0.91 
  -9  -1   5    2.10    0.52 
   9  -1  -5    2.94    0.62 
   9   1  -5    3.41    0.53 
   9   1  -5    2.29    0.44 
  -9   1   5    2.24    0.67 
  -8  -1   5    8.11    0.80 
   8  -1  -5    8.10    0.90 
   8  -1  -5    4.65    0.60 
  -8  -1   5    8.00    0.72 
   8  -1  -5    6.98    0.90 
  -8  -1   5    6.85    0.60 
  -8   1   5    5.83    0.80 
  -8   1   5    6.62    0.93 
   8   1  -5    7.93    0.62 
  -8   1   5    5.80    0.96 
   8   1  -5    6.78    0.68 
   8   1  -5    6.26    0.62 
   7  -1  -5    4.08    0.86 
  -7  -1   5    3.68    0.57 
   7  -1  -5    4.04    0.71 
  -7  -1   5    3.57    0.46 
   7  -1  -5    3.26    0.58 
  -7  -1   5    4.61    0.60 
   7  -1  -5    4.29    0.64 
  -7   1   5    4.74    0.76 
  -7   1   5    4.42    0.66 
   7   1  -5    4.06    0.51 
  -7   1   5    4.52    0.69 
   7   1  -5    3.58    0.44 
  -7   1   5    4.64    0.72 
   7   1  -5    4.47    0.51 
   7   1  -5    4.22    0.43 
   6  -1  -5    5.48    0.60 
   6  -1  -5    4.06    0.61 
   6  -1  -5    4.89    0.63 
  -6  -1   5    4.78    0.48 
  -6  -1   5    4.57    0.40 
  -6  -1   5    4.23    0.48 
  -6  -1   5    4.57    0.37 
  -6   1   5    5.36    0.59 
   6   1  -5    4.43    0.37 
   6   1  -5    4.33    0.36 
   6   1  -5    3.88    0.42 
   6   1  -5    4.93    0.44 
  -6   1   5    4.32    0.59 
  -6   1   5    5.82    0.68 
  -6   1   5    3.52    0.63 
  -5  -1   5    9.11    0.40 
  -5  -1   5    8.00    0.38 
   5  -1  -5    8.71    0.60 
   5  -1  -5    8.45    0.59 
   5  -1  -5    7.88    0.56 
   5  -1  -5    8.49    0.59 
  -5  -1   5    8.50    0.47 
  -5  -1   5    8.02    0.45 
   5   1  -5    7.82    0.37 
   5   1  -5    7.82    0.42 
   5   1  -5    8.62    0.39 
   5   1  -5    8.09    0.44 
  -5   1   5    8.39    0.62 
  -5   1   5    8.90    0.65 
  -5   1   5    8.67    0.56 
  -5   1   5    8.51    0.60 
  -4  -1   5   68.88    1.60 
  -4  -1   5   74.64    1.56 
   4  -1  -5   70.43    1.78 
   4  -1  -5   69.36    1.81 
   4  -1  -5   72.29    1.75 
  -4  -1   5   73.63    1.54 
  -4  -1   5   69.97    1.60 
   4  -1  -5   70.01    1.76 
  -4   1   5   70.17    1.80 
   4   1  -5   72.73    1.55 
  -4   1   5   69.79    1.73 
   4   1  -5   71.71    1.53 
  -4   1   5   68.42    1.96 
   4   1  -5   73.84    1.59 
  -4   1   5   71.59    1.79 
   4   1  -5   70.04    1.59 
   3  -1  -5    0.70    0.22 
  -3  -1   5    1.33    0.23 
   3  -1  -5    1.36    0.25 
   3  -1  -5    1.33    0.26 
  -3  -1   5    1.20    0.18 
  -3  -1   5    1.12    0.16 
   3  -1  -5    0.74    0.18 
  -3  -1   5    1.35    0.20 
   3   1  -5    1.11    0.20 
   3   1  -5    1.26    0.16 
  -3   1   5    0.84    0.21 
  -3   1   5    1.22    0.24 
   3   1  -5    1.00    0.17 
  -3   1   5    0.78    0.21 
   3   1  -5    1.33    0.19 
  -2  -1   5  100.90    2.08 
   2  -1  -5   97.30    2.20 
  -2  -1   5  102.74    2.07 
   2  -1  -5   94.89    2.27 
  -2  -1   5  100.39    2.09 
   2  -1  -5   94.30    2.20 
  -2  -1   5   99.85    2.10 
   2   1  -5  103.74    2.09 
   2   1  -5  104.02    2.08 
   2   1  -5   97.53    2.08 
  -2   1   5   98.07    2.24 
  -2   1   5   98.77    2.21 
   2   1  -5   98.12    2.08 
  -2   1   5  104.82    2.25 
  -2   1   5   97.15    2.19 
  -1  -1   5  302.60    5.94 
  -1  -1   5  298.14    5.96 
   1  -1  -5  289.86    6.09 
  -1  -1   5  299.61    5.97 
  -1  -1   5  294.80    5.95 
   1  -1  -5  299.76    6.03 
   1  -1  -5  299.75    6.03 
  -1   1   5  296.48    6.05 
   1   1  -5  300.43    5.96 
   1   1  -5  291.02    5.96 
   1   1  -5  297.27    5.95 
  -1   1   5  285.99    6.14 
   1   1  -5  301.89    5.95 
   0  -1   5    7.70    0.37 
   0  -1   5    7.84    0.39 
   0  -1   5    8.18    0.36 
   0  -1  -5    7.81    0.38 
   0  -1  -5    7.70    0.38 
   0  -1  -5    8.11    0.38 
   0  -1   5    8.08    0.37 
   0   1   5    7.55    0.37 
   0   1  -5    7.53    0.45 
   0   1  -5    7.42    0.35 
   0   1   5    8.53    0.39 
   0   1  -5    7.47    0.38 
   0   1   5    7.59    0.37 
   0   1   5    7.44    0.39 
   1  -1   5   97.08    2.18 
  -1  -1  -5   98.94    2.14 
  -1  -1  -5   97.84    2.18 
  -1  -1  -5  101.90    2.15 
  -1  -1  -5   95.87    2.15 
   1  -1   5   97.83    2.20 
   1  -1   5   97.96    2.18 
   1  -1   5  101.89    2.23 
  -1   1  -5   99.20    2.21 
  -1   1  -5   96.49    2.19 
   1   1   5   98.72    2.14 
  -1   1  -5   99.94    2.19 
   1   1   5   96.13    2.15 
   1   1   5   98.87    2.17 
   1   1   5   94.80    2.14 
  -2  -1  -5    8.82    0.43 
   2  -1   5    8.72    0.48 
   2  -1   5    8.54    0.52 
  -2  -1  -5    8.92    0.43 
  -2  -1  -5    9.08    0.46 
  -2  -1  -5    9.15    0.44 
   2  -1   5    8.70    0.49 
   2   1   5    9.45    0.46 
   2   1   5    8.73    0.43 
   2   1   5    9.36    0.44 
  -2   1  -5    8.33    0.46 
  -2   1  -5    9.47    0.52 
  -2   1  -5    9.00    0.50 
  -2   1  -5    8.64    0.51 
   3  -1   5    2.46    0.41 
  -3  -1  -5    2.41    0.38 
  -3  -1  -5    2.31    0.36 
   3  -1   5    2.41    0.39 
  -3  -1  -5    2.97    0.35 
  -3  -1  -5    2.86    0.37 
   3  -1   5    2.85    0.39 
   3  -1   5    3.83    0.61 
   3   1   5    2.35    0.41 
  -3   1  -5    2.90    0.47 
  -3   1  -5    2.72    0.39 
  -3   1  -5    2.63    0.44 
  -3   1  -5    1.84    0.31 
   3   1   5    2.73    0.36 
   3   1   5    3.49    0.41 
   4  -1   5    9.79    0.71 
   4  -1   5    9.35    0.61 
  -4  -1  -5    9.34    0.54 
  -4  -1  -5   10.17    0.58 
  -4  -1  -5    9.76    0.57 
   4  -1   5    8.80    0.63 
   4  -1   5   10.36    0.64 
  -4  -1  -5   10.23    0.59 
  -4   1  -5    8.98    0.66 
  -4   1  -5    9.25    0.59 
   4   1   5    9.24    0.53 
  -4   1  -5    9.78    0.68 
  -4   1  -5    9.83    0.67 
   4   1   5   10.06    0.55 
   4   1   5   10.68    0.61 
  -5  -1  -5   24.53    0.87 
  -5  -1  -5   21.79    0.90 
   5  -1   5   23.40    1.00 
  -5  -1  -5   23.27    0.93 
  -5  -1  -5   22.18    0.92 
   5  -1   5   23.18    1.09 
   5  -1   5   22.29    0.99 
   5  -1   5   23.64    0.99 
  -5   1  -5   22.78    1.03 
   5   1   5   22.21    0.86 
   5   1   5   22.69    0.93 
  -5   1  -5   22.18    1.04 
   5   1   5   21.95    0.87 
  -5   1  -5   23.15    1.06 
  -5   1  -5   23.79    0.97 
  -6  -1  -5    7.60    0.73 
  -6  -1  -5    7.07    0.73 
   6  -1   5    5.65    0.91 
   6  -1   5    6.33    0.75 
  -6  -1  -5    6.64    0.63 
   6  -1   5    4.94    0.75 
  -6  -1  -5    6.04    0.84 
   6  -1   5    5.34    0.84 
   6   1   5    4.95    0.72 
  -6   1  -5    5.90    0.83 
  -6   1  -5    6.37    0.71 
  -6   1  -5    7.57    0.93 
   6   1   5    5.99    0.79 
   6   1   5    4.53    0.60 
  -6   1  -5    5.85    0.86 
   6   1   5    7.18    0.68 
  -7  -1  -5    0.49    0.49 
  -7  -1  -5   -0.08    0.42 
   7  -1   5    0.67    0.52 
  -7  -1  -5    0.44    0.40 
   7  -1   5    1.30    0.51 
   7   1   5    0.38    0.41 
   7   1   5    0.67    0.38 
   7   1   5    0.17    0.40 
  -7   1  -5    0.57    0.65 
  -7   1  -5    0.93    0.58 
   8  -1   5    1.90    0.61 
  -8  -1  -5    0.65    0.52 
  -8   1  -5    2.88    0.72 
   8   1   5    1.03    0.47 
  -9  -1  -5    0.58    0.63 
   9  -1   5    1.65    0.75 
  -9   1  -5    1.67    0.78 
   9   1   5    1.49    0.54 
  -9  -2   5   -0.29    0.46 
  -9  -2   5    0.55    0.42 
   9  -2  -5   -0.51    0.65 
   9   2  -5    0.50    0.35 
  -9   2   5   -0.68    0.66 
   8  -2  -5   11.69    1.30 
  -8  -2   5   12.09    0.76 
   8  -2  -5   11.70    1.11 
  -8  -2   5   12.59    0.68 
   8  -2  -5   15.22    1.21 
  -8   2   5   12.21    1.20 
   8   2  -5   11.69    0.61 
  -8   2   5   11.38    1.19 
   7  -2  -5    3.39    0.57 
   7  -2  -5    3.47    0.72 
  -7  -2   5    4.41    0.47 
  -7  -2   5    3.30    0.49 
   7  -2  -5    3.61    0.66 
   7  -2  -5    4.58    0.68 
  -7   2   5    4.98    0.68 
   7   2  -5    3.86    0.38 
  -7   2   5    3.71    0.60 
  -7   2   5    3.36    0.59 
  -7   2   5    4.57    0.69 
   6  -2  -5   11.77    0.86 
  -6  -2   5   11.82    0.51 
   6  -2  -5   10.30    0.90 
   6  -2  -5   12.47    0.86 
   6  -2  -5   12.11    0.89 
  -6   2   5   12.69    0.86 
  -6   2   5   11.40    0.93 
   6   2  -5   11.70    0.47 
  -6   2   5   12.19    0.87 
  -6   2   5   12.16    0.91 
   6   2  -5   11.59    0.45 
   5  -2  -5    0.65    0.41 
   5  -2  -5    0.66    0.29 
   5  -2  -5    0.96    0.33 
  -5  -2   5    1.57    0.20 
  -5  -2   5    1.65    0.26 
   5  -2  -5    0.67    0.35 
  -5   2   5    0.70    0.35 
   5   2  -5    1.91    0.23 
  -5   2   5    1.54    0.45 
   5   2  -5    1.38    0.22 
  -5   2   5    1.13    0.36 
  -5   2   5    0.84    0.31 
   4  -2  -5    1.92    0.36 
   4  -2  -5    2.30    0.39 
   4  -2  -5    2.32    0.38 
  -4  -2   5    2.38    0.21 
  -4  -2   5    2.27    0.20 
   4   2  -5    2.21    0.18 
  -4   2   5    2.32    0.40 
   4   2  -5    2.22    0.19 
  -4   2   5    2.19    0.38 
  -4   2   5    2.71    0.41 
  -4   2   5    2.44    0.35 
   3  -2  -5    9.41    0.57 
   3  -2  -5    9.65    0.58 
   3  -2  -5   12.65    0.77 
  -3  -2   5    9.45    0.30 
  -3  -2   5    9.87    0.31 
   3  -2  -5    9.78    0.60 
  -3   2   5    9.50    0.60 
  -3   2   5    9.18    0.56 
   3   2  -5    9.46    0.30 
   3   2  -5    8.99    0.29 
   2  -2  -5    5.71    0.44 
   2  -2  -5    5.46    0.47 
  -2  -2   5    5.70    0.23 
   2  -2  -5    6.18    0.45 
  -2  -2   5    5.91    0.29 
   2  -2  -5    6.44    0.48 
  -2  -2   5    5.84    0.27 
  -2  -2   5    5.61    0.22 
   2   2  -5    5.59    0.28 
   2   2  -5    5.61    0.22 
  -2   2   5    5.85    0.47 
   2   2  -5    5.45    0.22 
  -2   2   5    5.78    0.44 
  -2   2   5    5.67    0.47 
   2   2  -5    5.67    0.25 
   1  -2  -5   28.66    0.85 
  -1  -2   5   28.02    0.77 
   1  -2  -5   28.29    0.86 
   1  -2  -5   29.46    0.88 
  -1  -2   5   27.75    0.84 
  -1  -2   5   29.09    0.73 
   1  -2  -5   28.53    0.91 
  -1  -2   5   28.77    0.74 
   1   2  -5   29.73    0.75 
   1   2  -5   28.59    0.75 
  -1   2   5   30.25    0.91 
  -1   2   5   28.18    0.86 
   1   2  -5   29.87    0.74 
  -1   2   5   29.77    0.89 
  -1   2   5   27.56    0.86 
   0  -2  -5  100.70    2.28 
   0  -2  -5  106.63    2.27 
   0  -2   5  103.33    2.23 
   0  -2   5   97.58    2.27 
   0  -2   5  101.92    2.23 
   0  -2  -5   98.49    2.31 
   0  -2   5  100.49    2.25 
   0  -2  -5  105.24    2.28 
   0   2  -5  103.44    2.26 
   0   2  -5  104.69    2.25 
   0   2  -5  101.15    2.25 
   0   2   5  100.90    2.29 
   0   2   5  100.78    2.29 
   0   2   5  104.35    2.27 
   0   2   5  101.22    2.28 
   0   2  -5  102.23    2.26 
  -1  -2  -5   33.19    0.93 
   1  -2   5   34.54    0.98 
   1  -2   5   35.17    0.97 
  -1  -2  -5   34.30    0.93 
  -1  -2  -5   32.21    0.91 
   1  -2   5   33.24    0.97 
  -1  -2  -5   34.04    0.96 
   1  -2   5   33.20    1.01 
  -1   2  -5   34.20    0.99 
   1   2   5   33.21    0.96 
  -1   2  -5   33.72    0.98 
  -1   2  -5   33.50    0.96 
   1   2   5   33.02    0.92 
  -1   2  -5   33.90    0.99 
  -2  -2  -5   17.79    0.62 
   2  -2   5   18.55    0.78 
  -2  -2  -5   17.86    0.66 
  -2  -2  -5   18.79    0.63 
  -2  -2  -5   18.62    0.64 
   2  -2   5   18.08    0.72 
   2  -2   5   18.41    0.73 
   2   2   5   17.46    0.63 
   2   2   5   18.18    0.63 
   2   2   5   19.47    0.66 
  -2   2  -5   18.08    0.76 
   2   2   5   18.03    0.62 
  -2   2  -5   17.83    0.75 
  -2   2  -5   18.50    0.70 
   3  -2   5   10.47    0.70 
   3  -2   5   10.78    0.63 
   3  -2   5    9.68    0.62 
   3  -2   5    9.74    0.63 
  -3  -2  -5   10.01    0.51 
  -3  -2  -5    9.97    0.51 
  -3  -2  -5   10.18    0.55 
  -3  -2  -5   10.82    0.49 
   3   2   5    9.98    0.50 
  -3   2  -5    9.91    0.66 
   3   2   5   10.39    0.50 
   3   2   5   10.05    0.49 
  -3   2  -5    9.50    0.66 
   3   2   5   10.44    0.54 
  -3   2  -5   10.67    0.61 
  -3   2  -5    9.99    0.67 
  -4  -2  -5    3.95    0.46 
   4  -2   5    2.87    0.44 
  -4  -2  -5    2.77    0.39 
  -4  -2  -5    3.04    0.45 
  -4  -2  -5    2.93    0.44 
   4  -2   5    2.87    0.51 
   4  -2   5    3.76    0.62 
   4  -2   5    2.30    0.39 
   4   2   5    2.48    0.42 
  -4   2  -5    2.63    0.45 
   4   2   5    2.21    0.39 
   4   2   5    2.85    0.45 
  -4   2  -5    2.71    0.49 
  -4   2  -5    2.21    0.36 
  -4   2  -5    1.83    0.35 
   4   2   5    2.86    0.39 
   5  -2   5   -0.41    0.35 
  -5  -2  -5    0.40    0.28 
  -5  -2  -5    0.14    0.30 
   5  -2   5    0.11    0.44 
   5  -2   5    0.71    0.36 
  -5  -2  -5    0.58    0.37 
   5  -2   5    0.93    0.50 
   5   2   5    0.35    0.33 
  -5   2  -5    0.43    0.52 
   5   2   5    0.45    0.30 
   5   2   5   -0.01    0.24 
  -5   2  -5    0.02    0.32 
   5   2   5    0.27    0.28 
  -5   2  -5    1.20    0.52 
  -5   2  -5    0.49    0.45 
  -6  -2  -5    0.89    0.35 
  -6  -2  -5    1.30    0.40 
   6  -2   5    1.17    0.48 
  -6  -2  -5    0.96    0.42 
   6  -2   5    0.87    0.51 
   6  -2   5    1.40    0.61 
   6   2   5    0.81    0.38 
  -6   2  -5    1.51    0.59 
   6   2   5    1.10    0.34 
  -6   2  -5    0.16    0.42 
  -6   2  -5    1.98    0.77 
   6   2   5    0.56    0.34 
  -6   2  -5    0.81    0.63 
  -7  -2  -5    2.98    0.55 
   7  -2   5    4.21    0.84 
  -7  -2  -5    4.92    0.69 
  -7  -2  -5    4.49    0.79 
   7  -2   5    3.84    0.68 
   7   2   5    3.24    0.51 
   7   2   5    4.02    0.66 
  -7   2  -5    4.29    0.72 
  -7   2  -5    3.29    0.78 
   7   2   5    4.40    0.74 
  -7   2  -5    4.00    0.87 
  -8  -2  -5   -0.47    0.49 
   8  -2   5    0.29    0.70 
   8   2   5   -0.33    0.40 
  -8   2  -5    0.90    0.72 
   9  -3  -5    1.53    0.88 
  -9  -3   5    2.00    0.35 
  -9  -3   5    2.07    0.35 
  -9   3   5    1.11    0.88 
   8  -3  -5    0.18    0.62 
  -8  -3   5   -0.05    0.23 
  -8  -3   5    0.15    0.24 
  -8   3   5   -0.05    0.67 
   7  -3  -5    0.53    0.67 
   7  -3  -5   -0.93    0.55 
   7  -3  -5   -0.45    0.70 
   7  -3  -5    0.27    0.59 
  -7   3   5   -0.37    0.57 
  -7   3   5   -0.22    0.56 
  -7   3   5   -0.25    0.55 
  -7   3   5   -0.10    0.66 
   6  -3  -5   23.50    1.23 
   6  -3  -5   22.96    1.20 
   6  -3  -5   22.36    1.28 
   6  -3  -5   22.85    1.26 
  -6   3   5   22.09    1.16 
  -6   3   5   22.63    1.23 
  -6   3   5   22.87    1.27 
  -6   3   5   23.90    1.31 
   5  -3  -5   -0.05    0.37 
   5  -3  -5   -0.46    0.38 
   5  -3  -5    0.23    0.36 
   5  -3  -5   -0.93    0.46 
  -5   3   5   -1.00    0.43 
  -5   3   5    0.38    0.36 
  -5   3   5   -0.56    0.46 
  -5   3   5    0.24    0.38 
   4  -3  -5  103.37    2.65 
   4  -3  -5  105.15    2.61 
   4  -3  -5  105.53    2.69 
   4  -3  -5  102.53    2.61 
  -4   3   5  103.62    2.60 
  -4   3   5  106.15    2.67 
  -4   3   5  106.44    2.67 
  -4   3   5  103.08    2.60 
  -3  -3   5   10.68    0.35 
  -3  -3   5   10.85    0.33 
   3  -3  -5   10.29    0.74 
   3  -3  -5   11.51    0.72 
  -3   3   5   11.81    0.69 
   3   3  -5   11.32    0.32 
  -3   3   5   11.07    0.70 
  -3   3   5   10.59    0.71 
   3   3  -5   10.83    0.30 
  -3   3   5   12.51    0.77 
   2  -3  -5    0.39    0.27 
   2  -3  -5    0.03    0.28 
   2  -3  -5    0.19    0.24 
  -2  -3   5    0.55    0.12 
  -2  -3   5    0.47    0.16 
  -2  -3   5    0.71    0.17 
  -2  -3   5    0.88    0.16 
  -2   3   5    0.73    0.27 
  -2   3   5    0.28    0.27 
  -2   3   5    0.84    0.28 
   2   3  -5    0.36    0.14 
   2   3  -5    0.60    0.16 
  -1  -3   5    0.20    0.17 
   1  -3  -5    0.34    0.26 
  -1  -3   5    0.11    0.17 
  -1  -3   5    0.25    0.17 
  -1  -3   5    0.15    0.20 
   1  -3  -5    0.12    0.19 
   1  -3  -5    0.08    0.24 
   1  -3  -5    0.36    0.26 
  -1   3   5   -0.15    0.23 
   1   3  -5    0.34    0.17 
  -1   3   5    0.40    0.25 
   1   3  -5    0.13    0.17 
  -1   3   5   -0.13    0.24 
  -1   3   5    0.11    0.26 
   1   3  -5   -0.06    0.15 
   1   3  -5    0.05    0.17 
   0  -3   5    4.85    0.41 
   0  -3   5    5.24    0.45 
   0  -3  -5    4.69    0.49 
   0  -3   5    5.22    0.40 
   0  -3  -5    4.99    0.43 
   0  -3  -5    5.19    0.46 
   0  -3   5    4.98    0.40 
   0  -3  -5    5.19    0.45 
   0   3   5    5.19    0.46 
   0   3  -5    4.57    0.38 
   0   3   5    5.29    0.44 
   0   3  -5    4.77    0.43 
   0   3  -5    4.59    0.43 
   0   3  -5    4.88    0.42 
   1  -3   5  132.32    3.02 
   1  -3   5  136.41    2.96 
  -1  -3  -5  131.40    2.98 
  -1  -3  -5  132.39    2.92 
  -1  -3  -5  129.73    2.91 
   1  -3   5  131.60    2.99 
   1  -3   5  132.06    2.96 
  -1  -3  -5  133.89    2.90 
  -1   3  -5  130.50    2.95 
   1   3   5  133.98    2.90 
   1   3   5  131.70    2.93 
  -1   3  -5  131.57    3.15 
   1   3   5  128.59    2.93 
  -1   3  -5  132.69    2.98 
   1   3   5  136.76    2.94 
   2  -3   5   47.43    1.45 
  -2  -3  -5   47.81    1.33 
  -2  -3  -5   49.32    1.27 
   2  -3   5   48.54    1.40 
   2  -3   5   48.43    1.39 
   2  -3   5   47.52    1.41 
  -2  -3  -5   47.13    1.27 
  -2  -3  -5   50.37    1.25 
   2   3   5   47.09    1.27 
  -2   3  -5   50.58    1.44 
   2   3   5   48.26    1.27 
  -2   3  -5   48.28    1.43 
   2   3   5   49.14    1.26 
  -2   3  -5   48.09    1.38 
  -2   3  -5   50.37    1.45 
   2   3   5   48.99    1.27 
   3  -3   5    1.24    0.35 
  -3  -3  -5    0.87    0.24 
  -3  -3  -5    1.36    0.27 
  -3  -3  -5    1.13    0.28 
   3  -3   5    1.26    0.40 
   3  -3   5    1.19    0.45 
  -3  -3  -5    1.17    0.29 
   3  -3   5    0.60    0.32 
   3   3   5    0.87    0.26 
   3   3   5    0.86    0.24 
   3   3   5    1.08    0.27 
   3   3   5    0.86    0.25 
  -3   3  -5    1.15    0.34 
  -3   3  -5    1.46    0.42 
  -3   3  -5    0.74    0.36 
  -3   3  -5    1.12    0.37 
  -4  -3  -5    2.07    0.34 
   4  -3   5    3.69    0.63 
   4  -3   5    2.42    0.45 
  -4  -3  -5    3.37    0.47 
   4  -3   5    2.32    0.47 
  -4  -3  -5    2.54    0.35 
   4  -3   5    2.37    0.47 
  -4  -3  -5    2.42    0.33 
  -4   3  -5    2.77    0.47 
   4   3   5    2.85    0.44 
  -4   3  -5    2.16    0.49 
   4   3   5    2.26    0.32 
   4   3   5    2.94    0.43 
  -4   3  -5    2.55    0.56 
   4   3   5    2.59    0.36 
  -4   3  -5    3.35    0.59 
  -5  -3  -5    3.20    0.44 
   5  -3   5    4.37    0.85 
   5  -3   5    2.38    0.58 
  -5  -3  -5    3.30    0.54 
   5  -3   5    2.63    0.56 
   5  -3   5    3.93    0.68 
  -5   3  -5    1.92    0.60 
  -5   3  -5    2.96    0.72 
  -5   3  -5    2.56    0.58 
  -5   3  -5    2.13    0.47 
   5   3   5    3.61    0.51 
   5   3   5    2.92    0.50 
   5   3   5    2.86    0.48 
  -6  -3  -5    5.30    0.60 
   6  -3   5    4.96    0.82 
   6  -3   5    4.25    0.68 
  -6  -3  -5    3.89    0.67 
   6  -3   5    5.89    0.88 
  -6  -3  -5    5.00    0.67 
   6  -3   5    4.49    0.73 
  -6   3  -5    4.13    0.75 
  -6   3  -5    5.02    0.81 
   6   3   5    4.97    0.63 
  -6   3  -5    5.29    0.92 
  -6   3  -5    4.23    0.86 
   6   3   5    4.79    0.57 
   6   3   5    5.34    0.58 
   7  -3   5    0.36    0.68 
  -7  -3  -5    0.27    0.53 
  -7  -3  -5    0.18    0.47 
  -7  -3  -5    0.10    0.43 
   7  -3   5   -0.53    0.63 
   7   3   5    0.60    0.44 
   7   3   5    0.04    0.37 
   7   3   5   -0.04    0.35 
  -7   3  -5    2.66    1.05 
  -7   3  -5    1.46    0.63 
  -7   3  -5   -0.23    0.77 
  -7   3  -5   -0.79    0.92 
   8  -3   5    0.88    0.83 
  -8  -3  -5    0.67    0.52 
  -8   3  -5    2.57    1.01 
   8   3   5    0.33    0.43 
   8  -4  -5    4.03    0.95 
  -8   4   5    4.07    1.05 
   7  -4  -5    4.01    1.32 
   7  -4  -5    2.33    0.76 
   7  -4  -5    2.57    0.84 
  -7   4   5    0.80    0.71 
  -7   4   5    2.87    0.73 
  -7   4   5    0.94    0.92 
  -7   4   5    2.90    0.89 
   6  -4  -5    0.21    0.60 
   6  -4  -5    0.97    0.72 
   6  -4  -5   -0.50    0.59 
   6  -4  -5   -0.53    0.72 
  -6   4   5    0.38    0.67 
  -6   4   5    0.64    0.58 
  -6   4   5   -0.12    0.76 
  -6   4   5    0.70    0.72 
   5  -4  -5    1.76    0.48 
   5  -4  -5    1.83    0.54 
   5  -4  -5    1.86    0.70 
   5  -4  -5    1.49    0.55 
  -5   4   5    2.83    0.88 
  -5   4   5    2.39    0.67 
  -5   4   5    1.87    0.67 
  -5   4   5    2.02    0.60 
   4  -4  -5   14.28    1.00 
   4  -4  -5   13.67    0.99 
   4  -4  -5   13.34    0.99 
   4  -4  -5   13.93    0.95 
  -4   4   5   13.57    0.94 
  -4   4   5   13.32    1.00 
  -4   4   5   14.11    1.00 
  -3  -4   5    2.91    0.30 
   3  -4  -5    2.68    0.52 
  -3  -4   5    2.80    0.29 
   3  -4  -5    2.74    0.49 
   3  -4  -5    2.57    0.49 
   3  -4  -5    2.44    0.45 
   3   4  -5    2.82    0.23 
  -3   4   5    1.88    0.41 
  -3   4   5    3.19    0.54 
  -3   4   5    2.19    0.42 
   3   4  -5    3.28    0.25 
  -3   4   5    2.64    0.51 
  -2  -4   5  115.48    2.60 
   2  -4  -5  123.01    2.90 
   2  -4  -5  119.62    2.86 
  -2  -4   5  120.55    2.44 
   2  -4  -5  119.31    2.95 
  -2  -4   5  117.80    2.59 
  -2  -4   5  117.03    2.44 
   2  -4  -5  118.20    2.91 
   2   4  -5  117.25    2.57 
   2   4  -5  118.60    2.57 
  -2   4   5  116.02    2.91 
  -2   4   5  123.33    2.93 
  -2   4   5  121.49    2.89 
  -2   4   5  122.23    2.90 
  -1  -4   5   10.72    0.53 
   1  -4  -5   11.91    0.70 
  -1  -4   5   11.12    0.59 
   1  -4  -5   11.98    0.77 
   1  -4  -5   12.85    0.75 
  -1  -4   5   11.81    0.58 
   1  -4  -5   11.20    0.74 
  -1  -4   5   11.57    0.54 
   1   4  -5   11.27    0.54 
  -1   4   5   12.56    0.76 
   1   4  -5   11.48    0.56 
  -1   4   5   11.27    0.71 
   1   4  -5   12.50    0.56 
   1   4  -5   11.44    0.53 
  -1   4   5   12.80    0.75 
   0  -4   5   -0.17    0.25 
   0  -4  -5   -0.02    0.31 
   0  -4  -5    0.04    0.27 
   0  -4  -5   -0.10    0.28 
   0  -4   5    0.28    0.26 
   0  -4  -5   -0.15    0.29 
   0  -4   5    0.54    0.27 
   0   4  -5   -0.12    0.23 
   0   4  -5   -0.07    0.25 
   0   4   5   -0.01    0.27 
   0   4   5    0.23    0.30 
   0   4   5   -0.18    0.24 
   0   4  -5   -0.29    0.26 
   0   4   5    0.35    0.30 
   1  -4   5    7.36    0.61 
   1  -4   5    7.53    0.62 
  -1  -4  -5    7.88    0.59 
  -1  -4  -5    8.00    0.57 
   1  -4   5    7.72    0.62 
  -1  -4  -5    7.11    0.58 
   1  -4   5    7.35    0.66 
  -1  -4  -5    7.60    0.62 
  -1   4  -5    7.54    0.59 
   1   4   5    8.23    0.60 
   1   4   5    6.67    0.57 
  -1   4  -5    7.81    0.63 
   1   4   5    8.75    0.56 
   1   4   5    8.41    0.61 
  -1   4  -5    8.55    0.66 
  -1   4  -5    8.15    0.68 
   2  -4   5    7.19    0.70 
  -2  -4  -5    6.97    0.56 
  -2  -4  -5    5.86    0.56 
   2  -4   5    6.18    0.66 
   2  -4   5    6.25    0.74 
   2  -4   5    7.18    0.67 
  -2  -4  -5    6.62    0.68 
  -2   4  -5    5.84    0.64 
   2   4   5    7.42    0.56 
   2   4   5    7.19    0.51 
  -2   4  -5    6.09    0.77 
  -2   4  -5    7.03    0.74 
   2   4   5    7.35    0.57 
   3  -4   5   33.04    1.29 
  -3  -4  -5   30.65    1.00 
   3  -4   5   28.52    1.31 
   3  -4   5   30.98    1.25 
  -3  -4  -5   29.86    0.93 
  -3  -4  -5   29.54    1.05 
  -3  -4  -5   29.49    0.97 
  -3   4  -5   31.83    1.37 
  -3   4  -5   29.36    1.29 
   3   4   5   30.57    0.99 
   3   4   5   31.34    0.97 
   3   4   5   28.36    1.35 
   3   4   5   30.84    0.95 
  -3   4  -5   29.50    1.19 
  -3   4  -5   29.23    1.44 
   4  -4   5   13.26    0.99 
  -4  -4  -5   13.93    0.72 
  -4  -4  -5   13.44    0.68 
  -4  -4  -5   12.59    0.75 
   4  -4   5   15.03    1.03 
   4  -4   5   12.68    1.16 
   4  -4   5   13.51    1.12 
   4   4   5   13.95    0.69 
   4   4   5   13.37    0.66 
   4   4   5   13.70    0.68 
  -4   4  -5   12.45    1.21 
  -4   4  -5   13.03    0.96 
  -4   4  -5   14.57    1.16 
  -4   4  -5   14.11    1.11 
   5  -4   5   -0.65    0.47 
  -5  -4  -5    0.22    0.38 
   5  -4   5    1.11    0.74 
  -5  -4  -5   -0.07    0.35 
   5  -4   5   -0.93    0.48 
  -5  -4  -5    0.05    0.34 
   5  -4   5   -0.28    0.72 
   5   4   5    0.23    0.30 
   5   4   5    0.32    0.31 
  -5   4  -5   -0.14    0.76 
  -5   4  -5    0.84    0.79 
  -5   4  -5   -0.38    0.64 
   5   4   5    0.61    0.35 
  -5   4  -5   -0.63    0.51 
   6  -4   5    1.81    0.90 
  -6  -4  -5    0.08    0.42 
  -6  -4  -5    0.57    0.36 
   6  -4   5    0.56    0.68 
  -6  -4  -5    0.53    0.42 
   6  -4   5   -0.60    0.86 
   6  -4   5    1.15    0.68 
  -6   4  -5    0.63    0.79 
  -6   4  -5    0.67    0.71 
   6   4   5    0.57    0.35 
   6   4   5    0.57    0.39 
  -7  -4  -5   -0.41    0.48 
  -7   4  -5    1.44    1.60 
  -7   4  -5    1.27    1.22 
   7   4   5    1.00    0.42 
   6  -5  -5    3.60    0.91 
  -6   5   5    4.25    0.87 
   5  -5  -5    4.30    0.80 
   5  -5  -5    4.97    0.77 
  -5   5   5    6.61    0.90 
  -5   5   5    7.16    1.09 
   4  -5  -5    0.46    0.53 
   4  -5  -5   -1.12    0.59 
   4  -5  -5    0.95    0.58 
  -4   5   5    0.44    0.55 
  -4   5   5    0.11    0.58 
  -4   5   5    0.17    0.57 
   3  -5  -5    3.16    0.83 
  -3  -5   5    2.30    0.42 
   3  -5  -5    1.90    0.56 
  -3  -5   5    2.34    0.40 
   3  -5  -5    1.86    0.60 
   3   5  -5    1.99    0.25 
   3   5  -5    2.07    0.32 
  -3   5   5    3.32    0.63 
  -3   5   5    2.09    0.63 
   2  -5  -5    0.47    0.48 
  -2  -5   5    1.01    0.18 
  -2  -5   5    1.27    0.31 
  -2  -5   5    0.56    0.25 
  -2  -5   5    0.87    0.34 
   2  -5  -5    0.68    0.50 
   2  -5  -5    0.22    0.44 
  -2   5   5    0.63    0.46 
   2   5  -5    0.53    0.26 
   2   5  -5    1.08    0.29 
  -2   5   5    0.88    0.50 
  -2   5   5    0.66    0.48 
  -1  -5   5    7.24    0.67 
  -1  -5   5    8.75    0.58 
  -1  -5   5    8.37    0.63 
   1  -5  -5    7.73    0.86 
   1  -5  -5    8.43    0.80 
   1  -5  -5    7.47    0.82 
  -1   5   5    7.93    0.85 
  -1   5   5    7.68    0.79 
   1   5  -5    7.53    0.59 
   1   5  -5    7.05    0.61 
   1   5  -5    7.83    0.59 
   0  -5   5   81.36    2.11 
   0  -5  -5   78.11    2.14 
   0  -5   5   80.34    2.03 
   0  -5  -5   81.66    2.24 
   0  -5   5   78.60    2.13 
   0  -5  -5   79.40    2.12 
   0   5  -5   81.85    2.07 
   0   5   5   81.41    2.12 
   0   5  -5   79.95    2.07 
   0   5  -5   81.91    2.06 
   0   5   5   80.74    2.16 
   0   5   5   81.07    2.14 
   1  -5   5    5.12    0.69 
   1  -5   5    4.12    0.75 
  -1  -5  -5    4.40    0.81 
  -1  -5  -5    4.87    0.70 
   1  -5   5    4.34    0.71 
  -1  -5  -5    4.05    0.67 
  -1   5  -5    5.35    0.81 
   1   5   5    4.46    0.73 
  -1   5  -5    4.62    0.70 
  -1   5  -5    4.86    0.66 
   1   5   5    5.22    0.66 
   1   5   5    5.45    0.63 
   2  -5   5    0.47    0.44 
   2  -5   5    0.39    0.50 
  -2  -5  -5    0.39    0.35 
   2  -5   5   -0.70    0.41 
  -2  -5  -5    0.29    0.38 
  -2   5  -5    0.09    0.53 
  -2   5  -5    0.08    0.51 
   2   5   5   -0.09    0.33 
  -2   5  -5   -0.61    0.41 
   2   5   5    0.21    0.40 
   2   5   5   -0.36    0.30 
  -3  -5  -5    4.56    0.64 
  -3  -5  -5    4.67    0.66 
  -3  -5  -5    4.41    0.70 
   3  -5   5    3.20    0.64 
   3  -5   5    3.84    0.59 
   3  -5   5    3.19    0.67 
   3   5   5    4.37    0.65 
  -3   5  -5    2.99    0.61 
  -3   5  -5    4.51    0.71 
   3   5   5    4.23    0.59 
   3   5   5    2.83    0.43 
  -3   5  -5    2.18    0.52 
  -4  -5  -5    1.25    0.44 
  -4  -5  -5    1.30    0.43 
   4  -5   5    0.76    0.59 
  -4  -5  -5    1.07    0.38 
   4   5   5    1.41    0.38 
  -4   5  -5   -0.13    0.57 
   4   5   5    1.03    0.36 
   4   5   5    1.45    0.39 
  -5  -5  -5    5.14    0.75 
   5  -5   5    5.08    0.87 
  -5   5  -5    5.56    0.85 
   5   5   5    4.57    0.69 
   5   5   5    5.20    0.63 
   6  -5   5    1.94    0.92 
  -6  -5  -5    2.85    0.60 
  -6   5  -5    2.29    0.87 
   6   5   5    1.24    0.41 
   4  -6  -5    4.98    0.93 
  -4   6   5    7.21    1.24 
  -3  -6   5    5.27    0.58 
   3  -6  -5    4.49    0.85 
  -3  -6   5    4.52    0.73 
  -3   6   5    5.00    0.82 
   3   6  -5    4.62    0.44 
   3   6  -5    5.13    0.48 
  -2  -6   5    0.79    0.38 
  -2  -6   5    1.04    0.44 
   2  -6  -5    1.61    0.65 
  -2   6   5    0.10    0.57 
   2   6  -5    0.74    0.38 
   2   6  -5    0.80    0.35 
  -1  -6   5    8.97    0.75 
   1  -6  -5    7.93    1.04 
  -1  -6   5    8.37    0.86 
  -1  -6   5    8.08    0.77 
   1   6  -5    7.48    0.66 
  -1   6   5    7.23    0.94 
   1   6  -5    7.46    0.78 
   1   6  -5    7.87    0.72 
   0  -6  -5    1.63    0.57 
   0  -6   5   -0.02    0.45 
   0   6  -5    0.53    0.43 
   0   6   5   -0.54    0.43 
   0   6  -5   -0.39    0.69 
   1  -6   5    2.04    0.58 
  -1  -6  -5    1.02    0.53 
   1   6   5    1.81    0.51 
  -1   6  -5    2.74    0.58 
   2  -6   5   19.43    1.26 
  -2  -6  -5   19.79    1.10 
  -2   6  -5   19.80    1.23 
   2   6   5   18.63    1.01 
  -3  -6  -5    1.71    0.53 
   3  -6   5    1.81    0.69 
   3   6   5    1.01    0.45 
  -3   6  -5    0.16    0.62 
   4  -6   5    2.25    0.80 
  -4   6  -5    1.41    0.71 
  10   0  -6   32.01    1.44 
 -10   0   6   32.45    1.60 
   9   0  -6   11.59    0.98 
  -9   0   6   13.55    1.06 
  -8   0   6   21.86    0.96 
  -8   0   6   20.90    1.07 
   8   0  -6   20.35    1.23 
   8   0  -6   20.08    1.00 
   8   0  -6   20.59    1.00 
  -7   0   6   23.24    1.01 
  -7   0   6   23.19    1.04 
   7   0  -6   23.61    0.96 
  -7   0   6   23.61    0.93 
   7   0  -6   24.36    1.04 
   7   0  -6   23.45    0.96 
   6   0  -6   18.73    0.77 
   6   0  -6   18.01    0.76 
  -6   0   6   17.78    0.85 
  -6   0   6   18.18    0.83 
   6   0  -6   18.35    0.79 
   6   0  -6   18.46    0.78 
  -6   0   6   18.58    0.76 
  -6   0   6   17.91    0.75 
  -5   0   6  259.83    5.37 
  -5   0   6  260.40    5.38 
   5   0  -6  250.25    5.39 
  -5   0   6  256.48    5.44 
   5   0  -6  265.05    5.42 
   5   0  -6  262.95    5.38 
   5   0  -6  256.18    5.41 
  -5   0   6  258.26    5.44 
  -4   0   6  222.43    4.79 
  -4   0   6  242.22    4.76 
  -4   0   6  223.48    4.79 
   4   0  -6  224.07    4.77 
  -4   0   6  231.44    4.76 
   4   0  -6  233.60    4.75 
   4   0  -6  230.65    4.79 
   4   0  -6  223.84    4.76 
  -3   0   6  108.38    2.31 
   3   0  -6  106.79    2.35 
  -3   0   6  106.74    2.35 
   3   0  -6  104.74    2.31 
  -3   0   6  105.57    2.32 
   3   0  -6  104.91    2.33 
  -3   0   6  107.80    2.36 
   2   0  -6  177.17    3.75 
  -2   0   6  183.60    3.77 
   2   0  -6  183.36    3.77 
  -2   0   6  181.50    3.77 
  -2   0   6  176.54    3.78 
  -2   0   6  185.65    3.75 
   1   0  -6  213.61    4.39 
  -1   0   6  208.07    4.36 
   1   0  -6  215.52    4.37 
   1   0  -6  209.45    4.36 
   1   0  -6  216.53    4.36 
  -1   0   6  215.29    4.35 
  -1   0   6  211.63    4.37 
  -1   0   6  210.48    4.39 
   0   0   6  321.07    6.50 
   0   0  -6  324.84    6.54 
   0   0   6  317.24    6.53 
   0   0  -6  321.48    6.50 
   0   0   6  312.11    6.49 
   0   0  -6  326.11    6.51 
   0   0  -6  327.01    6.50 
   0   0   6  320.65    6.51 
   1   0   6   52.53    1.28 
   1   0   6   51.56    1.31 
   1   0   6   52.07    1.29 
  -1   0  -6   52.44    1.29 
  -1   0  -6   50.46    1.30 
   1   0   6   52.41    1.28 
  -2   0  -6    0.92    0.23 
   2   0   6    0.82    0.26 
   2   0   6    1.74    0.35 
   2   0   6    0.52    0.20 
  -2   0  -6    0.76    0.22 
  -2   0  -6    0.27    0.22 
   3   0   6  279.87    5.89 
  -3   0  -6  282.65    5.89 
   3   0   6  276.37    5.88 
  -3   0  -6  282.21    5.93 
   3   0   6  292.52    5.95 
  -3   0  -6  278.33    5.90 
   3   0   6  277.33    5.87 
  -3   0  -6  283.98    5.87 
  -4   0  -6   39.34    1.26 
   4   0   6   39.80    1.22 
  -4   0  -6   40.83    1.26 
   4   0   6   39.94    1.28 
  -4   0  -6   39.83    1.26 
   4   0   6   38.95    1.21 
  -4   0  -6   39.95    1.20 
   4   0   6   41.75    1.22 
   5   0   6   31.14    1.22 
   5   0   6   33.29    1.17 
   5   0   6   31.47    1.13 
  -5   0  -6   32.53    1.17 
  -5   0  -6   31.49    1.19 
  -5   0  -6   31.81    1.19 
   5   0   6   31.38    1.11 
  -5   0  -6   33.05    1.12 
  -6   0  -6    3.93    0.59 
   6   0   6    3.61    0.61 
  -6   0  -6    2.98    0.52 
   6   0   6    4.61    0.64 
   6   0   6    4.03    0.71 
   6   0   6    3.57    0.51 
  -6   0  -6    2.84    0.51 
  -6   0  -6    3.49    0.49 
  -7   0  -6    5.25    0.86 
   7   0   6    7.35    0.86 
  -7   0  -6    4.87    0.77 
   7   0   6    5.93    0.92 
  -7   0  -6    5.34    0.76 
   8   0   6   33.76    1.46 
  -8   0  -6   32.87    1.55 
  -9   0  -6   20.32    1.47 
   9   0   6   18.48    1.34 
  10  -1  -6   -1.06    0.63 
 -10   1   6    0.59    0.78 
   9  -1  -6    3.15    0.66 
  -9  -1   6    1.97    0.52 
  -9   1   6    3.90    0.73 
   9   1  -6    4.76    0.78 
   9   1  -6    3.86    0.50 
  -8  -1   6   38.83    1.15 
   8  -1  -6   39.30    1.50 
  -8  -1   6   38.38    1.35 
   8  -1  -6   38.04    1.47 
  -8  -1   6   39.63    1.32 
   8  -1  -6   40.62    1.54 
  -8   1   6   38.19    1.58 
  -8   1   6   40.94    1.56 
   8   1  -6   39.35    1.28 
  -8   1   6   38.62    1.42 
   8   1  -6   38.43    1.24 
   8   1  -6   39.94    1.15 
   7  -1  -6   51.20    1.62 
   7  -1  -6   56.00    1.73 
  -7  -1   6   52.63    1.49 
  -7  -1   6   52.29    1.33 
  -7  -1   6   51.03    1.48 
   7  -1  -6   54.49    1.64 
  -7  -1   6   46.93    1.60 
   7   1  -6   52.09    1.31 
   7   1  -6   53.90    1.43 
  -7   1   6   52.82    1.58 
  -7   1   6   50.47    1.69 
  -7   1   6   54.91    1.62 
   7   1  -6   51.91    1.42 
   7   1  -6   52.93    1.32 
   6  -1  -6   80.37    2.07 
   6  -1  -6   78.82    2.08 
  -6  -1   6   78.85    1.80 
  -6  -1   6   76.27    1.91 
   6  -1  -6   78.58    2.06 
  -6  -1   6   79.99    1.81 
  -6  -1   6   80.46    1.93 
   6   1  -6   79.82    1.78 
  -6   1   6   80.13    2.14 
   6   1  -6   80.82    1.80 
  -6   1   6   79.49    2.05 
  -6   1   6   81.28    2.05 
   6   1  -6   77.92    1.89 
  -6   1   6   79.70    2.12 
  -5  -1   6   71.67    1.61 
   5  -1  -6   70.32    1.83 
   5  -1  -6   71.92    1.82 
   5  -1  -6   70.32    1.83 
  -5  -1   6   71.82    1.59 
   5  -1  -6   70.24    1.83 
  -5  -1   6   69.34    1.67 
  -5  -1   6   68.10    1.67 
   5   1  -6   73.63    1.61 
   5   1  -6   72.53    1.65 
  -5   1   6   70.32    1.87 
  -5   1   6   69.48    1.80 
  -5   1   6   71.66    1.88 
  -5   1   6   73.67    1.83 
   5   1  -6   67.82    1.65 
   5   1  -6   71.34    1.58 
   4  -1  -6   40.13    1.16 
  -4  -1   6   40.32    0.98 
  -4  -1   6   40.76    0.96 
   4  -1  -6   40.68    1.18 
  -4  -1   6   38.24    1.01 
   4  -1  -6   39.72    1.19 
  -4  -1   6   41.08    1.04 
   4  -1  -6   40.84    1.17 
  -4   1   6   39.77    1.19 
  -4   1   6   39.69    1.15 
   4   1  -6   41.84    0.96 
   4   1  -6   40.72    1.00 
  -4   1   6   39.43    1.15 
   4   1  -6   39.26    1.00 
   4   1  -6   40.53    0.98 
   3  -1  -6  333.43    6.72 
  -3  -1   6  320.05    6.58 
  -3  -1   6  323.57    6.55 
   3  -1  -6  329.64    6.76 
   3  -1  -6  317.91    6.70 
   3  -1  -6  329.59    6.73 
  -3   1   6  327.76    6.75 
  -3   1   6  342.39    6.72 
  -3   1   6  332.50    6.76 
   3   1  -6  328.68    6.57 
  -3   1   6  326.52    6.71 
   3   1  -6  312.70    6.56 
   2  -1  -6  390.68    8.03 
   2  -1  -6  400.04    8.05 
  -2  -1   6  400.74    7.91 
  -2  -1   6  398.30    7.92 
  -2  -1   6  390.64    7.92 
   2  -1  -6  387.12    8.02 
  -2  -1   6  397.27    7.94 
   2   1  -6  388.79    7.91 
  -2   1   6  402.19    8.07 
  -2   1   6  392.35    8.02 
  -2   1   6  412.89    8.09 
   2   1  -6  395.92    7.92 
   2   1  -6  395.31    7.93 
   2   1  -6  401.09    7.92 
  -1  -1   6   10.78    0.41 
  -1  -1   6   11.26    0.43 
   1  -1  -6   10.78    0.47 
  -1  -1   6   10.96    0.41 
   1  -1  -6   10.97    0.48 
  -1  -1   6   11.28    0.42 
   1  -1  -6   10.54    0.48 
  -1   1   6   11.35    0.47 
  -1   1   6   10.51    0.47 
   1   1  -6   11.17    0.44 
   1   1  -6   10.99    0.41 
  -1   1   6   10.80    0.48 
   1   1  -6   10.65    0.43 
   0  -1   6   42.62    1.09 
   0  -1   6   44.39    1.08 
   0  -1  -6   41.72    1.10 
   0  -1  -6   42.37    1.13 
   0  -1   6   43.50    1.09 
   0  -1   6   44.01    1.11 
   0  -1  -6   44.32    1.10 
   0   1   6   43.83    1.13 
   0   1  -6   42.29    1.07 
   0   1  -6   44.72    1.09 
   0   1  -6   43.00    1.11 
   0   1   6   41.29    1.09 
   0   1   6   44.63    1.13 
   0   1   6   43.48    1.09 
   0   1  -6   38.93    1.07 
  -1  -1  -6  157.07    3.38 
   1  -1   6  155.77    3.40 
   1  -1   6  158.53    3.43 
   1  -1   6  162.32    3.47 
  -1  -1  -6  163.37    3.44 
  -1  -1  -6  159.62    3.39 
  -1  -1  -6  155.11    3.37 
   1  -1   6  161.03    3.42 
  -1   1  -6  157.34    3.41 
   1   1   6  166.90    3.43 
  -1   1  -6  158.60    3.44 
  -1   1  -6  162.19    3.44 
   1   1   6  153.20    3.37 
   1   1   6  165.10    3.40 
   1   1   6  159.02    3.39 
  -1   1  -6  160.58    3.43 
  -2  -1  -6   74.85    1.81 
  -2  -1  -6   77.38    1.85 
   2  -1   6   77.72    1.92 
   2  -1   6   77.13    1.86 
   2  -1   6   77.61    1.88 
   2  -1   6   75.69    1.85 
  -2  -1  -6   79.74    1.81 
  -2  -1  -6   76.48    1.80 
   2   1   6   77.06    1.84 
   2   1   6   76.51    1.80 
  -2   1  -6   76.32    1.89 
  -2   1  -6   77.42    1.86 
  -2   1  -6   78.80    1.90 
  -2   1  -6   77.42    1.88 
   2   1   6   77.05    1.81 
   2   1   6   79.29    1.82 
   3  -1   6   19.33    0.79 
  -3  -1  -6   18.78    0.75 
  -3  -1  -6   19.13    0.74 
   3  -1   6   19.10    0.78 
   3  -1   6   19.67    0.85 
  -3  -1  -6   19.93    0.71 
   3  -1   6   20.32    0.80 
  -3  -1  -6   20.00    0.75 
  -3   1  -6   19.35    0.82 
   3   1   6   18.16    0.71 
   3   1   6   19.84    0.72 
   3   1   6   19.39    0.77 
  -3   1  -6   19.08    0.82 
  -3   1  -6   18.43    0.81 
  -4  -1  -6   13.13    0.65 
   4  -1   6   14.70    0.82 
   4  -1   6   13.15    0.73 
   4  -1   6   13.01    0.73 
   4  -1   6   13.50    0.76 
  -4  -1  -6   12.76    0.68 
  -4  -1  -6   12.84    0.69 
  -4  -1  -6   12.77    0.68 
  -4   1  -6   17.32    1.07 
   4   1   6   13.17    0.67 
  -4   1  -6   12.48    0.70 
   4   1   6   13.07    0.71 
   4   1   6   13.60    0.66 
  -4   1  -6   14.35    0.80 
  -4   1  -6   13.32    0.80 
   5  -1   6   15.76    0.92 
   5  -1   6   16.93    0.89 
  -5  -1  -6   18.12    0.86 
  -5  -1  -6   18.52    0.84 
  -5  -1  -6   17.71    0.87 
   5  -1   6   16.73    0.88 
  -5  -1  -6   17.38    0.80 
   5  -1   6   19.52    1.06 
   5   1   6   18.13    0.81 
   5   1   6   17.00    0.80 
  -5   1  -6   18.05    0.89 
  -5   1  -6   18.63    0.96 
   5   1   6   17.68    0.88 
  -5   1  -6   17.87    1.02 
  -6  -1  -6   30.09    1.27 
  -6  -1  -6   29.80    1.20 
   6  -1   6   29.26    1.24 
  -6  -1  -6   28.92    1.09 
   6  -1   6   28.67    1.38 
   6  -1   6   28.28    1.27 
   6  -1   6   28.84    1.21 
  -6  -1  -6   29.01    1.17 
   6   1   6   27.53    1.09 
  -6   1  -6   29.33    1.33 
  -6   1  -6   29.40    1.30 
   6   1   6   28.35    1.35 
  -6   1  -6   26.77    1.37 
   6   1   6   27.96    1.09 
  -6   1  -6   29.20    1.21 
  -7  -1  -6   18.77    1.12 
  -7  -1  -6   18.92    1.07 
   7  -1   6   17.67    1.27 
  -7  -1  -6   19.65    1.00 
   7  -1   6   17.60    1.14 
   7  -1   6   19.35    1.17 
   7   1   6   19.80    1.01 
  -7   1  -6   16.45    1.20 
   7   1   6   20.08    1.00 
   7   1   6   19.05    1.05 
  -7   1  -6   17.43    1.13 
  -7   1  -6   17.31    1.29 
   8  -1   6   -0.03    0.61 
  -8  -1  -6    1.30    0.55 
  -8   1  -6    0.56    0.75 
   8   1   6    0.21    0.47 
  -9  -1  -6   -0.34    0.79 
  -9   1  -6    0.33    0.86 
  -9  -2   6   17.81    0.88 
  -9  -2   6   17.76    0.93 
   9  -2  -6   16.96    1.32 
   9   2  -6   16.69    0.83 
   9   2  -6   16.85    0.77 
  -9   2   6   13.64    1.43 
   8  -2  -6    1.40    0.64 
   8  -2  -6    1.34    0.64 
  -8  -2   6    2.02    0.37 
  -8  -2   6    2.32    0.41 
   8   2  -6    1.93    0.31 
  -8   2   6    0.77    0.74 
  -8   2   6    2.24    0.77 
  -8   2   6    1.60    0.71 
   8   2  -6    1.47    0.33 
  -7  -2   6   16.11    0.69 
  -7  -2   6   16.51    0.69 
   7  -2  -6   16.76    1.09 
   7  -2  -6   18.74    1.28 
   7  -2  -6   16.77    1.09 
  -7   2   6   16.11    1.24 
  -7   2   6   17.84    1.10 
   7   2  -6   17.30    0.62 
   7   2  -6   15.92    0.60 
  -7   2   6   18.15    1.30 
  -7   2   6   16.69    1.17 
   6  -2  -6  114.80    2.92 
   6  -2  -6  119.85    2.92 
  -6  -2   6  117.65    2.54 
   6  -2  -6  117.32    2.93 
  -6  -2   6  117.12    2.54 
   6  -2  -6  119.57    2.95 
  -6   2   6  117.51    2.99 
   6   2  -6  118.29    2.49 
   6   2  -6  115.41    2.50 
  -6   2   6  116.83    2.88 
  -6   2   6  116.96    2.97 
  -6   2   6  116.02    2.90 
   5  -2  -6   69.67    1.90 
  -5  -2   6   66.83    1.52 
   5  -2  -6   68.53    1.87 
   5  -2  -6   68.87    1.90 
  -5  -2   6   67.79    1.53 
   5  -2  -6   67.31    1.87 
   5   2  -6   70.65    1.49 
  -5   2   6   67.80    1.86 
  -5   2   6   67.87    1.93 
  -5   2   6   69.36    1.93 
  -5   2   6   69.63    1.88 
   5   2  -6   67.22    1.50 
   4  -2  -6  115.93    2.73 
   4  -2  -6  118.45    2.73 
   4  -2  -6  112.79    2.74 
   4  -2  -6  113.93    2.75 
  -4  -2   6  113.08    2.39 
  -4  -2   6  114.98    2.39 
  -4   2   6  115.94    2.76 
  -4   2   6  117.23    2.71 
   4   2  -6  112.97    2.37 
   4   2  -6  118.39    2.37 
  -4   2   6  105.64    2.86 
  -3  -2   6   37.88    0.90 
   3  -2  -6   38.93    1.21 
  -3  -2   6   39.05    0.92 
   3  -2  -6   37.88    1.17 
  -3  -2   6   37.77    0.82 
  -3  -2   6   41.23    0.84 
   3  -2  -6   38.15    1.16 
  -3   2   6   37.35    1.15 
  -3   2   6   37.63    1.16 
   3   2  -6   38.46    0.89 
  -3   2   6   37.76    1.19 
   3   2  -6   40.66    0.90 
  -3   2   6   39.56    1.22 
  -2  -2   6   14.52    0.43 
   2  -2  -6   13.80    0.64 
   2  -2  -6   14.58    0.67 
   2  -2  -6   14.35    0.64 
  -2  -2   6   14.12    0.49 
   2  -2  -6   14.60    0.64 
  -2  -2   6   13.90    0.45 
  -2  -2   6   14.45    0.43 
  -2   2   6   13.76    0.62 
   2   2  -6   14.18    0.43 
  -2   2   6   14.24    0.65 
  -2   2   6   14.81    0.68 
   2   2  -6   15.16    0.48 
   2   2  -6   14.12    0.43 
   2   2  -6   13.98    0.44 
  -2   2   6   13.77    0.63 
  -1  -2   6  335.57    6.52 
  -1  -2   6  326.92    6.59 
   1  -2  -6  328.06    6.66 
  -1  -2   6  323.87    6.54 
   1  -2  -6  321.86    6.71 
  -1  -2   6  308.56    6.55 
   1   2  -6  325.77    6.56 
  -1   2   6  330.68    6.69 
   1   2  -6  325.91    6.53 
   1   2  -6  316.68    6.53 
  -1   2   6  332.48    6.65 
   1   2  -6  308.29    6.65 
   0  -2  -6  161.26    3.43 
   0  -2   6  153.88    3.37 
   0  -2  -6  159.46    3.42 
   0  -2  -6  165.28    3.49 
   0  -2  -6  163.94    3.42 
   0  -2   6  156.76    3.41 
   0  -2   6  157.92    3.44 
   0   2   6  159.80    3.43 
   0   2   6  158.51    3.40 
   0   2  -6  158.93    3.39 
   0   2   6  159.24    3.45 
   0   2  -6  157.81    3.40 
   0   2   6  156.19    3.43 
   1  -2   6   91.30    2.17 
  -1  -2  -6   93.26    2.09 
  -1  -2  -6   91.18    2.07 
  -1  -2  -6   88.10    2.09 
  -1  -2  -6   90.26    2.12 
   1  -2   6   89.48    2.13 
   1  -2   6   93.55    2.13 
  -1   2  -6   84.82    2.53 
  -1   2  -6   91.82    2.14 
   1   2   6   91.56    2.09 
   1   2   6   93.02    2.07 
  -1   2  -6   91.24    2.14 
  -1   2  -6   91.86    2.12 
   1   2   6   91.07    2.14 
  -2  -2  -6   71.10    1.69 
  -2  -2  -6   69.73    1.67 
  -2  -2  -6   70.60    1.73 
   2  -2   6   72.89    1.80 
  -2  -2  -6   75.13    1.68 
   2  -2   6   57.70    2.10 
   2  -2   6   70.16    1.83 
   2   2   6   72.32    1.70 
   2   2   6   73.35    1.71 
   2   2   6   69.05    1.68 
  -2   2  -6   62.62    2.21 
  -2   2  -6   69.63    1.80 
  -2   2  -6   69.64    1.76 
   3  -2   6    3.93    0.76 
  -3  -2  -6    3.91    0.42 
  -3  -2  -6    3.96    0.41 
   3  -2   6    4.46    0.54 
   3  -2   6    2.88    0.44 
   3  -2   6    4.99    0.55 
  -3  -2  -6    4.59    0.44 
  -3  -2  -6    4.32    0.48 
   3   2   6    4.44    0.40 
   3   2   6    4.18    0.42 
   3   2   6    3.88    0.41 
  -3   2  -6    6.02    0.76 
  -3   2  -6    3.85    0.59 
  -3   2  -6    3.23    0.56 
   3   2   6    4.07    0.47 
  -4  -2  -6   46.42    1.27 
  -4  -2  -6   45.98    1.29 
   4  -2   6   45.88    1.45 
   4  -2   6   44.75    1.44 
  -4  -2  -6   45.06    1.34 
  -4  -2  -6   45.94    1.32 
   4   2   6   46.58    1.27 
  -4   2  -6   46.06    1.51 
  -4   2  -6   41.67    1.72 
   4   2   6   46.53    1.32 
  -4   2  -6   45.32    1.42 
   4   2   6   45.78    1.29 
  -4   2  -6   44.01    1.70 
   4   2   6   46.33    1.29 
   5  -2   6   12.20    0.89 
  -5  -2  -6   13.27    0.78 
   5  -2   6   12.78    0.98 
   5  -2   6   14.52    1.08 
   5  -2   6   13.18    0.89 
  -5  -2  -6   12.59    0.70 
   5   2   6   13.95    0.73 
  -5   2  -6   13.13    0.99 
  -5   2  -6   13.51    1.10 
  -5   2  -6   11.24    0.84 
   5   2   6   12.32    0.83 
  -5   2  -6   13.65    1.06 
  -6  -2  -6    7.40    0.75 
  -6  -2  -6    6.55    0.67 
   6  -2   6    6.30    0.92 
   6  -2   6    7.94    0.99 
   6  -2   6    7.17    1.14 
   6  -2   6    8.22    0.91 
  -6   2  -6    9.70    1.04 
   6   2   6    7.87    0.67 
  -6   2  -6    7.43    0.86 
   6   2   6    7.02    0.72 
  -6   2  -6    8.20    1.10 
   6   2   6    6.42    0.71 
  -6   2  -6    8.20    1.05 
  -7  -2  -6   32.46    1.32 
  -7  -2  -6   28.93    1.31 
   7  -2   6   34.63    1.65 
   7  -2   6   27.75    1.46 
  -7  -2  -6   29.72    1.20 
   7  -2   6   30.37    1.51 
   7   2   6   31.39    1.23 
   7   2   6   26.23    1.26 
  -7   2  -6   29.78    1.62 
  -7   2  -6   30.13    1.77 
   7   2   6   31.75    1.22 
  -8  -2  -6    2.68    0.64 
   8  -2   6    3.39    0.84 
  -8   2  -6    4.55    1.07 
   8   2   6    3.31    0.54 
  -9  -3   6    7.77    0.55 
   9  -3  -6   11.48    1.48 
  -9  -3   6    7.92    0.53 
  -9   3   6   10.10    1.53 
  -8  -3   6    8.86    0.44 
   8  -3  -6    8.17    1.30 
  -8  -3   6    8.03    0.42 
  -8   3   6   10.73    1.35 
   7  -3  -6   26.23    1.43 
   7  -3  -6   23.27    1.37 
   7  -3  -6   26.50    1.39 
   7  -3  -6   22.78    1.38 
  -7   3   6   24.99    1.35 
  -7   3   6   27.51    1.42 
  -7   3   6   25.06    1.51 
  -7   3   6   29.63    1.51 
   6  -3  -6    1.14    0.59 
   6  -3  -6    2.07    0.56 
   6  -3  -6    1.45    0.58 
   6  -3  -6    1.26    0.57 
  -6   3   6    1.45    0.62 
  -6   3   6   -0.01    0.41 
  -6   3   6    0.63    0.57 
  -6   3   6    1.18    0.59 
   5  -3  -6   12.85    0.91 
   5  -3  -6   14.06    0.93 
   5  -3  -6   14.11    0.94 
  -5   3   6   12.62    0.95 
  -5   3   6   13.41    0.89 
  -5   3   6   12.44    0.91 
  -5   3   6   15.18    1.03 
   4  -3  -6  212.96    4.86 
   4  -3  -6  218.61    4.83 
  -4   3   6  217.47    4.86 
  -4   3   6  216.76    4.87 
  -3  -3   6   82.83    1.76 
   3  -3  -6   85.84    2.15 
   3  -3  -6   82.42    2.15 
   3  -3  -6   82.47    2.15 
   3  -3  -6   81.98    2.18 
  -3  -3   6   82.80    1.78 
   3   3  -6   81.57    1.73 
   3   3  -6   84.21    1.75 
  -3   3   6   82.76    2.13 
  -3   3   6   82.87    2.19 
  -3   3   6   84.30    2.14 
  -3   3   6   80.76    2.16 
   2  -3  -6   16.50    0.83 
  -2  -3   6   17.82    0.57 
   2  -3  -6   17.15    0.81 
  -2  -3   6   17.72    0.59 
  -2  -3   6   17.94    0.49 
   2  -3  -6   17.73    0.78 
  -2  -3   6   17.18    0.50 
   2  -3  -6   16.66    0.81 
   2   3  -6   17.47    0.48 
  -2   3   6   17.76    0.83 
   2   3  -6   17.43    0.55 
  -2   3   6   17.49    0.79 
  -2   3   6   18.28    0.79 
   2   3  -6   16.96    0.48 
   2   3  -6   17.87    0.57 
  -2   3   6   17.56    0.82 
  -1  -3   6   71.62    1.61 
   1  -3  -6   71.70    1.78 
  -1  -3   6   71.02    1.69 
   1  -3  -6   70.32    1.86 
   1  -3  -6   71.24    1.81 
  -1  -3   6   69.65    1.66 
  -1  -3   6   69.63    1.60 
   1  -3  -6   70.46    1.79 
  -1   3   6   69.27    1.82 
   1   3  -6   69.35    1.65 
   1   3  -6   69.11    1.62 
  -1   3   6   71.00    1.80 
   1   3  -6   71.41    1.61 
  -1   3   6   69.44    1.82 
  -1   3   6   70.29    1.77 
   1   3  -6   69.89    1.66 
   0  -3  -6   45.40    1.24 
   0  -3   6   45.60    1.20 
   0  -3  -6   43.12    1.29 
   0  -3  -6   43.79    1.25 
   0  -3   6   42.95    1.17 
   0  -3   6   44.77    1.26 
   0  -3   6   44.63    1.22 
   0  -3  -6   45.19    1.27 
   0   3   6   42.98    1.22 
   0   3  -6   45.29    1.22 
   0   3   6   44.02    1.26 
   0   3  -6   44.05    1.21 
   0   3   6   45.19    1.29 
   0   3  -6   45.76    1.21 
   0   3  -6   45.47    1.23 
   1  -3   6  132.11    2.95 
  -1  -3  -6  133.80    2.91 
  -1  -3  -6  133.30    3.00 
   1  -3   6  128.78    3.02 
   1  -3   6  126.52    2.97 
  -1  -3  -6  128.18    2.92 
  -1  -3  -6  129.58    2.92 
   1  -3   6  129.12    2.95 
   1   3   6  131.76    2.94 
  -1   3  -6  129.12    2.95 
   1   3   6  130.66    2.95 
   1   3   6  134.86    2.95 
  -1   3  -6  134.46    3.00 
  -2  -3  -6  134.09    2.89 
   2  -3   6  129.16    3.05 
  -2  -3  -6  132.95    3.00 
  -2  -3  -6  129.69    2.91 
  -2  -3  -6  132.69    2.92 
   2  -3   6  130.67    3.03 
   2  -3   6  135.86    3.05 
   2  -3   6  126.68    3.10 
   2   3   6  130.55    2.92 
  -2   3  -6  129.19    3.08 
  -2   3  -6  133.99    3.10 
  -2   3  -6  128.05    3.01 
   2   3   6  123.24    2.91 
  -2   3  -6  130.82    3.07 
   2   3   6  132.31    2.90 
   2   3   6  132.67    2.93 
   3  -3   6   11.70    0.88 
  -3  -3  -6   12.01    0.61 
  -3  -3  -6   12.92    0.69 
  -3  -3  -6   13.37    0.63 
   3  -3   6   12.43    0.80 
   3  -3   6   14.29    0.83 
   3  -3   6   12.99    0.80 
  -3   3  -6   12.73    0.84 
   3   3   6   11.61    0.62 
   3   3   6   12.16    0.64 
  -3   3  -6   12.63    0.86 
  -3   3  -6   11.05    0.74 
  -3   3  -6   13.75    0.90 
   3   3   6   12.54    0.63 
  -4  -3  -6   12.35    0.71 
   4  -3   6   13.28    0.94 
   4  -3   6   12.21    0.87 
   4  -3   6   11.46    0.88 
  -4  -3  -6   11.02    0.80 
   4  -3   6   13.15    1.06 
  -4  -3  -6   12.29    0.64 
   4   3   6   11.42    0.74 
  -4   3  -6   11.90    0.84 
  -4   3  -6   12.50    1.04 
  -4   3  -6   11.55    1.05 
   4   3   6   12.05    0.65 
  -4   3  -6   12.48    0.92 
   4   3   6   12.34    0.66 
   5  -3   6   28.62    1.48 
   5  -3   6   27.71    1.30 
  -5  -3  -6   30.33    1.00 
  -5  -3  -6   27.95    1.09 
   5  -3   6   28.26    1.41 
  -5  -3  -6   27.65    1.08 
   5  -3   6   28.39    1.32 
   5   3   6   27.77    1.01 
  -5   3  -6   29.24    1.49 
  -5   3  -6   31.12    1.51 
   5   3   6   26.68    1.19 
  -5   3  -6   28.01    1.26 
  -5   3  -6   30.03    1.39 
   5   3   6   27.66    1.02 
  -6  -3  -6   11.06    0.84 
  -6  -3  -6   12.52    0.80 
  -6  -3  -6   12.95    0.87 
   6  -3   6   12.54    1.20 
   6  -3   6   15.27    1.43 
   6  -3   6   11.62    1.16 
   6   3   6   12.25    0.82 
   6   3   6   14.10    0.79 
   6   3   6   12.16    0.77 
  -6   3  -6   12.95    1.11 
  -6   3  -6   13.11    1.33 
  -6   3  -6   10.54    1.39 
  -6   3  -6   12.20    1.43 
  -7  -3  -6    4.50    0.82 
   7  -3   6    2.67    0.76 
  -7   3  -6    2.37    1.12 
   7   3   6    2.80    0.49 
  -7   3  -6    1.43    0.79 
   8  -3   6    4.99    0.98 
  -8   3  -6    2.75    0.95 
   8  -4  -6    9.25    1.07 
  -8   4   6    6.81    1.09 
   7  -4  -6    7.48    1.03 
   7  -4  -6    8.49    1.33 
  -7   4   6    8.16    1.08 
  -7   4   6   10.09    1.58 
  -7   4   6    8.89    1.29 
   6  -4  -6   10.09    1.15 
   6  -4  -6   10.39    1.27 
   6  -4  -6   11.38    1.20 
   6  -4  -6   11.55    1.24 
  -6   4   6   10.84    1.32 
  -6   4   6    9.99    1.10 
  -6   4   6   11.85    1.27 
   5  -4  -6   31.35    1.47 
   5  -4  -6   31.99    1.43 
   5  -4  -6   33.61    1.48 
  -5   4   6   32.26    1.47 
  -5   4   6   30.97    1.53 
  -5   4   6   32.72    1.42 
  -5   4   6   32.45    1.50 
   4  -4  -6    0.74    0.49 
   4  -4  -6    0.25    0.42 
   4  -4  -6    1.06    0.50 
  -4   4   6    0.73    0.54 
  -4   4   6    0.30    0.50 
  -4   4   6    0.44    0.40 
  -4   4   6    0.61    0.56 
   3  -4  -6   30.98    1.27 
  -3  -4   6   33.09    0.84 
   3  -4  -6   34.74    1.34 
   3  -4  -6   32.70    1.32 
  -3  -4   6   32.31    0.85 
   3  -4  -6   31.69    1.25 
  -3   4   6   33.77    1.34 
  -3   4   6   34.25    1.36 
   3   4  -6   32.81    0.79 
  -3   4   6   32.54    1.27 
   3   4  -6   33.47    0.82 
  -3   4   6   33.52    1.30 
   2  -4  -6  203.10    4.47 
   2  -4  -6  185.62    4.66 
  -2  -4   6  205.71    3.99 
   2  -4  -6  195.80    4.40 
  -2  -4   6  196.70    4.14 
   2  -4  -6  196.83    4.51 
  -2  -4   6  192.51    3.99 
  -2  -4   6  194.57    4.14 
  -2   4   6  204.92    4.43 
  -2   4   6  194.13    4.42 
  -2   4   6  202.73    4.50 
  -2   4   6  197.96    4.47 
   2   4  -6  192.71    4.11 
   2   4  -6  195.98    4.11 
   1  -4  -6   34.16    1.20 
  -1  -4   6   32.50    1.01 
  -1  -4   6   33.20    1.04 
   1  -4  -6   32.69    1.23 
  -1  -4   6   32.63    0.94 
  -1  -4   6   34.23    0.95 
   1  -4  -6   32.42    1.14 
   1  -4  -6   33.59    1.18 
   1   4  -6   33.66    1.00 
   1   4  -6   32.76    0.96 
  -1   4   6   33.18    1.18 
  -1   4   6   34.45    1.22 
   1   4  -6   33.05    1.00 
   1   4  -6   33.29    0.95 
  -1   4   6   34.18    1.16 
   0  -4  -6   27.31    0.98 
   0  -4  -6   27.16    1.07 
   0  -4   6   26.69    0.91 
   0  -4   6   25.46    1.10 
   0  -4  -6   26.14    1.01 
   0  -4   6   26.91    0.92 
   0  -4   6   26.33    0.95 
   0  -4  -6   26.77    1.01 
   0   4  -6   26.37    0.93 
   0   4   6   26.88    1.03 
   0   4   6   25.36    1.02 
   0   4   6   27.28    1.02 
   0   4  -6   28.43    0.94 
   0   4  -6   27.00    0.95 
   1  -4   6   29.88    1.14 
  -1  -4  -6   30.88    1.05 
   1  -4   6   30.67    1.08 
   1  -4   6   31.12    1.09 
  -1  -4  -6   30.77    1.05 
   1  -4   6   31.71    1.11 
  -1  -4  -6   30.55    1.12 
  -1  -4  -6   30.87    1.03 
  -1   4  -6   30.94    1.14 
  -1   4  -6   31.42    1.08 
   1   4   6   32.55    1.07 
  -1   4  -6   30.31    1.11 
   1   4   6   29.79    1.06 
   1   4   6   29.87    1.06 
  -1   4  -6   26.91    1.08 
   1   4   6   30.91    1.02 
  -2  -4  -6   11.23    0.80 
   2  -4   6   10.67    0.85 
   2  -4   6   11.22    0.81 
   2  -4   6   10.27    0.79 
   2  -4   6   11.19    0.76 
  -2  -4  -6   10.62    0.67 
  -2   4  -6   11.32    0.86 
  -2   4  -6   11.01    0.77 
   2   4   6   10.83    0.68 
   2   4   6   10.37    0.64 
  -2   4  -6    9.87    0.83 
   3  -4   6   78.18    2.20 
  -3  -4  -6   75.23    2.04 
  -3  -4  -6   80.23    1.96 
   3  -4   6   78.77    2.22 
   3  -4   6   79.83    2.32 
  -3  -4  -6   77.65    1.97 
   3   4   6   79.29    1.95 
  -3   4  -6   80.49    2.31 
   3   4   6   77.47    1.98 
   3   4   6   83.09    1.95 
  -3   4  -6   79.98    2.18 
  -3   4  -6   72.56    2.89 
  -3   4  -6   76.67    2.24 
  -4  -4  -6   50.69    1.52 
  -4  -4  -6   47.62    1.38 
   4  -4   6   50.91    1.89 
   4  -4   6   49.21    1.73 
   4  -4   6   48.36    1.70 
  -4  -4  -6   47.65    1.43 
   4  -4   6   47.09    1.77 
  -4   4  -6   51.97    1.93 
   4   4   6   48.84    1.39 
  -4   4  -6   49.92    1.80 
   4   4   6   47.49    1.41 
  -4   4  -6   51.74    1.89 
   4   4   6   49.79    1.37 
  -4   4  -6   47.85    1.68 
  -5  -4  -6    7.15    0.75 
   5  -4   6    7.53    1.22 
   5  -4   6    7.52    1.07 
  -5  -4  -6    7.27    0.67 
  -5  -4  -6    7.32    0.76 
   5  -4   6    7.79    1.07 
   5  -4   6    7.50    1.18 
   5   4   6    5.72    0.63 
   5   4   6    5.17    0.66 
  -5   4  -6    7.08    1.04 
  -5   4  -6    6.71    1.17 
  -5   4  -6    6.27    0.92 
   5   4   6    7.31    0.64 
  -5   4  -6    8.80    1.56 
  -6  -4  -6    5.38    0.84 
   6  -4   6    4.26    0.79 
   6  -4   6    4.72    1.70 
  -6   4  -6    5.78    0.98 
   6   4   6    4.22    0.71 
   6   4   6    6.19    0.73 
   6   4   6    4.32    0.68 
  -6   4  -6    3.96    0.88 
  -7  -4  -6    2.63    0.67 
   7  -4   6    3.93    1.33 
  -7   4  -6    3.72    1.35 
   6  -5  -6   18.64    1.65 
  -6   5   6   16.51    1.51 
   5  -5  -6   13.09    1.36 
   5  -5  -6   16.66    1.33 
  -5   5   6   13.04    1.26 
  -5   5   6   14.85    1.44 
   4  -5  -6    2.99    0.91 
   4  -5  -6    1.79    0.68 
   4  -5  -6    2.36    0.61 
  -4   5   6    3.76    0.69 
  -4   5   6    2.89    0.67 
  -4   5   6    4.41    0.74 
   3  -5  -6   16.92    1.17 
   3  -5  -6   17.73    1.21 
  -3  -5   6   17.42    0.65 
  -3  -5   6   16.26    0.65 
   3  -5  -6   16.31    1.12 
  -3   5   6   17.69    1.18 
  -3   5   6   16.58    1.21 
   3   5  -6   16.52    0.55 
   3   5  -6   17.62    0.59 
  -3   5   6   16.64    1.11 
  -2  -5   6   17.71    0.76 
  -2  -5   6   17.00    0.76 
   2  -5  -6   16.40    1.03 
  -2  -5   6   17.74    0.53 
   2  -5  -6   17.68    1.13 
   2  -5  -6   18.01    1.11 
  -2   5   6   18.08    1.10 
  -2   5   6   15.09    1.06 
   2   5  -6   16.42    0.70 
   2   5  -6   16.82    0.70 
  -2   5   6   18.20    1.09 
   1  -5  -6   34.82    1.34 
   1  -5  -6   34.70    1.41 
   1  -5  -6   35.17    1.37 
  -1  -5   6   37.55    1.18 
  -1  -5   6   37.38    1.08 
  -1  -5   6   36.35    1.20 
  -1   5   6   37.04    1.43 
  -1   5   6   37.17    1.37 
   1   5  -6   38.38    1.09 
  -1   5   6   35.91    1.33 
   1   5  -6   34.61    1.13 
   1   5  -6   34.84    1.15 
   0  -5   6   71.49    1.95 
   0  -5   6   73.87    1.90 
   0  -5   6   71.73    2.00 
   0  -5  -6   71.03    2.01 
   0  -5  -6   70.72    2.08 
   0  -5  -6   71.56    2.01 
   0   5  -6   74.64    1.93 
   0   5  -6   71.41    1.91 
   0   5   6   73.44    1.98 
   0   5  -6   70.15    1.92 
   0   5   6   74.32    2.03 
   0   5   6   72.92    2.04 
  -1  -5  -6    9.12    0.82 
  -1  -5  -6    9.44    0.96 
   1  -5   6    9.30    0.81 
   1  -5   6    9.62    0.82 
   1  -5   6    7.67    0.86 
  -1  -5  -6    9.41    0.81 
  -1   5  -6    9.42    0.78 
   1   5   6    6.49    1.07 
  -1   5  -6    9.07    0.83 
  -1   5  -6   10.14    0.92 
   1   5   6   11.49    0.85 
   1   5   6    9.36    0.76 
   2  -5   6   10.24    0.92 
   2  -5   6   10.01    0.89 
   2  -5   6   10.23    1.02 
  -2  -5  -6    7.56    0.76 
  -2  -5  -6    9.51    0.85 
  -2  -5  -6    9.96    0.82 
   2   5   6    8.72    0.73 
  -2   5  -6   10.06    1.03 
   2   5   6    9.33    0.98 
   2   5   6    9.12    0.70 
  -2   5  -6   10.49    0.90 
  -2   5  -6   12.38    1.10 
  -3  -5  -6   35.55    1.24 
  -3  -5  -6   35.56    1.31 
   3  -5   6   36.73    1.52 
   3  -5   6   36.83    1.46 
  -3  -5  -6   37.14    1.22 
   3  -5   6   26.79    2.05 
   3   5   6   35.69    1.21 
   3   5   6   34.72    1.18 
  -3   5  -6   36.48    1.46 
  -3   5  -6   34.41    1.56 
  -3   5  -6   37.23    2.27 
   3   5   6   34.39    1.22 
  -4  -5  -6   13.29    0.88 
  -4  -5  -6   12.68    0.85 
   4  -5   6   14.04    1.22 
   4   5   6   13.33    0.82 
  -4   5  -6   14.72    1.21 
   4   5   6   12.50    0.74 
   4   5   6   13.95    0.82 
  -5  -5  -6   12.70    0.97 
   5  -5   6   16.44    1.47 
   5   5   6   13.75    1.26 
  -5   5  -6   11.94    1.38 
   5   5   6   11.08    0.82 
   4  -6  -6   22.91    1.63 
  -4   6   6   18.23    1.44 
   3  -6  -6   14.19    1.45 
  -3  -6   6   13.15    0.70 
  -3  -6   6   13.32    0.73 
  -3   6   6   13.61    1.29 
   3   6  -6   13.13    0.60 
   3   6  -6   12.66    0.56 
   2  -6  -6    0.44    0.58 
  -2  -6   6    1.01    0.42 
  -2  -6   6    1.57    0.48 
  -2   6   6    0.48    0.59 
   2   6  -6    0.49    0.36 
   2   6  -6    1.36    0.43 
  -1  -6   6    8.97    0.81 
   1  -6  -6   12.66    1.23 
   1   6  -6   10.48    0.68 
   1   6  -6    9.98    0.78 
  -1   6   6    9.21    1.00 
   1   6  -6    9.01    0.80 
   0  -6  -6    9.66    1.04 
   0  -6   6   10.24    0.90 
   0   6   6    8.18    0.97 
   0   6  -6   10.35    0.86 
  -1  -6  -6   26.96    1.32 
   1  -6   6   27.82    1.33 
  -1   6  -6   29.97    1.30 
   1   6   6   29.69    1.26 
  -2  -6  -6   48.27    1.70 
   2  -6   6   49.23    1.83 
  -2   6  -6   44.73    1.75 
   2   6   6   46.63    1.57 
   3  -6   6    2.01    0.75 
  -3  -6  -6    3.07    0.62 
   3   6   6    3.17    0.53 
  -3   6  -6    3.40    0.76 
  10   0  -7    1.44    0.78 
 -10   0   7   -0.31    0.76 
  -9   0   7    0.31    0.55 
   9   0  -7    0.24    0.47 
   8   0  -7   -0.19    0.39 
   8   0  -7   -0.46    0.40 
  -8   0   7    0.65    0.48 
  -8   0   7   -0.55    0.38 
   8   0  -7    0.64    0.44 
   7   0  -7   -0.11    0.39 
  -7   0   7   -0.61    0.35 
  -7   0   7    0.33    0.38 
   7   0  -7   -0.25    0.31 
   7   0  -7    0.22    0.34 
  -7   0   7    0.33    0.31 
   6   0  -7   -0.10    0.28 
  -6   0   7    0.18    0.30 
  -6   0   7   -0.09    0.28 
   6   0  -7   -0.01    0.27 
   6   0  -7   -0.22    0.29 
  -6   0   7   -0.44    0.25 
  -5   0   7   -0.42    0.21 
   5   0  -7   -0.09    0.21 
   5   0  -7   -0.25    0.23 
  -5   0   7   -0.02    0.25 
   5   0  -7   -0.10    0.22 
   5   0  -7   -0.11    0.24 
  -5   0   7   -0.01    0.23 
  -5   0   7    0.11    0.24 
  -4   0   7   -0.29    0.20 
  -4   0   7    0.07    0.19 
  -4   0   7   -0.18    0.18 
   4   0  -7    0.26    0.22 
   4   0  -7    0.13    0.20 
  -4   0   7    0.00    0.18 
   4   0  -7   -0.21    0.19 
   4   0  -7    0.03    0.17 
  -3   0   7    0.04    0.18 
  -3   0   7    0.26    0.17 
   3   0  -7    0.10    0.17 
   3   0  -7   -0.08    0.20 
  -3   0   7    0.05    0.18 
  -2   0   7    0.03    0.15 
   2   0  -7   -0.02    0.16 
   2   0  -7   -0.14    0.15 
  -2   0   7   -0.11    0.16 
  -2   0   7    0.24    0.16 
   2   0  -7    0.05    0.15 
   2   0  -7    0.06    0.16 
  -2   0   7   -0.21    0.16 
   1   0  -7    0.09    0.17 
   1   0  -7    0.02    0.16 
  -1   0   7    0.06    0.18 
   1   0  -7    0.26    0.16 
  -1   0   7   -0.08    0.13 
   1   0  -7   -0.07    0.15 
  -1   0   7    0.29    0.17 
  -1   0   7    0.04    0.15 
   0   0  -7   -0.04    0.13 
   0   0   7    0.05    0.13 
   0   0  -7   -0.05    0.16 
   0   0  -7    0.03    0.17 
   0   0   7    0.18    0.18 
   0   0   7    0.17    0.16 
  -1   0  -7    0.17    0.17 
  -1   0  -7    0.23    0.18 
   1   0   7   -0.19    0.15 
   1   0   7    0.01    0.15 
   1   0   7    0.75    0.21 
  -1   0  -7    0.49    0.19 
  -1   0  -7    0.33    0.20 
   1   0   7    0.24    0.20 
   2   0   7    0.07    0.22 
  -2   0  -7    0.09    0.19 
   2   0   7   -0.26    0.19 
  -2   0  -7    0.05    0.18 
   2   0   7    0.08    0.20 
  -2   0  -7   -0.09    0.20 
  -2   0  -7   -0.02    0.21 
   2   0   7    0.41    0.25 
   3   0   7   -0.09    0.22 
  -3   0  -7    0.13    0.24 
  -3   0  -7    0.18    0.24 
  -3   0  -7    0.17    0.33 
   3   0   7   -0.18    0.32 
   3   0   7    0.25    0.22 
   4   0   7   -0.18    0.24 
  -4   0  -7    0.12    0.33 
  -4   0  -7    0.12    0.30 
  -4   0  -7    0.20    0.26 
   4   0   7    0.38    0.28 
  -4   0  -7   -0.29    0.30 
   4   0   7    0.07    0.32 
   5   0   7   -0.43    0.29 
  -5   0  -7   -0.06    0.38 
  -5   0  -7   -0.13    0.37 
   5   0   7   -0.18    0.31 
  -5   0  -7   -0.35    0.36 
  -5   0  -7    0.39    0.32 
   5   0   7    0.51    0.41 
   5   0   7    0.18    0.33 
   6   0   7   -0.34    0.51 
  -6   0  -7    0.59    0.52 
   6   0   7    0.48    0.46 
  -6   0  -7    0.30    0.35 
   6   0   7    0.79    0.39 
  -6   0  -7    0.23    0.48 
   6   0   7   -0.05    0.45 
  -6   0  -7   -0.49    0.47 
   7   0   7    0.16    0.44 
  -7   0  -7    0.31    0.56 
  -7   0  -7    0.13    0.45 
   7   0   7   -0.19    0.43 
   7   0   7   -1.10    0.46 
  -7   0  -7    0.19    0.46 
  -8   0  -7   -0.61    0.59 
   8   0   7    0.03    0.54 
   9  -1  -7    1.12    0.60 
  -9  -1   7    1.28    0.52 
   9   1  -7    1.58    0.48 
  -9   1   7    1.81    0.69 
   9   1  -7    1.45    0.42 
   8  -1  -7   24.37    1.23 
   8  -1  -7   22.03    1.18 
   8  -1  -7   24.36    1.41 
  -8  -1   7   23.11    1.03 
  -8  -1   7   23.15    0.86 
  -8   1   7   22.27    1.25 
   8   1  -7   24.43    0.98 
  -8   1   7   23.02    1.15 
   8   1  -7   22.97    0.86 
  -8   1   7   23.91    1.28 
   8   1  -7   23.21    0.96 
   7  -1  -7   20.72    1.02 
   7  -1  -7   20.59    1.01 
   7  -1  -7   20.93    1.04 
  -7  -1   7   20.96    0.79 
   7  -1  -7   21.08    1.03 
  -7  -1   7   20.15    0.89 
  -7  -1   7   20.19    0.86 
   7   1  -7   20.18    0.87 
  -7   1   7   21.68    1.10 
   7   1  -7   20.11    0.83 
   7   1  -7   20.39    0.82 
  -7   1   7   20.99    0.98 
   7   1  -7   20.37    0.75 
  -7   1   7   20.76    1.08 
  -7   1   7   19.38    1.00 
   6  -1  -7   11.40    0.78 
  -6  -1   7   12.57    0.64 
   6  -1  -7   11.60    0.76 
   6  -1  -7   11.78    0.77 
  -6  -1   7   12.69    0.54 
  -6  -1   7   12.14    0.54 
  -6  -1   7   11.78    0.64 
  -6   1   7   12.13    0.77 
  -6   1   7   12.27    0.74 
   6   1  -7   12.36    0.58 
   6   1  -7   11.26    0.60 
  -6   1   7   11.13    0.81 
  -6   1   7   11.34    0.79 
   6   1  -7   12.55    0.52 
   6   1  -7   12.62    0.56 
  -5  -1   7    8.91    0.45 
   5  -1  -7    9.61    0.67 
   5  -1  -7    8.32    0.64 
  -5  -1   7    9.20    0.43 
  -5  -1   7    9.04    0.50 
  -5  -1   7    8.01    0.48 
   5  -1  -7    8.89    0.63 
   5   1  -7    9.10    0.46 
   5   1  -7    7.97    0.48 
  -5   1   7    8.74    0.61 
  -5   1   7    9.37    0.64 
  -5   1   7    8.19    0.65 
   5   1  -7    9.33    0.43 
   5   1  -7    8.90    0.45 
   4  -1  -7    5.61    0.51 
  -4  -1   7    5.70    0.38 
  -4  -1   7    6.01    0.33 
   4  -1  -7    5.78    0.48 
  -4  -1   7    6.36    0.36 
   4  -1  -7    6.66    0.54 
   4  -1  -7    5.83    0.49 
  -4  -1   7    5.65    0.39 
   4   1  -7    5.94    0.36 
  -4   1   7    4.86    0.49 
   4   1  -7    5.65    0.33 
   4   1  -7    5.79    0.36 
  -4   1   7    5.94    0.50 
   4   1  -7    5.93    0.37 
  -4   1   7    5.86    0.49 
  -4   1   7    6.17    0.54 
  -3  -1   7   52.38    1.23 
   3  -1  -7   50.50    1.36 
  -3  -1   7   52.35    1.21 
  -3  -1   7   52.47    1.25 
   3  -1  -7   53.67    1.42 
   3  -1  -7   51.81    1.37 
   3  -1  -7   52.82    1.39 
  -3   1   7   51.12    1.37 
  -3   1   7   51.51    1.41 
  -3   1   7   51.88    1.35 
  -3   1   7   51.20    1.39 
   3   1  -7   52.32    1.24 
   3   1  -7   54.93    1.22 
   3   1  -7   52.72    1.25 
   2  -1  -7   37.95    1.04 
  -2  -1   7   37.33    0.94 
  -2  -1   7   37.27    0.94 
  -2  -1   7   37.28    0.96 
  -2  -1   7   36.50    0.93 
   2  -1  -7   37.30    1.04 
   2   1  -7   38.22    0.94 
   2   1  -7   37.56    0.94 
   2   1  -7   36.98    0.96 
  -2   1   7   35.21    1.05 
   2   1  -7   36.63    0.93 
  -2   1   7   38.44    1.03 
   1  -1  -7   15.31    0.59 
   1  -1  -7   15.21    0.63 
   1  -1  -7   15.01    0.59 
  -1  -1   7   15.46    0.53 
  -1  -1   7   15.49    0.54 
  -1  -1   7   15.70    0.53 
  -1  -1   7   14.94    0.55 
   1   1  -7   14.81    0.56 
   1   1  -7   14.79    0.52 
  -1   1   7   15.22    0.62 
   1   1  -7   16.22    0.56 
  -1   1   7   15.27    0.59 
  -1   1   7   15.98    0.60 
   0  -1   7   42.42    1.13 
   0  -1  -7   41.89    1.11 
   0  -1   7   41.63    1.11 
   0  -1  -7   41.68    1.11 
   0  -1   7   40.81    1.08 
   0  -1  -7   40.79    1.23 
   0  -1   7   43.74    1.12 
   0   1  -7   43.66    1.14 
   0   1   7   42.35    1.10 
   0   1  -7   42.11    1.09 
   0   1  -7   43.24    1.11 
   0   1   7   43.33    1.17 
   0   1   7   40.89    1.11 
   0   1  -7   42.08    1.11 
   1  -1   7    1.04    0.26 
  -1  -1  -7    1.40    0.24 
   1  -1   7    1.18    0.24 
  -1  -1  -7    1.13    0.24 
  -1  -1  -7    1.29    0.24 
  -1  -1  -7    1.78    0.32 
   1  -1   7    1.05    0.22 
   1  -1   7    1.26    0.31 
   1   1   7    2.22    0.33 
  -1   1  -7    1.12    0.27 
   1   1   7    2.14    0.37 
   1   1   7    1.28    0.23 
  -1   1  -7    0.91    0.22 
   1   1   7    1.97    0.34 
  -1   1  -7    1.04    0.23 
   2  -1   7    0.21    0.22 
  -2  -1  -7    0.29    0.29 
   2  -1   7    0.48    0.30 
  -2  -1  -7   -0.39    0.20 
  -2  -1  -7    0.18    0.19 
  -2  -1  -7   -0.06    0.21 
   2  -1   7    0.01    0.23 
   2  -1   7    0.11    0.21 
  -2   1  -7   -0.11    0.24 
  -2   1  -7   -0.20    0.18 
   2   1   7   -0.08    0.16 
  -2   1  -7   -0.42    0.21 
   2   1   7   -0.11    0.17 
  -2   1  -7    0.22    0.24 
   2   1   7    0.20    0.21 
   3  -1   7   86.91    2.15 
   3  -1   7   86.76    2.17 
  -3  -1  -7   85.16    2.13 
   3  -1   7   91.72    2.24 
  -3  -1  -7   83.57    2.07 
  -3  -1  -7   84.85    2.11 
   3  -1   7   91.78    2.18 
  -3  -1  -7   87.44    2.10 
  -3   1  -7   86.47    2.19 
   3   1   7   87.78    2.14 
  -3   1  -7   89.56    2.20 
  -3   1  -7   87.60    2.20 
   3   1   7   85.12    2.09 
  -3   1  -7   88.86    2.15 
   3   1   7   86.29    2.09 
   3   1   7   85.05    2.09 
  -4  -1  -7    4.38    0.58 
  -4  -1  -7    5.39    0.52 
  -4  -1  -7    5.66    0.60 
   4  -1   7    5.96    0.62 
   4  -1   7    6.57    0.69 
  -4  -1  -7    5.80    0.59 
   4  -1   7    5.08    0.60 
  -4   1  -7    5.40    0.58 
  -4   1  -7    5.23    0.65 
  -4   1  -7    6.07    0.71 
   4   1   7    6.37    0.61 
   4   1   7    6.23    0.57 
   4   1   7    5.78    0.56 
  -4   1  -7    6.06    0.67 
   5  -1   7   47.73    1.58 
  -5  -1  -7   48.86    1.53 
   5  -1   7   50.27    1.67 
   5  -1   7   49.88    1.58 
  -5  -1  -7   50.20    1.51 
  -5  -1  -7   49.22    1.45 
  -5  -1  -7   48.32    1.51 
   5  -1   7   48.06    1.55 
  -5   1  -7   48.24    1.64 
  -5   1  -7   49.74    1.61 
   5   1   7   48.66    1.53 
  -5   1  -7   49.00    1.64 
   5   1   7   49.86    1.51 
   5   1   7   47.88    1.46 
  -5   1  -7   50.09    1.54 
   5   1   7   49.93    1.47 
   6  -1   7    9.51    0.84 
   6  -1   7   11.31    1.01 
  -6  -1  -7   11.55    0.82 
   6  -1   7    8.33    1.07 
   6  -1   7    9.53    0.90 
  -6  -1  -7    8.90    0.85 
  -6  -1  -7    9.78    0.87 
  -6   1  -7    9.63    0.88 
   6   1   7   10.13    0.80 
   6   1   7    9.92    0.78 
  -6   1  -7   11.11    1.05 
  -6   1  -7   10.33    1.00 
  -6   1  -7   10.84    0.98 
   7  -1   7    8.81    1.15 
   7  -1   7    6.92    1.01 
  -7  -1  -7    5.96    0.90 
  -7  -1  -7    7.54    0.84 
  -7  -1  -7    5.11    0.88 
   7  -1   7    7.89    0.94 
  -7   1  -7    7.84    0.97 
   7   1   7    8.77    0.86 
   7   1   7    6.57    0.84 
  -7   1  -7    9.20    1.17 
  -7   1  -7    6.94    1.08 
   8  -1   7   -0.09    0.63 
  -8  -1  -7   -0.37    0.54 
   8   1   7   -0.69    0.49 
  -8   1  -7   -0.08    0.64 
   9  -2  -7   -0.08    0.63 
  -9  -2   7   -0.70    0.38 
  -9  -2   7    0.07    0.44 
   9   2  -7   -0.36    0.30 
  -9   2   7    1.78    0.83 
   9   2  -7   -0.53    0.36 
   8  -2  -7   12.27    1.20 
  -8  -2   7   11.21    0.73 
  -8  -2   7   12.34    0.70 
   8  -2  -7   13.55    1.15 
   8   2  -7   12.68    0.64 
   8   2  -7   11.87    0.60 
  -8   2   7   10.89    1.16 
   7  -2  -7    0.13    0.53 
   7  -2  -7    0.47    0.53 
  -7  -2   7    0.12    0.27 
  -7  -2   7   -0.19    0.28 
  -7   2   7   -1.02    0.51 
   7   2  -7    0.14    0.23 
  -7   2   7    0.71    0.60 
   7   2  -7    0.22    0.23 
  -7   2   7   -0.12    0.51 
  -6  -2   7   29.11    0.88 
   6  -2  -7   29.56    1.25 
   6  -2  -7   30.39    1.25 
   6  -2  -7   30.47    1.24 
   6  -2  -7   31.16    1.24 
  -6   2   7   30.19    1.23 
  -6   2   7   31.51    1.32 
  -6   2   7   30.90    1.22 
  -6   2   7   31.47    1.32 
   6   2  -7   30.46    0.83 
   5  -2  -7    3.93    0.68 
   5  -2  -7    3.81    0.64 
   5  -2  -7    4.70    0.67 
  -5  -2   7    4.46    0.34 
  -5  -2   7    4.27    0.35 
  -5   2   7    4.47    0.62 
   5   2  -7    4.78    0.34 
   5   2  -7    4.41    0.29 
  -5   2   7    4.84    0.68 
  -5   2   7    6.17    0.70 
  -4  -2   7    7.73    0.37 
  -4  -2   7    8.10    0.26 
  -4  -2   7    8.47    0.25 
   4  -2  -7    6.96    0.64 
   4  -2  -7    7.42    0.65 
   4  -2  -7    6.94    0.64 
  -4  -2   7    7.60    0.36 
   4  -2  -7    8.58    0.65 
   4   2  -7    7.23    0.35 
  -4   2   7    7.93    0.62 
  -4   2   7    7.99    0.69 
  -4   2   7    7.00    0.65 
   4   2  -7    8.39    0.34 
  -4   2   7    8.37    0.64 
  -3  -2   7   30.79    0.80 
   3  -2  -7   30.96    1.04 
  -3  -2   7   31.40    0.75 
  -3  -2   7   31.46    0.82 
   3  -2  -7   30.35    1.08 
   3  -2  -7   33.12    1.07 
   3  -2  -7   32.51    1.07 
  -3   2   7   30.58    1.03 
   3   2  -7   31.12    0.79 
   3   2  -7   31.88    0.74 
  -3   2   7   33.11    1.06 
  -3   2   7   31.28    1.09 
  -3   2   7   31.29    1.08 
   3   2  -7   31.23    0.79 
   3   2  -7   31.61    0.73 
   2  -2  -7    0.20    0.20 
   2  -2  -7    0.24    0.23 
  -2  -2   7    0.17    0.16 
  -2  -2   7    0.33    0.14 
  -2  -2   7    0.43    0.15 
   2  -2  -7    0.48    0.39 
  -2  -2   7    0.35    0.14 
   2  -2  -7    0.45    0.26 
  -2   2   7   -0.16    0.23 
  -2   2   7    0.29    0.43 
   2   2  -7    0.55    0.17 
  -2   2   7    0.21    0.24 
  -2   2   7    0.26    0.24 
   2   2  -7    0.15    0.14 
   2   2  -7    0.21    0.15 
   2   2  -7    0.32    0.16 
  -1  -2   7    1.97    0.27 
   1  -2  -7    2.23    0.38 
   1  -2  -7    2.27    0.33 
  -1  -2   7    1.68    0.27 
   1  -2  -7    1.50    0.28 
  -1  -2   7    1.63    0.28 
   1  -2  -7    1.79    0.28 
  -1  -2   7    2.10    0.28 
  -1   2   7    2.21    0.34 
  -1   2   7    2.04    0.31 
   1   2  -7    1.93    0.28 
  -1   2   7    2.20    0.38 
   1   2  -7    2.26    0.31 
   1   2  -7    2.02    0.30 
  -1   2   7    1.69    0.27 
   1   2  -7    1.89    0.29 
   0  -2  -7    0.39    0.22 
   0  -2  -7    0.69    0.24 
   0  -2   7    0.61    0.20 
   0  -2   7    0.56    0.21 
   0  -2  -7    0.71    0.25 
   0  -2  -7    0.98    0.27 
   0  -2   7    0.74    0.24 
   0  -2   7    0.60    0.21 
   0   2  -7    0.69    0.24 
   0   2   7    0.52    0.22 
   0   2   7    0.68    0.26 
   0   2   7    0.48    0.22 
   0   2  -7    0.82    0.22 
   0   2   7    0.66    0.24 
   0   2  -7    0.55    0.24 
  -1  -2  -7   81.28    1.93 
  -1  -2  -7   77.92    1.98 
  -1  -2  -7   82.10    1.94 
  -1  -2  -7   82.71    1.95 
   1  -2   7   79.40    1.99 
   1  -2   7   83.53    1.97 
   1  -2   7   81.45    1.97 
   1  -2   7   82.22    2.04 
   1   2   7   83.38    1.94 
  -1   2  -7   82.57    2.00 
   1   2   7   85.95    1.98 
  -1   2  -7   83.99    2.01 
  -1   2  -7   80.48    1.97 
   1   2   7   81.51    1.95 
  -1   2  -7   80.65    2.00 
   1   2   7   83.18    1.96 
   2  -2   7    0.11    0.29 
  -2  -2  -7    0.22    0.23 
  -2  -2  -7   -0.01    0.20 
   2  -2   7    0.52    0.28 
  -2  -2  -7   -0.09    0.22 
   2  -2   7    0.01    0.30 
   2  -2   7    0.64    0.30 
  -2  -2  -7    0.37    0.25 
  -2   2  -7    0.18    0.29 
  -2   2  -7    0.56    0.26 
   2   2   7   -0.01    0.18 
   2   2   7    0.20    0.24 
  -2   2  -7    0.14    0.27 
  -2   2  -7   -0.04    0.30 
   3  -2   7    9.94    0.68 
   3  -2   7    8.65    0.68 
  -3  -2  -7    8.68    0.61 
  -3  -2  -7    9.92    0.58 
  -3  -2  -7   10.10    0.59 
   3  -2   7   10.38    0.69 
  -3  -2  -7    9.20    0.56 
   3  -2   7    9.51    0.77 
   3   2   7   10.01    0.59 
   3   2   7    9.43    0.58 
  -3   2  -7    8.94    0.74 
  -3   2  -7   10.42    0.67 
  -3   2  -7    9.13    0.71 
   3   2   7   10.31    0.63 
  -3   2  -7   10.60    0.75 
   4  -2   7   34.29    1.36 
   4  -2   7   34.45    1.25 
  -4  -2  -7   32.56    1.06 
  -4  -2  -7   33.53    1.17 
   4  -2   7   31.81    1.22 
   4  -2   7   33.03    1.27 
  -4  -2  -7   33.64    1.10 
  -4  -2  -7   31.32    1.11 
  -4   2  -7   33.31    1.21 
  -4   2  -7   33.69    1.30 
   4   2   7   34.63    1.14 
   4   2   7   32.78    1.10 
   4   2   7   32.39    1.07 
  -4   2  -7   32.57    1.28 
   4   2   7   35.37    1.10 
  -4   2  -7   31.74    1.42 
   5  -2   7   27.76    1.28 
   5  -2   7   28.60    1.25 
   5  -2   7   30.11    1.25 
  -5  -2  -7   28.10    1.03 
   5  -2   7   29.65    1.40 
  -5  -2  -7   28.39    1.12 
  -5  -2  -7   29.42    1.14 
   5   2   7   27.49    1.06 
   5   2   7   29.57    1.07 
  -5   2  -7   31.75    1.42 
  -5   2  -7   29.61    1.32 
  -5   2  -7   27.44    1.33 
   5   2   7   29.62    1.08 
  -5   2  -7   28.19    1.20 
  -6  -2  -7    0.32    0.45 
   6  -2   7    0.04    0.54 
   6  -2   7    0.04    0.51 
  -6  -2  -7    0.21    0.41 
  -6  -2  -7    0.27    0.41 
   6  -2   7   -0.60    0.73 
   6  -2   7   -0.11    0.65 
  -6   2  -7    1.46    0.73 
  -6   2  -7    0.64    0.42 
   6   2   7    0.24    0.42 
  -6   2  -7    0.82    0.61 
   6   2   7    0.19    0.36 
  -6   2  -7    1.15    0.56 
   7  -2   7   -0.88    0.59 
   7  -2   7    0.32    0.64 
  -7  -2  -7    0.74    0.50 
  -7   2  -7   -0.72    0.56 
  -7   2  -7    1.35    0.63 
   7   2   7    0.08    0.41 
  -8  -2  -7    0.99    0.59 
   8  -2   7    1.10    0.75 
  -8   2  -7    1.65    0.78 
   8   2   7    0.27    0.49 
  -9  -3   7    1.53    0.30 
   9  -3  -7    0.51    0.80 
  -9  -3   7    1.10    0.30 
  -9   3   7    1.12    0.97 
  -8  -3   7    0.02    0.21 
  -8  -3   7    0.13    0.21 
   8  -3  -7   -0.25    0.70 
  -8   3   7    0.48    0.76 
   7  -3  -7    3.75    0.77 
   7  -3  -7    1.65    0.66 
  -7   3   7    0.59    0.66 
  -7   3   7    2.29    0.62 
  -7   3   7    2.65    1.36 
  -7   3   7    1.65    0.61 
   6  -3  -7    6.08    0.90 
   6  -3  -7    6.28    0.88 
   6  -3  -7    6.63    0.94 
   6  -3  -7    8.25    1.01 
  -6   3   7    5.01    0.73 
  -6   3   7    5.07    0.83 
  -6   3   7    4.81    0.70 
   5  -3  -7    2.75    0.60 
   5  -3  -7    3.21    0.56 
   5  -3  -7    1.78    0.45 
  -5   3   7    3.39    0.60 
  -5   3   7    2.83    0.51 
  -5   3   7    2.59    0.58 
  -5   3   7    2.37    0.49 
   4  -3  -7   13.12    0.89 
  -4  -3   7   13.02    0.41 
   4  -3  -7   13.93    0.89 
  -4  -3   7   13.58    0.44 
   4  -3  -7   13.84    0.90 
   4  -3  -7   13.53    0.88 
  -4   3   7   13.76    0.90 
  -4   3   7   12.58    0.94 
   4   3  -7   13.31    0.38 
  -4   3   7   12.22    0.83 
   4   3  -7   12.67    0.37 
  -4   3   7   12.04    0.89 
  -3  -3   7   24.22    0.66 
   3  -3  -7   24.67    1.00 
   3  -3  -7   22.82    1.02 
   3  -3  -7   23.41    1.03 
   3  -3  -7   24.46    1.02 
  -3  -3   7   24.30    0.70 
  -3   3   7   23.45    1.03 
  -3   3   7   25.36    1.07 
   3   3  -7   22.72    0.62 
  -3   3   7   23.32    0.99 
   3   3  -7   24.32    0.66 
  -3   3   7   23.97    0.99 
  -2  -3   7    1.52    0.26 
   2  -3  -7    1.31    0.34 
   2  -3  -7    1.18    0.38 
  -2  -3   7    1.32    0.18 
  -2  -3   7    1.71    0.24 
  -2  -3   7    1.67    0.26 
   2  -3  -7    1.59    0.36 
   2  -3  -7    1.23    0.36 
  -2   3   7    1.50    0.35 
  -2   3   7    1.05    0.31 
   2   3  -7    1.44    0.22 
   2   3  -7    1.88    0.27 
   2   3  -7    1.48    0.25 
  -2   3   7    1.73    0.32 
  -2   3   7    2.08    0.42 
   2   3  -7    1.48    0.20 
  -1  -3   7   -0.08    0.17 
   1  -3  -7   -0.05    0.26 
  -1  -3   7    0.08    0.18 
   1  -3  -7    0.50    0.31 
  -1  -3   7    0.23    0.23 
   1  -3  -7    0.38    0.28 
  -1  -3   7    0.18    0.21 
   1  -3  -7   -0.20    0.28 
  -1   3   7    0.03    0.24 
  -1   3   7   -0.24    0.31 
   1   3  -7    0.23    0.21 
   1   3  -7   -0.20    0.19 
   1   3  -7   -0.03    0.18 
  -1   3   7    0.30    0.25 
   1   3  -7    0.09    0.20 
  -1   3   7    0.35    0.29 
   0  -3  -7   17.59    0.76 
   0  -3  -7   17.47    0.76 
   0  -3   7   18.09    0.70 
   0  -3  -7   16.70    0.80 
   0  -3   7   17.70    0.76 
   0  -3   7   17.38    0.72 
   0  -3   7   17.95    0.69 
   0  -3  -7   17.83    0.76 
   0   3  -7   17.62    0.70 
   0   3   7   19.23    0.81 
   0   3   7   18.26    0.73 
   0   3   7   17.16    0.75 
   0   3  -7   18.20    0.74 
   0   3  -7   18.17    0.73 
   0   3  -7   17.18    0.72 
   1  -3   7    7.58    0.63 
  -1  -3  -7    7.08    0.60 
   1  -3   7    8.11    0.60 
  -1  -3  -7    7.94    0.55 
   1  -3   7    7.52    0.57 
  -1  -3  -7    7.28    0.55 
   1  -3   7    8.75    0.60 
  -1  -3  -7    8.25    0.56 
  -1   3  -7    7.29    0.57 
  -1   3  -7    8.51    0.61 
  -1   3  -7    8.42    0.63 
   1   3   7    8.04    0.55 
   1   3   7    9.17    0.59 
   1   3   7    8.64    0.60 
   2  -3   7   19.93    0.98 
  -2  -3  -7   19.88    0.79 
   2  -3   7   19.65    0.91 
   2  -3   7   19.08    0.88 
  -2  -3  -7   21.20    0.81 
  -2  -3  -7   20.03    0.87 
   2  -3   7   20.87    0.94 
  -2  -3  -7   21.38    0.81 
  -2   3  -7   20.40    0.95 
   2   3   7   20.58    0.78 
   2   3   7   22.24    0.84 
  -2   3  -7   21.44    0.96 
  -2   3  -7   21.48    0.91 
   2   3   7   19.34    0.79 
  -2   3  -7   21.75    0.96 
   2   3   7   20.00    0.81 
   3  -3   7   27.34    1.14 
  -3  -3  -7   27.85    1.04 
  -3  -3  -7   27.57    0.99 
   3  -3   7   28.96    1.18 
  -3  -3  -7   27.28    0.97 
   3  -3   7   28.80    1.27 
   3  -3   7   27.42    1.12 
  -3  -3  -7   27.57    0.96 
   3   3   7   28.21    0.96 
  -3   3  -7   27.95    1.12 
  -3   3  -7   27.10    1.21 
  -3   3  -7   28.18    1.18 
   3   3   7   28.42    0.98 
   3   3   7   27.93    0.98 
  -3   3  -7   28.03    1.21 
   3   3   7   28.26    0.99 
   4  -3   7   -0.34    0.40 
  -4  -3  -7    0.00    0.32 
  -4  -3  -7    0.18    0.32 
   4  -3   7   -0.32    0.47 
   4  -3   7    1.52    0.76 
   4  -3   7    0.44    0.47 
  -4   3  -7   -0.44    0.46 
   4   3   7   -0.10    0.33 
   4   3   7   -0.18    0.27 
  -4   3  -7    0.07    0.46 
  -4   3  -7   -0.05    0.40 
  -4   3  -7    0.72    0.54 
   4   3   7    0.01    0.30 
   5  -3   7    7.67    1.09 
   5  -3   7    7.71    0.98 
   5  -3   7    7.06    0.97 
   5  -3   7    7.55    1.23 
  -5  -3  -7    6.14    0.72 
  -5  -3  -7    6.15    0.75 
  -5  -3  -7    6.59    0.67 
  -5   3  -7    7.96    1.17 
  -5   3  -7    7.48    0.92 
   5   3   7    5.68    0.67 
   5   3   7    6.95    0.66 
   5   3   7    6.59    0.67 
  -5   3  -7    6.64    1.19 
  -5   3  -7    5.68    0.78 
  -6  -3  -7    4.41    0.70 
   6  -3   7    3.62    0.74 
  -6  -3  -7    2.43    0.50 
   6  -3   7    5.58    1.00 
  -6  -3  -7    2.75    0.56 
   6  -3   7    3.04    0.72 
   6  -3   7    4.53    0.87 
  -6   3  -7    3.98    0.74 
  -6   3  -7    2.99    0.60 
   6   3   7    3.67    0.53 
  -6   3  -7    2.68    0.90 
   6   3   7    5.17    0.72 
  -6   3  -7    3.55    0.91 
   6   3   7    3.41    0.50 
   7  -3   7    1.84    0.77 
  -7  -3  -7    3.58    0.64 
   7  -3   7    2.22    0.72 
   7   3   7    3.44    0.55 
  -7   3  -7    3.87    0.81 
  -7   3  -7    5.06    1.31 
   8  -4  -7    0.79    0.98 
  -8   4   7    1.35    0.98 
   7  -4  -7    0.61    0.73 
  -7   4   7    1.38    0.74 
  -7   4   7    1.03    1.43 
   6  -4  -7    0.32    0.54 
   6  -4  -7    0.90    0.68 
   6  -4  -7    0.62    0.57 
  -6   4   7    0.51    0.53 
  -6   4   7    0.55    0.74 
  -6   4   7    1.86    0.86 
  -6   4   7    1.33    0.71 
   5  -4  -7   -0.85    0.54 
   5  -4  -7    0.91    0.60 
   5  -4  -7    0.33    0.57 
   5  -4  -7    0.39    0.52 
  -5   4   7    0.28    0.49 
  -5   4   7    0.61    0.55 
  -5   4   7    0.00    0.66 
  -5   4   7    0.37    0.61 
   4  -4  -7    3.95    0.63 
   4  -4  -7    5.34    0.70 
   4  -4  -7    6.39    0.94 
   4  -4  -7    4.90    0.89 
  -4   4   7    5.04    0.69 
  -4   4   7    5.01    0.75 
  -4   4   7    6.74    0.94 
   3  -4  -7    6.65    0.82 
  -3  -4   7    6.19    0.41 
   3  -4  -7    7.31    0.83 
   3  -4  -7    7.65    0.83 
   3  -4  -7    4.77    0.85 
  -3   4   7    7.04    0.81 
  -3   4   7    6.00    0.77 
   3   4  -7    6.57    0.37 
  -3   4   7    6.52    0.88 
  -3   4   7    8.08    0.85 
   3   4  -7    6.05    0.51 
  -2  -4   7   12.34    0.48 
  -2  -4   7   12.05    0.60 
   2  -4  -7   13.03    0.90 
   2  -4  -7   11.90    0.84 
  -2  -4   7   12.99    0.46 
   2  -4  -7   13.33    0.87 
   2   4  -7   13.53    0.44 
   2   4  -7   12.11    0.57 
  -2   4   7   11.80    0.84 
  -2   4   7   13.15    0.91 
   2   4  -7   13.77    0.43 
  -2   4   7   12.67    0.87 
   2   4  -7   11.78    0.59 
   1  -4  -7   -0.19    0.32 
  -1  -4   7   -0.14    0.25 
  -1  -4   7    0.15    0.23 
  -1  -4   7    0.18    0.24 
   1  -4  -7   -0.52    0.32 
   1  -4  -7    0.18    0.35 
  -1  -4   7    0.19    0.27 
   1  -4  -7   -0.23    0.36 
   1   4  -7    0.08    0.25 
  -1   4   7    0.40    0.35 
   1   4  -7    0.09    0.23 
   1   4  -7    0.17    0.24 
  -1   4   7    0.34    0.40 
   1   4  -7    0.35    0.26 
  -1   4   7    0.21    0.34 
  -1   4   7   -0.22    0.36 
   0  -4   7   26.89    0.95 
   0  -4  -7   26.03    1.02 
   0  -4  -7   27.30    1.12 
   0  -4   7   25.96    0.99 
   0  -4  -7   27.14    1.05 
   0  -4  -7   26.78    1.03 
   0  -4   7   26.84    1.03 
   0   4   7   25.96    1.04 
   0   4  -7   27.48    0.98 
   0   4   7   27.07    1.07 
   0   4   7   26.60    1.01 
   0   4  -7   27.52    1.29 
   0   4  -7   27.35    0.97 
   0   4   7   26.42    1.06 
   1  -4   7    3.49    0.59 
   1  -4   7    3.98    0.64 
   1  -4   7    3.90    0.60 
   1  -4   7    4.03    0.60 
  -1  -4  -7    5.10    0.58 
  -1  -4  -7    4.05    0.60 
  -1  -4  -7    4.81    0.59 
  -1   4  -7    3.88    0.65 
  -1   4  -7    4.76    0.59 
   1   4   7    4.79    0.58 
   1   4   7    4.87    0.63 
   1   4   7    4.26    0.53 
   1   4   7    3.58    0.61 
  -1   4  -7    5.03    0.69 
   2  -4   7    7.14    0.84 
  -2  -4  -7    5.87    0.69 
   2  -4   7    5.11    0.70 
  -2  -4  -7    6.68    0.66 
  -2  -4  -7    6.18    0.63 
   2  -4   7    5.05    0.79 
   2  -4   7    6.73    0.75 
   2   4   7    6.05    0.60 
  -2   4  -7    6.66    0.72 
   2   4   7    5.68    0.88 
   2   4   7    6.77    0.65 
  -2   4  -7    6.26    0.82 
  -2   4  -7    6.64    0.85 
  -3  -4  -7    2.25    0.41 
   3  -4   7    2.95    0.68 
  -3  -4  -7    2.25    0.42 
   3  -4   7    2.19    0.67 
   3  -4   7    2.45    0.57 
  -3  -4  -7    2.38    0.47 
  -3   4  -7    2.26    0.60 
  -3   4  -7    1.30    0.62 
   3   4   7    2.18    0.37 
   3   4   7    1.61    0.42 
   3   4   7    2.39    0.39 
  -3   4  -7    2.05    0.54 
  -4  -4  -7    0.02    0.37 
   4  -4   7    0.78    0.73 
  -4  -4  -7    0.31    0.40 
  -4  -4  -7   -0.07    0.64 
   4  -4   7   -0.03    0.61 
   4  -4   7   -0.02    0.54 
  -4   4  -7    1.30    0.63 
  -4   4  -7    0.54    0.77 
   4   4   7    0.30    0.41 
   4   4   7    0.25    0.34 
  -4   4  -7    0.24    0.64 
   4   4   7    0.08    0.33 
   5  -4   7   10.03    1.18 
  -5  -4  -7   11.81    0.91 
   5  -4   7   11.43    1.39 
   5  -4   7   10.45    1.24 
  -5  -4  -7   11.34    0.79 
  -5  -4  -7   11.38    0.89 
  -5   4  -7   10.82    1.21 
   5   4   7   11.74    0.83 
  -5   4  -7   11.83    1.59 
   5   4   7   10.90    0.81 
  -5   4  -7   11.35    1.35 
   5   4   7   11.97    0.78 
  -6  -4  -7    6.35    0.94 
   6  -4   7    5.11    0.98 
   6   4   7    7.58    0.82 
  -6   4  -7    5.52    0.96 
  -6   4  -7    5.73    0.98 
   6  -5  -7    2.61    0.96 
  -6   5   7    2.17    0.77 
   5  -5  -7    2.65    0.85 
   5  -5  -7    1.75    0.67 
  -5   5   7    2.56    0.79 
  -5   5   7    1.25    0.65 
   4  -5  -7   -0.40    0.63 
   4  -5  -7   -0.55    0.58 
   4  -5  -7   -0.53    0.68 
  -4   5   7    0.17    0.62 
  -4   5   7    0.54    0.62 
  -3  -5   7    4.25    0.49 
  -3  -5   7    3.17    0.44 
   3  -5  -7    2.86    0.55 
   3  -5  -7    7.17    1.08 
   3  -5  -7    4.26    0.77 
   3   5  -7    4.12    0.37 
  -3   5   7    3.12    0.68 
  -3   5   7    3.40    0.60 
  -3   5   7    3.77    0.64 
   3   5  -7    3.55    0.42 
  -2  -5   7   21.88    0.64 
   2  -5  -7   21.19    1.15 
  -2  -5   7   22.52    0.86 
   2  -5  -7   21.73    1.20 
  -2  -5   7   21.15    0.87 
   2  -5  -7   22.53    1.25 
   2   5  -7   21.14    0.81 
  -2   5   7   22.57    1.22 
  -2   5   7   21.75    1.25 
  -2   5   7   22.00    1.19 
   2   5  -7   21.49    0.81 
  -1  -5   7   11.92    0.67 
   1  -5  -7   10.69    0.97 
  -1  -5   7   11.72    0.75 
   1  -5  -7   10.57    0.92 
  -1  -5   7   11.66    0.80 
   1  -5  -7   12.18    0.93 
  -1   5   7   11.15    0.89 
   1   5  -7   11.53    0.71 
   1   5  -7   11.60    0.68 
  -1   5   7   12.22    0.98 
   1   5  -7   12.62    0.72 
  -1   5   7   11.67    0.91 
   0  -5  -7    4.92    0.75 
   0  -5   7    4.66    0.66 
   0  -5  -7    2.94    0.54 
   0  -5  -7    2.97    0.55 
   0  -5   7    3.42    0.56 
   0  -5   7    4.03    0.50 
   0   5  -7    3.87    0.53 
   0   5   7    3.16    0.56 
   0   5  -7    2.93    0.46 
   0   5  -7    4.01    0.64 
   0   5   7    2.92    0.52 
   1  -5   7    6.32    0.83 
   1  -5   7    7.45    0.81 
  -1  -5  -7    7.90    0.84 
   1  -5   7    6.73    0.79 
  -1  -5  -7    6.75    0.77 
  -1  -5  -7    6.78    0.82 
  -1   5  -7    5.45    0.83 
  -1   5  -7    6.00    0.74 
   1   5   7    4.58    0.79 
   1   5   7    5.98    0.82 
  -1   5  -7    6.73    0.92 
   1   5   7    5.94    0.75 
  -2  -5  -7    6.83    0.79 
   2  -5   7    6.12    0.89 
   2  -5   7    6.53    0.84 
  -2  -5  -7    6.84    0.82 
   2  -5   7    4.81    0.70 
  -2  -5  -7    6.16    0.80 
   2   5   7    6.47    0.83 
   2   5   7    5.29    0.71 
  -2   5  -7    6.14    0.86 
  -2   5  -7    5.94    0.93 
  -2   5  -7    6.27    1.01 
   2   5   7    5.78    0.65 
  -3  -5  -7    5.21    0.87 
  -3  -5  -7    4.34    0.71 
   3  -5   7    4.25    0.72 
  -3   5  -7    3.88    0.66 
   3   5   7    3.92    0.57 
   3   5   7    4.22    0.69 
   3   5   7    3.52    0.49 
   4  -5   7   10.72    1.25 
  -4  -5  -7   11.75    0.94 
   4   5   7   11.46    1.02 
   4   5   7    8.59    0.80 
  -4   5  -7    8.45    1.15 
   5  -5   7   -1.26    0.77 
  -5  -5  -7    0.76    0.54 
  -5   5  -7    0.07    0.70 
   4  -6  -7    0.77    0.89 
  -4   6   7    3.17    0.87 
  -3  -6   7    2.39    0.43 
   3  -6  -7    2.79    0.81 
  -3  -6   7    2.49    0.39 
  -3   6   7    0.91    0.69 
   3   6  -7    2.08    0.30 
   3   6  -7    2.22    0.35 
   2  -6  -7    2.15    0.74 
  -2  -6   7    1.82    0.49 
  -2  -6   7    1.44    0.43 
   2   6  -7    1.74    0.44 
  -2   6   7    0.73    0.59 
   2   6  -7    1.94    0.39 
   1  -6  -7    1.34    0.64 
  -1  -6   7    1.64    0.48 
  -1   6   7    1.45    0.61 
   1   6  -7    0.86    0.49 
   1   6  -7    0.89    0.44 
   0  -6   7    6.28    0.86 
   0  -6  -7    5.22    0.80 
   0   6  -7    5.67    0.83 
   0   6   7    4.47    0.67 
   1  -6   7    4.79    0.71 
  -1  -6  -7    6.74    1.00 
  -1   6  -7    5.23    0.90 
   1   6   7    3.56    0.61 
   2  -6   7    0.96    0.64 
  -2  -6  -7   -0.50    0.56 
  -2   6  -7    0.48    0.58 
   2   6   7    0.82    0.51 
   3  -6   7    2.76    0.81 
  -3   6  -7    3.08    0.74 
   9   0  -8   16.06    1.05 
  -9   0   8   17.23    1.16 
   8   0  -8   20.36    1.05 
   8   0  -8   20.90    1.04 
  -8   0   8   20.59    1.00 
  -8   0   8   21.56    1.12 
   8   0  -8   21.36    1.06 
   7   0  -8   34.17    1.21 
  -7   0   8   35.10    1.17 
   7   0  -8   32.74    1.35 
  -7   0   8   35.77    1.29 
  -7   0   8   33.46    1.25 
   7   0  -8   35.66    1.20 
  -6   0   8  110.09    2.58 
   6   0  -8  108.81    2.60 
   6   0  -8  111.07    2.56 
   6   0  -8  108.83    2.63 
  -6   0   8  113.25    2.56 
  -6   0   8  109.17    2.66 
  -6   0   8  112.54    2.67 
   6   0  -8  112.76    2.61 
  -5   0   8   -0.10    0.24 
  -5   0   8    0.49    0.27 
  -5   0   8    0.24    0.24 
  -5   0   8    0.47    0.24 
   5   0  -8    0.34    0.25 
   5   0  -8    0.35    0.26 
   5   0  -8    0.49    0.23 
   5   0  -8    0.14    0.26 
   4   0  -8   68.59    1.71 
  -4   0   8   69.05    1.65 
   4   0  -8   67.83    1.69 
  -4   0   8   69.44    1.72 
  -4   0   8   68.84    1.67 
  -4   0   8   66.56    1.71 
   4   0  -8   69.15    1.65 
  -3   0   8  513.85   10.45 
   3   0  -8  503.34   10.42 
  -3   0   8  520.28   10.43 
  -3   0   8  522.13   10.39 
   3   0  -8  528.69   10.40 
  -3   0   8  518.64   10.45 
  -2   0   8  245.30    5.05 
   2   0  -8  245.82    5.05 
   2   0  -8  233.56    5.07 
   2   0  -8  240.70    5.04 
  -2   0   8  252.74    5.09 
   2   0  -8  242.44    5.03 
  -2   0   8  244.16    5.06 
  -2   0   8  242.47    5.02 
   1   0  -8  267.34    5.58 
   1   0  -8  267.17    5.54 
  -1   0   8  274.62    5.58 
  -1   0   8  264.38    5.55 
   1   0  -8  270.41    5.54 
   1   0  -8  276.02    5.55 
  -1   0   8  262.98    5.55 
  -1   0   8  269.68    5.53 
   0   0  -8  138.36    3.04 
   0   0  -8  136.13    3.13 
   0   0  -8  147.54    3.07 
   0   0   8  139.94    3.09 
   0   0   8  141.07    3.18 
   0   0   8  139.83    3.06 
   0   0   8  140.85    3.04 
  -1   0  -8  324.19    6.55 
  -1   0  -8  310.00    6.55 
   1   0   8  322.06    6.57 
  -1   0  -8  317.39    6.59 
   1   0   8  308.41    6.54 
   1   0   8  311.09    6.58 
   1   0   8  320.95    6.55 
  -1   0  -8  325.93    6.55 
  -2   0  -8  117.51    2.63 
  -2   0  -8  114.21    2.60 
   2   0   8  116.37    2.66 
   2   0   8  109.88    2.60 
  -2   0  -8  112.49    2.64 
   2   0   8  115.99    2.62 
  -2   0  -8  109.03    2.65 
   2   0   8  112.26    2.62 
  -3   0  -8    0.43    0.25 
   3   0   8    0.43    0.26 
  -3   0  -8    0.49    0.32 
  -3   0  -8    0.50    0.31 
   3   0   8    0.26    0.27 
  -3   0  -8    0.23    0.30 
   3   0   8    0.48    0.33 
   3   0   8    0.38    0.26 
   4   0   8   72.20    2.03 
   4   0   8   70.48    2.10 
  -4   0  -8   72.33    1.97 
  -4   0  -8   73.45    2.00 
  -4   0  -8   73.61    2.00 
   4   0   8   74.49    1.96 
   4   0   8   75.54    1.95 
  -4   0  -8   76.03    1.99 
   5   0   8   24.49    1.07 
  -5   0  -8   24.84    1.15 
  -5   0  -8   23.86    1.11 
   5   0   8   26.92    1.58 
   5   0   8   24.88    1.18 
  -5   0  -8   26.16    1.15 
   5   0   8   26.93    1.11 
  -6   0  -8   15.83    1.09 
   6   0   8   16.90    0.99 
   6   0   8   16.37    0.95 
  -6   0  -8   15.64    1.19 
   6   0   8   16.39    1.08 
   6   0   8   17.73    1.58 
  -6   0  -8   15.70    1.04 
  -6   0  -8   16.14    0.98 
  -7   0  -8   27.28    1.28 
   7   0   8   26.47    1.31 
   7   0   8   25.27    1.48 
  -7   0  -8   27.54    1.39 
   8   0   8    8.91    1.11 
  -8   0  -8    8.41    1.24 
   9  -1  -8    7.07    1.08 
  -9  -1   8    8.12    0.88 
   9   1  -8    7.35    0.80 
  -9   1   8    6.15    0.84 
  -8  -1   8    3.21    0.55 
   8  -1  -8    5.46    0.93 
  -8  -1   8    3.42    0.52 
   8  -1  -8    4.86    0.88 
  -8  -1   8    3.59    0.55 
  -8   1   8    3.00    0.56 
  -8   1   8    3.81    0.70 
   8   1  -8    4.25    0.58 
   8   1  -8    3.58    0.63 
   8   1  -8    3.81    0.47 
  -7  -1   8   18.64    0.73 
   7  -1  -8   17.17    0.97 
  -7  -1   8   18.90    0.85 
   7  -1  -8   16.10    1.02 
  -7  -1   8   16.76    0.84 
   7   1  -8   18.12    0.80 
   7   1  -8   18.25    0.78 
   7   1  -8   18.32    0.73 
  -7   1   8   17.84    0.97 
  -7   1   8   18.43    1.06 
  -6  -1   8   38.44    1.18 
  -6  -1   8   37.71    1.16 
   6  -1  -8   38.12    1.29 
  -6  -1   8   39.56    1.05 
  -6  -1   8   40.64    1.08 
   6  -1  -8   39.90    1.30 
   6  -1  -8   37.89    1.32 
   6   1  -8   39.07    1.11 
   6   1  -8   36.28    1.13 
  -6   1   8   38.72    1.27 
   6   1  -8   38.58    1.04 
  -6   1   8   40.43    1.38 
   6   1  -8   39.61    1.07 
  -6   1   8   38.65    1.28 
  -6   1   8   39.12    1.37 
  -5  -1   8   98.16    2.14 
   5  -1  -8   98.07    2.37 
   5  -1  -8   96.71    2.36 
   5  -1  -8   96.33    2.39 
  -5  -1   8   96.92    2.24 
  -5  -1   8   98.67    2.17 
   5  -1  -8   96.92    2.40 
  -5  -1   8   97.72    2.25 
  -5   1   8   96.58    2.34 
  -5   1   8   96.16    2.43 
   5   1  -8   99.30    2.21 
   5   1  -8   99.25    2.14 
  -5   1   8   97.54    2.37 
  -5   1   8   95.24    2.42 
   5   1  -8   98.73    2.18 
   5   1  -8   94.57    2.21 
   4  -1  -8  162.57    3.59 
  -4  -1   8  160.88    3.37 
   4  -1  -8  160.45    3.57 
  -4  -1   8  160.53    3.42 
   4  -1  -8  159.25    3.53 
  -4  -1   8  158.62    3.42 
  -4  -1   8  160.48    3.34 
   4  -1  -8  159.08    3.53 
   4   1  -8  158.18    3.38 
  -4   1   8  153.75    3.57 
   4   1  -8  164.10    3.34 
  -4   1   8  162.46    3.52 
   4   1  -8  160.74    3.38 
  -4   1   8  157.67    3.53 
   4   1  -8  155.79    3.39 
  -4   1   8  157.63    3.58 
  -3  -1   8   61.28    1.43 
   3  -1  -8   61.99    1.60 
  -3  -1   8   62.30    1.46 
   3  -1  -8   62.04    1.58 
   3  -1  -8   59.80    1.66 
  -3  -1   8   61.99    1.47 
  -3  -1   8   63.46    1.50 
   3   1  -8   62.67    1.46 
  -3   1   8   61.71    1.63 
  -3   1   8   59.43    1.67 
  -3   1   8   61.29    1.59 
   3   1  -8   61.28    1.46 
   3   1  -8   64.65    1.45 
  -3   1   8   63.51    1.63 
  -2  -1   8  163.58    3.45 
   2  -1  -8  164.74    3.55 
  -2  -1   8  168.43    3.47 
  -2  -1   8  162.50    3.42 
   2  -1  -8  165.21    3.60 
  -2  -1   8  162.00    3.43 
   2  -1  -8  160.80    3.52 
   2  -1  -8  164.80    3.53 
  -2   1   8  166.62    3.57 
   2   1  -8  161.87    3.43 
   2   1  -8  168.41    3.45 
  -2   1   8  152.37    3.57 
   2   1  -8  163.71    3.46 
  -2   1   8  158.97    3.56 
   2   1  -8  162.82    3.43 
   1  -1  -8  602.89   11.66 
  -1  -1   8  573.20   11.62 
   1  -1  -8  583.41   11.72 
  -1  -1   8  580.34   11.61 
  -1  -1   8  579.40   11.62 
   1  -1  -8  580.67   11.66 
  -1  -1   8  558.34   11.58 
  -1   1   8  583.40   11.67 
   1   1  -8  566.41   11.58 
  -1   1   8  580.06   11.69 
  -1   1   8  593.29   11.64 
   1   1  -8  576.64   11.64 
   0  -1   8  149.96    3.30 
   0  -1  -8  148.14    3.27 
   0  -1  -8  151.82    3.28 
   0  -1  -8  152.51    3.29 
   0  -1  -8  147.83    3.33 
   0  -1   8  151.90    3.26 
   0  -1   8  152.40    3.28 
   0  -1   8  153.04    3.29 
   0   1  -8  154.23    3.27 
   0   1   8  147.17    3.29 
   0   1  -8  152.08    3.30 
   0   1  -8  151.10    3.30 
   0   1   8  151.93    3.30 
   0   1   8  151.41    3.27 
   0   1  -8  149.10    3.27 
   0   1   8  153.72    3.32 
  -1  -1  -8   23.04    0.84 
   1  -1   8   22.03    0.81 
  -1  -1  -8   23.63    0.80 
   1  -1   8   23.96    0.82 
   1  -1   8   23.15    0.86 
  -1  -1  -8   23.22    0.80 
  -1   1  -8   24.25    0.83 
   1   1   8   22.89    0.83 
   1   1   8   22.65    0.79 
  -1   1  -8   23.12    0.84 
  -1   1  -8   23.54    0.80 
  -1   1  -8   23.50    1.24 
   1   1   8   22.58    0.77 
  -2  -1  -8  126.45    2.92 
   2  -1   8  124.80    2.89 
  -2  -1  -8  124.29    2.86 
   2  -1   8  131.97    2.98 
   2  -1   8  123.78    2.89 
  -2  -1  -8  130.30    2.86 
  -2  -1  -8  125.70    2.85 
  -2   1  -8  126.25    2.92 
  -2   1  -8  133.07    2.95 
   2   1   8  120.62    2.84 
   2   1   8  129.28    2.87 
  -2   1  -8  125.00    2.94 
   2   1   8  130.63    2.88 
   2   1   8  123.64    2.89 
  -3  -1  -8   91.94    2.37 
   3  -1   8   99.11    2.39 
   3  -1   8  100.59    2.41 
   3  -1   8   98.58    2.40 
  -3  -1  -8   97.84    2.32 
  -3  -1  -8   98.19    2.37 
   3  -1   8   98.25    2.47 
  -3  -1  -8   96.97    2.34 
   3   1   8   94.29    2.38 
  -3   1  -8   98.84    2.38 
   3   1   8   92.28    2.32 
   3   1   8   96.86    2.34 
  -3   1  -8  102.44    2.46 
  -3   1  -8  101.00    2.43 
   3   1   8   92.97    2.32 
  -4  -1  -8   46.48    1.41 
   4  -1   8   48.46    1.49 
  -4  -1  -8   49.78    1.51 
   4  -1   8   48.93    1.62 
   4  -1   8   49.15    1.51 
   4  -1   8   50.29    1.55 
  -4  -1  -8   49.25    1.46 
  -4  -1  -8   48.49    1.47 
   4   1   8   46.33    1.47 
   4   1   8   48.76    1.44 
  -4   1  -8   47.48    1.54 
  -4   1  -8   49.58    1.49 
  -4   1  -8   50.32    1.59 
   4   1   8   47.57    1.44 
   4   1   8   43.13    1.39 
  -4   1  -8   53.08    1.59 
  -5  -1  -8   18.10    0.97 
  -5  -1  -8   17.00    0.95 
   5  -1   8   18.57    1.17 
   5  -1   8   18.46    0.97 
  -5  -1  -8   18.61    0.98 
   5  -1   8   18.18    1.00 
  -5  -1  -8   19.57    0.90 
   5  -1   8   19.29    1.07 
  -5   1  -8   19.38    1.13 
  -5   1  -8   17.49    1.05 
   5   1   8   19.23    1.02 
  -5   1  -8   18.84    0.97 
  -5   1  -8   20.34    1.14 
   5   1   8   16.85    0.91 
   5   1   8   17.86    0.92 
  -6  -1  -8    0.19    0.47 
  -6  -1  -8    0.41    0.47 
   6  -1   8    1.34    0.59 
   6  -1   8    0.64    0.50 
   6  -1   8    0.39    0.42 
  -6  -1  -8    0.05    0.42 
   6  -1   8    0.89    0.66 
   6   1   8    0.05    0.39 
  -6   1  -8   -0.54    0.58 
  -6   1  -8    0.50    0.46 
   6   1   8    0.21    0.43 
   6   1   8   -0.22    0.43 
  -6   1  -8   -0.01    0.53 
  -6   1  -8    0.94    0.65 
   7  -1   8    1.66    0.55 
   7  -1   8    2.00    0.61 
  -7  -1  -8    2.10    0.55 
   7   1   8    1.87    0.51 
  -7   1  -8    1.98    0.66 
  -7   1  -8    1.34    0.53 
   8  -1   8   14.36    1.34 
  -8  -1  -8   16.87    1.27 
  -8   1  -8   17.41    1.51 
   8   1   8   16.56    1.17 
   9  -2  -8   -1.34    0.68 
  -9  -2   8    0.96    0.42 
  -9  -2   8    0.19    0.44 
  -9   2   8   -1.11    0.66 
   9   2  -8   -0.26    0.40 
   9   2  -8    0.05    0.33 
  -8  -2   8   13.47    0.75 
  -8  -2   8   12.76    0.76 
   8  -2  -8   13.50    1.16 
   8   2  -8   12.26    0.66 
   8   2  -8   13.22    0.64 
  -8   2   8   11.55    1.43 
   7  -2  -8   20.36    1.17 
  -7  -2   8   20.44    0.79 
  -7  -2   8   20.01    0.77 
   7   2  -8   20.60    0.71 
   7   2  -8   20.49    0.73 
  -7   2   8   24.11    1.82 
  -7   2   8   20.97    1.22 
   6  -2  -8    8.49    0.83 
   6  -2  -8    8.03    0.88 
   6  -2  -8    8.52    0.84 
  -6  -2   8    8.47    0.52 
  -6  -2   8    9.04    0.50 
  -6   2   8    8.16    0.80 
  -6   2   8    9.75    0.88 
  -6   2   8    8.83    0.92 
  -6   2   8    7.61    0.90 
   6   2  -8    7.94    0.45 
   6   2  -8    8.63    0.44 
  -5  -2   8  100.25    2.25 
   5  -2  -8  102.84    2.59 
   5  -2  -8  103.47    2.62 
  -5  -2   8   98.40    2.09 
   5  -2  -8  103.35    2.58 
   5  -2  -8  103.08    2.60 
  -5  -2   8  100.96    2.24 
  -5  -2   8  106.04    2.09 
  -5   2   8  105.18    2.57 
  -5   2   8  101.25    2.63 
   5   2  -8   97.00    2.21 
  -5   2   8  100.30    2.63 
   5   2  -8  102.42    2.20 
  -5   2   8  106.47    2.59 
  -4  -2   8   86.69    1.88 
   4  -2  -8   88.71    2.30 
  -4  -2   8   89.00    1.97 
   4  -2  -8   88.30    2.27 
   4  -2  -8   92.80    2.27 
  -4  -2   8   88.64    1.97 
   4  -2  -8   88.11    2.24 
   4   2  -8   86.08    1.94 
  -4   2   8   88.62    2.23 
  -4   2   8   89.92    2.31 
   4   2  -8   91.83    1.95 
  -4   2   8   88.32    2.30 
   4   2  -8   89.89    1.84 
   4   2  -8   89.76    1.83 
  -4   2   8   88.11    2.24 
  -3  -2   8  144.51    3.03 
   3  -2  -8  144.85    3.24 
   3  -2  -8  141.33    3.27 
   3  -2  -8  140.43    3.31 
  -3  -2   8  138.90    3.00 
  -3  -2   8  139.47    2.97 
  -3  -2   8  145.90    2.97 
   3  -2  -8  139.90    3.23 
  -3   2   8  144.03    3.30 
  -3   2   8  143.07    3.25 
   3   2  -8  143.94    3.00 
  -3   2   8  145.04    3.23 
  -3   2   8  141.70    3.29 
   3   2  -8  137.87    2.98 
   3   2  -8  144.84    2.96 
  -2  -2   8  156.79    3.22 
   2  -2  -8  152.21    3.41 
   2  -2  -8  152.78    3.43 
  -2  -2   8  152.68    3.24 
   2  -2  -8  153.96    3.40 
   2  -2  -8  159.07    3.50 
  -2  -2   8  143.42    3.36 
  -2  -2   8  151.07    3.23 
   2   2  -8  150.65    3.22 
  -2   2   8  156.69    3.47 
   2   2  -8  156.63    3.26 
   2   2  -8  150.72    3.22 
   2   2  -8  156.74    3.24 
  -2   2   8  151.54    3.45 
  -2   2   8  154.45    3.40 
  -2   2   8  150.78    3.42 
  -1  -2   8    3.95    0.34 
   1  -2  -8    4.18    0.46 
  -1  -2   8    4.61    0.42 
   1  -2  -8    4.36    0.46 
   1  -2  -8    4.70    0.45 
  -1  -2   8    4.10    0.36 
   1  -2  -8    3.69    0.48 
  -1  -2   8    3.63    0.36 
  -1   2   8    4.35    0.47 
   1   2  -8    4.52    0.38 
  -1   2   8    4.32    0.44 
  -1   2   8    4.20    0.50 
   1   2  -8    3.73    0.34 
   1   2  -8    4.35    0.38 
  -1   2   8    4.71    0.46 
   1   2  -8    4.42    0.39 
   0  -2  -8  146.46    3.25 
   0  -2   8  143.54    3.19 
   0  -2  -8  136.79    3.32 
   0  -2   8  147.22    3.12 
   0  -2  -8  141.86    3.17 
   0  -2  -8  133.90    3.29 
   0  -2   8  141.85    3.13 
   0  -2   8  145.25    3.16 
   0   2  -8  147.86    3.17 
   0   2   8  144.49    3.15 
   0   2   8  141.67    3.35 
   0   2   8  144.34    3.18 
   0   2  -8  145.32    3.14 
   0   2   8  135.25    3.36 
   1  -2   8  206.19    4.46 
  -1  -2  -8  200.24    4.46 
  -1  -2  -8  204.01    4.39 
   1  -2   8  205.72    4.41 
   1  -2   8  207.02    4.50 
  -1  -2  -8  212.74    4.40 
  -1  -2  -8  206.78    4.41 
   1  -2   8  200.94    4.42 
  -1   2  -8  204.85    4.46 
  -1   2  -8  209.59    4.46 
   1   2   8  212.84    4.40 
  -1   2  -8  200.96    4.46 
  -1   2  -8  208.14    4.44 
   1   2   8  202.83    4.41 
   1   2   8  208.69    4.44 
   1   2   8  202.93    4.41 
   2  -2   8  103.59    2.45 
   2  -2   8  101.29    2.46 
  -2  -2  -8   98.87    2.36 
   2  -2   8  101.23    2.52 
  -2  -2  -8   99.06    2.43 
  -2  -2  -8  102.38    2.37 
  -2  -2  -8  101.48    2.38 
   2  -2   8  101.04    2.47 
   2   2   8  104.02    2.40 
  -2   2  -8   98.52    2.47 
  -2   2  -8  102.53    2.48 
  -2   2  -8   95.90    2.47 
   2   2   8  100.16    2.39 
   2   2   8   99.99    2.35 
  -2   2  -8  100.60    2.44 
  -3  -2  -8   87.72    2.25 
   3  -2   8   92.09    2.39 
  -3  -2  -8   85.52    2.17 
  -3  -2  -8   88.55    2.16 
   3  -2   8   87.57    2.29 
   3  -2   8   89.06    2.26 
  -3  -2  -8   87.78    2.15 
   3  -2   8   90.33    2.30 
   3   2   8   86.71    2.17 
  -3   2  -8   89.95    2.34 
  -3   2  -8   89.26    2.32 
   3   2   8   90.14    2.18 
  -3   2  -8   88.59    2.27 
   3   2   8   88.92    2.20 
  -4  -2  -8    0.38    0.34 
  -4  -2  -8    0.17    0.35 
   4  -2   8    0.08    0.38 
   4  -2   8   -0.25    0.34 
   4  -2   8   -0.09    0.47 
  -4  -2  -8    0.49    0.34 
  -4  -2  -8    0.11    0.28 
   4  -2   8    0.69    0.34 
  -4   2  -8    0.24    0.38 
   4   2   8    0.03    0.32 
   4   2   8   -0.32    0.34 
   4   2   8   -0.15    0.29 
  -4   2  -8    0.36    0.65 
  -4   2  -8    0.38    0.48 
  -4   2  -8    0.58    0.39 
   4   2   8    0.18    0.24 
  -5  -2  -8    8.05    0.69 
   5  -2   8    7.44    0.87 
   5  -2   8    7.64    0.90 
   5  -2   8    8.94    1.09 
  -5  -2  -8    6.77    0.76 
  -5  -2  -8    8.40    0.80 
   5  -2   8    7.07    0.97 
  -5   2  -8    8.33    0.95 
  -5   2  -8    8.40    0.86 
  -5   2  -8    8.92    0.99 
   5   2   8    8.25    0.74 
   5   2   8    7.01    0.70 
   5   2   8    8.46    0.74 
  -5   2  -8    7.80    1.09 
   6  -2   8   34.85    1.53 
  -6  -2  -8   32.95    1.26 
   6  -2   8   34.85    1.79 
   6  -2   8   33.80    1.65 
   6  -2   8   34.35    1.50 
  -6  -2  -8   34.82    1.39 
  -6  -2  -8   33.85    1.33 
  -6   2  -8   35.31    1.72 
  -6   2  -8   35.19    1.48 
  -6   2  -8   32.05    1.65 
  -6   2  -8   34.34    1.61 
   6   2   8   34.34    1.32 
   6   2   8   34.60    1.30 
   6   2   8   31.31    1.29 
   7  -2   8    0.88    0.70 
  -7  -2  -8    1.68    0.57 
   7  -2   8    2.35    0.77 
  -7   2  -8    0.25    0.65 
   7   2   8    1.17    0.48 
  -7   2  -8    0.46    0.79 
  -8  -2  -8    3.63    0.73 
   8  -2   8    3.45    0.92 
   8   2   8    6.46    0.97 
  -8   2  -8    3.69    0.88 
   8  -3  -8    7.71    1.24 
  -8  -3   8   10.27    0.46 
  -8  -3   8    9.84    0.46 
  -8   3   8    9.76    1.46 
  -7  -3   8    2.05    0.29 
   7  -3  -8    1.83    0.67 
   7  -3  -8    3.21    0.73 
  -7  -3   8    2.13    0.33 
  -7   3   8    2.40    0.79 
  -7   3   8    1.67    0.69 
  -7   3   8    1.65    0.65 
  -6  -3   8   23.34    0.63 
   6  -3  -8   23.89    1.29 
   6  -3  -8   24.75    1.34 
  -6  -3   8   24.56    0.64 
   6  -3  -8   24.78    1.29 
   6  -3  -8   26.67    1.36 
  -6   3   8   25.59    1.35 
  -6   3   8   23.79    1.23 
  -6   3   8   24.86    1.35 
  -6   3   8   25.92    1.41 
   5  -3  -8   80.28    2.26 
   5  -3  -8   80.56    2.26 
  -5  -3   8   73.43    1.70 
   5  -3  -8   78.27    2.31 
   5  -3  -8   79.75    2.28 
  -5  -3   8   76.80    1.70 
  -5   3   8   81.77    2.23 
  -5   3   8   81.05    2.35 
  -5   3   8   79.19    2.30 
  -5   3   8   81.38    2.25 
   4  -3  -8   27.73    1.19 
   4  -3  -8   27.30    1.15 
  -4  -3   8   25.85    0.71 
   4  -3  -8   26.30    1.18 
  -4  -3   8   25.59    0.75 
   4  -3  -8   27.30    1.16 
   4   3  -8   26.95    0.70 
   4   3  -8   25.32    0.68 
  -4   3   8   28.78    1.23 
  -4   3   8   27.29    1.13 
  -4   3   8   25.78    1.16 
   3  -3  -8   34.34    1.31 
   3  -3  -8   37.75    1.29 
  -3  -3   8   35.61    0.99 
  -3  -3   8   35.77    0.93 
   3  -3  -8   37.45    1.28 
   3  -3  -8   37.19    1.30 
  -3  -3   8   34.72    0.82 
   3   3  -8   37.63    0.95 
  -3   3   8   36.73    1.32 
  -3   3   8   36.55    1.27 
  -3   3   8   37.98    1.34 
   3   3  -8   36.10    0.91 
  -3   3   8   37.34    1.28 
   2  -3  -8   49.59    1.54 
   2  -3  -8   48.14    1.48 
  -2  -3   8   48.16    1.17 
   2  -3  -8   48.08    1.46 
  -2  -3   8   50.34    1.17 
   2  -3  -8   48.15    1.45 
  -2  -3   8   47.90    1.23 
  -2  -3   8   49.02    1.29 
  -2   3   8   50.15    1.51 
  -2   3   8   50.73    1.51 
   2   3  -8   50.58    1.17 
   2   3  -8   47.03    1.20 
  -2   3   8   46.31    1.44 
   2   3  -8   50.03    1.25 
  -2   3   8   45.86    1.45 
   2   3  -8   47.60    1.17 
   1  -3  -8   22.25    0.90 
   1  -3  -8   21.38    0.96 
  -1  -3   8   22.90    0.75 
   1  -3  -8   24.02    0.92 
  -1  -3   8   23.09    0.75 
  -1  -3   8   22.13    0.79 
   1   3  -8   22.47    0.81 
   1   3  -8   22.28    0.75 
  -1   3   8   22.29    0.89 
  -1   3   8   23.05    0.91 
   1   3  -8   22.87    0.77 
  -1   3   8   22.74    0.95 
   1   3  -8   22.50    0.76 
   0  -3   8  188.39    4.25 
   0  -3  -8  204.03    4.24 
   0  -3  -8  198.04    4.34 
   0  -3  -8  194.43    4.24 
   0  -3   8  189.72    4.15 
   0  -3  -8  199.31    4.26 
   0  -3   8  195.46    4.17 
   0  -3   8  190.62    4.22 
   0   3   8  188.79    4.21 
   0   3   8  193.59    4.27 
   0   3   8  194.03    4.28 
   0   3  -8  198.56    4.21 
   0   3  -8  193.97    4.19 
   0   3   8  191.30    4.26 
   0   3  -8  192.94    4.19 
   0   3  -8  191.71    4.21 
   1  -3   8  146.23    3.26 
  -1  -3  -8  148.82    3.25 
  -1  -3  -8  137.18    3.21 
  -1  -3  -8  144.78    3.22 
   1  -3   8  141.76    3.29 
   1  -3   8  139.97    3.32 
  -1  -3  -8  139.15    3.30 
   1  -3   8  145.38    3.24 
  -1   3  -8  144.82    3.29 
  -1   3  -8  140.59    3.28 
   1   3   8  145.47    3.25 
  -1   3  -8  136.25    3.24 
   1   3   8  145.29    3.26 
   1   3   8  139.44    3.19 
   2  -3   8    0.35    0.34 
  -2  -3  -8    0.27    0.30 
  -2  -3  -8    0.46    0.33 
  -2  -3  -8    0.28    0.28 
   2  -3   8    1.28    0.39 
   2  -3   8    0.27    0.31 
  -2  -3  -8    0.08    0.29 
   2  -3   8    0.37    0.41 
   2   3   8   -0.01    0.24 
   2   3   8    0.25    0.28 
  -2   3  -8    0.60    0.38 
  -2   3  -8    0.14    0.26 
  -2   3  -8    0.00    0.38 
   2   3   8    0.53    0.33 
  -2   3  -8    0.15    0.37 
   2   3   8    0.47    0.33 
  -3  -3  -8   16.68    0.81 
  -3  -3  -8   16.45    0.82 
  -3  -3  -8   17.22    0.97 
  -3  -3  -8   16.74    0.80 
   3  -3   8   17.41    1.02 
   3  -3   8   17.27    0.94 
   3  -3   8   17.26    1.09 
   3  -3   8   17.38    0.95 
   3   3   8   17.72    0.84 
  -3   3  -8   17.85    1.03 
  -3   3  -8   16.67    1.03 
  -3   3  -8   18.01    0.95 
  -3   3  -8   17.83    1.08 
   3   3   8   17.64    0.85 
   3   3   8   18.51    0.80 
   3   3   8   17.54    0.85 
   4  -3   8   50.06    1.70 
   4  -3   8   51.77    1.78 
   4  -3   8   49.47    1.68 
   4  -3   8   44.07    1.96 
  -4  -3  -8   50.04    1.53 
  -4  -3  -8   50.77    1.47 
  -4  -3  -8   49.55    1.57 
  -4   3  -8   52.04    1.76 
   4   3   8   49.98    1.47 
  -4   3  -8   49.39    1.67 
   4   3   8   51.02    1.50 
  -4   3  -8   49.10    1.79 
  -4   3  -8   51.57    2.34 
   4   3   8   45.34    1.60 
   5  -3   8   15.85    1.47 
  -5  -3  -8   13.31    0.93 
   5  -3   8   14.82    1.12 
  -5  -3  -8   17.04    0.89 
   5  -3   8   15.59    1.16 
  -5  -3  -8   14.84    1.10 
   5  -3   8   14.73    1.24 
  -5   3  -8   14.64    1.11 
  -5   3  -8   14.36    1.39 
  -5   3  -8   12.99    1.15 
  -5   3  -8   18.25    1.47 
   5   3   8   16.37    0.91 
   5   3   8   13.66    0.87 
   5   3   8   14.90    0.88 
   6  -3   8   18.13    1.63 
  -6  -3  -8   17.76    1.08 
   6  -3   8   15.10    1.34 
   6  -3   8   16.52    1.37 
   6  -3   8   15.87    1.50 
  -6   3  -8   15.11    1.61 
  -6   3  -8   17.08    1.72 
   6   3   8   15.61    1.00 
  -6   3  -8   14.86    1.45 
   6   3   8   17.52    0.98 
  -6   3  -8   16.83    1.27 
  -7  -3  -8    4.23    0.69 
   7  -3   8    3.38    0.91 
   7   3   8    4.57    0.62 
  -7   3  -8    5.99    1.13 
   8  -4  -8    6.15    1.15 
  -8   4   8    5.78    1.19 
   7  -4  -8   22.61    1.60 
   7  -4  -8   23.42    1.59 
  -7   4   8   22.81    1.52 
  -7   4   8   22.86    1.86 
   6  -4  -8   12.08    1.30 
   6  -4  -8   11.04    1.22 
   6  -4  -8   12.46    1.41 
   6  -4  -8    9.84    1.36 
  -6   4   8   11.63    1.38 
  -6   4   8   10.74    1.47 
  -6   4   8   11.24    1.36 
  -6   4   8   11.82    1.22 
   5  -4  -8    1.22    0.73 
   5  -4  -8   -0.29    0.59 
   5  -4  -8    0.10    0.51 
   5  -4  -8   -0.32    0.57 
  -5   4   8   -0.20    0.61 
  -5   4   8    0.89    0.65 
  -5   4   8    1.69    0.68 
  -5   4   8   -0.26    0.45 
  -4  -4   8   22.29    0.60 
   4  -4  -8   23.14    1.25 
  -4  -4   8   21.66    0.63 
   4  -4  -8   22.18    1.24 
   4  -4  -8   21.01    1.22 
   4  -4  -8   23.28    1.22 
  -4   4   8   22.00    1.27 
  -4   4   8   22.92    1.23 
  -4   4   8   22.32    1.19 
  -4   4   8   22.04    1.27 
   3  -4  -8   25.46    1.21 
   3  -4  -8   24.17    1.19 
   3  -4  -8   27.50    1.23 
  -3  -4   8   25.09    0.80 
  -3  -4   8   26.13    0.77 
   3  -4  -8   23.89    1.21 
   3   4  -8   25.52    0.75 
  -3   4   8   26.10    1.22 
  -3   4   8   25.32    1.16 
   3   4  -8   25.96    0.73 
  -3   4   8   25.86    1.28 
  -3   4   8   26.78    1.22 
   2  -4  -8   54.06    1.71 
  -2  -4   8   56.58    1.30 
   2  -4  -8   54.97    1.73 
  -2  -4   8   54.17    1.31 
  -2  -4   8   56.29    1.48 
   2  -4  -8   57.03    1.70 
  -2  -4   8   55.19    1.43 
   2  -4  -8   56.97    1.80 
   2   4  -8   54.42    1.28 
   2   4  -8   54.69    1.40 
  -2   4   8   55.03    1.76 
   2   4  -8   56.23    1.28 
  -2   4   8   58.52    1.80 
  -2   4   8   55.50    1.70 
   2   4  -8   55.09    1.42 
  -2   4   8   53.91    1.71 
   1  -4  -8  129.33    3.04 
   1  -4  -8  125.67    3.05 
  -1  -4   8  133.21    2.97 
  -1  -4   8  120.66    2.93 
   1  -4  -8  125.93    3.16 
  -1  -4   8  127.57    2.80 
   1  -4  -8  128.41    3.09 
  -1   4   8  125.22    3.03 
   1   4  -8  120.60    3.05 
   1   4  -8  127.06    2.90 
  -1   4   8  127.84    3.09 
   1   4  -8  132.47    2.83 
  -1   4   8  129.30    3.12 
   1   4  -8  126.87    2.83 
  -1   4   8  124.34    3.07 
   0  -4  -8    0.78    0.38 
   0  -4  -8    1.18    0.39 
   0  -4   8    0.92    0.39 
   0  -4   8    0.58    0.37 
   0  -4   8    0.81    0.33 
   0  -4  -8    1.35    0.42 
   0  -4  -8    0.48    0.39 
   0   4   8    1.14    0.38 
   0   4   8    0.66    0.36 
   0   4   8    0.07    0.37 
   0   4  -8    0.72    0.35 
   1  -4   8    1.58    0.38 
   1  -4   8    1.09    0.46 
  -1  -4  -8    1.84    0.42 
  -1  -4  -8    1.75    0.39 
  -1  -4  -8    1.22    0.39 
  -1  -4  -8    1.78    0.52 
   1  -4   8    1.36    0.39 
   1  -4   8    0.73    0.40 
  -1   4  -8    1.23    0.43 
   1   4   8    0.99    0.41 
  -1   4  -8    0.42    0.37 
  -1   4  -8    2.03    0.46 
   1   4   8    1.85    0.43 
   1   4   8    2.16    0.73 
   2  -4   8   69.33    2.04 
  -2  -4  -8   68.78    1.82 
   2  -4   8   64.50    1.91 
  -2  -4  -8   66.55    1.92 
  -2  -4  -8   62.28    1.79 
   2  -4   8   61.35    2.03 
   2  -4   8   68.28    1.91 
  -2   4  -8   62.20    2.21 
  -2   4  -8   66.10    1.99 
   2   4   8   65.03    1.76 
   2   4   8   66.45    1.83 
   2   4   8   65.84    1.82 
  -2   4  -8   67.55    2.00 
   3  -4   8   26.80    1.28 
   3  -4   8   25.52    1.38 
  -3  -4  -8   23.79    1.11 
  -3  -4  -8   26.13    1.04 
   3  -4   8   28.14    1.55 
   3   4   8   25.82    1.08 
  -3   4  -8   23.02    1.24 
  -3   4  -8   25.98    1.38 
   3   4   8   22.86    1.02 
   3   4   8   24.88    1.00 
  -4  -4  -8   23.08    1.08 
   4  -4   8   28.32    1.34 
  -4  -4  -8   25.58    1.18 
  -4  -4  -8   24.19    1.06 
   4  -4   8   25.48    1.36 
   4  -4   8   24.15    1.54 
  -4   4  -8   26.14    1.43 
   4   4   8   25.13    1.03 
   4   4   8   25.53    1.07 
  -4   4  -8   24.21    1.32 
  -4   4  -8   23.46    1.55 
   4   4   8   25.52    1.30 
   5  -4   8   11.24    1.28 
  -5  -4  -8   11.88    1.00 
   5  -4   8   12.05    1.22 
  -5   4  -8   11.71    1.22 
   5   4   8   13.13    0.89 
   5   4   8   12.93    0.87 
  -5   4  -8   12.81    1.40 
  -6  -4  -8    1.91    0.60 
   6  -4   8    2.52    0.78 
   6   4   8    1.15    0.48 
  -6   4  -8    0.85    0.72 
   6  -5  -8   11.50    1.60 
  -6   5   8    9.19    1.42 
   5  -5  -8    1.89    0.81 
  -5   5   8    1.41    0.68 
  -5   5   8    1.94    0.92 
   4  -5  -8   11.28    1.12 
  -4  -5   8   10.54    0.40 
  -4  -5   8   10.72    0.43 
   4  -5  -8   11.58    1.28 
  -4   5   8   13.46    1.27 
  -4   5   8    8.22    1.09 
   3  -5  -8   27.09    1.42 
  -3  -5   8   26.81    0.90 
   3  -5  -8   27.27    1.45 
   3  -5  -8   27.92    1.35 
  -3  -5   8   26.32    0.84 
  -3   5   8   27.97    1.40 
   3   5  -8   26.74    0.78 
  -3   5   8   24.67    1.42 
   3   5  -8   26.63    0.83 
  -3   5   8   26.45    1.44 
   2  -5  -8    9.10    1.03 
   2  -5  -8   11.23    1.05 
  -2  -5   8   10.99    0.50 
   2  -5  -8   10.63    1.01 
  -2  -5   8   10.66    0.68 
  -2  -5   8    9.57    0.71 
   2   5  -8   10.02    0.64 
  -2   5   8   10.57    1.00 
  -2   5   8   14.05    1.04 
  -2   5   8   12.30    1.05 
   2   5  -8   10.82    0.63 
  -1  -5   8   15.81    0.84 
   1  -5  -8   14.66    1.05 
  -1  -5   8   13.89    0.73 
  -1  -5   8   14.30    0.85 
   1  -5  -8   13.56    1.05 
   1  -5  -8   15.00    1.02 
  -1   5   8   12.90    0.99 
   1   5  -8   12.98    0.77 
   1   5  -8   12.98    0.81 
   1   5  -8   14.32    0.76 
  -1   5   8   13.99    1.02 
   0  -5  -8   10.15    0.89 
   0  -5   8    9.99    0.79 
   0  -5   8   10.04    0.87 
   0  -5  -8   10.70    0.94 
   0  -5  -8    9.86    0.93 
   0  -5   8   10.16    0.81 
   0   5  -8    9.11    0.80 
   0   5  -8    8.52    0.84 
   0   5   8   10.85    0.95 
   0   5  -8    7.97    0.76 
   0   5   8    8.70    0.85 
   1  -5   8   11.60    0.97 
  -1  -5  -8   10.87    0.97 
   1  -5   8   11.45    0.93 
  -1  -5  -8    9.92    0.92 
   1  -5   8   10.65    0.87 
  -1  -5  -8   10.76    0.84 
   1   5   8   11.06    0.97 
  -1   5  -8   10.77    0.97 
   1   5   8   10.65    0.80 
  -1   5  -8   10.34    0.86 
  -1   5  -8    9.59    0.93 
   1   5   8    8.65    0.83 
   2  -5   8   28.68    1.36 
  -2  -5  -8   30.54    1.30 
   2   5   8   27.78    1.14 
   2   5   8   27.59    1.53 
  -2   5  -8   30.40    1.33 
   2   5   8   29.29    1.21 
   3  -5   8   13.69    1.21 
   3   5   8   13.13    0.90 
  -3   5  -8   14.43    1.14 
   3   5   8   13.85    1.19 
  -4  -5  -8    7.49    0.99 
   4  -5   8    7.00    1.26 
  -4   5  -8    5.70    0.91 
   5  -5   8    7.55    1.07 
   5   5   8    8.20    1.42 
   4  -6  -8    4.57    1.01 
  -4   6   8    4.17    0.87 
   3  -6  -8    0.62    0.76 
  -3  -6   8    0.88    0.36 
  -3  -6   8    0.93    0.44 
  -3   6   8    0.97    0.58 
   3   6  -8    0.45    0.27 
   3   6  -8    0.78    0.34 
   2  -6  -8    1.64    0.71 
  -2  -6   8    1.37    0.46 
   2   6  -8    0.91    0.45 
   2   6  -8    1.37    0.39 
  -2   6   8    0.32    0.59 
  -1  -6   8    3.15    0.56 
   1  -6  -8    3.11    0.75 
   1   6  -8    3.02    0.51 
  -1   6   8    2.44    0.67 
   0  -6  -8   27.09    1.48 
   0  -6   8   27.10    1.29 
   0   6  -8   26.56    1.23 
   0   6   8   29.88    1.39 
  -1  -6  -8   18.68    1.31 
   1  -6   8   23.97    1.31 
  -1   6  -8   18.04    1.19 
   1   6   8   18.07    1.19 
  -2  -6  -8    1.11    0.65 
   2  -6   8    2.26    0.71 
   2   6   8    2.15    0.58 
  -2   6  -8    2.07    0.64 
  -9   0   9    0.09    0.60 
   9   0  -9    0.19    0.50 
   8   0  -9   -0.36    0.45 
  -8   0   9    0.64    0.48 
  -8   0   9   -0.16    0.40 
   8   0  -9    0.35    0.44 
   8   0  -9   -0.41    0.40 
  -7   0   9   -0.45    0.38 
  -7   0   9   -0.36    0.38 
   7   0  -9    0.18    0.41 
   7   0  -9    0.81    0.43 
  -7   0   9   -0.54    0.35 
   7   0  -9    0.35    0.38 
  -6   0   9   -0.12    0.32 
   6   0  -9   -0.14    0.33 
   6   0  -9    0.28    0.28 
   6   0  -9   -0.12    0.31 
  -6   0   9   -0.08    0.30 
  -6   0   9    0.16    0.31 
   6   0  -9   -0.30    0.27 
  -6   0   9    0.66    0.31 
  -5   0   9   -0.15    0.26 
   5   0  -9   -0.06    0.24 
  -5   0   9   -0.16    0.25 
   5   0  -9   -0.34    0.21 
  -5   0   9    0.36    0.25 
   5   0  -9   -0.18    0.26 
  -5   0   9    0.47    0.29 
   5   0  -9   -0.20    0.27 
  -4   0   9    0.13    0.23 
  -4   0   9    0.21    0.25 
  -4   0   9   -0.08    0.21 
   4   0  -9   -0.05    0.22 
   4   0  -9    0.03    0.22 
  -4   0   9   -0.13    0.22 
   4   0  -9    0.19    0.22 
   4   0  -9   -0.06    0.25 
   3   0  -9   -0.15    0.22 
   3   0  -9    0.18    0.21 
  -3   0   9   -0.02    0.21 
  -3   0   9   -0.06    0.18 
   3   0  -9    0.13    0.20 
  -3   0   9   -0.27    0.21 
   2   0  -9   -0.09    0.16 
  -2   0   9   -0.12    0.22 
   2   0  -9    0.08    0.18 
   2   0  -9   -0.13    0.19 
  -2   0   9   -0.10    0.17 
  -2   0   9    0.09    0.20 
  -1   0   9    0.10    0.18 
   1   0  -9    0.28    0.21 
   1   0  -9   -0.17    0.18 
  -1   0   9   -0.14    0.16 
  -1   0   9    0.18    0.20 
  -1   0   9    0.09    0.21 
   1   0  -9    0.05    0.18 
   1   0  -9    0.14    0.20 
   0   0   9    0.34    0.23 
   0   0  -9    0.03    0.20 
   0   0   9    0.31    0.22 
   0   0   9   -0.08    0.16 
   0   0  -9    0.34    0.17 
   0   0  -9    0.10    0.20 
   0   0  -9    0.20    0.19 
   0   0   9    0.19    0.22 
  -1   0  -9    0.34    0.21 
  -1   0  -9    0.04    0.22 
   1   0   9    0.40    0.22 
  -1   0  -9   -0.03    0.23 
   1   0   9    0.14    0.26 
   1   0   9   -0.24    0.17 
   1   0   9   -0.24    0.19 
  -1   0  -9    0.18    0.24 
   2   0   9   -0.13    0.21 
  -2   0  -9   -0.04    0.25 
  -2   0  -9   -0.11    0.24 
   2   0   9   -0.14    0.23 
   2   0   9    0.09    0.28 
  -2   0  -9    0.00    0.27 
  -2   0  -9   -0.38    0.22 
   2   0   9   -0.11    0.20 
   3   0   9    0.23    0.30 
   3   0   9    0.03    0.30 
  -3   0  -9   -0.04    0.31 
   3   0   9    0.23    0.34 
  -3   0  -9   -0.11    0.26 
  -3   0  -9   -0.18    0.30 
   3   0   9   -0.29    0.27 
  -3   0  -9    0.00    0.30 
   4   0   9    0.47    0.40 
  -4   0  -9    0.14    0.31 
  -4   0  -9    0.45    0.37 
   4   0   9   -0.61    0.31 
  -4   0  -9    0.55    0.39 
  -4   0  -9    0.00    0.36 
   4   0   9   -0.16    0.32 
   4   0   9   -0.39    0.31 
  -5   0  -9    0.92    0.41 
   5   0   9    0.48    0.40 
  -5   0  -9    0.16    0.38 
   5   0   9    0.09    0.39 
  -5   0  -9    0.23    0.49 
  -5   0  -9   -0.08    0.45 
   5   0   9    0.38    0.50 
   5   0   9   -0.36    0.35 
   6   0   9   -0.38    0.42 
  -6   0  -9   -0.37    0.56 
   6   0   9   -0.05    0.57 
  -6   0  -9   -0.14    0.48 
   6   0   9   -1.02    0.50 
   7   0   9   -0.03    0.51 
  -7   0  -9   -0.02    0.62 
   8   0   9    0.04    0.61 
  -8   0  -9    1.58    0.80 
  -9  -1   9   -0.35    0.49 
   9  -1  -9   -0.14    0.59 
  -9   1   9   -0.25    0.66 
   9   1  -9   -0.09    0.41 
   8  -1  -9   10.72    0.99 
  -8  -1   9   12.19    0.70 
   8  -1  -9   12.60    1.25 
  -8  -1   9   10.50    0.84 
   8  -1  -9   12.73    1.22 
  -8  -1   9   10.58    0.85 
   8   1  -9   11.35    0.72 
  -8   1   9   10.04    0.95 
   8   1  -9   11.18    0.76 
   8   1  -9   10.89    0.77 
  -8   1   9   10.80    1.08 
  -8   1   9   12.32    1.04 
  -7  -1   9    0.28    0.36 
  -7  -1   9    0.46    0.28 
   7  -1  -9    0.49    0.44 
   7  -1  -9    0.87    0.44 
  -7  -1   9    1.31    0.38 
   7  -1  -9    0.88    0.46 
   7   1  -9    1.18    0.35 
  -7   1   9    1.04    0.46 
   7   1  -9    0.69    0.31 
   7   1  -9    0.63    0.32 
  -7   1   9    0.61    0.50 
  -7   1   9    0.52    0.42 
  -6  -1   9    0.78    0.29 
   6  -1  -9    1.28    0.40 
   6  -1  -9    1.18    0.42 
  -6  -1   9    1.63    0.28 
   6  -1  -9    2.02    0.47 
  -6  -1   9    1.07    0.32 
  -6  -1   9    0.88    0.38 
  -6   1   9    1.31    0.39 
  -6   1   9    1.37    0.46 
   6   1  -9    1.53    0.28 
  -6   1   9    1.26    0.42 
   6   1  -9    1.66    0.28 
  -6   1   9    0.88    0.37 
   6   1  -9    1.29    0.37 
   6   1  -9    1.32    0.33 
  -5  -1   9    1.19    0.23 
  -5  -1   9    0.97    0.25 
   5  -1  -9    1.32    0.35 
  -5  -1   9    1.12    0.29 
   5  -1  -9    0.76    0.32 
   5  -1  -9    0.70    0.33 
   5  -1  -9    1.29    0.38 
  -5  -1   9    1.22    0.28 
  -5   1   9    0.92    0.37 
  -5   1   9    1.49    0.40 
   5   1  -9    0.82    0.26 
  -5   1   9    0.59    0.29 
   5   1  -9    1.14    0.25 
   5   1  -9    0.80    0.27 
   5   1  -9    1.21    0.24 
  -5   1   9    0.91    0.35 
   4  -1  -9   30.79    1.07 
  -4  -1   9   29.74    0.92 
  -4  -1   9   31.40    0.86 
   4  -1  -9   29.97    1.03 
   4  -1  -9   30.95    1.05 
  -4  -1   9   31.20    0.90 
   4  -1  -9   31.77    1.11 
  -4   1   9   32.34    1.04 
   4   1  -9   29.20    0.99 
  -4   1   9   31.12    1.05 
   4   1  -9   31.24    0.93 
   4   1  -9   30.84    0.87 
  -4   1   9   30.58    1.09 
   4   1  -9   30.68    0.92 
  -4   1   9   29.72    1.06 
  -3  -1   9   16.97    0.62 
  -3  -1   9   17.38    0.66 
  -3  -1   9   16.82    0.63 
   3  -1  -9   16.30    0.71 
   3  -1  -9   17.16    0.72 
  -3  -1   9   16.75    0.59 
  -3   1   9   17.49    1.09 
  -3   1   9   17.28    0.72 
  -3   1   9   16.45    0.77 
   3   1  -9   17.87    0.61 
  -3   1   9   18.31    0.78 
   3   1  -9   17.20    0.65 
   3   1  -9   16.74    0.61 
   3   1  -9   16.66    0.62 
  -2  -1   9   35.57    0.99 
   2  -1  -9   36.89    1.14 
  -2  -1   9   34.71    0.98 
  -2  -1   9   35.17    1.01 
   2  -1  -9   35.25    1.08 
  -2  -1   9   35.65    0.97 
   2  -1  -9   35.74    1.07 
   2   1  -9   35.61    1.01 
  -2   1   9   37.14    1.06 
  -2   1   9   34.10    1.10 
   2   1  -9   35.22    0.97 
   2   1  -9   33.53    0.96 
   2   1  -9   37.98    1.00 
  -1  -1   9    0.11    0.21 
  -1  -1   9    0.05    0.16 
  -1  -1   9   -0.04    0.17 
   1  -1  -9    0.38    0.20 
  -1  -1   9    0.15    0.18 
   1  -1  -9    0.00    0.24 
   1  -1  -9   -0.15    0.22 
   1  -1  -9    0.06    0.20 
  -1   1   9    0.18    0.23 
  -1   1   9    0.20    0.21 
   1   1  -9    0.12    0.18 
   1   1  -9    0.02    0.21 
   1   1  -9   -0.02    0.18 
  -1   1   9   -0.15    0.32 
  -1   1   9   -0.20    0.23 
   0  -1   9   32.05    0.96 
   0  -1   9   31.44    1.00 
   0  -1  -9   32.79    1.00 
   0  -1  -9   31.14    0.97 
   0  -1  -9   31.78    1.03 
   0  -1  -9   33.67    1.00 
   0  -1   9   30.16    0.97 
   0   1  -9   33.10    1.02 
   0   1  -9   31.55    0.97 
   0   1  -9   30.26    0.96 
   0   1   9   32.51    1.00 
   0   1   9   31.27    0.97 
   0   1   9   31.85    0.99 
   0   1   9   32.94    1.04 
   1  -1   9   85.16    2.07 
  -1  -1  -9   83.98    2.04 
   1  -1   9   83.34    2.11 
  -1  -1  -9   81.93    2.04 
   1  -1   9   84.87    2.07 
  -1  -1  -9   83.28    2.03 
   1  -1   9   85.78    2.06 
  -1  -1  -9   86.30    2.11 
   1   1   9   83.71    2.05 
  -1   1  -9   86.15    2.10 
  -1   1  -9   85.77    2.07 
  -1   1  -9   85.73    2.12 
  -1   1  -9   83.71    2.05 
   1   1   9   85.91    2.06 
   1   1   9   86.19    2.03 
   1   1   9   83.79    2.07 
  -2  -1  -9    9.18    0.60 
  -2  -1  -9    8.27    0.62 
   2  -1   9    9.28    0.62 
   2  -1   9   10.33    0.72 
   2  -1   9    9.02    0.61 
  -2   1  -9    8.61    0.59 
  -2   1  -9    9.08    0.66 
  -2   1  -9    9.02    0.68 
   2   1   9   10.05    0.65 
   2   1   9    9.41    0.58 
   2   1   9    9.27    0.60 
  -2   1  -9    9.50    0.65 
  -3  -1  -9   15.75    0.82 
  -3  -1  -9   15.03    0.76 
  -3  -1  -9   15.60    0.81 
   3  -1   9   16.03    0.82 
   3  -1   9   14.74    0.80 
   3  -1   9   15.69    0.80 
  -3  -1  -9   16.40    0.81 
   3   1   9   13.98    0.74 
   3   1   9   15.70    0.76 
  -3   1  -9   15.04    0.83 
  -3   1  -9   14.85    0.98 
  -3   1  -9   15.09    0.79 
   3   1   9   15.25    0.86 
  -3   1  -9   15.65    0.88 
   3   1   9   14.85    0.76 
   4  -1   9    5.13    0.84 
  -4  -1  -9    4.35    0.67 
  -4  -1  -9    4.57    0.62 
   4  -1   9    4.44    0.71 
   4  -1   9    4.37    0.66 
   4  -1   9    5.43    0.66 
  -4  -1  -9    5.03    0.67 
  -4  -1  -9    5.38    0.71 
   4   1   9    3.78    0.58 
  -4   1  -9    4.96    0.72 
  -4   1  -9    3.84    0.55 
  -4   1  -9    4.55    0.79 
   4   1   9    4.62    0.61 
   4   1   9    4.34    0.73 
   4   1   9    3.47    0.59 
  -4   1  -9    4.47    0.67 
  -5  -1  -9    2.18    0.53 
   5  -1   9    2.22    0.62 
   5  -1   9    1.91    0.50 
   5  -1   9    1.72    0.55 
   5  -1   9    1.35    0.46 
  -5  -1  -9    1.90    0.44 
  -5  -1  -9    1.42    0.47 
   5   1   9    2.10    0.48 
  -5   1  -9    1.09    0.59 
  -5   1  -9    1.89    0.53 
   5   1   9    1.65    0.50 
   5   1   9    0.65    0.37 
  -5   1  -9    1.76    0.50 
  -5   1  -9    1.78    0.43 
  -6  -1  -9   18.69    1.03 
  -6  -1  -9   18.03    1.13 
   6  -1   9   18.83    1.33 
   6  -1   9   19.45    1.26 
  -6  -1  -9   18.74    1.13 
   6  -1   9   18.55    1.40 
   6  -1   9   17.74    1.12 
  -6   1  -9   13.07    2.07 
   6   1   9   17.93    1.07 
   6   1   9   18.94    1.11 
   6   1   9   19.49    1.10 
  -6   1  -9   18.00    1.12 
  -6   1  -9   18.63    1.31 
  -6   1  -9   17.81    1.35 
   7  -1   9    0.54    0.60 
  -7  -1  -9   -0.49    0.56 
  -7   1  -9   -0.11    0.69 
   7   1   9    0.02    0.50 
   8  -1   9    7.58    1.32 
  -8  -1  -9    5.69    0.85 
  -8   1  -9    8.02    1.41 
   8   1   9    6.75    1.11 
   9  -2  -9    0.21    0.67 
  -9  -2   9    1.10    0.47 
   9   2  -9    0.96    0.35 
  -9   2   9   -0.39    0.81 
  -8  -2   9   -0.30    0.35 
  -8  -2   9    0.00    0.35 
   8  -2  -9    0.41    0.60 
   8   2  -9    0.11    0.31 
  -8   2   9    0.62    0.66 
   8   2  -9    0.18    0.30 
   7  -2  -9    3.17    0.57 
  -7  -2   9    3.66    0.55 
  -7  -2   9    3.11    0.40 
   7  -2  -9    4.38    0.68 
  -7   2   9    3.69    0.73 
   7   2  -9    3.49    0.44 
  -7   2   9    3.99    0.68 
   7   2  -9    4.30    0.48 
  -7   2   9    2.87    0.74 
  -6  -2   9    5.54    0.49 
  -6  -2   9    6.29    0.30 
   6  -2  -9    7.35    0.86 
   6  -2  -9    4.43    0.59 
   6  -2  -9    6.37    0.83 
  -6  -2   9    4.70    0.30 
   6  -2  -9    5.40    0.87 
  -6  -2   9    5.67    0.48 
  -6   2   9    4.93    0.89 
   6   2  -9    5.34    0.41 
  -6   2   9    6.66    0.79 
   6   2  -9    5.77    0.47 
  -6   2   9    6.61    0.80 
  -6   2   9    6.25    0.90 
  -5  -2   9    0.05    0.17 
  -5  -2   9   -0.02    0.21 
  -5  -2   9    0.14    0.17 
   5  -2  -9    0.28    0.39 
   5  -2  -9    0.44    0.44 
  -5  -2   9    0.07    0.22 
   5  -2  -9   -0.09    0.39 
   5  -2  -9    0.37    0.40 
  -5   2   9    0.10    0.43 
   5   2  -9    0.12    0.18 
  -5   2   9    0.39    0.43 
  -5   2   9    0.43    0.40 
  -5   2   9    0.12    0.31 
   5   2  -9   -0.01    0.21 
  -4  -2   9    1.82    0.33 
  -4  -2   9    1.92    0.31 
   4  -2  -9    2.04    0.41 
   4  -2  -9    2.22    0.47 
  -4  -2   9    2.00    0.34 
  -4  -2   9    1.98    0.30 
   4  -2  -9    1.57    0.33 
   4  -2  -9    1.47    0.37 
   4   2  -9    2.73    0.38 
   4   2  -9    2.15    0.33 
  -4   2   9    2.55    0.45 
   4   2  -9    1.93    0.30 
  -4   2   9    1.92    0.40 
  -4   2   9    2.07    0.46 
   4   2  -9    2.42    0.28 
  -4   2   9    1.83    0.38 
   3  -2  -9    8.88    0.68 
  -3  -2   9    8.62    0.43 
  -3  -2   9   10.35    0.44 
  -3  -2   9    9.93    0.46 
  -3  -2   9   10.11    0.48 
   3  -2  -9   11.09    0.73 
   3  -2  -9    9.82    0.66 
   3   2  -9    9.65    0.46 
   3   2  -9    9.74    0.44 
  -3   2   9    9.21    0.67 
   3   2  -9    9.78    0.45 
   3   2  -9    9.76    0.44 
  -3   2   9    8.26    0.70 
  -3   2   9    9.50    0.66 
   2  -2  -9   18.57    0.80 
  -2  -2   9   17.61    0.63 
   2  -2  -9   17.87    0.80 
  -2  -2   9   18.53    0.62 
   2  -2  -9   19.09    0.81 
  -2  -2   9   17.70    0.64 
  -2   2   9   18.32    0.82 
   2   2  -9   18.16    0.64 
  -2   2   9   18.20    0.84 
   2   2  -9   17.59    0.62 
  -2   2   9   18.64    0.80 
  -2   2   9   17.57    0.78 
   2   2  -9   17.77    0.65 
   1  -2  -9   17.92    0.82 
  -1  -2   9   17.72    0.64 
  -1  -2   9   17.48    0.68 
   1  -2  -9   16.89    0.78 
  -1  -2   9   16.94    0.71 
   1  -2  -9   17.74    0.77 
  -1  -2   9   16.68    0.66 
   1  -2  -9   17.06    0.76 
  -1   2   9   17.28    0.83 
  -1   2   9   17.77    0.77 
   1   2  -9   17.94    0.66 
   1   2  -9   17.14    0.68 
  -1   2   9   17.42    0.75 
   1   2  -9   17.55    0.68 
  -1   2   9   18.58    0.78 
   1   2  -9   17.53    0.68 
   0  -2  -9    6.96    0.55 
   0  -2  -9    8.02    0.57 
   0  -2  -9    7.86    0.56 
   0  -2   9    6.48    0.50 
   0  -2  -9    8.10    0.61 
   0  -2   9    6.65    0.51 
   0  -2   9    7.59    0.52 
   0  -2   9    6.63    0.56 
   0   2  -9    6.42    0.52 
   0   2   9    7.86    0.58 
   0   2  -9    6.88    0.55 
   0   2   9    7.57    0.55 
   0   2   9    8.87    0.62 
   0   2  -9    8.17    0.51 
   0   2   9    7.50    0.53 
  -1  -2  -9    3.25    0.47 
   1  -2   9    1.31    0.31 
   1  -2   9    1.36    0.31 
  -1  -2  -9    2.07    0.33 
   1  -2   9    1.80    0.40 
  -1  -2  -9    2.52    0.37 
  -1  -2  -9    1.70    0.36 
   1  -2   9    1.29    0.33 
  -1   2  -9    1.48    0.29 
  -1   2  -9    2.52    0.39 
   1   2   9    1.82    0.32 
  -1   2  -9    1.73    0.32 
   1   2   9    1.23    0.26 
   1   2   9    2.09    0.36 
   1   2   9    2.09    0.37 
  -1   2  -9    1.68    0.38 
   2  -2   9    2.21    0.36 
  -2  -2  -9    2.50    0.38 
   2  -2   9    2.30    0.39 
  -2  -2  -9    2.34    0.36 
   2  -2   9    3.01    0.44 
  -2  -2  -9    3.36    0.53 
   2  -2   9    2.30    0.44 
  -2  -2  -9    2.65    0.46 
   2   2   9    3.04    0.54 
   2   2   9    2.61    0.47 
   2   2   9    3.45    0.47 
  -2   2  -9    1.81    0.38 
   2   2   9    3.33    0.47 
  -2   2  -9    2.91    0.47 
  -2   2  -9    3.06    0.44 
  -2   2  -9    3.87    0.55 
  -3  -2  -9    4.84    0.60 
   3  -2   9    4.64    0.72 
  -3  -2  -9    5.33    0.55 
   3  -2   9    5.32    0.64 
  -3  -2  -9    5.55    0.61 
   3  -2   9    5.29    0.76 
  -3  -2  -9    6.15    0.65 
   3  -2   9    4.49    0.81 
   3   2   9    4.45    0.64 
   3   2   9    5.47    0.57 
  -3   2  -9    6.81    0.77 
   3   2   9    5.52    0.58 
  -3   2  -9    4.16    0.63 
  -3   2  -9    4.34    0.69 
  -3   2  -9    4.74    0.75 
  -4  -2  -9   17.71    0.93 
   4  -2   9   19.60    1.08 
   4  -2   9   19.63    1.03 
   4  -2   9   18.38    1.02 
  -4  -2  -9   17.27    1.04 
   4  -2   9   20.59    1.21 
  -4  -2  -9   18.97    0.89 
  -4  -2  -9   18.03    0.94 
  -4   2  -9   19.02    1.12 
   4   2   9   16.31    0.89 
   4   2   9   18.96    0.98 
  -4   2  -9   19.27    1.07 
   4   2   9   17.19    0.91 
  -4   2  -9   18.38    1.13 
   5  -2   9    0.13    0.59 
   5  -2   9    0.21    0.48 
  -5  -2  -9    0.27    0.43 
   5  -2   9   -0.10    0.46 
  -5  -2  -9   -0.01    0.43 
   5  -2   9    1.18    0.70 
  -5  -2  -9    0.03    0.37 
   5   2   9    0.56    0.36 
  -5   2  -9    1.08    0.48 
  -5   2  -9   -0.58    0.53 
   5   2   9    1.35    0.47 
  -5   2  -9    0.39    0.71 
  -5   2  -9    0.27    0.43 
   5   2   9   -0.02    0.39 
   6  -2   9   12.61    1.44 
   6  -2   9   12.23    1.16 
   6  -2   9   13.38    1.19 
  -6  -2  -9   14.65    1.06 
  -6  -2  -9   14.63    1.13 
   6  -2   9   16.16    1.36 
  -6  -2  -9   15.34    1.01 
  -6   2  -9   17.60    1.41 
   6   2   9   13.49    0.95 
  -6   2  -9   15.14    1.32 
  -6   2  -9   12.50    1.45 
   6   2   9   14.36    0.97 
   6   2   9   12.42    1.29 
  -6   2  -9   14.15    1.20 
   7  -2   9    0.20    0.71 
  -7  -2  -9    1.13    0.61 
  -7   2  -9    2.07    0.75 
   7   2   9    1.03    0.54 
  -8  -3   9    2.98    0.41 
   8  -3  -9    2.67    0.84 
  -8  -3   9    3.01    0.40 
  -8   3   9    0.90    0.97 
  -7  -3   9    1.15    0.24 
   7  -3  -9    1.14    0.64 
   7  -3  -9    1.23    0.67 
  -7  -3   9    0.79    0.40 
   7  -3  -9    0.74    1.03 
  -7   3   9    1.36    0.72 
  -7   3   9    0.39    0.64 
  -7   3   9    0.42    0.61 
  -6  -3   9    0.46    0.21 
   6  -3  -9    0.04    0.56 
   6  -3  -9   -1.36    0.58 
   6  -3  -9   -0.51    0.54 
  -6  -3   9    0.22    0.22 
   6  -3  -9   -0.42    0.48 
  -6   3   9   -0.59    0.58 
  -6   3   9   -0.59    0.59 
  -6   3   9    0.28    0.58 
  -6   3   9   -0.58    0.51 
   5  -3  -9   12.66    1.02 
   5  -3  -9   13.45    1.02 
  -5  -3   9   13.22    0.53 
  -5  -3   9   13.50    0.52 
   5  -3  -9   13.78    1.06 
   5  -3  -9   15.38    1.07 
  -5   3   9   14.83    1.09 
  -5   3   9   14.25    1.06 
  -5   3   9   14.55    0.99 
   5   3  -9   13.62    0.48 
  -5   3   9   11.82    1.04 
   5   3  -9   12.91    0.45 
   4  -3  -9    7.92    0.81 
  -4  -3   9    7.24    0.46 
  -4  -3   9    6.70    0.41 
   4  -3  -9    8.44    0.85 
   4  -3  -9    8.45    0.82 
   4  -3  -9    9.40    0.87 
  -4   3   9    7.82    0.77 
  -4   3   9    6.72    0.87 
  -4   3   9    9.24    0.87 
   4   3  -9    7.87    0.42 
   4   3  -9    7.51    0.39 
  -4   3   9    7.25    0.84 
  -3  -3   9   12.05    0.50 
  -3  -3   9   10.67    0.57 
  -3  -3   9   12.51    0.44 
  -3  -3   9   11.89    0.42 
   3  -3  -9   12.72    0.83 
   3  -3  -9   10.39    0.84 
   3  -3  -9   10.60    0.83 
   3  -3  -9   10.60    0.82 
  -3   3   9   12.30    0.81 
   3   3  -9   11.26    0.47 
   3   3  -9   11.61    0.40 
  -3   3   9   11.34    0.82 
   3   3  -9   11.29    0.53 
  -3   3   9   11.65    0.88 
  -2  -3   9    1.06    0.22 
   2  -3  -9    0.84    0.41 
  -2  -3   9    0.13    0.21 
  -2  -3   9    0.89    0.25 
   2  -3  -9    1.02    0.36 
   2  -3  -9    0.53    0.34 
   2  -3  -9    0.52    0.40 
  -2  -3   9    0.94    0.29 
   2   3  -9    0.86    0.23 
  -2   3   9    1.13    0.40 
   2   3  -9    0.83    0.24 
   2   3  -9    0.36    0.22 
  -2   3   9    0.47    0.36 
  -2   3   9    0.10    0.37 
   2   3  -9    0.69    0.23 
  -2   3   9    0.60    0.33 
  -1  -3   9    0.90    0.25 
   1  -3  -9    0.25    0.32 
   1  -3  -9    0.63    0.34 
  -1  -3   9    0.27    0.24 
   1  -3  -9    0.70    0.32 
  -1  -3   9    0.61    0.24 
  -1   3   9    0.22    0.34 
   1   3  -9    0.69    0.26 
   1   3  -9    0.74    0.25 
  -1   3   9    0.56    0.28 
   1   3  -9    0.47    0.25 
  -1   3   9    0.25    0.26 
  -1   3   9    0.56    0.38 
   0  -3  -9    9.45    0.66 
   0  -3  -9   10.02    0.67 
   0  -3  -9    8.84    0.72 
   0  -3   9    8.56    0.60 
   0  -3  -9    8.25    0.68 
   0  -3   9   10.09    0.60 
   0  -3   9    8.81    0.67 
   0  -3   9    9.65    0.63 
   0   3   9    9.14    0.67 
   0   3   9    9.50    0.64 
   0   3  -9   10.35    0.63 
   0   3  -9    9.21    0.61 
   0   3  -9    9.49    0.61 
   0   3   9    9.11    0.71 
   0   3  -9    9.49    0.64 
   0   3   9    9.60    0.71 
  -1  -3  -9   30.08    1.14 
   1  -3   9   30.75    1.11 
   1  -3   9   31.12    1.10 
   1  -3   9   30.69    1.06 
  -1  -3  -9   31.12    1.08 
  -1  -3  -9   29.42    1.08 
   1  -3   9   29.44    1.17 
  -1  -3  -9   30.79    1.07 
   1   3   9   30.06    1.11 
  -1   3  -9   28.95    1.12 
  -1   3  -9   30.66    1.09 
   1   3   9   30.57    1.09 
   1   3   9   30.12    1.04 
  -1   3  -9   31.61    1.14 
  -2  -3  -9   28.22    1.13 
  -2  -3  -9   28.45    1.04 
  -2  -3  -9   27.23    1.05 
  -2  -3  -9   28.90    1.06 
   2  -3   9   27.93    1.13 
   2  -3   9   27.80    1.20 
   2  -3   9   28.36    1.14 
   2  -3   9   30.24    1.15 
   2   3   9   28.12    1.07 
  -2   3  -9   27.79    1.17 
  -2   3  -9   29.00    1.20 
  -2   3  -9   27.04    1.11 
  -2   3  -9   29.62    1.21 
   2   3   9   28.25    1.07 
   2   3   9   28.11    1.08 
  -3  -3  -9   13.63    0.88 
   3  -3   9   15.60    1.00 
   3  -3   9   14.33    0.95 
   3  -3   9   14.50    1.07 
  -3  -3  -9   13.90    0.80 
   3  -3   9   14.35    0.90 
  -3  -3  -9   13.78    0.81 
  -3  -3  -9   13.96    0.80 
   3   3   9   14.47    0.84 
  -3   3  -9   12.67    1.02 
   3   3   9   13.46    0.82 
  -3   3  -9   13.69    0.91 
  -3   3  -9   13.33    1.04 
  -3   3  -9   15.21    0.99 
   3   3   9   11.76    0.73 
   3   3   9   13.93    0.83 
   4  -3   9   12.31    1.20 
   4  -3   9   11.97    1.00 
  -4  -3  -9   11.14    0.80 
   4  -3   9   11.46    1.14 
  -4  -3  -9   10.92    0.84 
   4  -3   9   10.61    0.98 
  -4  -3  -9   13.21    0.90 
   4   3   9   11.69    0.82 
   4   3   9   11.16    0.80 
   4   3   9   11.27    0.82 
  -4   3  -9   13.41    1.23 
  -4   3  -9   10.90    1.07 
  -4   3  -9   12.17    1.13 
  -4   3  -9   11.44    0.97 
  -5  -3  -9    4.54    0.76 
  -5  -3  -9    5.36    0.86 
  -5  -3  -9    3.74    0.60 
   5  -3   9    3.48    0.65 
   5  -3   9    2.93    0.89 
   5  -3   9    4.44    0.84 
   5  -3   9    4.14    0.72 
   5   3   9    4.69    0.80 
  -5   3  -9    5.38    0.77 
  -5   3  -9    4.87    0.85 
   5   3   9    4.51    0.72 
  -5   3  -9    3.31    0.86 
   6  -3   9    4.02    0.84 
   6  -3   9    6.88    1.04 
  -6  -3  -9    4.98    0.72 
   6  -3   9    5.34    1.07 
   6  -3   9    5.43    0.93 
  -6   3  -9    4.00    0.94 
   6   3   9    4.44    0.80 
  -6   3  -9    5.20    0.86 
  -6   3  -9    5.22    1.06 
  -6   3  -9    7.28    1.09 
   7  -3   9    1.40    0.85 
  -7  -3  -9   -0.71    0.60 
  -7   3  -9   -0.18    0.98 
   7   3   9    0.03    0.49 
   7  -4  -9   11.54    1.44 
  -7   4   9   10.61    1.58 
   6  -4  -9    1.98    0.76 
   6  -4  -9    2.06    0.80 
   6  -4  -9    3.09    0.72 
   6  -4  -9    3.03    0.95 
  -6   4   9    2.50    0.77 
  -6   4   9    1.72    0.69 
  -6   4   9    3.21    0.95 
  -6   4   9    3.35    0.86 
   5  -4  -9    0.57    0.61 
   5  -4  -9    0.70    0.72 
   5  -4  -9    0.86    0.50 
   5  -4  -9   -0.38    0.61 
  -5   4   9    0.92    0.65 
  -5   4   9   -0.29    0.66 
  -5   4   9    0.49    0.46 
  -5   4   9    0.05    0.62 
   4  -4  -9    0.37    0.56 
   4  -4  -9    1.98    0.60 
   4  -4  -9    0.25    0.51 
  -4  -4   9    0.76    0.21 
  -4  -4   9    0.73    0.24 
   4  -4  -9   -0.76    0.51 
  -4   4   9    0.51    0.52 
   4   4  -9    0.59    0.19 
  -4   4   9    0.94    0.54 
  -4   4   9    0.29    0.57 
   4   4  -9    0.83    0.18 
  -4   4   9    0.52    0.65 
  -3  -4   9    0.53    0.23 
   3  -4  -9    0.47    0.44 
  -3  -4   9    0.08    0.27 
   3  -4  -9    0.34    0.48 
   3  -4  -9    0.22    0.49 
   3  -4  -9   -0.37    0.42 
  -3   4   9   -0.18    0.56 
  -3   4   9    0.40    0.50 
  -3   4   9    0.48    0.49 
  -3   4   9    0.52    0.48 
   3   4  -9    0.18    0.24 
   3   4  -9    0.02    0.21 
  -2  -4   9   19.26    0.65 
   2  -4  -9   17.07    1.02 
   2  -4  -9   17.59    1.08 
   2  -4  -9   19.53    1.05 
  -2  -4   9   18.62    0.82 
  -2  -4   9   17.09    0.64 
  -2  -4   9   17.65    0.74 
   2  -4  -9   20.43    1.06 
  -2   4   9   18.36    1.10 
  -2   4   9   19.68    1.03 
   2   4  -9   17.92    0.71 
   2   4  -9   17.74    0.65 
   2   4  -9   18.72    0.64 
   2   4  -9   18.34    0.75 
  -2   4   9   18.64    1.01 
  -2   4   9   16.56    1.05 
   1  -4  -9   22.72    1.13 
  -1  -4   9   22.00    0.95 
   1  -4  -9   23.47    1.10 
  -1  -4   9   22.34    0.91 
  -1  -4   9   22.88    0.84 
   1  -4  -9   22.56    1.07 
   1  -4  -9   22.61    1.06 
   1   4  -9   22.93    0.86 
  -1   4   9   21.81    1.01 
  -1   4   9   22.42    1.09 
  -1   4   9   23.24    1.08 
   1   4  -9   21.57    0.86 
  -1   4   9   21.43    1.11 
   1   4  -9   23.07    0.91 
   0  -4  -9   18.77    0.97 
   0  -4  -9   16.36    1.15 
   0  -4   9   17.25    0.81 
   0  -4  -9   16.48    0.95 
   0  -4   9   18.42    0.89 
   0  -4   9   18.71    0.96 
   0  -4  -9   18.94    0.94 
   0   4   9   17.19    0.99 
   0   4   9   17.56    0.97 
   0   4  -9   17.94    0.93 
   0   4   9   17.74    0.89 
   0   4  -9   18.15    0.88 
   0   4  -9   17.94    0.85 
   1  -4   9    3.54    0.48 
  -1  -4  -9    4.14    0.68 
  -1  -4  -9    4.50    0.74 
   1  -4   9    5.53    0.79 
   1  -4   9    3.54    0.52 
  -1  -4  -9    3.37    0.48 
   1   4   9    2.93    0.51 
   1   4   9    3.18    0.77 
  -1   4  -9    3.55    0.64 
  -1   4  -9    3.31    0.52 
  -2  -4  -9    6.98    0.74 
   2  -4   9    6.23    0.80 
  -2  -4  -9    6.11    0.81 
   2  -4   9    6.87    0.80 
   2  -4   9    6.78    0.95 
  -2  -4  -9    7.17    0.74 
  -2   4  -9    6.70    0.78 
   2   4   9    7.26    0.78 
   2   4   9    6.40    0.73 
   2   4   9    6.51    0.69 
  -2   4  -9    6.92    0.97 
  -3  -4  -9    1.55    0.45 
  -3  -4  -9    1.94    0.47 
   3  -4   9    1.80    0.69 
   3  -4   9    2.07    0.60 
  -3  -4  -9    1.03    0.45 
   3  -4   9    0.84    0.76 
  -3   4  -9    1.32    0.52 
   3   4   9    2.85    0.55 
  -3   4  -9    1.77    0.70 
   3   4   9    1.28    0.42 
  -4  -4  -9    9.30    1.00 
   4  -4   9    7.65    1.04 
   4  -4   9    6.72    0.85 
  -4  -4  -9    6.90    0.92 
   4   4   9    7.80    0.76 
  -4   4  -9    9.77    1.07 
  -4   4  -9    6.58    0.86 
  -4   4  -9    8.08    1.30 
   4   4   9    7.42    0.78 
   4   4   9    7.47    1.19 
  -5  -4  -9    0.73    0.52 
   5  -4   9    0.50    0.67 
   5   4   9    0.37    0.47 
  -5   4  -9    1.47    0.69 
   6  -4   9    1.02    0.73 
  -6  -4  -9    1.90    0.67 
  -6   4  -9    1.45    0.62 
   6   4   9   -0.13    0.52 
   6  -5  -9    2.96    1.09 
  -6   5   9    2.05    0.84 
   5  -5  -9   -1.69    0.76 
  -5   5   9    0.81    0.78 
  -4  -5   9   13.33    0.52 
   4  -5  -9   14.35    1.47 
   4  -5  -9   14.55    1.82 
  -4  -5   9   13.81    0.56 
  -4   5   9   14.18    1.24 
  -4   5   9   16.93    1.38 
  -3  -5   9   22.51    0.79 
   3  -5  -9   22.84    1.30 
  -3  -5   9   21.58    0.85 
   3  -5  -9   21.41    1.39 
   3   5  -9   21.58    0.78 
  -3   5   9   21.81    1.36 
   3   5  -9   21.25    0.72 
  -3   5   9   20.31    1.32 
  -2  -5   9    4.08    0.47 
   2  -5  -9    4.66    0.73 
  -2  -5   9    3.63    0.65 
  -2  -5   9    3.89    0.59 
   2  -5  -9    6.37    1.00 
   2   5  -9    4.45    0.36 
  -2   5   9    4.68    0.68 
  -2   5   9    2.39    0.57 
   2   5  -9    4.52    0.59 
  -2   5   9    3.82    0.78 
   2   5  -9    4.51    0.55 
  -1  -5   9    1.16    0.38 
  -1  -5   9    1.33    0.41 
   1  -5  -9    1.30    0.56 
   1  -5  -9    0.52    0.50 
  -1  -5   9    1.59    0.45 
   1  -5  -9    1.24    0.53 
   1   5  -9    1.64    0.43 
   1   5  -9    1.17    0.41 
  -1   5   9    1.67    0.55 
  -1   5   9   -0.26    0.91 
  -1   5   9    0.94    0.47 
   1   5  -9    1.08    0.37 
   0  -5  -9    6.13    0.89 
   0  -5   9    4.74    0.70 
   0  -5  -9    6.48    0.87 
   0  -5  -9    5.40    0.93 
   0  -5   9    5.08    0.82 
   0  -5   9    5.82    0.77 
   0   5   9    6.11    0.86 
   0   5  -9    4.58    0.60 
   0   5  -9    5.56    0.80 
   0   5   9    7.20    0.97 
   0   5  -9    4.03    0.72 
   0   5   9    3.77    0.55 
   1  -5   9    2.80    0.56 
  -1  -5  -9    1.83    0.60 
   1  -5   9    2.63    0.57 
  -1  -5  -9    2.41    0.62 
  -1   5  -9    1.78    0.48 
   1   5   9    2.18    0.48 
  -1   5  -9    3.14    0.59 
   1   5   9    2.13    0.51 
  -2  -5  -9    9.40    0.99 
   2  -5   9   10.66    1.01 
   2   5   9   10.58    0.91 
  -2   5  -9   10.14    1.02 
  -3  -5  -9    1.68    0.58 
   3  -5   9    0.91    0.63 
  -3   5  -9    0.42    0.52 
   3   5   9    1.36    0.48 
  -4  -5  -9    0.79    0.61 
   4  -5   9    1.10    0.72 
  -4   5  -9    1.26    0.71 
  -3  -6   9    1.78    0.40 
   3  -6  -9   -1.46    0.83 
  -3  -6   9    1.77    0.47 
   3   6  -9    1.05    0.38 
   3   6  -9    0.94    0.30 
  -3   6   9    0.94    0.78 
   2  -6  -9    8.03    1.28 
  -2  -6   9    8.14    0.80 
   2   6  -9    8.41    0.73 
  -2   6   9    7.89    1.22 
   2   6  -9    8.72    1.14 
  -1  -6   9    2.84    0.56 
   1  -6  -9    1.07    0.65 
   1   6  -9    2.22    0.52 
  -1   6   9    2.81    0.64 
   0  -6   9    6.28    0.94 
   0  -6  -9    3.66    0.71 
   0   6  -9    5.50    0.91 
   0   6   9    6.45    1.03 
   1  -6   9    1.41    0.62 
  -1  -6  -9   -0.03    0.63 
  -1   6  -9    1.19    0.60 
   1   6   9    1.58    0.62 
   2  -6   9   -0.96    0.64 
  -2   6  -9   -0.38    0.62 
   9   0 -10    1.26    0.54 
  -9   0  10    0.50    0.60 
   8   0 -10   21.12    1.06 
   8   0 -10   21.65    1.11 
  -8   0  10   21.72    1.16 
  -8   0  10   20.71    1.07 
   8   0 -10   20.50    1.27 
   7   0 -10   23.06    1.04 
  -7   0  10   23.41    1.11 
  -7   0  10   20.78    1.07 
   7   0 -10   23.05    1.04 
   7   0 -10   21.86    1.03 
  -7   0  10   22.67    0.99 
  -6   0  10    0.55    0.37 
  -6   0  10    0.24    0.31 
   6   0 -10    0.19    0.36 
   6   0 -10    0.26    0.31 
   6   0 -10    0.30    0.32 
  -6   0  10    0.42    0.32 
   5   0 -10   31.66    1.09 
   5   0 -10   33.25    1.04 
  -5   0  10   32.87    1.11 
  -5   0  10   32.65    1.11 
   5   0 -10   32.26    1.10 
   5   0 -10   27.91    1.01 
  -5   0  10   32.73    1.02 
  -5   0  10   31.88    1.05 
   4   0 -10   84.17    2.09 
   4   0 -10   85.81    2.02 
  -4   0  10   81.62    2.07 
  -4   0  10   85.58    2.01 
   4   0 -10   82.55    2.06 
  -4   0  10   84.66    2.09 
  -4   0  10   85.15    2.05 
   3   0 -10   85.15    2.00 
   3   0 -10   84.27    2.01 
   3   0 -10   82.76    2.02 
  -3   0  10   84.41    2.06 
  -3   0  10   82.60    2.03 
  -3   0  10   84.74    2.03 
  -3   0  10   84.17    1.98 
   2   0 -10  146.26    3.25 
  -2   0  10  150.08    3.24 
   2   0 -10  148.80    3.32 
   2   0 -10  146.31    3.26 
  -2   0  10  147.84    3.31 
  -2   0  10  150.98    3.29 
   2   0 -10  149.91    3.27 
  -2   0  10  147.66    3.27 
   1   0 -10   73.09    1.81 
  -1   0  10   74.71    1.85 
   1   0 -10   74.81    1.81 
  -1   0  10   75.50    1.84 
  -1   0  10   72.88    1.98 
  -1   0  10   73.35    1.92 
   0   0 -10  120.49    2.75 
   0   0  10  117.84    2.73 
   0   0 -10  121.75    2.80 
   0   0  10  123.99    2.78 
   0   0 -10  120.85    2.75 
   0   0 -10  120.69    2.76 
   0   0  10  121.02    2.75 
   1   0  10  165.86    3.71 
  -1   0 -10  167.20    3.75 
   1   0  10  167.59    3.73 
   1   0  10  168.35    3.74 
   1   0  10  174.52    3.78 
  -1   0 -10  170.42    3.79 
  -1   0 -10  168.13    3.72 
  -1   0 -10  167.80    3.72 
  -2   0 -10  137.27    3.26 
   2   0  10  142.05    3.23 
   2   0  10  138.70    3.23 
  -2   0 -10  141.21    3.41 
  -2   0 -10  139.87    3.21 
   2   0  10  142.20    3.22 
  -3   0 -10  107.01    2.58 
  -3   0 -10  101.36    2.59 
   3   0  10  100.12    2.53 
   3   0  10   98.61    2.53 
   3   0  10  105.02    2.62 
  -3   0 -10  103.08    2.53 
  -3   0 -10  101.86    2.60 
  -4   0 -10   25.71    1.15 
  -4   0 -10   23.95    1.13 
  -4   0 -10   25.42    1.06 
   4   0  10   27.55    1.24 
  -4   0 -10   24.02    1.15 
   4   0  10   25.73    1.07 
   4   0  10   26.44    1.11 
   5   0  10   20.91    1.23 
   5   0  10   19.91    1.05 
   5   0  10   19.33    1.02 
  -5   0 -10   18.77    1.16 
  -5   0 -10   17.83    1.19 
   5   0  10   18.81    1.11 
  -5   0 -10   19.27    1.11 
  -5   0 -10   17.80    1.03 
   6   0  10   13.53    1.06 
   6   0  10   11.73    1.12 
  -6   0 -10   11.55    1.10 
  -6   0 -10   11.69    1.15 
   6   0  10   10.50    1.03 
  -6   0 -10   10.51    0.98 
   7   0  10    7.10    1.07 
  -7   0 -10    6.33    0.94 
   8   0  10   14.30    1.37 
  -8   0 -10   13.54    1.48 
   9  -1 -10    3.94    0.73 
  -9  -1  10    5.04    0.69 
   9   1 -10    4.53    0.80 
  -9   1  10    4.50    0.80 
  -8  -1  10    4.66    0.63 
   8  -1 -10    5.84    0.93 
  -8  -1  10    5.76    0.80 
  -8  -1  10    4.73    0.77 
  -8   1  10    5.71    0.99 
   8   1 -10    5.67    0.71 
   8   1 -10    5.28    0.70 
   8   1 -10    6.93    0.68 
   7  -1 -10   21.17    1.09 
   7  -1 -10   21.55    1.08 
  -7  -1  10   22.14    0.97 
  -7  -1  10   22.44    0.98 
  -7  -1  10   21.68    0.85 
   7  -1 -10   20.74    1.11 
  -7   1  10   21.44    1.06 
   7   1 -10   22.23    0.88 
  -7   1  10   22.03    1.21 
   7   1 -10   21.56    0.88 
   7   1 -10   21.72    0.92 
  -7   1  10   20.94    1.15 
   6  -1 -10   32.75    1.28 
   6  -1 -10   33.11    1.23 
   6  -1 -10   33.04    1.22 
  -6  -1  10   33.76    1.03 
  -6  -1  10   32.86    1.10 
  -6  -1  10   33.78    1.10 
   6   1 -10   33.44    1.04 
  -6   1  10   32.73    1.29 
   6   1 -10   33.16    0.98 
   6   1 -10   33.40    1.04 
  -6   1  10   33.18    1.22 
  -6   1  10   33.90    1.23 
   6   1 -10   32.05    1.07 
  -6   1  10   31.17    1.27 
   5  -1 -10   17.42    0.91 
  -5  -1  10   17.33    0.66 
  -5  -1  10   17.92    0.76 
   5  -1 -10   17.92    0.88 
   5  -1 -10   16.93    0.91 
  -5  -1  10   18.19    0.71 
  -5  -1  10   17.90    0.77 
   5  -1 -10   18.81    0.87 
   5   1 -10   17.74    0.69 
  -5   1  10   20.03    0.94 
  -5   1  10   17.38    0.84 
  -5   1  10   17.76    0.86 
   5   1 -10   17.86    0.72 
  -5   1  10   18.91    0.94 
   5   1 -10   17.32    0.74 
   5   1 -10   17.80    0.66 
  -4  -1  10   25.17    0.86 
  -4  -1  10   26.08    0.83 
   4  -1 -10   23.64    0.94 
   4  -1 -10   24.59    1.02 
  -4  -1  10   25.26    0.78 
   4  -1 -10   24.94    0.99 
   4  -1 -10   25.82    0.96 
  -4  -1  10   24.48    1.22 
  -4   1  10   26.62    0.98 
  -4   1  10   25.69    1.01 
  -4   1  10   26.71    0.95 
   4   1 -10   24.72    0.85 
  -4   1  10   24.65    0.99 
   4   1 -10   25.32    0.80 
   4   1 -10   25.12    0.84 
   3  -1 -10   76.91    1.91 
   3  -1 -10   76.10    1.90 
  -3  -1  10   73.36    1.81 
   3  -1 -10   75.56    1.93 
  -3  -1  10   77.24    1.80 
  -3  -1  10   74.83    1.76 
  -3  -1  10   75.53    1.83 
  -3   1  10   77.06    1.96 
   3   1 -10   73.72    1.79 
  -3   1  10   74.63    1.95 
   3   1 -10   76.94    1.79 
   3   1 -10   75.00    1.79 
   3   1 -10   73.15    1.82 
  -3   1  10   75.49    1.88 
   2  -1 -10  159.84    3.62 
  -2  -1  10  161.46    3.47 
  -2  -1  10  163.41    3.45 
   2  -1 -10  161.03    3.55 
  -2  -1  10  161.11    3.48 
   2  -1 -10  155.30    3.55 
  -2  -1  10  160.36    3.50 
   2   1 -10  159.69    3.46 
  -2   1  10  166.50    3.60 
  -2   1  10  143.23    3.60 
   2   1 -10  173.03    3.50 
  -2   1  10  160.57    3.60 
   2   1 -10  157.64    3.50 
  -2   1  10  164.26    3.58 
   1  -1 -10  120.05    2.80 
  -1  -1  10  120.28    2.68 
  -1  -1  10  118.31    2.67 
  -1  -1  10  115.82    2.68 
   1  -1 -10  117.82    2.72 
   1  -1 -10  121.21    2.74 
  -1  -1  10  119.58    2.72 
   1  -1 -10  115.46    2.72 
  -1   1  10  119.96    2.75 
   1   1 -10  117.74    2.67 
   1   1 -10  125.08    2.72 
   1   1 -10  117.41    2.67 
  -1   1  10  117.65    2.70 
   0  -1  10  118.78    2.66 
   0  -1 -10  111.06    2.72 
   0  -1  10  115.16    2.70 
   0  -1  10  117.25    2.68 
   0  -1 -10  114.21    2.66 
   0  -1 -10  118.74    2.68 
   0  -1  10  118.53    2.67 
   0   1  10  113.19    2.68 
   0   1 -10  114.12    2.66 
   0   1  10  115.61    2.66 
   0   1 -10  116.27    2.70 
   0   1 -10  114.55    2.65 
   0   1  10  114.79    2.71 
   0   1  10  113.59    2.68 
   0   1 -10  120.75    2.72 
  -1  -1 -10  120.40    3.26 
   1  -1  10  123.39    2.90 
  -1  -1 -10  128.65    2.84 
  -1  -1 -10  122.74    2.84 
   1  -1  10  128.82    2.87 
  -1  -1 -10  119.51    2.88 
   1  -1  10  122.18    2.86 
   1  -1  10  120.61    2.83 
  -1   1 -10  120.35    2.85 
   1   1  10  119.78    2.84 
  -1   1 -10  116.71    2.81 
  -1   1 -10  119.96    2.87 
   1   1  10  125.40    2.82 
   1   1  10  117.39    3.05 
   1   1  10  126.89    2.86 
  -1   1 -10  128.99    2.91 
  -2  -1 -10   74.09    1.99 
   2  -1  10   76.58    2.00 
  -2  -1 -10   78.05    1.99 
  -2  -1 -10   77.09    1.98 
  -2  -1 -10   77.48    2.06 
   2  -1  10   79.83    2.11 
  -2   1 -10   76.08    2.00 
   2   1  10   78.74    2.00 
   2   1  10   78.36    1.98 
  -2   1 -10   75.19    2.05 
  -2   1 -10   79.79    2.06 
   2   1  10   77.70    2.04 
   2   1  10   79.48    2.02 
  -2   1 -10   80.97    2.08 
  -3  -1 -10   81.95    2.12 
   3  -1  10   82.32    2.16 
  -3  -1 -10   79.04    2.13 
  -3  -1 -10   78.02    2.16 
   3  -1  10   78.40    2.12 
   3  -1  10   77.03    2.34 
   3  -1  10   77.44    2.21 
  -3   1 -10   82.40    2.21 
  -3   1 -10   84.86    2.27 
   3   1  10   81.86    2.18 
  -3   1 -10   84.69    2.20 
  -3   1 -10   82.29    2.13 
   3   1  10   81.59    2.11 
   3   1  10   80.66    2.11 
  -4  -1 -10   38.65    1.41 
   4  -1  10   37.93    1.38 
   4  -1  10   38.50    1.54 
  -4  -1 -10   41.25    1.40 
  -4  -1 -10   39.52    1.43 
   4  -1  10   39.79    1.39 
  -4  -1 -10   38.19    1.33 
   4  -1  10   42.32    1.81 
  -4   1 -10   38.40    1.37 
  -4   1 -10   37.88    1.48 
   4   1  10   39.43    1.36 
  -4   1 -10   39.44    1.47 
  -4   1 -10   39.34    1.50 
   4   1  10   38.57    1.35 
   4   1  10   39.96    1.38 
   4   1  10   39.81    1.44 
  -5  -1 -10   16.33    1.07 
  -5  -1 -10   16.98    1.05 
  -5  -1 -10   16.51    0.98 
   5  -1  10   16.69    1.05 
   5  -1  10   19.59    1.09 
   5  -1  10   17.65    1.33 
   5  -1  10   17.82    1.22 
   5   1  10   16.41    0.98 
  -5   1 -10   16.80    1.02 
  -5   1 -10   15.89    1.13 
   5   1  10   17.70    1.01 
  -5   1 -10   17.87    1.22 
  -5   1 -10   16.81    1.16 
   5   1  10   17.88    0.98 
   6  -1  10   23.36    1.31 
  -6  -1 -10   23.83    1.29 
   6  -1  10   24.81    1.40 
   6  -1  10   27.24    1.43 
  -6  -1 -10   23.32    1.15 
  -6  -1 -10   22.96    1.30 
   6   1  10   24.74    1.32 
  -6   1 -10   25.91    1.50 
  -6   1 -10   24.85    1.42 
   6   1  10   24.11    1.23 
  -6   1 -10   23.59    1.25 
   7  -1  10    6.56    0.86 
  -7  -1 -10    8.77    1.15 
  -7   1 -10    9.26    1.33 
   7   1  10    8.47    1.01 
   9  -2 -10   10.83    1.33 
  -9  -2  10   10.78    0.84 
   9   2 -10    9.42    1.18 
   9   2 -10   10.00    0.72 
  -9   2  10   10.79    1.42 
  -8  -2  10    3.26    0.46 
  -8  -2  10    3.69    0.49 
   8  -2 -10    1.78    0.71 
   8   2 -10    2.61    0.39 
  -8   2  10    2.86    0.81 
   8   2 -10    3.54    0.55 
  -7  -2  10    2.15    0.39 
  -7  -2  10    1.77    0.39 
   7  -2 -10    2.08    0.64 
   7  -2 -10    1.75    0.55 
  -7   2  10    2.10    0.66 
   7   2 -10    2.25    0.33 
  -7   2  10    1.59    0.64 
   7   2 -10    2.07    0.34 
  -7   2  10    2.12    0.65 
   6  -2 -10   31.67    1.32 
  -6  -2  10   29.90    0.98 
  -6  -2  10   31.17    0.98 
   6  -2 -10   31.37    1.36 
   6  -2 -10   28.76    1.34 
  -6  -2  10   31.58    0.80 
   6  -2 -10   33.82    1.35 
  -6   2  10   30.06    1.38 
  -6   2  10   29.87    1.36 
  -6   2  10   32.11    1.34 
   6   2 -10   30.37    0.95 
  -6   2  10   29.63    1.28 
   6   2 -10   31.28    0.91 
   5  -2 -10   56.98    1.75 
   5  -2 -10   56.05    1.78 
   5  -2 -10   56.85    1.73 
  -5  -2  10   56.43    1.44 
  -5  -2  10   59.69    1.35 
   5  -2 -10   57.99    1.78 
  -5  -2  10   52.86    1.33 
  -5  -2  10   52.58    1.78 
   5   2 -10   57.09    1.29 
   5   2 -10   58.12    1.40 
  -5   2  10   57.71    1.73 
  -5   2  10   57.41    1.72 
  -5   2  10   59.89    1.84 
   5   2 -10   58.33    1.30 
  -5   2  10   57.98    1.82 
  -4  -2  10   53.00    1.34 
   4  -2 -10   56.95    1.70 
  -4  -2  10   53.96    1.39 
   4  -2 -10   54.80    1.66 
  -4  -2  10   57.92    1.35 
  -4  -2  10   56.16    1.41 
   4  -2 -10   56.73    1.73 
   4  -2 -10   54.29    1.64 
  -4   2  10   57.27    1.65 
   4   2 -10   53.24    1.33 
  -4   2  10   56.77    1.71 
  -4   2  10   57.70    1.72 
   4   2 -10   55.68    1.38 
   4   2 -10   55.45    1.50 
  -4   2  10   54.63    1.65 
   4   2 -10   54.78    1.36 
  -3  -2  10   20.40    0.71 
   3  -2 -10   20.81    0.91 
   3  -2 -10   21.79    0.92 
   3  -2 -10   20.76    0.98 
  -3  -2  10   20.13    0.70 
   3  -2 -10   19.99    0.93 
  -3  -2  10   21.17    0.75 
  -3  -2  10   20.85    0.69 
  -3   2  10   20.19    0.91 
   3   2 -10   19.78    0.71 
   3   2 -10   22.02    0.71 
   3   2 -10   21.04    0.70 
  -3   2  10   22.61    0.97 
   3   2 -10   19.65    0.71 
  -3   2  10   21.07    0.89 
  -2  -2  10   43.01    1.17 
   2  -2 -10   41.69    1.30 
  -2  -2  10   41.44    1.13 
  -2  -2  10   41.65    1.16 
   2  -2 -10   41.76    1.32 
   2  -2 -10   42.22    1.37 
  -2  -2  10   43.52    1.21 
   2  -2 -10   43.19    1.32 
   2   2 -10   42.88    1.17 
   2   2 -10   41.93    1.14 
  -2   2  10   42.93    1.30 
  -2   2  10   45.12    1.37 
  -2   2  10   44.69    1.38 
   2   2 -10   42.63    1.34 
   2   2 -10   39.83    1.15 
  -1  -2  10  143.75    3.18 
  -1  -2  10  144.40    3.26 
  -1  -2  10  145.83    3.22 
   1  -2 -10  141.39    3.30 
   1  -2 -10  147.83    3.41 
   1  -2 -10  148.56    3.40 
  -1  -2  10  146.98    3.22 
   1  -2 -10  144.65    3.30 
   1   2 -10  146.16    3.20 
  -1   2  10  145.81    3.34 
  -1   2  10  145.26    3.32 
   1   2 -10  138.82    3.22 
   1   2 -10  143.92    3.21 
  -1   2  10  145.98    3.27 
  -1   2  10  141.11    3.39 
   1   2 -10  149.32    3.23 
   0  -2  10  111.90    2.65 
   0  -2 -10  113.11    2.60 
   0  -2  10  110.46    2.55 
   0  -2  10  103.65    2.55 
   0  -2  10  107.06    2.57 
   0  -2 -10  108.78    2.60 
   0  -2 -10  108.76    2.60 
   0  -2 -10  110.44    2.69 
   0   2 -10  110.42    2.56 
   0   2  10  108.76    2.64 
   0   2 -10  107.60    2.60 
   0   2  10  113.07    2.59 
   0   2  10  111.37    2.63 
   0   2  10  107.47    2.61 
   0   2 -10  111.53    2.59 
  -1  -2 -10   85.26    2.21 
   1  -2  10   84.19    2.17 
   1  -2  10   82.32    2.13 
   1  -2  10   84.93    2.24 
  -1  -2 -10   85.31    2.14 
  -1  -2 -10   88.56    2.17 
   1  -2  10   87.22    2.17 
   1   2  10   87.88    2.21 
   1   2  10   84.00    2.12 
   1   2  10   88.33    2.18 
  -1   2 -10   89.21    2.20 
  -1   2 -10   86.61    2.15 
  -1   2 -10   84.17    2.20 
  -1   2 -10   85.09    2.19 
  -2  -2 -10   33.91    1.21 
  -2  -2 -10   33.48    1.13 
   2  -2  10   35.04    1.23 
  -2  -2 -10   32.22    1.15 
   2  -2  10   34.68    1.30 
   2  -2  10   33.17    1.17 
   2  -2  10   32.98    1.20 
  -2  -2 -10   33.53    1.15 
  -2   2 -10   34.88    1.19 
   2   2  10   34.67    1.20 
  -2   2 -10   33.96    1.24 
  -2   2 -10   31.04    1.24 
   2   2  10   33.37    1.15 
   2   2  10   31.59    1.11 
  -2   2 -10   33.00    1.22 
   2   2  10   34.68    1.16 
   3  -2  10   23.89    1.21 
  -3  -2 -10   22.40    0.99 
   3  -2  10   23.62    1.05 
  -3  -2 -10   20.81    0.99 
   3  -2  10   24.09    1.07 
  -3  -2 -10   24.55    1.09 
   3  -2  10   24.20    1.13 
  -3  -2 -10   22.52    0.96 
   3   2  10   22.74    0.99 
  -3   2 -10   23.82    1.16 
  -3   2 -10   22.74    1.04 
  -3   2 -10   23.65    1.12 
   3   2  10   23.20    1.00 
  -3   2 -10   25.52    1.16 
   3   2  10   23.86    1.07 
   4  -2  10   79.67    2.25 
  -4  -2 -10   76.96    2.22 
   4  -2  10   76.29    2.23 
   4  -2  10   81.59    2.31 
  -4  -2 -10   76.77    2.10 
  -4  -2 -10   79.34    2.16 
   4  -2  10   77.35    2.36 
  -4  -2 -10   78.53    2.17 
  -4   2 -10   79.90    2.36 
  -4   2 -10   80.26    2.31 
   4   2  10   79.84    2.13 
  -4   2 -10   80.99    2.36 
   4   2  10   76.44    2.17 
   4   2  10   76.88    2.20 
   4   2  10   76.49    2.23 
  -4   2 -10   81.61    2.24 
   5  -2  10   28.79    1.59 
   5  -2  10   26.62    1.33 
  -5  -2 -10   27.37    1.27 
   5  -2  10   26.49    1.33 
  -5  -2 -10   25.23    1.14 
  -5  -2 -10   26.93    1.28 
   5  -2  10   31.17    1.48 
   5   2  10   25.02    1.21 
  -5   2 -10   26.87    1.45 
  -5   2 -10   27.12    1.32 
  -5   2 -10   26.71    1.58 
   5   2  10   26.75    1.21 
  -5   2 -10   26.49    1.41 
   6  -2  10    2.45    0.98 
   6  -2  10    0.36    0.75 
  -6  -2 -10    2.45    0.64 
   6  -2  10    2.55    0.70 
   6  -2  10    2.33    0.65 
  -6   2 -10    1.46    0.56 
  -6   2 -10    1.41    0.71 
  -6   2 -10    1.48    0.76 
   6   2  10    1.72    0.51 
  -6   2 -10    0.80    0.82 
  -7  -2 -10    4.07    0.76 
   7  -2  10    4.54    0.85 
   7   2  10    5.44    0.97 
  -7   2 -10    3.76    0.92 
  -8  -3  10    9.63    0.53 
  -8  -3  10    9.36    0.56 
   8  -3 -10   11.60    1.38 
  -8   3  10   11.61    1.47 
  -7  -3  10   10.51    0.53 
   7  -3 -10    9.91    1.19 
   7  -3 -10    9.92    1.18 
  -7   3  10   12.78    1.34 
  -7   3  10    9.38    1.13 
  -6  -3  10   12.08    0.57 
   6  -3 -10   13.27    1.19 
   6  -3 -10   11.62    1.13 
   6  -3 -10   10.75    1.20 
  -6  -3  10   11.99    0.55 
   6  -3 -10   12.13    1.21 
   6   3 -10   11.73    0.46 
  -6   3  10   12.37    1.08 
  -6   3  10   12.02    1.22 
  -6   3  10   14.10    1.21 
  -6   3  10   12.45    1.20 
   6   3 -10   11.17    0.48 
  -5  -3  10   16.82    0.65 
  -5  -3  10   16.79    0.62 
   5  -3 -10   16.44    1.10 
   5  -3 -10   15.65    1.12 
   5  -3 -10   18.13    1.16 
   5  -3 -10   18.14    1.16 
  -5   3  10   15.83    1.14 
  -5   3  10   17.16    1.06 
  -5   3  10   17.13    1.22 
  -5   3  10   15.45    1.12 
   5   3 -10   16.31    0.59 
   5   3 -10   15.48    0.57 
   4  -3 -10   57.52    1.86 
  -4  -3  10   57.69    1.46 
   4  -3 -10   57.67    1.81 
  -4  -3  10   56.36    1.40 
   4  -3 -10   60.31    1.82 
   4  -3 -10   57.18    1.84 
  -4   3  10   57.38    1.87 
   4   3 -10   56.83    1.38 
   4   3 -10   55.57    1.41 
  -4   3  10   59.01    1.89 
  -4   3  10   59.51    1.82 
  -4   3  10   60.33    1.82 
  -3  -3  10   82.35    1.99 
  -3  -3  10   83.59    1.83 
   3  -3 -10   82.44    2.23 
   3  -3 -10   87.14    2.34 
   3  -3 -10   81.77    2.21 
  -3  -3  10   78.17    2.03 
  -3  -3  10   83.66    1.83 
   3  -3 -10   84.26    2.27 
   3   3 -10   82.46    1.82 
   3   3 -10   81.33    1.90 
  -3   3  10   84.50    2.29 
  -3   3  10   83.36    2.24 
   3   3 -10   79.43    1.93 
   3   3 -10   82.08    1.81 
  -3   3  10   77.66    2.50 
   2  -3 -10   17.24    0.90 
  -2  -3  10   18.19    0.72 
   2  -3 -10   18.29    0.93 
   2  -3 -10   15.65    0.94 
  -2  -3  10   18.29    0.79 
  -2  -3  10   17.49    0.66 
   2  -3 -10   17.42    0.94 
  -2  -3  10   18.35    0.69 
  -2   3  10   19.51    0.96 
   2   3 -10   18.65    0.69 
  -2   3  10   16.84    0.91 
   2   3 -10   17.09    0.72 
  -2   3  10   18.29    0.90 
  -2   3  10   18.60    0.99 
   2   3 -10   18.05    0.69 
   2   3 -10   18.08    0.69 
   1  -3 -10   29.65    1.13 
   1  -3 -10   29.73    1.12 
  -1  -3  10   29.77    1.09 
  -1  -3  10   27.97    0.99 
  -1  -3  10   30.77    0.99 
  -1  -3  10   29.96    0.94 
   1  -3 -10   29.35    1.13 
   1  -3 -10   28.52    1.17 
   1   3 -10   30.75    1.00 
   1   3 -10   28.73    0.97 
  -1   3  10   28.69    1.10 
  -1   3  10   29.39    1.18 
   1   3 -10   29.28    0.97 
  -1   3  10   29.26    1.16 
   0  -3 -10   41.91    1.34 
   0  -3  10   41.49    1.27 
   0  -3  10   40.79    1.23 
   0  -3 -10   35.58    1.56 
   0  -3 -10   40.43    1.32 
   0  -3  10   39.63    1.29 
   0  -3  10   41.82    1.36 
   0  -3 -10   41.37    1.41 
   0   3 -10   40.39    1.26 
   0   3  10   41.81    1.36 
   0   3  10   40.90    1.39 
   0   3 -10   40.47    1.30 
   0   3  10   42.50    1.40 
   0   3 -10   40.52    1.28 
   0   3  10   43.25    1.31 
  -1  -3 -10   33.25    1.27 
   1  -3  10   34.69    1.24 
  -1  -3 -10   33.19    1.18 
   1  -3  10   36.14    1.23 
  -1  -3 -10   32.44    1.19 
  -1  -3 -10   34.90    1.21 
   1  -3  10   34.03    1.30 
   1  -3  10   33.74    1.16 
   1   3  10   34.44    1.17 
  -1   3 -10   32.77    1.23 
   1   3  10   34.88    1.22 
  -1   3 -10   34.69    1.27 
  -1   3 -10   34.61    1.21 
   1   3  10   36.57    1.25 
   1   3  10   34.08    1.22 
  -2  -3 -10  100.90    2.49 
   2  -3  10   98.78    2.61 
   2  -3  10   99.91    2.69 
  -2  -3 -10  102.54    2.53 
   2  -3  10  103.53    2.62 
  -2  -3 -10  104.20    2.53 
  -2  -3 -10  100.41    2.62 
   2  -3  10   93.49    2.82 
   2   3  10  100.09    2.49 
  -2   3 -10  100.82    2.66 
   2   3  10  101.23    2.55 
  -2   3 -10  105.67    2.61 
   2   3  10   99.23    2.54 
  -2   3 -10  103.82    2.74 
  -2   3 -10  100.96    2.65 
   3  -3  10   26.82    1.39 
  -3  -3 -10   28.16    1.13 
  -3  -3 -10   29.59    1.15 
   3  -3  10   28.62    1.26 
   3  -3  10   29.18    1.31 
   3  -3  10   29.28    1.24 
  -3  -3 -10   30.15    1.24 
  -3   3 -10   28.60    1.40 
   3   3  10   29.21    1.16 
   3   3  10   27.47    1.13 
  -3   3 -10   29.15    1.30 
  -3   3 -10   26.84    1.23 
  -3   3 -10   28.26    1.36 
  -4  -3 -10    2.37    0.51 
   4  -3  10    2.79    0.76 
  -4  -3 -10    0.99    0.46 
  -4  -3 -10    2.08    0.45 
   4  -3  10    1.46    0.54 
   4  -3  10    0.83    0.54 
   4  -3  10    1.38    0.56 
  -4   3 -10    1.32    0.58 
  -4   3 -10    1.72    0.69 
  -4   3 -10    2.00    0.71 
   4   3  10    2.05    0.46 
   4   3  10    2.16    0.51 
   4   3  10    1.98    0.47 
  -4   3 -10    2.05    0.67 
   5  -3  10   13.95    1.57 
   5  -3  10   14.04    1.23 
   5  -3  10   16.21    1.26 
   5  -3  10   15.69    1.45 
  -5  -3 -10   14.56    1.08 
  -5   3 -10   17.08    1.27 
  -5   3 -10   15.59    1.60 
  -5   3 -10   17.14    1.36 
   5   3  10   17.39    1.32 
   5   3  10   14.17    1.01 
  -5   3 -10   16.33    1.45 
   6  -3  10    5.65    0.90 
   6  -3  10    7.55    1.37 
  -6  -3 -10    5.54    1.01 
  -6   3 -10    4.41    0.78 
  -6   3 -10    5.48    0.94 
   6   3  10    5.26    0.92 
   7  -4 -10   14.23    1.59 
  -7   4  10   10.09    1.71 
   6  -4 -10   15.87    1.50 
   6  -4 -10   20.68    1.48 
   6  -4 -10   21.28    1.61 
   6  -4 -10   22.51    1.90 
  -6   4  10   20.91    1.57 
  -6   4  10   18.74    1.58 
  -6   4  10   18.96    1.40 
  -6   4  10   21.22    1.54 
   5  -4 -10   16.36    1.33 
   5  -4 -10   15.29    1.26 
   5  -4 -10   15.03    1.35 
   5  -4 -10   15.80    1.32 
  -5  -4  10   15.44    0.52 
  -5   4  10   20.51    1.48 
  -5   4  10   15.05    1.41 
  -5   4  10   15.15    1.37 
  -5   4  10   15.26    1.26 
  -4  -4  10    9.05    0.53 
   4  -4 -10    7.54    1.01 
   4  -4 -10    9.40    1.10 
  -4  -4  10    7.53    0.47 
   4  -4 -10    9.42    1.09 
   4  -4 -10    7.56    1.11 
  -4   4  10    8.75    1.06 
   4   4 -10    8.17    0.42 
   4   4 -10    7.79    0.45 
  -4   4  10    9.23    1.13 
  -4   4  10    8.61    1.14 
  -4   4  10    8.95    1.00 
  -3  -4  10   32.74    0.99 
   3  -4 -10   33.52    1.42 
  -3  -4  10   33.18    1.06 
   3  -4 -10   30.70    1.63 
   3  -4 -10   33.03    1.48 
  -3  -4  10   34.55    0.82 
   3  -4 -10   35.76    1.43 
  -3   4  10   33.28    1.47 
  -3   4  10   31.62    1.62 
  -3   4  10   34.74    1.48 
   3   4 -10   33.67    1.01 
   3   4 -10   32.91    0.94 
  -3   4  10   33.37    1.40 
  -2  -4  10   23.46    0.87 
   2  -4 -10   23.46    1.25 
   2  -4 -10   22.46    1.18 
  -2  -4  10   24.76    0.96 
   2  -4 -10   23.96    1.19 
   2  -4 -10   24.11    1.19 
  -2  -4  10   23.56    0.78 
  -2   4  10   24.83    1.16 
  -2   4  10   22.67    1.17 
  -2   4  10   23.62    1.21 
   2   4 -10   23.06    0.90 
   2   4 -10   23.80    0.84 
   2   4 -10   22.81    0.80 
  -2   4  10   21.35    1.15 
  -1  -4  10   24.34    1.05 
   1  -4 -10   24.80    1.16 
   1  -4 -10   24.48    1.23 
   1  -4 -10   24.20    1.16 
  -1  -4  10   24.43    0.98 
  -1  -4  10   24.54    0.89 
  -1   4  10   23.71    1.11 
  -1   4  10   24.15    1.16 
   1   4 -10   25.16    1.00 
   1   4 -10   23.68    0.93 
   1   4 -10   24.38    0.95 
  -1   4  10   24.74    1.22 
   0  -4 -10   67.41    1.95 
   0  -4  10   68.49    1.90 
   0  -4 -10   65.84    1.91 
   0  -4  10   68.22    1.97 
   0  -4  10   64.82    1.79 
   0  -4 -10   67.74    1.94 
   0   4  10   64.62    1.88 
   0   4 -10   70.56    1.94 
   0   4  10   69.23    1.97 
   0   4 -10   65.96    1.84 
   0   4 -10   70.78    1.88 
   0   4  10   63.29    2.16 
   0   4  10   64.74    1.96 
  -1  -4 -10   12.70    0.98 
  -1  -4 -10   13.71    0.90 
   1  -4  10   13.04    0.82 
  -1  -4 -10   11.09    0.88 
   1  -4  10   12.24    0.89 
   1  -4  10   11.78    0.98 
  -1   4 -10   12.96    0.93 
   1   4  10   12.61    0.84 
   1   4  10   12.86    0.93 
   1   4  10   12.29    0.89 
  -1   4 -10   12.74    0.88 
   2  -4  10    4.32    0.77 
   2  -4  10    4.52    0.81 
  -2  -4 -10    4.94    0.75 
  -2  -4 -10    5.56    0.85 
  -2  -4 -10    4.31    0.55 
   2  -4  10    3.58    0.54 
  -2   4 -10    5.06    0.82 
  -2   4 -10    3.84    0.66 
   2   4  10    3.95    0.58 
  -2   4 -10    2.17    0.56 
   2   4  10    4.17    0.73 
  -3  -4 -10   15.93    1.08 
   3  -4  10   16.54    1.16 
  -3  -4 -10   17.31    0.99 
   3  -4  10   17.44    1.30 
  -3  -4 -10   15.07    0.97 
   3  -4  10   18.19    1.13 
  -3   4 -10   16.34    1.12 
   3   4  10   16.53    0.93 
   3   4  10   17.31    1.09 
   3   4  10   14.97    0.97 
  -3   4 -10   15.56    1.33 
   4  -4  10    6.24    1.10 
  -4  -4 -10    5.92    1.00 
  -4   4 -10    5.98    1.06 
  -4   4 -10    6.32    0.97 
   4   4  10    5.53    0.83 
   5  -4  10   12.39    1.36 
  -5  -4 -10   11.28    1.16 
   5   4  10   12.01    1.04 
  -5   4 -10   10.73    1.36 
   6  -5 -10   14.52    1.75 
  -6   5  10   15.56    1.63 
   5  -5 -10   10.25    1.57 
  -5   5  10   14.19    1.44 
   4  -5 -10    1.72    0.66 
  -4  -5  10    2.43    0.31 
  -4  -5  10    2.18    0.34 
  -4   5  10    2.22    0.77 
   4   5 -10    1.95    0.30 
   4   5 -10    2.84    0.36 
  -3  -5  10    4.94    0.63 
   3  -5 -10    6.53    0.93 
  -3  -5  10    5.42    0.55 
   3   5 -10    4.85    0.56 
  -3   5  10    6.65    1.06 
   3   5 -10    5.52    0.49 
  -3   5  10    6.61    1.05 
   2  -5 -10   69.58    2.27 
  -2  -5  10   67.99    1.61 
   2  -5 -10   59.38    2.90 
  -2  -5  10   66.51    1.85 
  -2  -5  10   67.17    1.81 
   2   5 -10   67.34    1.53 
  -2   5  10   68.21    2.17 
   2   5 -10   67.16    1.79 
   2   5 -10   68.32    1.74 
  -1  -5  10   21.18    1.07 
   1  -5 -10   20.99    1.43 
  -1  -5  10   19.61    0.99 
  -1  -5  10   20.40    0.89 
   1  -5 -10   19.21    1.28 
  -1   5  10   18.48    1.19 
  -1   5  10   20.77    1.59 
   1   5 -10   21.73    0.97 
   1   5 -10   19.07    1.04 
   1   5 -10   19.28    0.94 
   0  -5  10   -0.99    0.86 
   0  -5  10   -0.15    0.43 
   0  -5 -10    0.49    0.55 
   0   5 -10   -0.10    0.39 
   0   5  10   -0.83    0.47 
   0   5 -10   -0.78    0.42 
  -1  -5 -10   15.99    1.15 
   1  -5  10   13.76    1.06 
   1   5  10   12.77    1.03 
  -1   5 -10   15.53    1.06 
   2  -5  10    7.48    1.01 
  -2   5 -10    7.25    1.00 
   2   5  10    8.41    0.93 
  -3  -5 -10   10.00    1.13 
   3  -5  10    8.98    1.18 
  -3   5 -10   10.60    1.19 
   4  -5  10   14.19    1.42 
  -4  -5 -10   12.79    1.26 
   4   5  10   11.75    1.06 
  -4   5 -10   14.06    1.40 
   2  -6 -10    1.47    0.83 
  -2   6  10    1.01    0.75 
  -1  -6  10    3.63    0.64 
   1  -6 -10    4.55    0.85 
  -1   6  10    3.62    0.71 
   1   6 -10    4.63    0.81 
   0  -6 -10    5.01    0.85 
   0  -6  10    4.94    0.77 
   0   6  10    4.89    0.80 
   0   6 -10    4.39    0.67 
  -1  -6 -10   10.98    1.35 
   1   6  10   11.15    1.22 
  -1   6 -10   15.02    1.32 
  -9   0  11   -0.70    0.62 
   9   0 -11   -0.14    0.53 
   8   0 -11    0.02    0.46 
   8   0 -11    0.29    0.52 
  -8   0  11    0.12    0.54 
   7   0 -11    0.12    0.41 
  -7   0  11    0.04    0.41 
   7   0 -11    0.07    0.39 
   7   0 -11    0.02    0.42 
  -7   0  11   -0.55    0.39 
  -7   0  11    0.22    0.42 
   6   0 -11   -0.10    0.38 
   6   0 -11   -0.15    0.30 
   6   0 -11    0.40    0.37 
  -6   0  11   -0.18    0.31 
  -6   0  11   -0.15    0.31 
  -6   0  11   -0.02    0.35 
   6   0 -11    0.13    0.36 
  -6   0  11   -0.14    0.33 
   5   0 -11   -0.01    0.33 
   5   0 -11   -0.39    0.24 
  -5   0  11    0.12    0.29 
   5   0 -11   -0.23    0.30 
  -5   0  11    0.15    0.28 
  -5   0  11   -0.32    0.31 
   5   0 -11   -0.09    0.30 
  -5   0  11   -0.33    0.29 
   4   0 -11    0.84    0.29 
   4   0 -11    0.29    0.28 
  -4   0  11   -0.47    0.22 
  -4   0  11    0.07    0.28 
  -4   0  11   -0.03    0.25 
  -4   0  11    0.13    0.29 
   4   0 -11   -0.12    0.28 
  -3   0  11    0.18    0.25 
   3   0 -11    0.44    0.23 
  -3   0  11    0.06    0.23 
  -3   0  11   -0.13    0.22 
   3   0 -11    0.50    0.26 
  -3   0  11    0.21    0.28 
   3   0 -11   -0.12    0.22 
   3   0 -11    0.24    0.25 
  -2   0  11    0.02    0.25 
  -2   0  11   -0.02    0.23 
   2   0 -11   -0.02    0.25 
  -2   0  11    0.03    0.27 
   2   0 -11    0.03    0.21 
   2   0 -11    0.07    0.28 
  -2   0  11   -0.04    0.22 
   2   0 -11    0.34    0.23 
  -1   0  11   -0.10    0.24 
  -1   0  11    0.00    0.23 
   1   0 -11    0.20    0.21 
  -1   0  11    0.10    0.23 
   1   0 -11   -0.25    0.22 
   1   0 -11    0.02    0.25 
   0   0  11    0.74    0.29 
   0   0 -11    0.18    0.20 
   0   0 -11    0.30    0.26 
   0   0  11    0.32    0.24 
   0   0  11    0.29    0.31 
   0   0 -11    0.04    0.27 
   1   0  11    0.11    0.30 
   1   0  11    0.28    0.28 
   1   0  11    0.53    0.30 
  -1   0 -11    0.04    0.30 
  -1   0 -11    0.19    0.29 
  -1   0 -11    0.50    0.28 
   1   0  11   -0.21    0.26 
  -1   0 -11   -0.13    0.29 
  -2   0 -11   -0.28    0.32 
   2   0  11   -0.45    0.27 
   2   0  11    0.08    0.29 
  -2   0 -11    0.10    0.30 
  -2   0 -11   -0.25    0.36 
  -2   0 -11   -0.06    0.31 
   2   0  11    0.17    0.36 
   2   0  11    0.12    0.29 
  -3   0 -11   -0.07    0.36 
   3   0  11    0.46    0.39 
  -3   0 -11    0.00    0.34 
   3   0  11    0.34    0.34 
  -3   0 -11    0.11    0.42 
  -3   0 -11    0.09    0.36 
   3   0  11    0.31    0.38 
   3   0  11   -0.11    0.33 
   4   0  11    0.25    0.37 
   4   0  11   -0.12    0.40 
   4   0  11   -0.04    0.35 
   4   0  11   -0.08    0.53 
  -4   0 -11   -0.90    0.33 
  -4   0 -11   -0.71    0.46 
  -4   0 -11    0.24    0.50 
  -4   0 -11    1.04    0.50 
   5   0  11   -0.10    0.45 
   5   0  11   -0.69    0.38 
   5   0  11   -0.10    0.49 
  -5   0 -11   -0.11    0.46 
  -5   0 -11    0.49    0.59 
  -5   0 -11    0.31    0.62 
   5   0  11    0.40    0.60 
  -5   0 -11   -0.18    0.50 
   6   0  11    0.49    0.50 
  -6   0 -11   -0.68    0.53 
  -6   0 -11   -0.64    0.53 
   6   0  11   -0.06    0.54 
   7   0  11   -1.06    0.61 
  -7   0 -11    0.25    0.61 
   9  -1 -11    0.88    0.68 
  -9  -1  11    1.70    0.58 
  -9   1  11    1.46    0.73 
   9   1 -11    1.88    0.51 
  -8  -1  11    0.20    0.48 
  -8  -1  11   -0.08    0.49 
  -8  -1  11    0.71    0.48 
   8  -1 -11    0.13    0.53 
   8   1 -11    0.29    0.40 
   8   1 -11   -0.41    0.41 
   8   1 -11   -0.28    0.40 
  -8   1  11    0.73    0.66 
   7  -1 -11    0.73    0.46 
  -7  -1  11    0.13    0.35 
  -7  -1  11    0.68    0.39 
  -7  -1  11   -0.02    0.38 
   7  -1 -11    0.35    0.49 
   7  -1 -11   -0.15    0.45 
  -7   1  11   -0.16    0.50 
   7   1 -11   -0.42    0.39 
  -7   1  11    0.35    0.43 
   7   1 -11    0.22    0.35 
  -7   1  11    0.13    0.52 
   7   1 -11   -0.11    0.33 
   6  -1 -11    0.76    0.44 
   6  -1 -11    0.62    0.42 
  -6  -1  11   -0.01    0.31 
  -6  -1  11    1.16    0.33 
  -6  -1  11    0.44    0.34 
   6  -1 -11    0.46    0.40 
   6   1 -11    0.21    0.33 
  -6   1  11    0.26    0.41 
   6   1 -11    0.09    0.27 
  -6   1  11    0.33    0.44 
  -6   1  11    0.40    0.37 
   6   1 -11   -0.47    0.30 
  -5  -1  11    0.20    0.32 
   5  -1 -11   -0.24    0.34 
   5  -1 -11    0.26    0.35 
   5  -1 -11    0.30    0.38 
   5  -1 -11    0.65    0.33 
  -5  -1  11    0.33    0.31 
  -5  -1  11    0.32    0.28 
  -5   1  11   -0.08    0.35 
   5   1 -11    0.11    0.30 
  -5   1  11   -0.04    0.36 
   5   1 -11    0.46    0.29 
   5   1 -11    0.00    0.24 
  -5   1  11    0.04    0.35 
  -5   1  11    0.08    0.29 
  -4  -1  11    1.74    0.33 
  -4  -1  11    2.13    0.34 
   4  -1 -11    2.43    0.42 
  -4  -1  11    1.62    0.29 
   4  -1 -11    2.05    0.46 
  -4  -1  11    1.42    0.27 
   4  -1 -11    1.37    0.39 
   4  -1 -11    1.86    0.40 
  -4   1  11    1.60    0.37 
  -4   1  11    1.85    0.39 
   4   1 -11    1.88    0.34 
  -4   1  11    0.92    0.36 
  -4   1  11    2.05    0.41 
   4   1 -11    1.70    0.29 
   4   1 -11    1.30    0.33 
   4   1 -11    1.28    0.30 
  -3  -1  11   20.53    0.80 
   3  -1 -11   20.10    0.89 
   3  -1 -11   21.10    0.87 
  -3  -1  11   20.73    0.75 
  -3  -1  11   21.69    0.80 
  -3  -1  11   21.13    0.76 
   3  -1 -11   21.72    0.88 
   3   1 -11   22.34    0.78 
   3   1 -11   20.79    0.76 
  -3   1  11   21.77    0.94 
   3   1 -11   20.97    0.81 
  -3   1  11   22.11    0.88 
  -3   1  11   20.35    0.90 
   3   1 -11   20.21    0.77 
  -2  -1  11   16.63    0.70 
   2  -1 -11   15.83    0.80 
  -2  -1  11   17.60    0.70 
  -2  -1  11   16.94    0.73 
   2  -1 -11   17.15    0.77 
   2  -1 -11   16.88    0.76 
  -2  -1  11   16.23    0.67 
   2  -1 -11   16.37    0.76 
   2   1 -11   16.68    0.69 
  -2   1  11   17.36    0.76 
  -2   1  11   16.64    0.81 
  -2   1  11   15.93    0.77 
   2   1 -11   16.17    0.71 
   2   1 -11   16.00    0.70 
  -2   1  11   16.79    0.77 
   1  -1 -11    0.44    0.26 
   1  -1 -11    0.64    0.32 
   1  -1 -11    0.44    0.32 
   1  -1 -11    0.51    0.30 
  -1  -1  11    0.55    0.26 
  -1  -1  11    0.54    0.27 
  -1  -1  11    0.36    0.27 
  -1  -1  11    0.66    0.23 
  -1   1  11    0.54    0.30 
   1   1 -11    0.47    0.27 
  -1   1  11    0.39    0.30 
   1   1 -11    0.95    0.26 
  -1   1  11    0.29    0.27 
   1   1 -11    0.49    0.24 
   1   1 -11    0.39    0.26 
  -1   1  11    0.32    0.29 
   0  -1  11   10.23    0.67 
   0  -1 -11    9.64    0.67 
   0  -1 -11   10.18    0.61 
   0  -1  11   10.16    0.61 
   0  -1  11   10.39    0.62 
   0  -1 -11    9.67    0.64 
   0  -1  11   10.07    0.61 
   0  -1 -11    9.76    0.64 
   0   1  11   10.66    0.70 
   0   1  11   10.03    0.63 
   0   1 -11    9.77    0.66 
   0   1  11    9.96    0.63 
   0   1  11   10.15    0.63 
   0   1 -11    9.27    0.66 
   0   1 -11    9.84    0.62 
   0   1 -11   10.11    0.62 
   1  -1  11    5.34    0.62 
  -1  -1 -11    5.12    0.57 
   1  -1  11    5.24    0.55 
   1  -1  11    3.87    0.57 
  -1  -1 -11    4.08    0.53 
   1  -1  11    5.41    0.55 
  -1  -1 -11    5.53    0.59 
  -1  -1 -11    4.68    0.59 
  -1   1 -11    4.53    0.58 
  -1   1 -11    4.76    0.55 
   1   1  11    4.77    0.62 
  -1   1 -11    4.73    0.63 
   1   1  11    4.67    0.54 
   1   1  11    4.55    0.54 
  -1   1 -11    4.24    0.57 
   1   1  11    6.26    0.81 
   2  -1  11    2.04    0.42 
  -2  -1 -11    1.35    0.37 
   2  -1  11    2.14    0.39 
   2  -1  11    2.48    0.49 
  -2  -1 -11    2.31    0.45 
  -2  -1 -11    2.39    0.42 
  -2  -1 -11    1.92    0.36 
   2  -1  11    2.65    0.47 
  -2   1 -11    2.23    0.42 
  -2   1 -11    2.45    0.47 
  -2   1 -11    2.18    0.44 
   2   1  11    2.99    0.44 
   2   1  11    2.60    0.41 
   2   1  11    2.10    0.46 
   2   1  11    2.66    0.42 
  -2   1 -11    2.62    0.44 
  -3  -1 -11    7.58    0.77 
   3  -1  11    8.70    0.75 
   3  -1  11    8.44    0.79 
  -3  -1 -11    8.06    0.73 
   3  -1  11    9.40    0.77 
   3  -1  11    8.67    0.86 
  -3  -1 -11    7.57    0.79 
  -3  -1 -11    8.05    0.78 
   3   1  11    8.11    0.84 
  -3   1 -11    9.07    0.76 
   3   1  11    7.99    0.73 
  -3   1 -11    9.06    0.88 
   3   1  11    8.91    0.72 
  -3   1 -11    8.39    0.78 
  -3   1 -11    9.73    0.87 
   3   1  11    8.53    0.74 
   4  -1  11    0.92    0.50 
  -4  -1 -11    0.14    0.46 
   4  -1  11    0.17    0.52 
   4  -1  11   -0.19    0.39 
   4  -1  11    0.22    0.42 
  -4  -1 -11    0.34    0.43 
  -4  -1 -11    0.83    0.47 
   4   1  11    0.21    0.49 
   4   1  11    0.41    0.41 
  -4   1 -11    0.53    0.47 
   4   1  11    0.78    0.44 
  -4   1 -11    0.16    0.42 
  -4   1 -11   -0.02    0.52 
  -4   1 -11    0.39    0.49 
   5  -1  11    2.95    0.58 
   5  -1  11    2.04    0.67 
  -5  -1 -11    3.71    0.61 
  -5  -1 -11    3.06    0.60 
   5  -1  11    2.04    0.57 
   5  -1  11    4.13    0.79 
  -5  -1 -11    1.75    0.59 
   5   1  11    2.73    0.56 
   5   1  11    2.37    0.51 
   5   1  11    2.45    0.54 
  -5   1 -11    2.03    0.67 
  -5   1 -11    5.90    0.99 
  -5   1 -11    3.10    0.59 
  -5   1 -11    2.78    0.67 
  -6  -1 -11    0.08    0.58 
   6  -1  11    0.53    0.60 
   6  -1  11   -0.05    0.58 
  -6   1 -11    1.79    0.75 
   6   1  11   -0.22    0.43 
  -6   1 -11    0.19    0.58 
  -7  -1 -11    0.84    0.66 
   7  -1  11    0.69    0.72 
   7   1  11    0.46    0.58 
  -7   1 -11    2.15    0.89 
   9  -2 -11    1.26    0.77 
  -9   2  11    2.03    0.91 
   9   2 -11    1.36    0.44 
  -8  -2  11    2.79    0.48 
   8  -2 -11    1.97    0.73 
  -8  -2  11    1.86    0.46 
   8   2 -11    2.49    0.41 
  -8   2  11    2.63    0.87 
   8   2 -11    2.58    0.42 
   7  -2 -11    3.55    0.73 
   7  -2 -11    5.89    0.97 
  -7  -2  11    3.54    0.46 
  -7  -2  11    4.73    0.40 
  -7  -2  11    5.81    0.64 
  -7   2  11    4.05    0.75 
   7   2 -11    4.42    0.55 
  -7   2  11    4.92    0.74 
  -7   2  11    5.55    0.99 
   7   2 -11    4.08    0.52 
   6  -2 -11    6.30    0.92 
  -6  -2  11    5.59    0.44 
   6  -2 -11    5.84    0.92 
   6  -2 -11    7.64    0.93 
  -6  -2  11    5.99    0.58 
   6  -2 -11    6.34    0.97 
  -6  -2  11    5.85    0.56 
  -6   2  11    5.09    0.85 
  -6   2  11    6.04    0.98 
  -6   2  11    6.52    0.95 
   6   2 -11    6.04    0.37 
   6   2 -11    5.33    0.48 
  -6   2  11    5.58    0.80 
   6   2 -11    6.21    0.53 
   6   2 -11    6.93    0.54 
  -5  -2  11    0.31    0.25 
   5  -2 -11    0.03    0.41 
   5  -2 -11    0.17    0.40 
  -5  -2  11    0.31    0.29 
  -5  -2  11    0.30    0.24 
  -5  -2  11   -0.01    0.26 
   5  -2 -11   -0.27    0.43 
   5  -2 -11   -0.21    0.47 
  -5   2  11    0.23    0.46 
   5   2 -11   -0.19    0.24 
   5   2 -11    0.39    0.24 
   5   2 -11    0.15    0.22 
   5   2 -11   -0.06    0.25 
  -5   2  11   -0.35    0.40 
  -5   2  11   -0.22    0.43 
  -5   2  11   -0.34    0.36 
   4  -2 -11    8.47    0.77 
   4  -2 -11    9.20    0.79 
  -4  -2  11    7.95    0.49 
   4  -2 -11    7.91    0.80 
  -4  -2  11    8.33    0.54 
  -4  -2  11    8.79    0.51 
  -4  -2  11    7.03    0.51 
   4  -2 -11    7.58    0.77 
  -4   2  11    8.94    0.76 
   4   2 -11    8.41    0.49 
  -4   2  11    7.77    0.75 
   4   2 -11    8.04    0.51 
   4   2 -11    6.77    0.50 
  -4   2  11    8.83    0.83 
   4   2 -11    8.17    0.52 
  -4   2  11    6.78    0.73 
   3  -2 -11   22.44    1.01 
  -3  -2  11   21.78    0.77 
  -3  -2  11   21.04    0.74 
   3  -2 -11   22.01    0.97 
   3  -2 -11   23.57    1.00 
  -3  -2  11   20.34    0.77 
  -3  -2  11   22.73    0.83 
   3  -2 -11   23.33    1.05 
  -3   2  11   21.39    0.97 
   3   2 -11   19.78    0.77 
   3   2 -11   21.50    0.77 
   3   2 -11   21.43    0.78 
   3   2 -11   20.67    0.76 
  -3   2  11   20.73    0.94 
  -3   2  11   22.93    1.03 
  -3   2  11   21.87    1.01 
  -2  -2  11    3.52    0.42 
  -2  -2  11    3.82    0.48 
   2  -2 -11    3.08    0.52 
  -2  -2  11    3.69    0.44 
   2  -2 -11    3.54    0.58 
  -2  -2  11    3.27    0.43 
   2  -2 -11    3.37    0.61 
  -2   2  11    2.24    0.47 
   2   2 -11    4.22    0.43 
   2   2 -11    3.44    0.47 
  -2   2  11    2.59    0.40 
   2   2 -11    3.09    0.44 
   2   2 -11    3.15    0.45 
  -2   2  11    3.22    0.59 
   1  -2 -11    3.18    0.58 
   1  -2 -11    4.25    0.62 
  -1  -2  11    3.39    0.52 
  -1  -2  11    3.06    0.46 
  -1  -2  11    3.90    0.47 
   1  -2 -11    3.48    0.59 
  -1  -2  11    2.72    0.44 
   1  -2 -11    3.37    0.58 
  -1   2  11    2.97    0.44 
   1   2 -11    2.91    0.40 
   1   2 -11    3.82    0.47 
  -1   2  11    3.09    0.42 
  -1   2  11    2.83    0.42 
   1   2 -11    4.53    0.51 
  -1   2  11    3.83    0.57 
   0  -2  11    0.71    0.30 
   0  -2  11    0.24    0.28 
   0  -2  11    0.77    0.35 
   0  -2 -11    0.43    0.31 
   0  -2 -11    0.47    0.36 
   0  -2  11    0.35    0.27 
   0  -2 -11    0.83    0.34 
   0  -2 -11    0.44    0.29 
   0   2 -11    0.96    0.33 
   0   2  11    0.21    0.32 
   0   2  11    0.69    0.38 
   0   2  11    0.23    0.30 
   0   2 -11    0.22    0.25 
   0   2  11    0.36    0.31 
   0   2 -11    0.05    0.28 
   0   2 -11    1.05    0.34 
  -1  -2 -11    0.60    0.34 
   1  -2  11   -0.11    0.32 
   1  -2  11   -0.04    0.37 
  -1  -2 -11    0.21    0.31 
  -1  -2 -11   -0.04    0.27 
  -1  -2 -11   -0.20    0.33 
   1  -2  11    0.23    0.31 
   1  -2  11   -0.43    0.30 
  -1   2 -11    0.18    0.35 
   1   2  11   -0.05    0.30 
  -1   2 -11    0.36    0.38 
  -1   2 -11    0.05    0.37 
   1   2  11    0.01    0.26 
  -1   2 -11    0.01    0.30 
   1   2  11    0.84    0.38 
   1   2  11    0.74    0.37 
  -2  -2 -11    1.15    0.32 
   2  -2  11    2.21    0.48 
  -2  -2 -11    2.03    0.42 
   2  -2  11    1.85    0.43 
   2  -2  11    1.21    0.48 
   2  -2  11    1.62    0.40 
  -2  -2 -11    2.07    0.46 
  -2  -2 -11    2.08    0.44 
  -2   2 -11    0.95    0.35 
   2   2  11    1.28    0.35 
  -2   2 -11    1.83    0.45 
   2   2  11    0.91    0.34 
   2   2  11    1.57    0.39 
  -2   2 -11    1.35    0.42 
  -2   2 -11    0.77    0.43 
   2   2  11    1.07    0.40 
   3  -2  11    0.59    0.38 
   3  -2  11   -0.04    0.39 
  -3  -2 -11    0.62    0.41 
  -3  -2 -11    0.84    0.42 
  -3  -2 -11    0.61    0.34 
   3  -2  11    0.22    0.49 
  -3  -2 -11    0.10    0.40 
   3   2  11    0.27    0.37 
  -3   2 -11    1.02    0.55 
  -3   2 -11    0.66    0.44 
   3   2  11    0.62    0.45 
  -3   2 -11   -0.10    0.49 
  -3   2 -11    0.74    0.45 
   3   2  11    0.23    0.34 
   3   2  11    0.29    0.39 
  -4  -2 -11   -0.01    0.40 
  -4  -2 -11    0.69    0.47 
   4  -2  11    0.53    0.67 
  -4  -2 -11    0.31    0.48 
   4  -2  11    0.32    0.50 
   4  -2  11    0.04    0.45 
   4  -2  11    0.71    0.57 
  -4   2 -11    1.17    0.66 
  -4   2 -11    0.11    0.48 
   4   2  11    0.07    0.39 
  -4   2 -11    0.40    0.67 
  -4   2 -11   -0.67    0.51 
   4   2  11   -0.42    0.40 
   5  -2  11    0.01    0.79 
  -5  -2 -11    0.62    0.56 
   5  -2  11   -0.38    0.55 
   5  -2  11    0.14    0.64 
  -5  -2 -11    0.08    0.51 
  -5  -2 -11   -0.26    0.45 
   5  -2  11    0.52    0.55 
  -5   2 -11    0.71    0.52 
   5   2  11    0.15    0.50 
  -5   2 -11   -0.64    0.56 
  -5   2 -11    0.29    0.55 
  -5   2 -11    0.93    0.77 
   5   2  11   -0.02    0.46 
   5   2  11    0.26    0.52 
   6  -2  11    1.07    0.66 
  -6  -2 -11    1.24    0.65 
   6   2  11    0.78    0.52 
  -6   2 -11    0.50    0.61 
  -6   2 -11    0.41    0.79 
   7  -2  11    0.46    0.78 
  -7  -2 -11   -0.46    0.67 
  -7   2 -11    0.19    0.85 
   7   2  11    0.66    0.58 
  -8  -3  11    1.35    0.35 
  -8  -3  11    1.16    0.34 
   8  -3 -11    0.36    0.80 
  -8   3  11    0.75    0.98 
   7  -3 -11    2.89    0.66 
  -7  -3  11    2.30    0.36 
   7   3 -11    2.30    0.36 
  -7   3  11    2.79    0.96 
   7   3 -11    1.86    0.29 
  -6  -3  11    6.66    0.53 
   6  -3 -11    6.73    1.09 
   6  -3 -11    7.81    1.09 
  -6  -3  11    7.68    0.56 
   6  -3 -11    6.79    1.20 
   6  -3 -11    5.56    0.84 
  -6   3  11    7.42    1.25 
  -6   3  11    7.93    1.18 
  -6   3  11    5.92    1.03 
  -6   3  11    6.94    1.22 
   6   3 -11    6.75    0.45 
   6   3 -11    6.75    0.48 
  -5  -3  11   19.49    0.76 
   5  -3 -11   22.14    1.29 
   5  -3 -11   19.22    1.22 
  -5  -3  11   19.43    0.72 
   5  -3 -11   20.70    1.19 
   5  -3 -11   18.56    1.23 
   5   3 -11   18.48    0.68 
   5   3 -11   17.58    0.69 
  -5   3  11   19.61    1.25 
  -5   3  11   19.34    1.22 
  -5   3  11   17.84    1.26 
   4  -3 -11   17.13    1.11 
   4  -3 -11   16.12    1.11 
  -4  -3  11   16.61    0.74 
  -4  -3  11   17.28    0.58 
   4  -3 -11   17.37    1.12 
   4  -3 -11   19.13    1.12 
  -4  -3  11   16.27    0.54 
  -4  -3  11   17.30    0.67 
  -4   3  11   16.37    1.12 
   4   3 -11   16.95    0.69 
  -4   3  11   16.03    1.07 
   4   3 -11   16.38    0.64 
  -4   3  11   18.03    1.07 
  -4   3  11   16.50    1.04 
   3  -3 -11    1.13    0.47 
  -3  -3  11    1.03    0.33 
   3  -3 -11    0.51    0.41 
  -3  -3  11    0.80    0.26 
   3  -3 -11    0.79    0.49 
   3  -3 -11    0.81    0.46 
  -3  -3  11    1.04    0.25 
  -3  -3  11    1.04    0.27 
   3   3 -11    0.66    0.26 
   3   3 -11    0.49    0.24 
   3   3 -11    1.01    0.27 
   3   3 -11    0.83    0.27 
  -3   3  11    1.40    0.46 
  -3   3  11    0.30    0.54 
  -3   3  11    0.01    0.42 
  -3   3  11    0.65    0.43 
   2  -3 -11    1.35    0.43 
   2  -3 -11    0.83    0.43 
   2  -3 -11    0.48    0.39 
  -2  -3  11    0.43    0.27 
   2  -3 -11    1.06    0.39 
  -2  -3  11    0.73    0.34 
   2   3 -11    1.07    0.41 
  -2   3  11    0.70    0.44 
   2   3 -11    0.65    0.30 
  -2   3  11    0.95    0.49 
  -2   3  11    1.57    0.61 
   2   3 -11    0.81    0.29 
  -2   3  11    1.21    0.41 
  -1  -3  11   24.37    0.89 
   1  -3 -11   25.20    1.10 
  -1  -3  11   24.29    0.96 
   1  -3 -11   24.49    1.14 
  -1  -3  11   25.58    1.05 
  -1  -3  11   24.60    1.04 
   1  -3 -11   25.99    1.09 
   1  -3 -11   25.00    1.07 
   1   3 -11   25.41    0.99 
  -1   3  11   25.40    1.06 
   1   3 -11   23.53    0.94 
   1   3 -11   26.01    0.93 
   1   3 -11   24.10    0.97 
  -1   3  11   24.86    1.10 
  -1   3  11   24.56    1.13 
   0  -3  11   14.35    0.87 
   0  -3 -11   14.59    0.86 
   0  -3 -11   14.24    0.87 
   0  -3 -11   14.74    0.94 
   0  -3  11   13.79    0.81 
   0  -3  11   14.24    0.81 
   0  -3 -11   16.09    0.88 
   0  -3  11   14.69    0.77 
   0   3 -11   14.36    0.83 
   0   3  11   12.60    0.84 
   0   3 -11   13.82    0.80 
   0   3  11   13.92    0.91 
   0   3 -11   14.33    0.77 
   0   3  11   13.93    0.82 
   0   3  11   12.27    1.04 
   1  -3  11    6.41    0.81 
  -1  -3 -11    6.95    0.81 
  -1  -3 -11    5.69    0.71 
  -1  -3 -11    5.78    0.73 
   1  -3  11    7.31    0.75 
   1  -3  11    6.28    0.75 
   1  -3  11    6.18    0.67 
  -1  -3 -11    6.65    0.73 
  -1   3 -11    6.41    0.70 
   1   3  11    6.79    0.70 
   1   3  11    6.25    0.72 
  -1   3 -11    6.75    0.78 
   1   3  11    6.32    0.77 
  -1   3 -11    6.64    0.76 
   1   3  11    5.70    0.73 
   2  -3  11    0.21    0.44 
  -2  -3 -11    0.16    0.36 
   2  -3  11   -0.01    0.51 
  -2  -3 -11    0.11    0.41 
  -2  -3 -11   -0.42    0.51 
  -2  -3 -11    0.12    0.39 
   2  -3  11   -0.05    0.40 
   2   3  11   -0.83    0.63 
  -2   3 -11   -0.05    0.37 
   2   3  11   -0.04    0.41 
  -2   3 -11    0.30    0.45 
   2   3  11   -0.25    0.35 
  -2   3 -11    0.29    0.46 
   3  -3  11   12.62    1.00 
  -3  -3 -11   12.00    0.91 
   3  -3  11   11.09    1.08 
  -3  -3 -11   14.99    1.03 
  -3  -3 -11   13.64    0.91 
   3  -3  11   11.74    1.17 
   3  -3  11   13.75    0.99 
  -3   3 -11   14.52    1.19 
  -3   3 -11   13.40    1.05 
   3   3  11   13.05    0.90 
  -3   3 -11   14.40    1.15 
   3   3  11   13.45    0.87 
   3   3  11   13.30    0.95 
  -3   3 -11   13.46    1.03 
  -4  -3 -11    0.43    0.47 
  -4  -3 -11    0.20    0.51 
   4  -3  11    0.31    0.50 
  -4  -3 -11    0.53    0.43 
   4  -3  11    0.40    0.54 
   4  -3  11    1.01    0.79 
   4  -3  11    0.42    0.58 
  -4   3 -11    0.26    0.54 
  -4   3 -11   -0.56    0.52 
  -4   3 -11   -0.49    0.57 
  -4   3 -11    1.48    0.74 
   4   3  11   -0.32    0.44 
   4   3  11    0.59    0.51 
   5  -3  11    2.54    1.72 
   5  -3  11    4.71    0.83 
   5  -3  11    3.39    1.11 
  -5  -3 -11    3.66    0.68 
   5  -3  11    3.41    0.72 
  -5   3 -11    2.72    0.73 
  -5   3 -11    4.72    0.87 
   5   3  11    4.51    0.66 
  -6  -3 -11   -1.15    0.62 
  -6   3 -11    0.54    0.92 
   6   3  11   -0.36    0.54 
   7  -4 -11    5.00    1.00 
  -7   4  11    1.22    0.92 
   6  -4 -11   10.20    1.36 
   6  -4 -11   11.06    1.46 
  -6   4  11    8.24    1.40 
  -6   4  11   11.74    1.54 
  -6   4  11   10.44    1.32 
   5  -4 -11   11.74    1.35 
  -5  -4  11    8.99    0.50 
   5  -4 -11    8.19    1.24 
   5  -4 -11    9.56    1.28 
  -5  -4  11    9.10    0.54 
   5  -4 -11    8.41    1.26 
  -5   4  11   10.52    1.21 
  -5   4  11    8.97    1.32 
   5   4 -11    8.68    0.39 
   5   4 -11    8.54    0.40 
  -5   4  11    7.53    1.37 
   4  -4 -11    2.26    0.75 
   4  -4 -11    0.72    0.59 
   4  -4 -11    1.95    0.68 
  -4  -4  11    1.28    0.35 
  -4  -4  11    0.57    0.28 
   4  -4 -11    1.63    0.69 
  -4   4  11    1.83    0.72 
   4   4 -11    0.91    0.28 
  -4   4  11    0.33    0.65 
   4   4 -11    1.29    0.26 
  -4   4  11    1.27    0.70 
  -4   4  11    0.41    0.54 
   3  -4 -11    7.44    1.07 
  -3  -4  11    8.20    0.66 
  -3  -4  11    7.33    0.47 
  -3  -4  11    7.69    0.56 
   3  -4 -11    7.81    1.00 
   3  -4 -11    8.94    1.05 
   3  -4 -11    8.32    0.99 
  -3   4  11    9.00    0.99 
  -3   4  11    8.81    1.02 
  -3   4  11    8.23    1.06 
  -3   4  11    5.64    0.75 
   3   4 -11    8.50    0.54 
   3   4 -11    8.07    0.60 
  -2  -4  11   11.71    0.69 
   2  -4 -11   12.62    1.00 
   2  -4 -11   12.75    1.06 
   2  -4 -11   12.04    1.05 
  -2  -4  11   11.61    0.80 
   2  -4 -11   14.56    1.08 
  -2  -4  11   13.14    0.64 
  -2   4  11   11.90    1.02 
  -2   4  11   11.24    0.96 
   2   4 -11   12.88    0.68 
  -2   4  11   12.15    0.99 
   2   4 -11   11.93    0.74 
   2   4 -11   11.94    0.68 
  -2   4  11   11.41    1.11 
  -1  -4  11    0.30    0.37 
   1  -4 -11    0.86    0.52 
  -1  -4  11    0.61    0.43 
  -1  -4  11    0.10    0.33 
   1  -4 -11    0.81    0.47 
   1  -4 -11    0.31    0.50 
   1   4 -11    0.55    0.33 
  -1   4  11   -0.20    0.44 
  -1   4  11    0.65    0.62 
   1   4 -11    0.92    0.37 
  -1   4  11    0.11    0.44 
  -1   4  11    0.95    0.57 
   1   4 -11    0.46    0.38 
   0  -4  11   11.42    0.78 
   0  -4  11   10.74    0.89 
   0  -4  11   10.57    0.82 
   0  -4 -11   10.85    0.92 
   0  -4 -11   10.95    0.88 
   0   4  11   10.53    0.94 
   0   4  11   10.01    0.88 
   0   4 -11   11.20    0.89 
   0   4  11   12.75    0.90 
   0   4 -11   10.16    0.84 
   0   4 -11   10.68    0.80 
  -1  -4 -11    2.41    0.55 
  -1  -4 -11    3.19    0.54 
   1  -4  11    2.04    0.57 
  -1  -4 -11    2.42    0.58 
   1  -4  11    1.55    0.43 
   1  -4  11    2.10    0.52 
   1   4  11    2.50    0.52 
   1   4  11    2.11    0.51 
  -1   4 -11    2.37    0.56 
  -1   4 -11    2.34    0.50 
  -2  -4 -11    1.65    0.47 
   2  -4  11    2.00    0.56 
   2  -4  11    2.31    0.62 
   2  -4  11    0.34    0.45 
  -2  -4 -11    0.66    0.54 
  -2  -4 -11    1.90    0.55 
   2   4  11    1.45    0.50 
  -2   4 -11    1.15    0.62 
  -2   4 -11    1.14    0.49 
  -2   4 -11    1.61    0.56 
   2   4  11    1.77    0.55 
  -3  -4 -11    6.26    0.96 
   3  -4  11    6.35    1.02 
  -3   4 -11    6.16    0.79 
  -3   4 -11    5.01    0.84 
   3   4  11    5.97    0.87 
  -4  -4 -11    0.02    0.57 
   4  -4  11   -0.60    0.62 
   4   4  11   -0.14    0.47 
  -4   4 -11   -0.01    0.59 
  -5  -4 -11    1.11    0.69 
   5  -4  11    0.60    0.77 
  -5   4 -11    0.57    0.78 
   5   4  11    0.82    0.57 
   5  -5 -11    5.58    1.09 
  -5   5  11    4.59    0.97 
   4  -5 -11    5.32    1.01 
  -4  -5  11    5.70    0.60 
  -4  -5  11    4.98    0.51 
   4   5 -11    5.34    0.43 
   4   5 -11    5.39    0.47 
  -4   5  11    5.23    0.92 
   3  -5 -11    8.90    1.29 
  -3  -5  11    8.49    0.65 
  -3  -5  11    9.37    0.77 
   3   5 -11    9.34    0.61 
   3   5 -11    9.43    0.69 
  -3   5  11    9.56    1.17 
  -2  -5  11   21.37    0.96 
   2  -5 -11   23.04    1.46 
  -2  -5  11   22.36    1.07 
  -2  -5  11   23.06    0.86 
   2   5 -11   23.34    0.93 
  -2   5  11   21.74    1.34 
   2   5 -11   22.21    0.80 
   2   5 -11   22.93    1.04 
   1  -5 -11    1.72    0.66 
  -1  -5  11    1.41    0.47 
   1   5 -11    0.89    0.48 
  -1   5  11    1.71    0.62 
   1   5 -11    1.32    0.43 
   0  -5 -11   -0.27    0.59 
   0  -5  11   -0.54    0.42 
   0   5  11   -0.22    0.51 
   0   5 -11    0.04    0.43 
  -1  -5 -11   -0.58    0.56 
   1  -5  11    0.48    0.51 
   1   5  11    0.55    0.54 
  -1   5 -11    0.15    0.49 
   2  -5  11    0.84    0.56 
   2   5  11    0.10    0.53 
  -2   5 -11    0.01    0.54 
   3  -5  11   10.42    1.27 
  -3  -5 -11   12.37    1.25 
  -3   5 -11   11.65    1.28 
   9   0 -12    1.33    0.59 
  -9   0  12    1.39    0.67 
   8   0 -12   12.41    0.99 
  -8   0  12   13.21    1.09 
   7   0 -12   27.70    1.24 
  -7   0  12   28.39    1.27 
  -7   0  12   29.30    1.19 
   7   0 -12   29.81    1.23 
  -7   0  12   29.51    1.26 
   7   0 -12   30.54    1.19 
   6   0 -12   22.40    0.98 
  -6   0  12   22.43    1.08 
   6   0 -12   22.29    1.05 
  -6   0  12   22.73    1.05 
   6   0 -12   23.54    1.07 
  -6   0  12   22.93    1.00 
   5   0 -12   66.61    1.85 
  -5   0  12   67.40    1.75 
   5   0 -12   67.22    1.87 
  -5   0  12   65.51    1.85 
  -5   0  12   70.11    1.90 
  -5   0  12   65.12    1.80 
   5   0 -12   65.77    1.76 
   4   0 -12   21.04    0.90 
  -4   0  12   19.63    0.89 
  -4   0  12   19.08    0.84 
   4   0 -12   19.42    0.84 
   4   0 -12   20.62    0.85 
  -4   0  12   20.70    0.93 
   4   0 -12   18.52    1.03 
  -4   0  12   20.19    0.82 
  -3   0  12    4.77    0.53 
   3   0 -12    4.63    0.52 
  -3   0  12    5.00    0.52 
   3   0 -12    4.31    0.55 
   3   0 -12    4.95    0.53 
  -3   0  12    5.49    0.59 
   3   0 -12    4.40    0.53 
  -3   0  12    4.21    0.52 
  -2   0  12   71.06    1.79 
   2   0 -12   65.92    1.75 
   2   0 -12   66.32    1.76 
   2   0 -12   67.38    1.76 
   2   0 -12   68.95    1.84 
  -2   0  12   67.19    1.78 
  -2   0  12   67.12    1.82 
  -2   0  12   67.63    1.74 
   1   0 -12   28.42    1.00 
   1   0 -12   29.21    1.01 
  -1   0  12   29.32    1.06 
   1   0 -12   28.92    1.06 
  -1   0  12   28.43    1.02 
  -1   0  12   28.84    1.01 
   1   0 -12   29.30    1.01 
  -1   0  12   29.31    1.00 
   0   0 -12   41.24    1.26 
   0   0  12   40.14    1.32 
   0   0  12   40.21    1.28 
   0   0 -12   40.43    1.27 
   0   0 -12   39.69    1.31 
   0   0 -12   41.75    1.28 
   0   0  12   40.57    1.27 
   1   0  12   92.82    2.42 
   1   0  12   95.81    2.40 
   1   0  12   98.81    2.47 
   1   0  12   94.52    2.41 
  -1   0 -12   99.85    2.42 
  -1   0 -12   98.88    2.41 
  -1   0 -12   96.45    2.44 
  -2   0 -12   62.89    1.79 
   2   0  12   58.82    1.80 
   2   0  12   60.26    1.75 
  -2   0 -12   60.33    1.74 
   2   0  12   61.04    1.76 
  -2   0 -12   58.73    1.81 
  -3   0 -12   35.35    1.60 
   3   0  12   38.60    1.38 
   3   0  12   41.58    1.52 
   3   0  12   38.78    1.39 
  -3   0 -12   39.47    1.45 
  -3   0 -12   39.15    1.45 
  -3   0 -12   40.53    1.39 
   3   0  12   37.92    1.39 
  -4   0 -12   16.95    1.16 
   4   0  12   18.13    1.04 
   4   0  12   16.41    1.05 
  -4   0 -12   15.79    1.13 
  -4   0 -12   16.30    0.99 
  -4   0 -12   17.36    1.13 
   4   0  12   14.63    1.13 
   4   0  12   16.90    1.00 
  -5   0 -12   12.74    1.03 
   5   0  12   13.54    1.00 
   5   0  12   14.72    1.15 
  -5   0 -12   13.33    1.23 
  -5   0 -12   14.60    1.20 
   5   0  12   11.59    1.15 
   6   0  12   17.67    1.29 
  -6   0 -12   20.39    1.40 
  -7   0 -12   14.58    1.47 
   7   0  12   10.19    1.31 
   9  -1 -12   13.12    1.29 
  -9  -1  12   12.19    1.07 
  -9   1  12   10.81    1.36 
   9   1 -12   11.25    0.97 
  -8  -1  12   24.51    1.20 
   8  -1 -12   24.37    1.35 
   8   1 -12   24.88    1.11 
   8   1 -12   24.66    1.10 
  -8   1  12   24.88    1.42 
   7  -1 -12   17.38    1.12 
  -7  -1  12   15.98    0.91 
   7  -1 -12   14.41    1.04 
  -7  -1  12   15.86    0.84 
  -7  -1  12   14.19    0.91 
   7  -1 -12   18.09    1.11 
   7   1 -12   15.55    0.89 
  -7   1  12   17.16    1.13 
  -7   1  12   16.82    1.14 
   7   1 -12   16.50    0.90 
   7   1 -12   16.16    0.82 
  -7   1  12   16.27    1.02 
   6  -1 -12   13.50    0.92 
  -6  -1  12   12.96    0.73 
   6  -1 -12   13.00    0.94 
  -6  -1  12   13.04    0.78 
  -6  -1  12   12.62    0.80 
  -6   1  12   12.53    0.96 
   6   1 -12   13.84    0.71 
   6   1 -12   12.57    0.77 
  -6   1  12   12.05    0.97 
  -6   1  12   12.51    0.87 
   6   1 -12   13.93    0.80 
   5  -1 -12   17.30    1.02 
  -5  -1  12   15.78    0.98 
   5  -1 -12   16.73    0.93 
  -5  -1  12   18.65    0.84 
  -5  -1  12   16.02    0.77 
   5  -1 -12   18.99    1.00 
   5  -1 -12   16.83    0.93 
  -5   1  12   17.76    0.97 
   5   1 -12   17.49    0.77 
   5   1 -12   17.11    0.81 
  -5   1  12   17.46    0.90 
   5   1 -12   17.45    0.86 
  -5   1  12   18.42    0.98 
  -5   1  12   17.24    0.92 
  -4  -1  12   35.47    1.11 
   4  -1 -12   36.41    1.24 
   4  -1 -12   36.22    1.22 
  -4  -1  12   34.90    1.05 
   4  -1 -12   37.82    1.66 
  -4  -1  12   37.01    1.15 
  -4  -1  12   35.63    1.16 
   4  -1 -12   35.43    1.27 
  -4   1  12   36.80    1.58 
   4   1 -12   34.88    1.09 
   4   1 -12   33.53    1.07 
  -4   1  12   35.01    1.21 
  -4   1  12   34.21    1.28 
   4   1 -12   34.25    1.13 
   4   1 -12   34.41    1.11 
  -4   1  12   34.73    1.29 
  -3  -1  12   87.47    2.07 
   3  -1 -12   87.72    2.23 
   3  -1 -12   89.47    2.21 
   3  -1 -12   90.29    2.22 
  -3  -1  12   83.92    2.13 
  -3  -1  12   85.62    2.09 
   3  -1 -12   85.29    2.26 
  -3  -1  12   86.52    2.12 
  -3   1  12   85.38    2.23 
   3   1 -12   84.99    2.10 
  -3   1  12   87.64    2.17 
   3   1 -12   84.55    2.13 
   3   1 -12   82.82    2.07 
  -3   1  12   85.66    2.26 
   3   1 -12   88.34    2.10 
  -2  -1  12   34.38    1.10 
  -2  -1  12   31.20    1.03 
   2  -1 -12   33.13    1.13 
  -2  -1  12   32.39    1.07 
   2  -1 -12   31.93    1.13 
  -2  -1  12   32.95    1.04 
   2  -1 -12   34.45    1.14 
   2  -1 -12   33.37    1.19 
  -2   1  12   32.00    1.14 
  -2   1  12   33.65    1.19 
   2   1 -12   33.06    1.07 
   2   1 -12   30.12    1.21 
   2   1 -12   31.80    1.04 
  -2   1  12   31.29    1.09 
   2   1 -12   32.19    1.18 
  -2   1  12   32.12    1.13 
  -1  -1  12   10.23    0.63 
  -1  -1  12    8.65    0.64 
   1  -1 -12   10.81    0.69 
  -1  -1  12    9.44    0.60 
   1  -1 -12    8.88    0.70 
   1  -1 -12   10.06    0.65 
  -1  -1  12    9.44    0.61 
   1  -1 -12   10.68    0.71 
   1   1 -12    9.33    0.62 
  -1   1  12    9.55    0.68 
   1   1 -12    9.85    0.68 
   1   1 -12   10.64    0.66 
  -1   1  12   11.11    0.76 
   1   1 -12    9.74    0.60 
  -1   1  12    9.14    0.66 
  -1   1  12    9.02    0.65 
   0  -1  12   67.61    1.81 
   0  -1 -12   67.20    1.82 
   0  -1  12   68.13    1.80 
   0  -1 -12   63.87    1.78 
   0  -1 -12   63.62    1.86 
   0  -1  12   66.01    1.83 
   0  -1 -12   67.63    2.10 
   0   1  12   65.49    1.81 
   0   1 -12   70.10    1.80 
   0   1 -12   64.86    1.78 
   0   1 -12   71.41    1.87 
   0   1  12   68.65    1.79 
   0   1  12   63.19    1.80 
  -1  -1 -12   65.74    1.80 
   1  -1  12   61.90    1.80 
   1  -1  12   67.89    1.83 
   1  -1  12   64.29    1.79 
  -1  -1 -12   66.98    1.82 
   1  -1  12   64.85    1.87 
  -1  -1 -12   63.61    1.82 
  -1  -1 -12   62.94    1.87 
  -1   1 -12   65.05    1.86 
   1   1  12   69.51    1.88 
   1   1  12   68.25    1.85 
   1   1  12   66.27    1.83 
  -1   1 -12   67.84    1.88 
  -1   1 -12   63.05    1.79 
   1   1  12   65.30    1.78 
  -1   1 -12   64.42    1.82 
  -2  -1 -12   42.01    1.49 
   2  -1  12   43.22    1.51 
  -2  -1 -12   42.64    1.44 
  -2  -1 -12   42.37    1.38 
   2  -1  12   42.88    1.44 
   2  -1  12   42.00    1.42 
   2  -1  12   43.16    1.42 
  -2   1 -12   44.19    1.49 
  -2   1 -12   39.81    1.44 
  -2   1 -12   42.96    1.46 
   2   1  12   43.52    1.49 
  -2   1 -12   44.26    1.43 
   2   1  12   43.39    1.42 
   2   1  12   41.66    1.41 
   2   1  12   44.72    1.41 
  -3  -1 -12   40.69    1.47 
   3  -1  12   39.89    1.56 
  -3  -1 -12   39.00    1.44 
   3  -1  12   39.01    1.45 
   3  -1  12   40.22    1.45 
  -3  -1 -12   39.01    1.48 
  -3  -1 -12   40.22    1.40 
   3   1  12   38.42    1.40 
   3   1  12   39.36    1.41 
   3   1  12   38.81    1.41 
  -3   1 -12   40.76    1.52 
  -3   1 -12   40.23    1.48 
  -3   1 -12   41.08    1.53 
  -3   1 -12   40.43    1.42 
   3   1  12   39.28    1.51 
   4  -1  12   20.77    1.36 
  -4  -1 -12   21.11    1.21 
   4  -1  12   21.47    1.15 
  -4  -1 -12   20.24    1.09 
  -4  -1 -12   20.64    1.26 
   4  -1  12   21.35    1.24 
   4  -1  12   19.55    1.12 
  -4  -1 -12   21.03    1.19 
   4   1  12   20.97    1.14 
  -4   1 -12   21.37    1.22 
   4   1  12   21.76    1.13 
   4   1  12   21.89    1.15 
   4   1  12   19.36    1.21 
  -4   1 -12   20.97    1.25 
  -4   1 -12   20.30    1.12 
  -4   1 -12   19.32    1.30 
   5  -1  12   16.12    1.17 
   5  -1  12   14.55    1.43 
   5  -1  12   14.29    1.15 
  -5  -1 -12   14.53    1.18 
  -5  -1 -12   13.95    1.14 
   5  -1  12   17.48    1.34 
   5   1  12   14.44    1.10 
  -5   1 -12   13.71    1.23 
   5   1  12   14.81    1.23 
   5   1  12   13.36    1.08 
  -5   1 -12   13.78    1.13 
  -5   1 -12   12.63    1.32 
  -5   1 -12   15.92    1.39 
  -6  -1 -12   15.74    1.32 
   6  -1  12   15.53    1.33 
  -6   1 -12   14.79    1.41 
   6   1  12   16.17    1.22 
  -7  -1 -12    3.87    0.82 
   7  -1  12    4.53    0.89 
  -7   1 -12    3.62    0.90 
   7   1  12    3.76    0.76 
  -8  -2  12    4.24    0.58 
  -8  -2  12    3.97    0.72 
   8  -2 -12    3.90    0.74 
   8   2 -12    4.73    0.64 
   8   2 -12    4.68    0.67 
  -8   2  12    4.35    0.89 
   7  -2 -12   10.76    1.68 
   7  -2 -12   12.62    1.21 
  -7  -2  12   10.83    0.78 
  -7  -2  12   12.34    0.76 
  -7  -2  12   10.72    0.56 
  -7   2  12    9.79    1.29 
  -7   2  12   11.81    1.36 
   7   2 -12   10.78    0.66 
   7   2 -12   12.69    0.73 
  -6  -2  12   42.82    1.31 
  -6  -2  12   45.08    1.18 
  -6  -2  12   43.68    1.30 
   6  -2 -12   42.68    1.69 
   6  -2 -12   44.22    1.68 
   6  -2 -12   46.76    1.70 
   6   2 -12   42.93    1.28 
  -6   2  12   43.97    1.60 
   6   2 -12   43.07    1.12 
  -6   2  12   42.64    1.70 
  -6   2  12   45.09    1.77 
  -6   2  12   48.72    2.03 
   6   2 -12   42.91    1.23 
   5  -2 -12   18.63    1.09 
  -5  -2  12   19.35    0.80 
  -5  -2  12   18.02    0.79 
   5  -2 -12   19.34    1.06 
   5  -2 -12   19.26    1.13 
   5  -2 -12   19.69    1.15 
  -5  -2  12   20.05    0.75 
   5   2 -12   18.96    0.74 
  -5   2  12   17.91    1.13 
   5   2 -12   19.36    0.75 
  -5   2  12   19.42    1.07 
  -5   2  12   18.47    1.14 
   5   2 -12   19.02    0.79 
  -5   2  12   17.83    1.02 
  -4  -2  12   17.42    0.75 
  -4  -2  12   17.44    0.72 
   4  -2 -12   17.64    1.01 
   4  -2 -12   17.96    1.00 
   4  -2 -12   18.91    1.03 
   4  -2 -12   18.07    1.07 
  -4  -2  12   18.86    0.78 
   4   2 -12   18.63    0.76 
  -4   2  12   18.80    0.98 
  -4   2  12   17.98    1.01 
   4   2 -12   15.89    0.74 
  -4   2  12   18.23    1.08 
   4   2 -12   17.32    0.73 
   4   2 -12   18.47    0.72 
  -4   2  12   19.56    0.98 
   3  -2 -12   34.70    1.29 
   3  -2 -12   33.50    1.33 
  -3  -2  12   32.76    1.29 
  -3  -2  12   34.16    1.04 
   3  -2 -12   35.38    1.28 
  -3  -2  12   36.52    1.21 
  -3  -2  12   34.51    1.08 
   3  -2 -12   34.55    1.26 
   3   2 -12   34.97    1.09 
  -3   2  12   35.91    1.39 
  -3   2  12   34.65    1.31 
   3   2 -12   34.64    1.06 
  -3   2  12   35.19    1.28 
  -3   2  12   35.60    1.29 
   3   2 -12   35.15    1.07 
   3   2 -12   37.39    1.23 
  -2  -2  12   45.82    1.35 
  -2  -2  12   46.78    1.31 
   2  -2 -12   41.92    1.41 
   2  -2 -12   44.63    1.44 
   2  -2 -12   43.63    1.44 
  -2  -2  12   43.98    1.30 
  -2  -2  12   43.37    1.26 
   2  -2 -12   46.33    1.53 
  -2   2  12   44.28    1.47 
  -2   2  12   44.30    1.46 
   2   2 -12   44.23    1.27 
  -2   2  12   46.32    1.51 
   2   2 -12   44.34    1.33 
   2   2 -12   44.14    1.30 
   2   2 -12   45.75    1.31 
  -2   2  12   44.82    1.41 
   1  -2 -12  142.04    3.29 
  -1  -2  12  141.23    3.21 
  -1  -2  12  140.20    3.22 
   1  -2 -12  140.62    3.38 
   1  -2 -12  136.38    3.29 
   1  -2 -12  139.92    3.29 
  -1  -2  12  135.89    3.25 
  -1  -2  12  140.41    3.17 
  -1   2  12  139.12    3.34 
  -1   2  12  144.67    3.27 
   1   2 -12  140.85    3.22 
  -1   2  12  139.59    3.32 
  -1   2  12  140.74    3.31 
   1   2 -12  138.14    3.23 
   1   2 -12  141.79    3.20 
   0  -2 -12   36.81    1.26 
   0  -2 -12   35.32    1.33 
   0  -2 -12   36.98    1.27 
   0  -2  12   37.36    1.22 
   0  -2  12   36.20    1.20 
   0  -2 -12   35.76    1.27 
   0  -2  12   36.04    1.30 
   0  -2  12   35.57    1.22 
   0   2 -12   34.87    1.22 
   0   2 -12   36.19    1.22 
   0   2  12   37.49    1.26 
   0   2 -12   36.51    1.24 
   0   2  12   36.79    1.26 
   0   2 -12   37.59    1.28 
   0   2  12   34.83    1.26 
   0   2  12   36.89    1.31 
  -1  -2 -12    0.13    0.31 
  -1  -2 -12    0.15    0.27 
  -1  -2 -12    0.20    0.39 
   1  -2  12    1.07    0.41 
   1  -2  12    0.53    0.38 
  -1  -2 -12    0.33    0.37 
   1  -2  12    0.32    0.44 
   1   2  12    0.42    0.41 
   1   2  12    0.50    0.36 
   1   2  12    0.51    0.37 
  -1   2 -12    0.67    0.43 
  -1   2 -12    0.46    0.36 
   1   2  12    0.23    0.33 
  -1   2 -12    0.70    0.36 
   2  -2  12   39.86    1.52 
   2  -2  12   38.18    1.36 
   2  -2  12   39.25    1.40 
  -2  -2 -12   36.95    1.37 
  -2  -2 -12   39.81    1.39 
  -2  -2 -12   36.89    1.43 
   2  -2  12   39.77    1.43 
  -2  -2 -12   38.26    1.37 
  -2   2 -12   41.45    1.50 
   2   2  12   37.92    1.37 
  -2   2 -12   37.69    1.41 
  -2   2 -12   39.49    1.46 
  -2   2 -12   40.31    1.38 
   2   2  12   40.44    1.46 
   2   2  12   39.11    1.34 
   3  -2  12   45.01    1.56 
   3  -2  12   46.86    1.63 
  -3  -2 -12   45.06    1.54 
   3  -2  12   47.56    1.76 
   3  -2  12   47.50    1.68 
  -3  -2 -12   45.63    1.59 
  -3  -2 -12   39.30    2.30 
  -3  -2 -12   45.70    1.53 
  -3   2 -12   45.03    1.72 
   3   2  12   46.79    1.63 
  -3   2 -12   46.78    1.61 
  -3   2 -12   46.52    1.66 
   3   2  12   43.71    1.78 
  -3   2 -12   46.74    1.76 
   3   2  12   48.58    1.58 
   3   2  12   44.97    1.53 
   4  -2  12   31.13    1.41 
  -4  -2 -12   29.36    1.40 
   4  -2  12   31.75    1.62 
   4  -2  12   30.68    1.52 
  -4  -2 -12   26.91    1.35 
  -4  -2 -12   29.90    1.27 
   4  -2  12   29.36    1.35 
  -4   2 -12   29.88    1.56 
  -4   2 -12   26.44    1.54 
   4   2  12   26.73    1.25 
   4   2  12   27.93    1.27 
  -4   2 -12   29.49    1.36 
   4   2  12   29.63    1.29 
  -4   2 -12   29.17    1.45 
   5  -2  12   16.62    1.28 
   5  -2  12   20.16    1.45 
   5  -2  12   16.01    1.61 
  -5  -2 -12   17.41    1.27 
   5  -2  12   17.95    1.32 
  -5   2 -12   18.67    1.56 
  -5   2 -12   17.75    1.42 
   5   2  12   16.27    1.17 
  -5   2 -12   19.68    1.33 
  -6  -2 -12    3.46    0.79 
   6  -2  12    3.72    0.91 
   6  -2  12    2.87    0.77 
  -6   2 -12    1.67    0.79 
  -6   2 -12    1.89    1.04 
   6   2  12    3.35    0.68 
  -8  -3  12    9.44    0.71 
   8  -3 -12   12.68    1.46 
  -8  -3  12   11.12    0.66 
   8   3 -12    8.66    0.54 
  -8   3  12    9.84    1.59 
   8   3 -12    9.44    0.48 
   7  -3 -12   12.76    1.35 
  -7  -3  12   11.29    0.69 
   7   3 -12   11.08    0.56 
   7   3 -12   10.07    0.59 
  -7   3  12   11.47    1.53 
   6  -3 -12   10.88    1.29 
   6  -3 -12   16.89    1.37 
  -6  -3  12   14.18    0.73 
  -6  -3  12   13.78    0.68 
   6  -3 -12   12.27    2.17 
   6   3 -12   13.96    0.65 
   6   3 -12   13.53    0.63 
  -6   3  12   13.69    1.22 
  -6   3  12   13.95    1.36 
   5  -3 -12   38.49    1.63 
   5  -3 -12   39.67    1.65 
   5  -3 -12   36.84    1.64 
  -5  -3  12   38.87    1.18 
   5  -3 -12   38.92    1.63 
  -5  -3  12   38.69    1.13 
  -5   3  12   39.89    1.69 
   5   3 -12   37.14    1.09 
   5   3 -12   38.54    1.12 
  -5   3  12   36.60    1.58 
  -5   3  12   38.84    1.67 
  -4  -3  12   63.82    1.46 
   4  -3 -12   60.95    1.97 
  -4  -3  12   60.34    1.63 
   4  -3 -12   60.26    2.00 
   4  -3 -12   61.71    1.94 
   4  -3 -12   60.33    2.03 
  -4  -3  12   58.96    1.55 
  -4   3  12   60.13    2.02 
  -4   3  12   61.31    2.01 
   4   3 -12   58.19    1.51 
  -4   3  12   61.58    1.93 
   4   3 -12   61.93    1.41 
  -4   3  12   59.83    1.92 
   4   3 -12   59.60    1.58 
   3  -3 -12   15.21    1.03 
   3  -3 -12   14.23    1.06 
  -3  -3  12   14.91    0.80 
  -3  -3  12   14.89    0.75 
   3  -3 -12   14.02    1.04 
   3  -3 -12   14.95    1.01 
  -3  -3  12   14.19    0.70 
  -3   3  12   15.05    1.00 
  -3   3  12   15.84    0.99 
   3   3 -12   13.48    0.66 
  -3   3  12   14.60    1.06 
   3   3 -12   14.39    0.73 
   3   3 -12   13.28    0.67 
  -3   3  12   13.84    1.00 
   2  -3 -12   17.60    1.05 
   2  -3 -12   16.13    1.01 
   2  -3 -12   16.68    1.06 
  -2  -3  12   16.99    0.78 
  -2  -3  12   17.44    0.77 
   2  -3 -12   17.50    1.03 
  -2  -3  12   17.99    0.90 
  -2   3  12   16.09    1.01 
   2   3 -12   17.54    0.82 
  -2   3  12   17.12    1.09 
  -2   3  12   16.21    0.98 
   2   3 -12   16.96    0.77 
   2   3 -12   17.77    0.79 
  -1  -3  12   43.52    1.31 
   1  -3 -12   47.86    1.54 
  -1  -3  12   43.27    1.36 
   1  -3 -12   45.17    1.49 
  -1  -3  12   44.04    1.47 
   1  -3 -12   44.87    1.60 
   1  -3 -12   43.13    1.50 
   1   3 -12   45.34    1.41 
  -1   3  12   45.45    1.54 
  -1   3  12   44.10    1.54 
   1   3 -12   43.42    1.35 
  -1   3  12   42.94    1.49 
   1   3 -12   44.62    1.37 
  -1   3  12   45.04    1.56 
   0  -3 -12   45.06    1.60 
   0  -3  12   41.53    1.41 
   0  -3  12   47.62    1.56 
   0  -3  12   44.49    1.38 
   0  -3 -12   45.67    1.52 
   0  -3 -12   44.74    1.50 
   0  -3  12   42.74    1.57 
   0  -3 -12   46.53    1.50 
   0   3 -12   43.91    1.45 
   0   3  12   44.84    1.51 
   0   3  12   44.05    1.46 
   0   3  12   43.30    1.52 
   0   3  12   43.44    1.55 
   0   3 -12   41.74    1.79 
   0   3 -12   44.11    1.48 
   1  -3  12   72.33    2.11 
   1  -3  12   69.44    1.93 
  -1  -3 -12   69.46    2.10 
   1  -3  12   64.48    1.98 
  -1  -3 -12   70.24    1.98 
  -1  -3 -12   71.35    2.01 
   1   3  12   71.05    2.07 
   1   3  12   70.43    2.02 
   1   3  12   67.91    2.04 
   1   3  12   70.75    1.97 
  -1   3 -12   66.43    1.99 
  -1   3 -12   65.53    2.03 
  -1   3 -12   71.87    2.05 
  -2  -3 -12    9.95    0.89 
  -2  -3 -12   10.89    0.97 
   2  -3  12    8.15    1.45 
   2  -3  12    9.58    0.96 
   2  -3  12    9.30    1.10 
  -2  -3 -12   10.01    0.89 
  -2   3 -12    9.12    1.00 
   2   3  12    9.05    0.90 
   2   3  12   10.95    0.85 
  -2   3 -12   10.34    1.03 
   2   3  12   10.73    0.92 
  -3  -3 -12    0.18    0.51 
   3  -3  12    0.51    0.48 
   3  -3  12    1.30    1.03 
  -3  -3 -12   -0.21    0.50 
   3  -3  12   -0.43    0.68 
  -3  -3 -12    0.30    0.46 
   3  -3  12    0.01    0.60 
  -3   3 -12    0.02    0.51 
  -3   3 -12    0.98    0.81 
   3   3  12    0.75    0.54 
  -3   3 -12    0.67    0.67 
   3   3  12    0.34    0.46 
   3   3  12    0.62    0.43 
   4  -3  12   28.38    1.67 
  -4  -3 -12   26.85    1.40 
   4  -3  12   27.28    1.42 
   4  -3  12   29.03    1.61 
  -4   3 -12   29.10    1.82 
  -4   3 -12   27.92    1.54 
  -4   3 -12   27.32    1.83 
   4   3  12   28.73    1.35 
  -5  -3 -12   22.95    1.42 
   5  -3  12   23.45    1.68 
   5  -3  12   23.67    1.54 
  -5   3 -12   23.53    1.56 
   5   3  12   21.03    1.31 
  -5   3 -12   22.39    1.63 
  -6  -3 -12    3.64    0.85 
   6   3  12    3.09    0.72 
   7  -4 -12   22.40    1.80 
  -7   4  12   23.87    1.99 
  -6  -4  12   15.14    0.60 
  -6  -4  12   14.66    0.58 
   6  -4 -12   15.98    1.59 
  -6   4  12   16.10    1.42 
  -6   4  12   16.13    2.96 
   5  -4 -12   12.58    1.43 
  -5  -4  12   12.23    0.62 
  -5  -4  12   13.18    0.69 
   5  -4 -12   13.94    1.38 
   5  -4 -12   13.99    1.40 
   5  -4 -12   15.96    1.42 
  -5   4  12   11.84    1.28 
   5   4 -12   12.73    0.60 
   5   4 -12   12.51    0.55 
  -5   4  12   14.09    1.48 
  -5   4  12   16.75    1.38 
  -5   4  12   15.67    1.50 
  -4  -4  12   24.44    0.86 
   4  -4 -12   23.27    1.44 
   4  -4 -12   21.78    1.47 
   4  -4 -12   25.14    1.52 
  -4  -4  12   24.46    0.97 
   4  -4 -12   27.27    1.52 
  -4   4  12   22.75    1.36 
   4   4 -12   24.12    0.81 
   4   4 -12   25.19    0.89 
  -4   4  12   23.11    1.45 
  -4   4  12   25.10    1.49 
  -4   4  12   26.42    1.58 
   3  -4 -12   36.76    1.58 
  -3  -4  12   37.86    1.04 
   3  -4 -12   36.59    1.62 
   3  -4 -12   39.20    1.69 
  -3  -4  12   37.01    1.27 
  -3  -4  12   36.81    1.15 
   3  -4 -12   34.70    1.61 
  -3   4  12   35.89    1.57 
   3   4 -12   37.90    1.12 
  -3   4  12   38.05    1.57 
  -3   4  12   38.32    1.65 
  -3   4  12   37.28    1.68 
   3   4 -12   37.22    0.98 
   3   4 -12   38.22    1.20 
   2  -4 -12   52.81    2.03 
   2  -4 -12   51.21    2.56 
   2  -4 -12   50.01    1.81 
   2  -4 -12   49.09    1.78 
  -2  -4  12   49.43    1.47 
  -2  -4  12   50.28    1.38 
  -2  -4  12   48.96    1.57 
  -2   4  12   48.50    1.84 
   2   4 -12   51.21    1.53 
   2   4 -12   49.61    1.40 
  -2   4  12   49.39    1.83 
   2   4 -12   48.34    1.42 
  -2   4  12   48.23    1.79 
  -2   4  12   50.71    1.75 
  -1  -4  12    6.21    0.69 
   1  -4 -12    9.56    0.96 
   1  -4 -12    6.67    0.99 
  -1  -4  12    7.05    0.86 
  -1  -4  12    6.65    0.66 
   1  -4 -12    7.10    0.95 
   1   4 -12    5.63    0.75 
  -1   4  12    8.05    0.91 
  -1   4  12    6.48    0.90 
   1   4 -12    6.02    0.69 
   1   4 -12    6.21    0.76 
  -1   4  12    5.72    0.92 
   0  -4 -12    5.75    0.90 
   0  -4 -12    5.85    0.91 
   0  -4 -12    5.41    0.91 
   0  -4  12    6.76    0.84 
   0  -4  12    6.57    0.79 
   0  -4  12    6.32    0.75 
   0   4 -12    5.97    0.85 
   0   4 -12    6.81    0.75 
   0   4 -12    6.77    0.86 
   0   4  12    7.86    0.91 
   0   4  12    6.71    0.96 
   1  -4  12   41.75    1.69 
   1  -4  12   43.82    1.61 
   1  -4  12   43.43    1.50 
  -1  -4 -12   45.43    1.73 
  -1  -4 -12   45.75    1.59 
  -1  -4 -12   45.86    1.60 
  -1   4 -12   45.55    1.68 
   1   4  12   43.78    1.54 
  -1   4 -12   43.08    1.57 
   1   4  12   44.00    1.62 
  -1   4 -12   43.54    1.57 
  -2  -4 -12   28.32    1.42 
   2  -4  12   28.99    1.41 
   2  -4  12   24.02    1.58 
   2   4  12   28.00    1.33 
  -2   4 -12   28.24    1.76 
  -2   4 -12   27.94    1.36 
  -3  -4 -12   20.45    1.34 
   3  -4  12   18.46    1.33 
   3   4  12   19.73    1.20 
  -3   4 -12   20.25    1.34 
  -4  -4 -12    2.13    0.72 
   4  -4  12    2.58    0.79 
  -4   4 -12    2.40    0.72 
   4   4  12    1.71    0.60 
  -5  -5  12   16.29    0.62 
   5  -5 -12   13.16    1.86 
  -5  -5  12   17.36    0.60 
  -5   5  12   16.29    1.61 
  -4  -5  12   18.17    0.77 
  -4  -5  12   18.09    0.92 
   4  -5 -12   20.61    1.64 
   4   5 -12   17.79    0.74 
  -4   5  12   17.08    1.50 
   4   5 -12   18.15    0.69 
  -3  -5  12   18.13    0.86 
  -3  -5  12   16.33    0.93 
   3  -5 -12   17.91    1.51 
   3   5 -12   16.85    0.77 
  -3   5  12   15.49    1.33 
   3   5 -12   17.92    0.91 
  -2  -5  12   15.26    0.88 
   2  -5 -12   16.58    1.37 
   2   5 -12   16.59    0.95 
   2   5 -12   16.22    0.85 
  -2   5  12   17.18    1.33 
   2   5 -12   14.89    0.78 
  -1  -5  12   27.79    1.20 
   1  -5 -12   25.99    1.56 
   1   5 -12   25.23    1.13 
  -1   5  12   27.12    1.43 
   0  -5 -12   20.49    1.44 
   0  -5  12   23.86    1.22 
   0   5  12   20.65    1.34 
   0   5 -12   20.06    1.14 
   1  -5  12    1.82    0.65 
  -1  -5 -12    1.83    0.70 
  -1   5 -12    1.45    0.58 
   1   5  12    1.28    0.61 
   2  -5  12   10.41    1.22 
  -2  -5 -12    8.78    1.20 
  -2   5 -12    9.64    1.20 
   2   5  12    9.98    1.08 
  -3  -5 -12   14.82    1.38 
   3  -5  12   15.17    1.42 
  -3   5 -12   12.94    1.43 
  -9   0  13    1.63    0.81 
   9   0 -13    0.21    0.66 
  -8   0  13   -0.40    0.56 
   8   0 -13   -0.04    0.53 
   7   0 -13    0.87    0.52 
  -7   0  13    0.42    0.50 
  -7   0  13    0.62    0.52 
   7   0 -13   -0.20    0.42 
  -7   0  13    0.35    0.44 
   7   0 -13   -0.35    0.45 
  -6   0  13    0.08    0.38 
   6   0 -13   -0.98    0.37 
  -6   0  13    0.34    0.39 
  -6   0  13    0.45    0.44 
   6   0 -13    0.09    0.36 
   6   0 -13    0.01    0.45 
  -5   0  13    0.37    0.36 
  -5   0  13   -0.13    0.34 
  -5   0  13    0.22    0.38 
   5   0 -13    0.35    0.43 
  -5   0  13   -0.18    0.33 
   5   0 -13    0.00    0.38 
   5   0 -13    0.43    0.36 
  -4   0  13   -0.20    0.35 
  -4   0  13    0.22    0.27 
  -4   0  13    0.47    0.37 
  -4   0  13    0.26    0.32 
   4   0 -13    0.64    0.32 
   4   0 -13    0.23    0.33 
   4   0 -13    0.00    0.34 
   3   0 -13    0.32    0.32 
  -3   0  13    0.17    0.29 
   3   0 -13    0.61    0.31 
  -3   0  13   -0.01    0.31 
   3   0 -13   -0.07    0.30 
   3   0 -13    0.69    0.34 
  -3   0  13    0.28    0.29 
  -3   0  13    0.13    0.33 
   2   0 -13   -0.16    0.28 
  -2   0  13    0.22    0.32 
  -2   0  13   -0.32    0.29 
  -2   0  13   -0.13    0.34 
   2   0 -13   -0.09    0.30 
   2   0 -13    0.23    0.31 
   2   0 -13    0.39    0.30 
  -2   0  13   -0.36    0.26 
  -1   0  13    0.10    0.31 
   1   0 -13    0.40    0.33 
   1   0 -13   -0.31    0.27 
  -1   0  13   -0.10    0.27 
   1   0 -13   -0.22    0.27 
  -1   0  13   -0.05    0.28 
   1   0 -13    0.04    0.29 
  -1   0  13    0.01    0.50 
   0   0  13   -0.18    0.29 
   0   0  13    0.58    0.38 
   0   0  13    0.32    0.27 
   0   0 -13    0.05    0.36 
   0   0 -13    0.21    0.38 
   0   0  13    0.14    0.34 
   0   0 -13   -0.23    0.47 
   0   0 -13   -0.22    0.32 
   1   0  13    0.31    0.33 
   1   0  13    0.26    0.29 
  -1   0 -13    0.39    0.50 
  -1   0 -13   -0.54    0.32 
  -1   0 -13    0.17    0.35 
   1   0  13    1.00    0.41 
   1   0  13   -0.06    0.59 
  -1   0 -13    0.37    0.37 
   2   0  13    0.23    0.39 
   2   0  13    0.12    0.43 
  -2   0 -13    0.06    0.41 
   2   0  13    0.64    0.35 
  -2   0 -13   -0.45    0.39 
  -2   0 -13   -0.44    0.41 
  -2   0 -13    0.40    0.38 
   2   0  13    0.06    0.39 
   3   0  13   -0.60    0.39 
  -3   0 -13   -0.66    0.50 
   3   0  13   -0.57    0.46 
  -3   0 -13    0.41    0.51 
  -3   0 -13   -0.01    0.46 
  -3   0 -13   -0.14    0.47 
   3   0  13    0.71    0.49 
   3   0  13    0.13    0.45 
   4   0  13   -0.13    0.46 
  -4   0 -13    0.68    0.63 
  -4   0 -13   -0.31    0.52 
   4   0  13   -0.66    0.43 
  -4   0 -13   -1.19    0.58 
   4   0  13    0.04    0.47 
   4   0  13   -0.94    0.58 
  -4   0 -13   -0.17    0.50 
  -5   0 -13    0.22    0.53 
  -5   0 -13   -1.20    0.55 
  -5   0 -13   -0.05    0.72 
   5   0  13    0.15    0.48 
   5   0  13    0.69    0.58 
  -6   0 -13    0.78    0.75 
   6   0  13    0.37    0.57 
   9  -1 -13    0.10    0.70 
  -9   1  13   -0.02    0.81 
  -8  -1  13    0.69    0.55 
   8  -1 -13   -0.06    0.56 
   8   1 -13    0.86    0.48 
  -8   1  13   -0.09    0.65 
  -7  -1  13   17.74    1.02 
  -7  -1  13   19.62    1.04 
  -7  -1  13   20.06    0.95 
   7  -1 -13   20.21    1.26 
  -7   1  13   17.28    1.27 
   7   1 -13   19.68    0.98 
  -7   1  13   20.34    1.25 
   7   1 -13   19.55    0.99 
   7   1 -13   20.19    0.94 
   6  -1 -13    2.21    0.54 
  -6  -1  13    3.16    0.49 
  -6  -1  13    3.46    0.47 
  -6  -1  13    3.29    0.49 
   6  -1 -13    2.03    0.54 
   6  -1 -13    2.43    0.59 
   6   1 -13    3.69    0.57 
  -6   1  13    2.72    0.62 
   6   1 -13    2.57    0.45 
   6   1 -13    2.89    0.51 
  -6   1  13    2.10    0.45 
  -6   1  13    2.14    0.58 
   5  -1 -13   31.68    1.29 
  -5  -1  13   31.60    1.16 
   5  -1 -13   31.63    1.33 
   5  -1 -13   32.19    1.26 
  -5  -1  13   30.76    1.08 
   5  -1 -13   29.94    1.21 
  -5   1  13   30.91    1.25 
  -5   1  13   32.24    1.31 
   5   1 -13   30.27    1.22 
   5   1 -13   33.16    1.17 
  -5   1  13   30.88    1.29 
  -5   1  13   31.20    1.21 
   5   1 -13   31.23    1.13 
   4  -1 -13    4.51    0.69 
   4  -1 -13    4.88    0.67 
   4  -1 -13    5.24    0.72 
  -4  -1  13    4.15    0.50 
  -4  -1  13    5.97    0.60 
   4   1 -13    6.94    0.57 
   4   1 -13    5.61    0.55 
  -4   1  13    6.38    0.78 
  -4   1  13    6.50    0.68 
  -4   1  13    4.91    0.75 
  -3  -1  13    3.27    0.48 
  -3  -1  13    3.93    0.53 
   3  -1 -13    4.22    0.65 
   3  -1 -13    3.92    0.67 
  -3  -1  13    4.18    0.54 
   3  -1 -13    3.86    0.52 
  -3  -1  13    4.14    0.55 
   3  -1 -13    4.44    0.67 
   3   1 -13    3.07    0.52 
  -3   1  13    3.24    0.46 
  -3   1  13    5.40    0.68 
  -3   1  13    3.16    0.50 
  -3   1  13    2.81    0.44 
   3   1 -13    3.24    0.56 
   3   1 -13    3.39    0.53 
  -2  -1  13   47.15    1.37 
  -2  -1  13   46.46    1.36 
   2  -1 -13   46.25    1.46 
   2  -1 -13   47.58    1.46 
   2  -1 -13   47.31    1.45 
  -2  -1  13   46.59    1.40 
  -2  -1  13   46.05    1.42 
   2  -1 -13   47.07    1.51 
  -2   1  13   45.83    1.47 
  -2   1  13   47.89    1.47 
   2   1 -13   46.67    1.36 
   2   1 -13   46.39    1.37 
   2   1 -13   47.10    1.40 
  -2   1  13   46.05    1.51 
  -2   1  13   47.94    1.43 
  -1  -1  13   45.26    1.42 
   1  -1 -13   46.50    1.51 
  -1  -1  13   47.12    1.39 
   1  -1 -13   45.61    1.43 
  -1  -1  13   45.48    1.38 
   1  -1 -13   45.60    1.43 
  -1  -1  13   45.45    1.40 
   1  -1 -13   46.63    1.43 
  -1   1  13   43.29    1.47 
  -1   1  13   43.23    1.42 
   1   1 -13   45.55    1.37 
   1   1 -13   44.33    1.36 
   1   1 -13   44.59    1.41 
  -1   1  13   46.28    1.41 
   1   1 -13   45.13    1.42 
  -1   1  13   44.55    1.44 
   0  -1 -13   38.89    1.30 
   0  -1 -13   36.61    1.33 
   0  -1  13   35.34    1.29 
   0  -1 -13   36.47    1.26 
   0  -1  13   38.67    1.27 
   0  -1 -13   36.48    1.26 
   0  -1  13   37.64    1.27 
   0  -1  13   36.96    1.29 
   0   1 -13   36.71    1.24 
   0   1 -13   35.85    1.34 
   0   1 -13   36.93    1.31 
   0   1  13   37.96    1.34 
   0   1  13   36.97    1.25 
   0   1  13   36.67    1.29 
   0   1 -13   37.35    1.26 
   0   1  13   36.33    1.27 
  -1  -1 -13    4.94    0.71 
   1  -1  13    4.39    0.73 
   1  -1  13    4.62    0.67 
  -1  -1 -13    4.15    0.64 
  -1  -1 -13    3.95    0.63 
   1  -1  13    4.45    0.62 
  -1  -1 -13    4.09    0.68 
   1  -1  13    4.37    0.65 
  -1   1 -13    3.09    0.45 
  -1   1 -13    4.55    0.77 
   1   1  13    3.59    0.62 
   1   1  13    4.21    0.66 
   1   1  13    4.39    0.64 
  -1   1 -13    4.09    0.65 
  -1   1 -13    3.87    0.56 
   1   1  13    4.99    0.76 
   2  -1  13    9.37    0.83 
   2  -1  13    9.32    0.82 
  -2  -1 -13    8.66    0.83 
  -2  -1 -13    9.90    0.85 
   2  -1  13    9.44    0.82 
  -2  -1 -13    9.76    0.80 
   2  -1  13    9.23    0.93 
  -2  -1 -13    8.42    0.86 
   2   1  13    9.95    0.82 
  -2   1 -13    9.26    0.81 
   2   1  13    9.35    0.89 
  -2   1 -13    7.39    0.85 
  -2   1 -13   10.88    0.92 
   2   1  13   10.52    0.83 
   2   1  13    8.48    0.79 
   3  -1  13    2.58    0.55 
  -3  -1 -13    2.25    0.50 
   3  -1  13    3.89    0.73 
   3  -1  13    2.60    0.49 
  -3  -1 -13    3.09    0.62 
  -3  -1 -13    3.17    0.59 
   3  -1  13    2.55    0.57 
  -3  -1 -13    3.79    0.56 
   3   1  13    3.48    0.62 
  -3   1 -13    2.71    0.56 
   3   1  13    3.36    0.56 
  -3   1 -13    3.31    0.58 
  -3   1 -13    4.21    0.69 
  -3   1 -13    1.98    0.56 
   3   1  13    3.27    0.63 
   3   1  13    3.29    0.57 
   4  -1  13    2.26    0.64 
  -4  -1 -13    3.13    0.62 
  -4  -1 -13    3.10    0.61 
   4  -1  13    3.63    0.82 
   4  -1  13    3.32    0.64 
  -4  -1 -13    2.54    0.63 
   4  -1  13    2.56    0.59 
  -4   1 -13    3.40    0.70 
   4   1  13    2.16    0.54 
  -4   1 -13    3.01    0.76 
   4   1  13    2.58    0.59 
   4   1  13    4.19    0.64 
  -4   1 -13    2.62    0.70 
  -4   1 -13    2.69    0.58 
   5  -1  13    0.21    0.59 
   5  -1  13    1.12    0.61 
   5  -1  13    2.53    1.46 
   5  -1  13    0.72    0.71 
  -5  -1 -13    0.54    0.60 
  -5   1 -13    0.07    0.59 
   5   1  13   -0.20    0.51 
  -5   1 -13    0.78    0.80 
  -5   1 -13    0.81    0.65 
  -5   1 -13    1.28    0.75 
  -6  -1 -13    1.28    0.72 
   6  -1  13    0.71    0.70 
   6   1  13   -0.60    0.66 
   8  -2 -13   -0.08    0.66 
  -8  -2  13    0.16    0.48 
   8   2 -13   -1.06    0.41 
   8   2 -13    0.34    0.41 
  -8   2  13    0.38    0.75 
  -7  -2  13    5.44    0.56 
  -7  -2  13    7.31    0.76 
  -7  -2  13    5.10    0.72 
   7  -2 -13    6.02    0.82 
   7   2 -13    5.12    0.70 
   7   2 -13    5.81    0.62 
  -7   2  13    4.82    0.84 
   6  -2 -13    0.56    0.56 
  -6  -2  13    0.13    0.36 
  -6  -2  13    0.08    0.36 
   6  -2 -13    1.03    0.56 
   6  -2 -13    0.95    0.61 
  -6  -2  13    0.61    0.36 
   6   2 -13    0.03    0.33 
  -6   2  13    0.33    0.45 
  -6   2  13   -0.28    0.57 
  -6   2  13    0.07    0.62 
   6   2 -13    0.15    0.31 
   6   2 -13    0.27    0.34 
   5  -2 -13   19.97    1.20 
  -5  -2  13   19.55    0.87 
   5  -2 -13   21.05    1.24 
   5  -2 -13   18.74    1.18 
  -5  -2  13   19.55    0.81 
   5  -2 -13   19.06    1.15 
  -5  -2  13   18.61    0.86 
  -5   2  13   18.33    1.08 
  -5   2  13   18.21    1.18 
  -5   2  13   19.01    1.23 
   5   2 -13   19.21    0.83 
  -5   2  13   21.34    1.11 
   5   2 -13   18.73    0.84 
   5   2 -13   19.26    0.79 
  -4  -2  13   14.62    0.77 
  -4  -2  13   14.55    0.75 
   4  -2 -13   13.84    1.02 
   4  -2 -13   15.02    1.08 
   4  -2 -13   13.80    0.99 
   4  -2 -13   14.22    1.01 
  -4   2  13   15.11    1.00 
  -4   2  13   14.01    0.96 
  -4   2  13   13.54    0.98 
  -4   2  13   17.15    1.06 
   4   2 -13   14.78    0.71 
   4   2 -13   14.23    0.71 
   3  -2 -13    1.06    0.45 
   3  -2 -13    1.33    0.47 
   3  -2 -13    1.21    0.43 
  -3  -2  13    1.62    0.35 
   3  -2 -13    1.80    0.91 
  -3  -2  13    1.48    0.33 
   3   2 -13    1.49    0.33 
  -3   2  13    1.91    0.48 
  -3   2  13    2.13    0.56 
   3   2 -13    1.32    0.38 
  -3   2  13    1.74    0.53 
  -3   2  13    1.68    0.46 
   3   2 -13    1.92    0.45 
  -2  -2  13    0.89    0.31 
  -2  -2  13    1.14    0.33 
   2  -2 -13    1.27    0.48 
   2  -2 -13    1.01    0.42 
   2  -2 -13    0.57    0.46 
  -2  -2  13    1.23    0.35 
  -2  -2  13    0.81    0.33 
   2  -2 -13    0.90    0.45 
   2   2 -13    0.99    0.33 
  -2   2  13    0.62    0.39 
   2   2 -13    0.61    0.38 
   2   2 -13    0.90    0.32 
  -2   2  13    0.12    0.41 
  -2   2  13    0.48    0.42 
  -2   2  13    1.23    0.44 
   2   2 -13    0.86    0.35 
  -1  -2  13    0.80    0.40 
   1  -2 -13    0.41    0.34 
   1  -2 -13    0.84    0.40 
  -1  -2  13    0.59    0.32 
   1  -2 -13    1.08    0.46 
   1  -2 -13    0.54    0.35 
  -1  -2  13    0.83    0.32 
  -1  -2  13    0.46    0.34 
   1   2 -13    0.79    0.33 
   1   2 -13    1.63    0.42 
  -1   2  13    1.17    0.50 
  -1   2  13    1.06    0.41 
   1   2 -13    1.28    0.39 
  -1   2  13    0.91    0.42 
  -1   2  13    0.80    0.49 
   0  -2 -13   22.73    1.03 
   0  -2  13   21.94    1.08 
   0  -2  13   21.59    0.99 
   0  -2 -13   21.67    1.08 
   0  -2  13   23.96    1.02 
   0  -2  13   22.83    0.97 
   0  -2 -13   23.75    1.09 
   0  -2 -13   21.50    1.11 
   0   2  13   23.10    1.05 
   0   2 -13   21.99    0.99 
   0   2  13   23.88    1.07 
   0   2 -13   22.74    1.04 
   0   2 -13   22.19    1.02 
   0   2  13   24.55    1.13 
   0   2  13   23.88    1.08 
   0   2 -13   24.12    1.07 
  -1  -2 -13   60.32    1.78 
   1  -2  13   57.31    2.07 
   1  -2  13   58.45    1.78 
  -1  -2 -13   60.53    1.81 
  -1  -2 -13   59.91    1.89 
   1  -2  13   59.79    1.88 
  -1  -2 -13   60.48    1.78 
   1  -2  13   62.46    1.82 
  -1   2 -13   61.79    1.83 
   1   2  13   59.86    1.81 
   1   2  13   56.53    1.84 
  -1   2 -13   57.43    1.76 
   1   2  13   59.54    1.82 
   1   2  13   61.79    1.78 
  -1   2 -13   58.18    1.85 
   2  -2  13    2.03    0.62 
   2  -2  13    2.00    0.53 
  -2  -2 -13    1.86    0.49 
   2  -2  13    2.31    0.55 
   2  -2  13    1.04    0.46 
  -2  -2 -13    1.55    0.53 
  -2  -2 -13    1.18    0.40 
  -2  -2 -13    1.84    0.52 
  -2   2 -13    2.08    0.49 
  -2   2 -13    0.96    0.54 
   2   2  13    0.90    0.52 
   2   2  13    1.15    0.45 
   2   2  13    1.72    0.51 
   2   2  13    2.17    0.50 
  -2   2 -13    2.03    0.60 
  -2   2 -13    2.74    0.56 
   3  -2  13    3.57    0.62 
  -3  -2 -13    2.79    0.61 
   3  -2  13    3.40    0.68 
   3  -2  13    3.26    0.71 
   3  -2  13    3.03    0.58 
  -3  -2 -13    2.62    0.60 
  -3   2 -13    2.20    0.69 
  -3   2 -13    2.94    0.67 
  -3   2 -13    2.51    0.60 
  -3   2 -13    1.59    0.58 
   3   2  13    2.77    0.52 
   3   2  13    3.63    0.61 
   4  -2  13    3.36    0.79 
  -4  -2 -13    4.01    0.70 
   4  -2  13    2.40    0.65 
  -4  -2 -13    2.00    0.49 
   4  -2  13    2.55    0.91 
  -4  -2 -13    2.99    0.70 
   4  -2  13    2.48    0.63 
  -4   2 -13    4.48    0.87 
  -4   2 -13    4.17    0.78 
   4   2  13    3.44    0.63 
  -4   2 -13    4.21    0.71 
   4   2  13    3.39    0.70 
  -4   2 -13    3.61    0.73 
   4   2  13    3.79    0.70 
   5  -2  13   -0.29    0.64 
  -5  -2 -13   -1.11    0.60 
   5  -2  13    0.38    0.68 
   5  -2  13   -1.27    0.90 
   5  -2  13    1.96    0.84 
  -5   2 -13    1.14    0.87 
  -5   2 -13    1.06    0.67 
  -5   2 -13   -0.46    0.74 
   5   2  13    0.18    0.54 
  -5   2 -13   -0.60    0.83 
  -6  -2 -13   -0.92    0.72 
   6  -2  13   -0.48    0.77 
   6   2  13    0.39    0.65 
  -6   2 -13    0.16    0.85 
  -7  -3  13    1.95    0.42 
   7  -3 -13    1.72    0.76 
  -7  -3  13    1.79    0.66 
  -7   3  13    3.26    1.01 
   7   3 -13    2.26    0.35 
   7   3 -13    1.13    0.37 
   6  -3 -13    7.53    0.98 
  -6  -3  13    7.91    0.71 
   6  -3 -13    8.65    1.28 
  -6  -3  13    7.66    0.64 
  -6   3  13    8.05    1.11 
  -6   3  13    6.74    0.91 
   6   3 -13    6.42    0.61 
   6   3 -13    5.88    0.58 
  -5  -3  13    5.96    0.58 
   5  -3 -13    5.84    0.79 
   5  -3 -13    4.38    0.77 
   5  -3 -13    4.40    0.73 
  -5  -3  13    4.00    0.64 
  -5  -3  13    5.88    0.46 
   5  -3 -13    6.40    1.07 
  -5   3  13    5.81    0.80 
  -5   3  13    5.11    0.84 
  -5   3  13    4.98    0.80 
  -5   3  13    3.73    0.81 
   5   3 -13    4.33    0.59 
   5   3 -13    5.73    0.56 
   4  -3 -13    0.24    0.59 
  -4  -3  13    0.12    0.30 
  -4  -3  13   -0.25    0.36 
   4  -3 -13   -0.09    0.57 
   4  -3 -13    0.21    0.58 
   4  -3 -13    0.32    0.88 
  -4   3  13    0.34    0.61 
  -4   3  13    0.53    0.49 
   4   3 -13    0.13    0.31 
  -4   3  13    0.00    0.51 
  -4   3  13   -0.09    0.47 
   4   3 -13   -0.56    0.26 
   4   3 -13    0.14    0.33 
  -3  -3  13    7.65    0.74 
   3  -3 -13    8.32    1.03 
   3  -3 -13    8.17    1.01 
   3  -3 -13    7.22    0.96 
   3  -3 -13    9.99    0.98 
  -3  -3  13    9.15    0.65 
  -3   3  13    9.85    1.07 
  -3   3  13    8.27    0.95 
  -3   3  13    8.72    1.01 
   3   3 -13    8.46    0.64 
  -3   3  13    8.68    0.94 
   3   3 -13    8.64    0.67 
   3   3 -13    8.20    0.60 
   2  -3 -13    4.82    0.85 
   2  -3 -13    6.36    0.87 
  -2  -3  13    5.51    0.61 
  -2  -3  13    4.89    0.61 
  -2  -3  13    5.22    0.75 
   2  -3 -13    5.13    0.70 
  -2   3  13    5.27    0.85 
  -2   3  13    5.63    0.88 
   2   3 -13    4.87    0.65 
   2   3 -13    5.60    0.61 
   2   3 -13    5.86    0.66 
  -2   3  13    4.43    0.71 
  -2   3  13    5.61    0.86 
   1  -3 -13    1.74    0.53 
  -1  -3  13    3.51    0.49 
   1  -3 -13    2.45    0.59 
   1  -3 -13    2.37    0.52 
  -1  -3  13    2.73    0.52 
  -1  -3  13    2.48    0.42 
   1  -3 -13    2.52    0.57 
  -1   3  13    2.67    0.54 
  -1   3  13    2.63    0.55 
   1   3 -13    2.36    0.47 
  -1   3  13    3.60    0.63 
   1   3 -13    2.88    0.45 
   1   3 -13    3.36    0.50 
  -1   3  13    2.11    0.58 
   0  -3 -13   21.95    1.21 
   0  -3  13   21.54    1.17 
   0  -3  13   19.82    1.01 
   0  -3 -13   22.20    1.13 
   0  -3  13   20.42    1.01 
   0  -3 -13   19.09    1.08 
   0  -3 -13   22.92    1.15 
   0   3  13   20.53    1.09 
   0   3  13   20.67    1.18 
   0   3 -13   21.36    1.02 
   0   3 -13   19.73    1.26 
   0   3 -13   22.85    1.09 
   0   3  13   21.56    1.12 
   0   3  13   21.80    1.12 
  -1  -3 -13    1.05    0.51 
   1  -3  13    0.87    0.44 
  -1  -3 -13    1.11    0.54 
   1  -3  13    1.24    0.53 
   1  -3  13    2.32    0.51 
  -1  -3 -13    1.80    0.50 
  -1   3 -13    1.82    0.52 
  -1   3 -13    1.91    0.49 
   1   3  13    1.15    0.48 
   1   3  13    0.59    0.55 
   1   3  13    1.72    0.74 
  -1   3 -13    1.00    0.48 
   2  -3  13    7.68    0.93 
  -2  -3 -13   10.43    0.97 
  -2  -3 -13    9.24    0.95 
  -2  -3 -13    9.74    1.07 
   2  -3  13    9.44    0.99 
   2  -3  13    8.75    1.17 
  -2   3 -13   10.04    1.04 
   2   3  13    9.70    0.97 
   2   3  13    9.16    0.92 
  -2   3 -13   10.99    0.97 
  -2   3 -13    9.87    1.10 
   2   3  13    9.39    0.97 
  -3  -3 -13   13.51    1.15 
   3  -3  13    9.41    1.04 
  -3  -3 -13    9.78    0.95 
   3  -3  13    9.89    1.35 
   3  -3  13    8.07    1.07 
   3   3  13    9.67    1.02 
  -3   3 -13   11.35    1.12 
  -3   3 -13   11.64    1.26 
  -3   3 -13    9.09    1.08 
   3   3  13   10.59    1.41 
   4  -3  13    5.16    0.82 
  -4  -3 -13    4.35    0.81 
   4  -3  13    7.56    0.95 
  -4   3 -13    7.21    1.24 
  -4   3 -13    4.52    0.74 
   4   3  13    5.59    0.77 
   5  -3  13    0.70    0.85 
  -5  -3 -13    0.51    0.70 
   5   3  13    0.68    0.64 
  -5   3 -13    0.30    0.78 
  -6  -4  13    0.25    0.35 
   6  -4 -13    1.71    0.92 
  -6  -4  13    0.88    0.33 
  -6   4  13    1.30    0.93 
   5  -4 -13    4.86    1.30 
  -5  -4  13    4.29    0.67 
  -5  -4  13    5.14    0.57 
   5  -4 -13    4.19    0.93 
   5  -4 -13    4.94    0.89 
   5   4 -13    4.55    0.67 
  -5   4  13    6.69    1.06 
  -5   4  13    4.72    0.89 
  -5   4  13    8.06    1.17 
   5   4 -13    5.22    0.53 
   4  -4 -13    1.74    0.78 
  -4  -4  13    0.72    0.43 
   4  -4 -13   -0.57    0.76 
  -4  -4  13    1.13    0.37 
   4  -4 -13    1.73    0.81 
   4  -4 -13    1.51    0.69 
  -4   4  13    0.36    0.52 
  -4   4  13    1.50    0.77 
   4   4 -13    1.13    0.38 
  -4   4  13    0.82    0.76 
  -4   4  13    1.16    0.78 
   4   4 -13    1.70    0.33 
   3  -4 -13   -0.46    0.67 
  -3  -4  13    0.95    0.35 
  -3  -4  13    0.60    0.35 
   3  -4 -13    0.49    0.66 
   3  -4 -13    0.96    0.71 
  -3  -4  13    0.35    0.46 
   3   4 -13    0.16    0.32 
  -3   4  13    0.91    0.83 
  -3   4  13   -0.15    0.57 
   3   4 -13    1.18    0.36 
   3   4 -13    0.39    0.38 
  -3   4  13    0.06    0.59 
  -3   4  13    0.39    0.63 
   2  -4 -13    5.48    0.93 
  -2  -4  13    6.62    0.69 
  -2  -4  13    5.63    0.69 
   2  -4 -13    5.83    1.04 
  -2  -4  13    5.51    0.81 
   2  -4 -13    6.25    1.06 
   2   4 -13    6.28    0.77 
  -2   4  13    7.37    1.23 
  -2   4  13    7.42    1.09 
  -2   4  13    5.68    0.73 
   2   4 -13    5.55    0.66 
   2   4 -13    6.66    0.73 
   1  -4 -13   33.23    1.46 
   1  -4 -13   31.51    1.41 
  -1  -4  13   29.73    1.54 
   1  -4 -13   31.74    1.56 
  -1  -4  13   33.77    1.25 
  -1  -4  13   32.29    1.18 
  -1   4  13   33.62    1.50 
  -1   4  13   32.35    1.43 
   1   4 -13   31.35    1.30 
   1   4 -13   31.39    1.22 
   1   4 -13   32.30    1.25 
  -1   4  13   33.85    1.49 
   0  -4  13   10.25    0.85 
   0  -4  13    8.28    0.87 
   0  -4 -13   12.33    1.08 
   0  -4 -13    9.88    1.21 
   0  -4  13    9.26    0.96 
   0  -4 -13   10.34    1.11 
   0   4  13   11.17    0.98 
   0   4 -13   10.93    0.87 
   0   4 -13    8.93    0.96 
   0   4 -13   10.76    0.96 
   1  -4  13    0.97    0.55 
  -1  -4 -13    1.70    0.63 
  -1   4 -13    0.73    0.51 
   1   4  13    1.79    0.56 
   2  -4  13    0.47    0.58 
  -2  -4 -13   -0.28    0.57 
  -2   4 -13    0.19    0.56 
   2   4  13    1.84    0.58 
   3  -4  13    3.89    0.74 
  -3  -4 -13    4.30    0.76 
  -3   4 -13    4.44    0.78 
   3   4  13    5.00    0.76 
  -4  -4 -13    7.39    1.30 
   4  -4  13    7.97    1.32 
   4   4  13    8.01    1.14 
  -4   4 -13   10.29    1.41 
  -4  -5  13    2.94    0.44 
   4  -5 -13    2.42    0.82 
   4   5 -13    3.06    0.53 
   4   5 -13    3.13    0.45 
  -4   5  13    4.73    0.90 
   3  -5 -13   16.78    1.59 
  -3  -5  13   19.89    0.93 
   3   5 -13   19.60    0.99 
   3   5 -13   17.06    0.85 
  -3   5  13   18.08    1.46 
  -2  -5  13    5.81    0.78 
   2  -5 -13    3.66    0.76 
   2   5 -13    4.93    0.71 
  -2   5  13    4.85    0.80 
   1  -5 -13   -0.83    0.72 
  -1  -5  13    0.30    0.47 
   1   5 -13   -0.47    0.45 
  -1   5  13    0.67    0.61 
   0  -5  13    0.90    0.57 
   0  -5 -13    0.39    0.68 
   0   5  13    0.11    0.62 
   0   5 -13    0.76    0.52 
   1  -5  13   15.06    1.24 
  -1  -5 -13   12.73    1.37 
  -1   5 -13   11.54    1.16 
   1   5  13   14.79    1.26 
   2  -5  13    9.60    1.25 
  -2  -5 -13    8.31    1.33 
  -2   5 -13    6.67    0.90 
   2   5  13    6.73    1.15 
  -8   0  14   20.04    1.31 
   8   0 -14   20.01    1.23 
  -7   0  14    7.19    0.95 
   7   0 -14    5.85    0.92 
  -6   0  14   18.46    1.07 
   6   0 -14   19.31    1.06 
  -6   0  14   17.59    1.01 
   6   0 -14   21.15    1.14 
  -6   0  14   19.49    1.06 
  -5   0  14    4.63    0.71 
  -5   0  14    3.92    0.58 
   5   0 -14    5.41    0.76 
   5   0 -14    4.85    0.67 
  -5   0  14    5.26    0.76 
  -4   0  14  234.69    5.14 
  -4   0  14  228.23    5.18 
  -4   0  14  236.62    5.08 
   4   0 -14  235.36    5.18 
   4   0 -14  232.92    5.11 
   4   0 -14  232.47    5.09 
  -4   0  14  238.31    5.23 
   3   0 -14  340.58    7.16 
  -3   0  14  338.30    7.18 
   3   0 -14  337.97    7.12 
  -3   0  14  334.60    7.09 
  -3   0  14  335.77    7.15 
   3   0 -14  339.45    7.21 
   3   0 -14  336.65    7.13 
  -3   0  14  338.31    7.20 
  -2   0  14   21.53    0.98 
  -2   0  14   20.57    0.92 
   2   0 -14   21.05    0.96 
  -2   0  14   21.11    1.00 
   2   0 -14   20.39    0.94 
   2   0 -14   19.44    0.94 
   1   0 -14    5.38    0.64 
  -1   0  14    6.80    0.67 
   1   0 -14    6.28    0.70 
  -1   0  14    6.42    0.65 
  -1   0  14    5.78    0.68 
   1   0 -14    5.97    0.69 
   1   0 -14    6.02    0.67 
  -1   0  14    5.04    0.73 
   0   0 -14   43.60    1.45 
   0   0  14   44.24    1.49 
   0   0 -14   42.56    1.46 
   0   0  14   44.15    1.44 
   0   0 -14   42.10    1.49 
   0   0  14   43.89    1.43 
   0   0  14   42.69    1.43 
   1   0  14   60.80    1.82 
   1   0  14   63.16    1.91 
  -1   0 -14   61.68    1.91 
  -1   0 -14   60.09    1.81 
  -1   0 -14   60.53    1.87 
   1   0  14   62.88    1.86 
  -1   0 -14   62.15    1.84 
   1   0  14   61.63    1.84 
   2   0  14  110.45    2.95 
  -2   0 -14  118.12    3.05 
  -2   0 -14  116.67    2.95 
   2   0  14  114.66    2.97 
  -2   0 -14  119.84    3.08 
   2   0  14  120.11    3.07 
  -2   0 -14  117.62    3.01 
   2   0  14  121.77    3.01 
  -3   0 -14    5.78    0.99 
   3   0  14    4.86    0.84 
  -3   0 -14    5.34    0.75 
  -3   0 -14    5.58    0.82 
   3   0  14    5.96    0.96 
   3   0  14    4.51    0.72 
   3   0  14    5.50    0.88 
  -3   0 -14    5.47    0.84 
   4   0  14    2.12    0.71 
  -4   0 -14    1.59    0.56 
   4   0  14    3.53    0.66 
  -4   0 -14    3.26    0.75 
  -4   0 -14    2.25    0.77 
  -4   0 -14    1.56    0.72 
   4   0  14    2.70    0.64 
   4   0  14    1.53    0.54 
   5   0  14   10.45    1.24 
  -5   0 -14   10.17    1.32 
   5   0  14   12.81    1.62 
  -6   0 -14    9.99    1.45 
   6   0  14   11.25    1.24 
   8  -1 -14   10.61    1.24 
  -8  -1  14   12.16    1.06 
   8   1 -14   11.00    0.99 
  -8   1  14   10.61    1.37 
  -7  -1  14   24.75    1.19 
   7  -1 -14   23.81    1.38 
   7   1 -14   25.06    1.15 
   7   1 -14   25.08    1.06 
  -7   1  14   26.99    1.43 
  -6  -1  14   62.93    1.88 
   6  -1 -14   67.69    2.06 
   6  -1 -14   64.73    2.02 
  -6  -1  14   65.15    1.90 
  -6  -1  14   64.90    1.81 
   6   1 -14   66.33    1.85 
   6   1 -14   65.88    1.80 
  -6   1  14   63.07    1.97 
  -6   1  14   66.67    2.11 
   6   1 -14   65.35    1.88 
  -6   1  14   65.46    2.08 
  -5  -1  14   68.05    1.84 
  -5  -1  14   66.47    1.96 
  -5  -1  14   69.26    1.93 
   5  -1 -14   66.39    2.05 
   5  -1 -14   66.75    1.98 
   5  -1 -14   71.90    2.11 
  -5   1  14   67.36    2.08 
  -5   1  14   67.44    2.00 
  -5   1  14   70.37    2.03 
  -5   1  14   66.87    2.10 
   5   1 -14   69.76    1.89 
   5   1 -14   66.16    1.91 
  -4  -1  14   10.95    0.75 
  -4  -1  14   13.87    0.82 
   4  -1 -14   12.82    0.89 
  -4  -1  14   12.09    0.78 
   4  -1 -14   10.77    0.88 
   4  -1 -14   13.17    0.92 
   4  -1 -14   11.35    1.16 
  -4   1  14   12.70    0.97 
   4   1 -14   11.91    0.75 
   4   1 -14   11.66    0.71 
  -4   1  14   11.07    0.89 
  -4   1  14   11.32    0.92 
  -4   1  14   13.33    0.87 
   4   1 -14   12.41    0.93 
   3  -1 -14    6.85    0.78 
   3  -1 -14    7.18    0.75 
  -3  -1  14    8.33    0.68 
   3  -1 -14    8.96    0.82 
  -3  -1  14    7.30    0.62 
  -3  -1  14    7.81    0.65 
   3  -1 -14    5.96    0.78 
  -3  -1  14    7.74    0.67 
   3   1 -14    8.33    0.68 
  -3   1  14    7.57    0.71 
  -3   1  14    7.40    0.81 
   3   1 -14    5.88    0.64 
   3   1 -14    8.22    0.71 
  -3   1  14    8.31    0.76 
  -3   1  14    8.17    0.79 
   2  -1 -14   96.38    2.58 
  -2  -1  14   97.79    2.42 
  -2  -1  14   98.63    2.42 
   2  -1 -14   99.60    2.51 
  -2  -1  14   95.61    2.47 
   2  -1 -14   99.14    2.51 
   2  -1 -14   98.90    2.52 
  -2  -1  14   99.09    2.47 
  -2   1  14  101.26    2.49 
  -2   1  14   98.40    2.53 
   2   1 -14   98.92    2.44 
   2   1 -14   94.57    2.41 
  -2   1  14   98.60    2.57 
  -2   1  14   96.19    2.53 
   2   1 -14  100.15    2.46 
  -1  -1  14  122.85    2.92 
  -1  -1  14  118.74    2.97 
   1  -1 -14  121.79    2.98 
   1  -1 -14  125.37    2.98 
  -1  -1  14  122.30    2.93 
  -1  -1  14  121.69    2.95 
   1  -1 -14  118.05    3.18 
   1  -1 -14  123.26    3.07 
  -1   1  14  119.51    2.93 
  -1   1  14  122.09    3.00 
   1   1 -14  122.50    2.92 
  -1   1  14  120.62    2.98 
   1   1 -14  124.75    2.97 
   1   1 -14  119.00    2.97 
   1   1 -14  120.88    2.91 
   0  -1  14    8.24    0.79 
   0  -1  14    8.76    0.77 
   0  -1  14    8.43    0.73 
   0  -1 -14    9.26    0.83 
   0  -1 -14    7.96    0.81 
   0  -1 -14    8.01    0.74 
   0  -1  14    8.93    0.74 
   0  -1 -14    8.76    0.81 
   0   1  14    8.60    0.87 
   0   1  14    8.15    0.77 
   0   1 -14    8.00    0.84 
   0   1  14    9.37    0.79 
   0   1  14    7.82    0.75 
   0   1 -14    8.54    0.75 
   0   1 -14    8.64    0.82 
   0   1 -14    7.93    0.74 
   1  -1  14    4.55    0.58 
  -1  -1 -14    4.12    0.73 
  -1  -1 -14    4.10    0.57 
  -1  -1 -14    5.14    0.81 
  -1  -1 -14    4.87    0.70 
   1  -1  14    4.29    0.68 
   1  -1  14    3.78    0.68 
   1  -1  14    5.52    0.85 
  -1   1 -14    4.81    0.80 
   1   1  14    4.35    0.75 
   1   1  14    6.27    0.76 
  -1   1 -14    4.58    0.70 
  -1   1 -14    3.90    0.60 
   1   1  14    4.88    0.68 
  -1   1 -14    5.48    0.69 
   1   1  14    7.07    1.06 
  -2  -1 -14   20.27    1.06 
   2  -1  14   19.64    1.11 
   2  -1  14   21.77    1.12 
  -2  -1 -14   18.91    1.11 
  -2  -1 -14   21.52    1.16 
   2  -1  14   20.47    1.24 
   2  -1  14   21.91    1.12 
  -2  -1 -14   20.05    1.18 
  -2   1 -14   22.64    1.21 
   2   1  14   18.94    1.09 
   2   1  14   19.11    1.17 
  -2   1 -14   21.09    1.18 
  -2   1 -14   20.72    1.10 
  -2   1 -14   20.09    1.20 
   2   1  14   19.55    1.10 
  -3  -1 -14   15.96    1.04 
   3  -1  14   18.65    1.21 
  -3  -1 -14   18.98    1.20 
   3  -1  14   18.43    1.10 
  -3  -1 -14   15.90    1.40 
   3  -1  14   17.14    1.26 
   3  -1  14   16.43    1.08 
  -3  -1 -14   17.90    1.24 
  -3   1 -14   18.50    1.31 
  -3   1 -14   17.18    1.19 
   3   1  14   18.16    1.14 
  -3   1 -14   17.68    1.25 
  -3   1 -14   16.62    1.11 
   3   1  14   14.59    1.08 
   3   1  14   16.81    1.28 
   3   1  14   18.26    1.18 
  -4  -1 -14   23.35    1.43 
   4  -1  14   25.60    1.49 
  -4  -1 -14   26.10    1.29 
   4  -1  14   26.33    1.36 
   4  -1  14   25.66    1.39 
  -4  -1 -14   23.80    1.43 
   4  -1  14   26.66    1.68 
  -4   1 -14   26.58    1.65 
   4   1  14   26.57    1.38 
   4   1  14   26.84    1.34 
   4   1  14   24.95    1.39 
  -4   1 -14   28.02    1.56 
  -4   1 -14   24.33    1.48 
  -4   1 -14   22.55    1.35 
   5  -1  14    8.06    1.29 
  -5  -1 -14    7.24    0.99 
   5  -1  14    4.66    0.76 
   5   1  14    7.62    1.14 
  -5   1 -14    8.62    1.55 
  -5   1 -14    7.88    1.18 
   6  -1  14   -1.69    0.78 
  -6  -1 -14   -0.25    0.80 
   6   1  14    0.14    0.68 
  -6   1 -14   -0.58    0.83 
   8  -2 -14   24.58    1.60 
  -8  -2  14   21.17    1.15 
   8   2 -14   20.30    1.03 
  -8   2  14   23.51    1.71 
  -7  -2  14   48.85    1.53 
   7  -2 -14   46.58    1.98 
  -7  -2  14   44.90    1.93 
   7   2 -14   46.63    1.39 
   7   2 -14   46.19    1.47 
  -7   2  14   47.81    2.01 
   6  -2 -14   17.47    1.30 
   6  -2 -14   14.39    1.20 
  -6  -2  14   15.07    0.90 
  -6  -2  14   14.71    0.86 
  -6  -2  14   16.03    0.80 
   6   2 -14   13.75    0.83 
   6   2 -14   14.89    0.80 
  -6   2  14   12.94    1.41 
   6   2 -14   13.72    0.77 
  -6   2  14   14.39    1.08 
  -6   2  14   16.74    1.28 
   5  -2 -14   40.19    1.67 
  -5  -2  14   38.18    1.29 
   5  -2 -14   40.15    1.57 
   5  -2 -14   40.54    2.06 
  -5  -2  14   39.66    1.22 
   5  -2 -14   37.29    1.60 
  -5  -2  14   39.35    1.31 
  -5   2  14   39.03    1.54 
   5   2 -14   40.94    1.27 
   5   2 -14   39.71    1.27 
   5   2 -14   39.32    1.23 
  -5   2  14   38.56    1.85 
  -5   2  14   36.34    1.61 
  -5   2  14   38.40    1.53 
  -4  -2  14   15.43    0.82 
   4  -2 -14   15.70    1.43 
   4  -2 -14   13.93    1.08 
   4  -2 -14   15.27    1.09 
  -4  -2  14   15.37    0.79 
   4  -2 -14   15.72    1.05 
  -4  -2  14   13.33    0.81 
  -4   2  14   17.03    1.06 
  -4   2  14   13.44    1.05 
  -4   2  14   13.05    1.01 
   4   2 -14   15.16    0.76 
   4   2 -14   15.52    0.78 
  -4   2  14   15.88    1.45 
   3  -2 -14    5.95    0.86 
  -3  -2  14    6.35    0.67 
   3  -2 -14    6.52    0.85 
  -3  -2  14    6.43    0.61 
  -3  -2  14    7.12    0.65 
   3  -2 -14    6.81    0.91 
  -3   2  14    6.73    0.92 
   3   2 -14    6.38    0.67 
  -3   2  14    5.12    0.89 
  -3   2  14    6.69    0.83 
  -3   2  14    6.70    0.81 
   3   2 -14    6.40    0.61 
  -2  -2  14   97.95    2.51 
   2  -2 -14  104.47    2.69 
   2  -2 -14  104.16    2.68 
   2  -2 -14  105.26    2.79 
  -2  -2  14  106.77    2.57 
  -2  -2  14  102.46    2.59 
   2  -2 -14  106.44    2.72 
  -2  -2  14  101.79    2.50 
   2   2 -14  102.26    2.53 
  -2   2  14  102.86    2.70 
  -2   2  14  101.47    2.73 
  -2   2  14  106.74    2.73 
  -2   2  14  108.43    2.66 
   2   2 -14  101.04    2.52 
   2   2 -14  103.08    2.59 
   2   2 -14   99.60    2.54 
  -1  -2  14   56.30    1.63 
  -1  -2  14   56.22    1.67 
   1  -2 -14   54.19    1.75 
   1  -2 -14   53.70    1.82 
   1  -2 -14   60.19    1.80 
   1  -2 -14   56.09    1.80 
  -1  -2  14   56.39    1.74 
  -1   2  14   55.35    1.77 
  -1   2  14   57.12    1.83 
  -1   2  14   58.93    1.78 
  -1   2  14   57.54    1.81 
   1   2 -14   58.43    2.19 
   1   2 -14   59.08    1.73 
   1   2 -14   54.93    1.67 
   1   2 -14   55.25    1.70 
   0  -2  14   55.77    1.69 
   0  -2 -14   55.63    1.76 
   0  -2  14   52.43    1.69 
   0  -2 -14   54.36    1.85 
   0  -2  14   54.22    1.78 
   0  -2 -14   57.71    1.76 
   0  -2  14   55.97    1.68 
   0  -2 -14   59.88    1.80 
   0   2 -14   55.71    1.75 
   0   2 -14   54.20    1.73 
   0   2  14   55.45    1.77 
   0   2  14   55.50    1.77 
   0   2 -14   55.62    1.73 
   0   2 -14   53.84    1.69 
   0   2  14   56.10    1.81 
  -1  -2 -14   39.06    1.55 
   1  -2  14   38.16    1.55 
   1  -2  14   35.52    1.40 
   1  -2  14   39.57    1.44 
  -1  -2 -14   39.46    1.46 
   1  -2  14   37.65    1.41 
  -1  -2 -14   40.52    1.48 
  -1  -2 -14   36.32    1.40 
  -1   2 -14   39.22    1.43 
   1   2  14   35.49    1.51 
  -1   2 -14   36.07    1.47 
   1   2  14   39.08    1.44 
  -1   2 -14   36.44    1.46 
  -1   2 -14   36.96    1.50 
   1   2  14   38.08    1.45 
   1   2  14   39.16    1.46 
   2  -2  14    2.65    0.61 
   2  -2  14    2.00    0.51 
  -2  -2 -14    3.15    0.65 
   2  -2  14    3.50    0.64 
   2  -2  14    2.62    0.73 
  -2  -2 -14    1.46    0.46 
  -2  -2 -14    2.96    0.62 
  -2  -2 -14    2.31    0.51 
   2   2  14    2.92    0.59 
  -2   2 -14    3.50    0.65 
  -2   2 -14    4.24    0.72 
   2   2  14    2.05    0.57 
  -2   2 -14    2.09    0.58 
   2   2  14    2.56    0.63 
   2   2  14    5.06    0.85 
  -2   2 -14    2.84    0.57 
  -3  -2 -14    6.49    1.03 
   3  -2  14    7.59    1.13 
   3  -2  14    8.20    1.00 
   3  -2  14    7.91    1.00 
  -3  -2 -14    7.56    0.91 
   3  -2  14    6.79    1.25 
  -3  -2 -14    9.19    1.04 
  -3   2 -14    7.87    1.21 
   3   2  14    7.83    0.99 
  -3   2 -14    7.69    1.02 
   3   2  14    7.90    1.02 
  -3   2 -14    6.28    0.85 
  -3   2 -14    7.87    1.10 
   3   2  14    8.84    0.98 
  -4  -2 -14   27.23    1.51 
   4  -2  14   29.43    1.85 
   4  -2  14   25.30    1.47 
   4  -2  14   24.42    1.45 
   4  -2  14   27.12    1.60 
  -4   2 -14   28.03    1.66 
  -4   2 -14   24.68    1.54 
  -4   2 -14   26.43    1.46 
  -4   2 -14   31.23    1.70 
   4   2  14   25.22    1.37 
   5  -2  14   12.64    1.45 
   5  -2  14   12.76    1.37 
  -5  -2 -14   13.66    1.41 
  -5   2 -14   14.92    1.39 
   5   2  14   13.50    1.22 
  -5   2 -14   13.11    1.54 
  -7  -3  14    9.47    0.79 
  -7  -3  14   10.30    1.03 
   7  -3 -14    9.34    1.53 
   7   3 -14    8.38    0.72 
  -7   3  14    9.91    1.73 
   7   3 -14   11.00    0.71 
  -6  -3  14    9.97    0.85 
   6  -3 -14   11.68    1.43 
  -6  -3  14   11.49    0.78 
   6   3 -14   12.49    0.74 
   6   3 -14   12.14    0.77 
  -6   3  14   13.81    1.50 
  -5  -3  14   21.52    0.81 
  -5  -3  14   23.94    0.94 
   5  -3 -14   25.53    1.51 
   5  -3 -14   21.51    1.48 
   5  -3 -14   20.71    1.46 
   5  -3 -14   23.19    1.43 
  -5  -3  14   20.94    1.01 
   5   3 -14   22.38    0.95 
  -5   3  14   23.85    1.57 
   5   3 -14   20.11    0.88 
  -5   3  14   21.41    1.32 
  -5   3  14   20.49    1.33 
   5   3 -14   22.37    0.91 
  -5   3  14   22.03    1.51 
   4  -3 -14   46.38    1.89 
   4  -3 -14   47.32    1.80 
   4  -3 -14   48.14    1.83 
  -4  -3  14   46.68    1.40 
   4  -3 -14   46.38    1.80 
  -4  -3  14   48.40    1.50 
  -4   3  14   47.57    1.92 
  -4   3  14   46.04    1.76 
   4   3 -14   49.07    1.45 
  -4   3  14   48.58    1.87 
   4   3 -14   47.70    1.34 
   4   3 -14   45.86    1.36 
  -4   3  14   47.92    1.79 
   3  -3 -14   56.65    1.89 
  -3  -3  14   54.62    1.59 
  -3  -3  14   53.09    1.68 
   3  -3 -14   55.79    1.95 
   3  -3 -14   53.67    2.00 
   3  -3 -14   55.93    1.90 
  -3   3  14   55.73    1.91 
  -3   3  14   54.87    1.93 
   3   3 -14   55.21    1.55 
   3   3 -14   54.31    1.55 
  -3   3  14   55.81    1.99 
   3   3 -14   57.19    1.65 
  -3   3  14   55.53    1.86 
   2  -3 -14   21.65    1.21 
  -2  -3  14   21.29    0.96 
   2  -3 -14   18.81    1.17 
   2  -3 -14   20.11    1.25 
  -2  -3  14   19.81    0.91 
  -2   3  14   20.40    1.25 
   2   3 -14   19.74    0.97 
   2   3 -14   18.88    0.90 
  -2   3  14   19.21    1.14 
  -2   3  14   20.48    1.21 
   2   3 -14   20.84    1.01 
  -2   3  14   18.42    1.20 
   1  -3 -14    9.49    1.00 
  -1  -3  14    7.56    0.85 
  -1  -3  14    9.14    0.77 
   1  -3 -14    8.72    1.05 
  -1  -3  14    7.89    0.73 
   1  -3 -14    8.89    0.98 
   1  -3 -14    7.32    0.91 
  -1   3  14    8.08    0.94 
  -1   3  14    9.05    0.96 
   1   3 -14    8.53    0.82 
  -1   3  14    8.46    0.94 
   1   3 -14    8.28    0.83 
   1   3 -14    7.44    0.76 
  -1   3  14    7.13    1.02 
   0  -3  14   37.41    1.52 
   0  -3 -14   37.79    1.50 
   0  -3 -14   37.95    1.59 
   0  -3  14   35.67    1.33 
   0  -3  14   35.73    1.38 
   0  -3 -14   37.65    1.50 
   0  -3 -14   38.85    1.53 
   0   3  14   36.11    1.48 
   0   3  14   38.61    1.51 
   0   3  14   36.34    1.49 
   0   3  14   36.52    1.53 
   0   3 -14   36.80    1.44 
   0   3 -14   35.79    1.43 
   0   3 -14   36.96    1.38 
  -1  -3 -14   25.28    1.37 
  -1  -3 -14   25.36    1.29 
  -1  -3 -14   24.94    1.30 
   1  -3  14   23.36    1.36 
   1  -3  14   27.74    1.26 
   1  -3  14   22.88    1.16 
  -1   3 -14   24.84    1.25 
   1   3  14   25.77    1.29 
  -1   3 -14   26.45    1.32 
   1   3  14   24.49    1.28 
   1   3  14   25.84    1.27 
  -1   3 -14   24.47    1.20 
   2  -3  14   18.57    1.15 
   2  -3  14   18.67    1.33 
  -2  -3 -14   20.36    1.33 
  -2  -3 -14   18.22    1.27 
   2  -3  14   19.55    1.21 
  -2   3 -14   18.00    1.24 
   2   3  14   18.49    1.27 
  -2   3 -14   18.66    1.20 
   2   3  14   20.19    1.21 
  -2   3 -14   20.37    1.34 
   2   3  14   19.11    1.25 
  -3  -3 -14   34.98    1.69 
   3  -3  14   36.28    1.65 
  -3   3 -14   38.03    1.64 
  -3   3 -14   34.07    1.72 
   3   3  14   36.40    1.60 
  -4  -3 -14    1.12    0.76 
   4  -3  14    3.04    0.80 
  -4   3 -14    1.42    0.68 
   4   3  14    0.95    0.64 
  -5  -3 -14   -1.25    0.72 
   5  -3  14   -0.89    0.82 
  -5   3 -14    0.57    0.86 
   5   3  14    1.15    0.72 
   6  -4 -14    8.78    1.57 
  -6  -4  14    9.51    0.76 
  -6  -4  14   10.66    0.70 
  -6   4  14   10.85    1.36 
   6   4 -14   10.49    0.59 
   6   4 -14   10.52    0.57 
  -5  -4  14   22.98    1.05 
   5  -4 -14   22.53    1.68 
   5  -4 -14   23.03    1.74 
  -5  -4  14   23.05    0.93 
  -5   4  14   22.80    1.82 
  -5   4  14   23.29    1.55 
   5   4 -14   21.99    0.86 
   5   4 -14   20.56    1.32 
   4  -4 -14   25.05    1.60 
   4  -4 -14   20.51    1.58 
  -4  -4  14   18.74    0.91 
  -4  -4  14   20.41    1.07 
   4  -4 -14   24.17    2.05 
   4   4 -14   21.72    0.99 
  -4   4  14   22.51    1.66 
  -4   4  14   21.67    1.46 
   4   4 -14   22.07    0.88 
   3  -4 -14   26.37    1.52 
  -3  -4  14   23.61    1.19 
  -3  -4  14   25.37    0.94 
  -3  -4  14   26.92    1.05 
   3  -4 -14   26.36    2.16 
   3   4 -14   26.30    1.01 
  -3   4  14   23.18    1.56 
   3   4 -14   25.48    0.96 
   3   4 -14   27.07    1.14 
  -3   4  14   24.55    2.33 
  -2  -4  14   16.23    0.91 
   2  -4 -14   17.64    1.43 
  -2  -4  14   14.29    1.12 
   2  -4 -14   15.83    1.27 
   2   4 -14   15.51    1.25 
  -2   4  14   15.74    1.25 
   2   4 -14   16.96    1.00 
  -2   4  14   14.14    1.24 
   2   4 -14   17.27    0.91 
   1  -4 -14   19.93    1.40 
  -1  -4  14   20.37    1.06 
   1  -4 -14   18.50    1.27 
   1   4 -14   21.87    1.24 
  -1   4  14   17.86    1.25 
   1   4 -14   19.89    1.05 
  -1   4  14   20.20    1.33 
   0  -4 -14   11.97    1.24 
   0  -4  14   10.03    0.96 
   0   4 -14    7.24    0.91 
   1  -4  14   20.16    1.25 
  -1  -4 -14   23.43    1.47 
  -1   4 -14   20.44    1.22 
   1   4  14   21.24    1.33 
   2  -4  14   41.46    1.77 
  -2  -4 -14   44.32    1.90 
  -2   4 -14   41.92    1.72 
   2   4  14   41.20    1.74 
   3  -4  14    2.68    0.81 
  -3  -4 -14    3.29    0.85 
  -3   4 -14    3.28    0.76 
   3   4  14    2.07    0.74 
  -3  -5  14   18.46    1.06 
   3  -5 -14   14.20    1.62 
  -3   5  14   18.35    1.55 
   3   5 -14   16.64    0.88 
   2  -5 -14   10.85    1.47 
  -2  -5  14   11.21    0.91 
  -2   5  14   10.94    1.38 
   2   5 -14    9.37    0.84 
   1  -5 -14   22.68    1.65 
  -1  -5  14   19.73    1.17 
   1   5 -14   22.70    1.17 
  -1   5  14   23.25    1.55 
   0  -5  14   20.24    1.24 
   0  -5 -14   23.89    1.59 
   0   5  14   20.89    1.52 
   0   5 -14   18.50    1.23 
   1  -5  14    7.17    1.16 
   1   5  14    7.29    1.26 
  -1   5 -14   10.42    1.18 
   8   0 -15    0.16    0.60 
  -8   0  15   -1.25    0.65 
   7   0 -15   -0.25    0.54 
  -6   0  15    0.04    0.45 
   6   0 -15   -0.22    0.47 
   6   0 -15    0.08    0.51 
  -6   0  15    0.19    0.50 
  -6   0  15    1.03    0.51 
   6   0 -15   -0.11    0.36 
  -5   0  15    0.80    0.49 
   5   0 -15    0.53    0.43 
   5   0 -15    0.34    0.45 
   5   0 -15   -0.24    0.53 
  -5   0  15    0.64    0.44 
  -5   0  15    0.36    0.47 
   4   0 -15    0.20    0.35 
   4   0 -15   -0.19    0.38 
   4   0 -15   -0.32    0.66 
  -4   0  15    0.19    0.40 
  -4   0  15   -0.36    0.41 
  -4   0  15   -0.27    0.38 
   3   0 -15    0.89    0.43 
  -3   0  15    0.41    0.39 
   3   0 -15    0.04    0.37 
   3   0 -15    0.60    0.43 
   3   0 -15    0.19    0.39 
  -3   0  15    0.67    0.36 
  -3   0  15    0.81    0.40 
  -3   0  15    0.38    0.44 
  -2   0  15   -0.43    0.38 
  -2   0  15   -0.37    0.38 
   2   0 -15    0.43    0.42 
   2   0 -15    0.27    0.38 
  -2   0  15    0.65    0.40 
   2   0 -15   -0.64    0.47 
  -2   0  15    0.19    0.38 
   2   0 -15   -0.44    0.36 
  -1   0  15   -0.14    0.35 
   1   0 -15   -0.18    0.33 
  -1   0  15   -0.06    0.33 
   1   0 -15    0.46    0.39 
  -1   0  15    0.26    0.45 
   1   0 -15    0.08    0.43 
   1   0 -15    0.33    0.43 
  -1   0  15   -0.29    0.31 
   0   0  15    0.53    0.39 
   0   0  15    0.38    0.52 
   0   0 -15    0.56    0.43 
   0   0 -15    0.09    0.42 
   0   0  15   -0.21    0.40 
   0   0  15    0.03    0.41 
   0   0 -15   -0.27    0.43 
   0   0 -15   -0.02    0.39 
  -1   0 -15    0.49    0.48 
  -1   0 -15    0.34    0.50 
  -1   0 -15    0.19    0.47 
   1   0  15    0.16    0.36 
  -1   0 -15    0.60    0.44 
   1   0  15    0.24    0.45 
   1   0  15    0.43    0.53 
   1   0  15    0.31    0.50 
  -2   0 -15   -1.00    0.48 
   2   0  15   -0.42    0.52 
  -2   0 -15    0.21    0.55 
  -2   0 -15   -0.73    0.59 
   2   0  15   -0.38    0.42 
  -2   0 -15   -0.12    0.42 
   2   0  15    0.40    0.56 
   2   0  15   -0.34    0.46 
  -3   0 -15   -0.51    0.48 
  -3   0 -15   -0.41    0.69 
  -3   0 -15    0.17    0.65 
   3   0  15    0.33    0.52 
  -3   0 -15    0.10    0.59 
   3   0  15   -0.26    0.72 
   3   0  15   -0.32    0.50 
   3   0  15    0.26    0.51 
  -4   0 -15    0.80    0.59 
   4   0  15   -1.45    1.01 
   4   0  15    0.32    0.65 
  -4   0 -15   -0.45    0.76 
   4   0  15    1.15    1.06 
  -5   0 -15   -0.53    0.76 
   5   0  15   -0.08    0.67 
   8  -1 -15    1.33    0.74 
  -8  -1  15    1.26    0.63 
  -8   1  15    0.66    0.77 
   8   1 -15    0.20    0.55 
  -7  -1  15    8.28    0.95 
   7  -1 -15    7.94    1.11 
  -7   1  15    5.45    0.84 
   7   1 -15    5.79    0.88 
  -6  -1  15    4.42    0.56 
   6  -1 -15    3.20    0.66 
  -6  -1  15    3.36    0.59 
  -6  -1  15    3.71    0.58 
   6  -1 -15    4.60    0.74 
  -6   1  15    2.75    0.59 
   6   1 -15    3.37    0.49 
  -6   1  15    4.31    0.76 
   6   1 -15    3.93    0.65 
   6   1 -15    3.86    0.56 
   5  -1 -15   12.12    1.06 
  -5  -1  15   10.48    0.84 
   5  -1 -15   10.03    0.94 
   5  -1 -15    9.52    1.09 
  -5  -1  15   11.14    0.84 
  -5  -1  15   11.68    0.82 
   5   1 -15   11.05    1.19 
   5   1 -15   10.47    0.85 
  -5   1  15   10.88    0.95 
  -5   1  15   10.90    1.08 
  -5   1  15   10.52    1.02 
   5   1 -15   10.95    0.95 
   4  -1 -15   24.90    1.27 
   4  -1 -15   23.03    1.17 
  -4  -1  15   23.98    1.07 
  -4  -1  15   24.21    1.06 
   4  -1 -15   24.16    1.20 
   4  -1 -15   26.39    1.22 
  -4  -1  15   24.35    1.06 
   4   1 -15   25.71    1.02 
  -4   1  15   24.60    1.22 
  -4   1  15   23.90    1.17 
   4   1 -15   24.30    1.09 
   4   1 -15   25.12    1.07 
  -4   1  15   25.42    1.15 
  -4   1  15   23.79    1.24 
  -3  -1  15    0.06    0.37 
   3  -1 -15    0.88    0.45 
   3  -1 -15    0.17    0.42 
  -3  -1  15   -0.07    0.39 
   3  -1 -15    1.05    0.50 
   3  -1 -15    0.32    0.48 
  -3  -1  15    0.06    0.34 
  -3  -1  15    0.83    0.40 
  -3   1  15    0.64    0.47 
  -3   1  15    0.03    0.44 
  -3   1  15    0.83    0.43 
   3   1 -15    0.18    0.35 
   3   1 -15    1.17    0.49 
  -3   1  15    0.20    0.49 
   3   1 -15    0.81    0.45 
  -2  -1  15    0.28    0.37 
   2  -1 -15    0.02    0.45 
  -2  -1  15    0.21    0.31 
   2  -1 -15    0.51    0.45 
   2  -1 -15    0.42    0.41 
  -2  -1  15   -0.06    0.39 
  -2  -1  15    0.57    0.42 
   2  -1 -15   -0.27    0.45 
  -2   1  15    0.02    0.41 
   2   1 -15   -0.06    0.34 
  -2   1  15    0.18    0.44 
   2   1 -15    0.62    0.40 
   2   1 -15   -0.23    0.35 
  -2   1  15    0.50    0.42 
   2   1 -15    0.09    0.33 
  -2   1  15   -0.04    0.45 
  -1  -1  15    4.44    0.74 
   1  -1 -15    6.35    0.76 
   1  -1 -15    6.16    0.81 
   1  -1 -15    5.33    0.78 
  -1  -1  15    5.38    0.70 
  -1  -1  15    4.63    0.70 
  -1  -1  15    4.86    0.69 
   1  -1 -15    4.41    0.67 
  -1   1  15    4.18    0.74 
   1   1 -15    3.56    0.50 
   1   1 -15    5.27    0.78 
   1   1 -15    5.32    0.71 
  -1   1  15    5.10    0.85 
   1   1 -15    5.12    0.76 
  -1   1  15    4.53    0.76 
  -1   1  15    5.65    0.78 
   0  -1  15   53.16    1.71 
   0  -1 -15   53.32    1.73 
   0  -1 -15   54.53    1.81 
   0  -1 -15   54.49    1.72 
   0  -1 -15   53.60    1.74 
   0  -1  15   51.24    1.75 
   0  -1  15   53.35    1.70 
   0  -1  15   52.98    1.68 
   0   1  15   52.41    1.69 
   0   1  15   53.48    1.73 
   0   1 -15   56.29    1.77 
   0   1  15   56.03    1.81 
   0   1 -15   53.81    1.71 
   0   1 -15   54.42    1.71 
   0   1 -15   53.14    1.78 
   0   1  15   54.75    1.74 
  -1  -1 -15    0.58    0.53 
  -1  -1 -15    0.92    0.57 
   1  -1  15    1.10    0.42 
   1  -1  15    0.35    0.40 
  -1  -1 -15    1.25    0.46 
   1  -1  15    1.34    0.57 
  -1  -1 -15    1.37    0.41 
   1  -1  15    0.35    0.45 
   1   1  15    1.29    0.48 
   1   1  15    0.84    0.55 
   1   1  15    0.63    0.52 
  -1   1 -15    0.79    0.46 
  -1   1 -15    1.52    0.50 
  -1   1 -15    0.78    0.56 
  -1   1 -15    1.11    0.53 
   1   1  15    0.48    0.49 
  -2  -1 -15    9.05    1.06 
   2  -1  15    7.08    0.90 
   2  -1  15    5.94    0.89 
   2  -1  15    6.20    0.97 
   2  -1  15    8.39    1.10 
  -2  -1 -15    8.36    0.92 
  -2  -1 -15    6.81    0.99 
  -2  -1 -15    8.72    1.01 
  -2   1 -15    7.60    1.06 
   2   1  15    6.12    1.00 
  -2   1 -15    8.03    1.03 
  -2   1 -15    7.28    1.03 
   2   1  15    7.63    1.05 
   2   1  15    6.79    0.93 
  -2   1 -15    8.48    0.96 
   2   1  15    6.65    0.91 
  -3  -1 -15    1.97    0.83 
   3  -1  15    3.28    0.65 
  -3  -1 -15    2.91    0.59 
   3  -1  15    3.68    0.69 
   3  -1  15    3.49    0.86 
   3  -1  15    3.92    0.75 
  -3  -1 -15    3.00    0.71 
  -3  -1 -15    2.81    0.65 
  -3   1 -15    6.67    1.15 
  -3   1 -15    3.24    0.70 
  -3   1 -15    3.86    0.69 
   3   1  15    3.15    0.73 
   3   1  15    4.35    0.71 
   3   1  15    4.36    1.04 
   3   1  15    3.11    0.67 
  -3   1 -15    3.73    0.84 
   4  -1  15    0.64    0.55 
  -4  -1 -15   -0.23    0.94 
  -4  -1 -15   -0.35    0.67 
   4  -1  15   -0.06    0.60 
   4  -1  15    1.18    0.74 
   4  -1  15   -0.50    0.90 
  -4   1 -15   -0.70    0.68 
   4   1  15    0.29    0.59 
  -4   1 -15    0.04    0.65 
  -4   1 -15   -0.04    0.66 
   4   1  15   -0.66    0.68 
  -4   1 -15   -0.62    0.81 
   5  -1  15   -1.35    0.61 
  -5  -1 -15    0.10    0.69 
   5   1  15    0.29    0.63 
  -5   1 -15   -0.73    0.75 
   7  -2 -15    2.17    0.85 
  -7  -2  15    4.23    0.63 
  -7   2  15    5.57    0.90 
   7   2 -15    3.71    0.57 
   6  -2 -15   10.77    1.31 
  -6  -2  15   12.02    0.87 
  -6  -2  15   11.56    0.87 
   6   2 -15   12.44    0.80 
   6   2 -15   13.06    0.87 
  -6   2  15   12.79    1.25 
   6   2 -15   12.90    0.82 
  -5  -2  15    5.80    0.73 
  -5  -2  15    5.74    0.71 
   5  -2 -15    3.93    0.78 
   5  -2 -15    4.85    0.69 
   5  -2 -15    6.03    1.08 
  -5  -2  15    5.17    0.72 
   5   2 -15    5.79    0.67 
  -5   2  15    5.52    0.96 
  -5   2  15    3.63    1.42 
  -5   2  15    5.52    1.00 
   5   2 -15    5.21    0.70 
   5   2 -15    5.69    0.81 
   4  -2 -15    2.95    0.63 
   4  -2 -15    2.61    0.51 
  -4  -2  15    2.65    0.46 
   4  -2 -15    3.66    0.67 
   4  -2 -15    3.54    0.68 
  -4  -2  15    3.61    0.54 
  -4  -2  15    3.43    0.48 
   4   2 -15    2.62    0.41 
  -4   2  15    4.32    0.73 
   4   2 -15    4.38    0.72 
  -4   2  15    3.00    0.56 
  -4   2  15    3.00    0.63 
  -4   2  15    3.44    0.70 
   4   2 -15    3.75    0.64 
  -3  -2  15    8.39    0.72 
   3  -2 -15    6.33    0.91 
   3  -2 -15    9.16    0.98 
  -3  -2  15    6.56    0.77 
   3  -2 -15    8.27    1.03 
  -3  -2  15    7.26    0.67 
  -3   2  15    6.68    0.97 
   3   2 -15    7.99    0.77 
   3   2 -15    7.68    0.72 
  -3   2  15    8.27    1.00 
  -3   2  15    7.08    0.88 
  -3   2  15    6.13    0.99 
   3   2 -15    7.21    0.68 
   2  -2 -15    1.37    0.57 
   2  -2 -15    3.44    0.64 
   2  -2 -15    2.56    0.62 
   2  -2 -15    2.76    0.57 
  -2  -2  15    3.25    0.49 
  -2  -2  15    2.38    0.50 
  -2  -2  15    3.36    0.51 
  -2   2  15    3.18    0.60 
  -2   2  15    2.31    0.60 
   2   2 -15    3.04    0.49 
  -2   2  15    2.18    0.56 
   2   2 -15    1.85    0.48 
  -2   2  15    2.98    0.70 
   1  -2 -15   -0.23    0.42 
   1  -2 -15   -1.05    0.74 
  -1  -2  15    0.19    0.37 
  -1  -2  15    0.24    0.47 
   1  -2 -15    0.19    0.46 
  -1  -2  15   -0.26    0.34 
   1  -2 -15   -0.24    0.50 
  -1   2  15   -0.47    0.50 
  -1   2  15   -0.31    0.42 
   1   2 -15    0.38    0.37 
  -1   2  15    0.89    0.60 
   1   2 -15   -0.73    0.39 
  -1   2  15    0.30    0.47 
   0  -2 -15    1.49    0.53 
   0  -2 -15    1.77    0.55 
   0  -2  15    2.51    0.58 
   0  -2 -15    2.37    0.62 
   0  -2  15    3.04    0.74 
   0  -2 -15    2.61    0.61 
   0  -2  15    2.09    0.49 
   0  -2  15    2.90    0.53 
   0   2 -15    1.83    0.51 
   0   2  15    1.14    0.42 
   0   2 -15    2.35    0.51 
   0   2  15    1.57    0.51 
   0   2 -15    1.80    0.52 
   0   2  15    2.15    0.66 
   0   2  15    0.42    0.52 
  -1  -2 -15    2.95    0.65 
  -1  -2 -15    1.55    0.46 
   1  -2  15    1.62    0.47 
   1  -2  15    2.20    0.65 
  -1  -2 -15    1.77    0.58 
   1  -2  15    0.99    0.49 
   1  -2  15    1.45    0.56 
  -1  -2 -15    1.52    0.54 
   1   2  15    2.14    0.73 
   1   2  15    2.05    0.56 
  -1   2 -15    1.88    0.51 
  -1   2 -15    0.70    0.55 
   1   2  15    2.40    0.66 
  -1   2 -15    1.23    0.88 
   1   2  15    1.26    0.57 
  -1   2 -15    2.60    0.89 
  -2  -2 -15   29.08    1.51 
   2  -2  15   29.85    1.38 
  -2  -2 -15   30.02    1.37 
  -2  -2 -15   31.94    1.55 
   2  -2  15   33.03    1.57 
   2  -2  15   32.79    1.66 
  -2   2 -15   32.07    1.80 
   2   2  15   32.02    1.45 
   2   2  15   33.15    1.48 
   2   2  15   33.84    1.58 
  -2   2 -15   38.92    2.26 
  -2   2 -15   31.00    1.50 
   3  -2  15    1.77    0.61 
  -3  -2 -15    3.32    0.77 
   3  -2  15    2.38    1.23 
  -3  -2 -15    1.68    0.66 
   3  -2  15    2.60    0.79 
  -3   2 -15    2.45    0.78 
  -3   2 -15    1.31    0.70 
   3   2  15    2.37    0.65 
   3   2  15    2.16    0.62 
   4  -2  15    5.10    0.80 
  -4  -2 -15    2.81    0.88 
  -4   2 -15    2.65    0.77 
   4   2  15    2.84    0.70 
  -5  -2 -15    2.71    0.86 
   5   2  15    2.51    0.72 
   7  -3 -15    2.39    0.97 
  -7  -3  15    3.10    0.63 
  -7   3  15    3.53    1.05 
   7   3 -15    1.83    0.43 
  -6  -3  15    1.43    0.47 
   6  -3 -15   -0.03    0.80 
  -6   3  15    2.32    0.88 
   6   3 -15    1.41    0.45 
   6   3 -15    1.14    0.43 
   5  -3 -15    1.14    0.85 
  -5  -3  15    0.66    0.42 
   5  -3 -15   -0.21    0.80 
  -5  -3  15    1.42    0.47 
  -5  -3  15    0.62    0.39 
  -5   3  15    1.23    0.64 
  -5   3  15    2.75    1.33 
   5   3 -15    0.41    0.41 
   5   3 -15    0.45    0.38 
   5   3 -15    0.86    0.38 
   4  -3 -15    4.36    0.79 
   4  -3 -15    4.40    0.88 
  -4  -3  15    3.40    0.48 
   4  -3 -15    1.71    0.76 
  -4  -3  15    3.26    0.55 
   4  -3 -15    4.26    0.81 
  -4  -3  15    3.53    0.62 
  -4   3  15    3.91    0.79 
   4   3 -15    3.94    0.62 
  -4   3  15    4.63    0.86 
  -4   3  15    4.10    0.70 
   4   3 -15    3.53    0.52 
  -4   3  15    4.97    0.92 
   3  -3 -15    1.78    0.73 
  -3  -3  15    0.81    0.41 
   3  -3 -15   -0.09    0.66 
   3  -3 -15    1.33    0.70 
   3  -3 -15    2.11    0.67 
  -3  -3  15    0.51    0.48 
   3   3 -15    1.28    0.47 
   3   3 -15    1.06    0.39 
  -3   3  15    1.23    0.57 
   3   3 -15    0.58    0.42 
  -3   3  15    0.95    0.60 
  -3   3  15    1.02    0.66 
  -3   3  15    0.65    0.70 
   2  -3 -15   -0.27    0.63 
  -2  -3  15    0.35    0.37 
   2  -3 -15    0.39    0.65 
   2  -3 -15    0.79    0.56 
  -2  -3  15    0.52    0.39 
  -2  -3  15    0.16    0.51 
  -2   3  15   -0.24    0.63 
  -2   3  15    0.48    0.71 
   2   3 -15    0.27    0.46 
  -2   3  15   -0.13    0.47 
  -2   3  15   -0.09    0.62 
   2   3 -15   -0.03    0.36 
   1  -3 -15    9.91    1.06 
  -1  -3  15    9.26    0.82 
  -1  -3  15    8.82    0.81 
   1  -3 -15    9.95    1.15 
  -1  -3  15   11.16    0.98 
   1  -3 -15   10.94    1.06 
   1  -3 -15   10.44    1.17 
   1   3 -15   10.71    0.85 
  -1   3  15    9.89    1.08 
   1   3 -15    9.10    0.87 
  -1   3  15    9.74    1.08 
  -1   3  15    8.30    1.10 
   1   3 -15   10.08    0.93 
  -1   3  15    8.50    1.16 
   0  -3 -15    2.84    0.62 
   0  -3 -15    4.71    1.05 
   0  -3  15    3.03    0.65 
   0  -3  15    4.14    0.57 
   0  -3 -15    2.06    0.90 
   0  -3 -15    1.46    0.66 
   0  -3  15    2.94    0.58 
   0   3 -15    2.36    0.54 
   0   3 -15    3.26    0.63 
   0   3  15    2.38    1.10 
   0   3  15    2.85    0.67 
   0   3 -15    2.89    0.61 
  -1  -3 -15    3.28    0.64 
  -1  -3 -15    2.72    0.71 
   1  -3  15    3.44    0.59 
   1  -3  15    3.19    0.61 
  -1  -3 -15    2.60    0.72 
   1   3  15    3.31    0.66 
  -1   3 -15    3.15    0.58 
   1   3  15    3.79    0.72 
   1   3  15    3.46    0.70 
  -1   3 -15    1.52    0.61 
  -2  -3 -15   -0.30    0.65 
   2  -3  15    0.40    0.55 
  -2   3 -15    0.89    0.59 
   2   3  15    1.29    0.59 
   3  -3  15    2.47    0.69 
  -3  -3 -15    2.03    0.74 
  -3   3 -15    1.67    0.70 
   3   3  15    2.53    0.71 
   4  -3  15   21.59    1.56 
  -4  -3 -15   23.22    1.63 
  -4   3 -15   21.76    1.62 
   4   3  15   19.97    1.56 
  -5  -4  15    0.06    0.41 
   5   4 -15   -0.88    0.36 
  -4  -4  15    0.02    0.40 
   4  -4 -15    0.99    0.85 
   4  -4 -15    1.65    1.78 
   4   4 -15    1.11    0.41 
  -4   4  15    0.99    0.89 
   4   4 -15    0.48    0.48 
  -4   4  15   -0.90    1.16 
   3  -4 -15    0.83    0.77 
  -3  -4  15    0.45    0.42 
   3  -4 -15   -0.31    0.76 
  -3   4  15   -0.67    0.62 
  -3   4  15    0.94    0.66 
   3   4 -15   -0.15    0.39 
   2  -4 -15    3.76    0.90 
  -2  -4  15    4.11    0.56 
   2   4 -15    3.70    0.54 
  -2   4  15    3.54    1.00 
  -2   4  15    4.03    0.75 
  -1  -4  15    7.28    0.86 
  -1   4  15    7.40    1.18 
   1   4 -15    5.05    0.85 
   0  -4  15    0.04    0.52 
   0  -4 -15    0.36    0.73 
   0   4 -15   -0.11    0.49 
  -1  -4 -15    5.03    0.93 
   1  -4  15    3.82    0.71 
   1   4  15    4.71    0.75 
  -1   4 -15    3.08    0.66 
  -2  -4 -15    3.75    0.85 
   2  -4  15    4.38    0.82 
  -2   4 -15    3.49    0.74 
   2   4  15    2.87    0.77 
  -3  -4 -15    0.03    0.79 
   3   4  15    1.53    0.71 
  -8   0  16   15.64    1.35 
   8   0 -16   19.04    1.35 
  -7   0  16   19.14    1.29 
   7   0 -16   17.92    1.26 
   6   0 -16    5.45    0.69 
  -6   0  16    6.07    0.97 
  -5   0  16   78.62    2.30 
   5   0 -16   78.93    2.25 
   5   0 -16   75.73    2.27 
  -5   0  16   75.64    2.17 
  -5   0  16   76.96    2.25 
   5   0 -16   77.83    2.19 
  -4   0  16   57.22    1.84 
   4   0 -16   55.64    1.75 
   4   0 -16   57.80    1.82 
  -4   0  16   55.57    1.82 
  -3   0  16   39.66    1.40 
  -3   0  16   37.45    1.33 
   3   0 -16   36.92    1.39 
   3   0 -16   37.28    1.39 
  -3   0  16   35.36    1.59 
  -3   0  16   40.00    1.46 
   3   0 -16   34.43    1.60 
   3   0 -16   38.27    1.46 
  -2   0  16  154.98    3.67 
  -2   0  16  161.40    3.82 
   2   0 -16  160.01    3.74 
   2   0 -16  156.89    3.72 
  -2   0  16  158.28    3.73 
  -2   0  16  157.48    3.76 
   2   0 -16  154.58    3.79 
   2   0 -16  151.89    3.69 
   1   0 -16   10.19    0.94 
  -1   0  16   12.69    0.90 
  -1   0  16    9.94    1.00 
   1   0 -16   11.21    0.92 
   1   0 -16   10.66    0.88 
   1   0 -16   10.24    0.92 
  -1   0  16   11.42    0.90 
  -1   0  16   10.05    0.90 
   0   0 -16    6.23    0.87 
   0   0  16    6.23    0.85 
   0   0 -16    6.55    0.91 
   0   0 -16    7.66    1.31 
   0   0  16    6.24    0.83 
   0   0 -16    6.45    0.84 
   0   0  16    4.21    0.65 
   0   0  16    5.01    0.82 
  -1   0 -16   83.20    2.48 
  -1   0 -16   85.77    2.39 
   1   0  16   85.05    2.44 
   1   0  16   83.25    2.48 
  -1   0 -16   84.72    2.41 
  -1   0 -16   84.02    2.46 
   1   0  16   82.27    2.39 
   1   0  16   80.76    2.40 
  -2   0 -16   10.12    1.02 
  -2   0 -16   10.32    1.23 
   2   0  16   10.93    1.07 
   2   0  16   10.32    1.14 
  -2   0 -16   10.19    1.18 
   2   0  16    9.15    1.02 
   2   0  16    9.63    1.24 
  -2   0 -16   10.15    1.18 
  -3   0 -16   10.71    1.32 
   3   0  16   10.19    1.17 
  -3   0 -16   13.29    1.12 
   3   0  16   13.06    1.19 
  -3   0 -16   12.61    1.37 
  -3   0 -16   13.41    1.34 
   3   0  16   10.66    1.26 
   3   0  16   14.84    1.43 
  -4   0 -16   17.34    1.52 
   4   0  16   16.93    1.32 
   4   0  16   18.67    1.40 
  -4   0 -16   17.70    1.43 
   5   0  16    0.53    0.79 
  -5   0 -16   -1.31    0.81 
  -7  -1  16   21.94    1.31 
   7  -1 -16   24.49    1.47 
  -7   1  16   23.25    1.49 
   7   1 -16   21.73    1.21 
   6  -1 -16   14.61    1.23 
  -6  -1  16   16.26    1.09 
  -6   1  16   15.34    1.22 
   6   1 -16   16.19    1.05 
  -5  -1  16   25.85    1.19 
  -5  -1  16   23.06    1.13 
   5  -1 -16   23.39    1.26 
  -5  -1  16   23.86    1.10 
   5  -1 -16   24.41    1.44 
   5  -1 -16   25.04    1.37 
   5   1 -16   23.62    1.16 
   5   1 -16   22.26    1.20 
  -5   1  16   24.71    1.35 
  -5   1  16   23.61    1.35 
   5   1 -16   24.75    1.07 
   4  -1 -16   83.11    2.48 
  -4  -1  16   84.44    2.28 
  -4  -1  16   85.82    2.31 
  -4  -1  16   82.36    2.31 
   4  -1 -16   85.27    2.43 
   4  -1 -16   88.62    2.42 
   4   1 -16   83.36    2.32 
  -4   1  16   86.79    2.48 
  -4   1  16   86.24    2.42 
  -4   1  16   89.17    2.51 
   4   1 -16   84.56    2.29 
   3  -1 -16   59.93    1.92 
  -3  -1  16   59.77    1.86 
  -3  -1  16   59.47    1.78 
   3  -1 -16   62.68    1.99 
  -3  -1  16   60.70    1.84 
   3  -1 -16   59.61    1.92 
   3  -1 -16   61.84    1.91 
   3   1 -16   60.29    1.81 
   3   1 -16   59.53    1.76 
  -3   1  16   60.56    1.88 
  -3   1  16   60.59    2.00 
   3   1 -16   61.62    1.87 
  -3   1  16   61.84    1.97 
  -3   1  16   60.58    1.92 
  -2  -1  16   25.13    1.14 
   2  -1 -16   18.83    1.68 
   2  -1 -16   22.84    1.23 
   2  -1 -16   24.75    1.21 
   2  -1 -16   25.25    1.21 
  -2  -1  16   23.28    1.15 
  -2  -1  16   25.45    1.09 
   2   1 -16   23.61    1.09 
   2   1 -16   24.57    1.09 
   2   1 -16   22.56    1.13 
  -2   1  16   18.17    1.42 
  -2   1  16   22.78    1.18 
  -2   1  16   24.36    1.18 
  -2   1  16   23.56    1.13 
   1  -1 -16   38.86    1.50 
   1  -1 -16   37.79    1.46 
   1  -1 -16   39.51    1.57 
  -1  -1  16   36.83    1.47 
  -1  -1  16   36.91    1.40 
   1  -1 -16   36.90    1.46 
  -1   1  16   38.77    1.44 
  -1   1  16   37.85    1.47 
  -1   1  16   37.85    1.56 
  -1   1  16   36.14    1.46 
   1   1 -16   38.10    1.47 
   1   1 -16   36.63    1.95 
   1   1 -16   38.71    1.41 
   1   1 -16   34.60    1.73 
   0  -1  16   49.06    1.70 
   0  -1 -16   50.93    1.75 
   0  -1 -16   48.87    1.68 
   0  -1  16   45.64    1.73 
   0  -1 -16   48.84    1.76 
   0  -1 -16   50.75    1.82 
   0  -1  16   49.62    1.68 
   0  -1  16   49.81    1.67 
   0   1 -16   50.37    1.74 
   0   1  16   48.12    1.69 
   0   1 -16   47.14    1.69 
   0   1  16   48.28    1.71 
   0   1  16   49.82    1.82 
   0   1 -16   50.95    1.78 
   0   1  16   49.75    1.71 
   0   1 -16   50.76    1.67 
   1  -1  16   31.25    1.38 
  -1  -1 -16   30.68    1.37 
   1  -1  16   32.49    1.55 
  -1  -1 -16   31.33    1.48 
  -1  -1 -16   31.08    1.49 
   1  -1  16   31.12    1.37 
   1  -1  16   30.90    1.36 
  -1  -1 -16   28.97    1.44 
   1   1  16   31.93    1.44 
  -1   1 -16   28.65    1.47 
  -1   1 -16   32.68    1.50 
   1   1  16   30.24    1.52 
   1   1  16   31.11    1.43 
  -1   1 -16   30.81    1.37 
   1   1  16   30.45    1.41 
   2  -1  16   15.74    1.22 
  -2  -1 -16   17.09    1.31 
  -2  -1 -16   20.08    1.37 
   2  -1  16   16.69    1.16 
  -2  -1 -16   17.87    1.21 
   2  -1  16   19.62    1.20 
  -2  -1 -16   18.45    1.30 
   2  -1  16   19.05    1.39 
  -2   1 -16   16.11    1.32 
  -2   1 -16   18.13    1.36 
  -2   1 -16   18.99    1.20 
  -2   1 -16   18.23    1.35 
   2   1  16   19.00    1.23 
   2   1  16   21.72    1.38 
   2   1  16   17.42    1.31 
   2   1  16   17.78    1.24 
   3  -1  16    8.55    1.17 
   3  -1  16    6.39    1.11 
  -3  -1 -16    9.29    1.31 
  -3  -1 -16    7.29    1.04 
   3  -1  16    9.34    1.25 
   3  -1  16    9.71    1.36 
  -3   1 -16    9.51    1.36 
  -3   1 -16    6.64    1.13 
   3   1  16    7.44    1.08 
   3   1  16    7.71    1.11 
  -3   1 -16    6.86    1.26 
  -3   1 -16    9.01    1.08 
   4  -1  16    2.17    0.76 
  -4  -1 -16    2.54    0.85 
   4  -1  16    1.92    0.77 
  -4   1 -16    1.89    0.77 
   4   1  16    2.18    0.66 
  -4   1 -16    2.09    0.86 
  -5  -1 -16    5.06    0.97 
   5  -1  16    5.82    0.98 
   5   1  16    5.62    0.88 
  -5   1 -16   10.26    1.62 
  -7  -2  16   13.74    1.01 
   7  -2 -16   11.43    1.47 
   7   2 -16   12.09    0.96 
  -7   2  16   10.31    1.54 
   6  -2 -16   79.19    2.55 
  -6  -2  16   73.34    2.12 
  -6   2  16   70.10    2.49 
   6   2 -16   74.87    2.08 
   5  -2 -16   22.30    1.43 
  -5  -2  16   20.89    1.07 
   5  -2 -16   23.87    1.48 
  -5  -2  16   20.54    1.52 
  -5   2  16   22.08    1.30 
   5   2 -16   21.97    1.00 
  -5   2  16   23.40    1.41 
   5   2 -16   22.70    1.06 
   4  -2 -16    7.18    1.11 
  -4  -2  16    5.14    0.76 
  -4  -2  16    4.98    0.83 
  -4  -2  16    5.52    0.74 
   4  -2 -16    4.99    0.84 
   4  -2 -16    4.56    0.87 
   4  -2 -16    5.91    0.88 
   4   2 -16    6.44    0.71 
  -4   2  16    6.38    0.93 
  -4   2  16    6.61    0.96 
   4   2 -16    6.22    0.85 
  -4   2  16    6.43    0.99 
  -4   2  16    6.15    0.78 
   4   2 -16    4.68    0.72 
   3  -2 -16   25.64    1.40 
   3  -2 -16   24.23    1.36 
  -3  -2  16   24.49    1.16 
   3  -2 -16   24.65    1.36 
  -3  -2  16   25.00    1.12 
  -3  -2  16   25.09    1.07 
   3   2 -16   25.38    1.10 
  -3   2  16   25.63    1.40 
  -3   2  16   26.27    1.42 
   3   2 -16   25.79    1.10 
  -3   2  16   24.66    1.30 
  -3   2  16   24.31    1.29 
   3   2 -16   25.29    1.15 
  -2  -2  16   28.08    1.16 
   2  -2 -16   28.36    1.42 
  -2  -2  16   27.51    1.19 
   2  -2 -16   29.00    1.47 
  -2  -2  16   26.87    1.24 
   2  -2 -16   29.27    1.40 
   2  -2 -16   27.29    1.42 
   2   2 -16   26.90    1.17 
  -2   2  16   29.00    1.43 
   2   2 -16   26.94    1.22 
  -2   2  16   28.22    1.40 
  -2   2  16   28.80    1.38 
  -1  -2  16  105.99    2.79 
   1  -2 -16  109.28    2.93 
  -1  -2  16  106.67    2.87 
  -1  -2  16  107.07    2.75 
   1  -2 -16  104.47    2.99 
   1  -2 -16  111.28    2.91 
   1  -2 -16  108.90    2.90 
  -1   2  16  113.48    2.96 
  -1   2  16  107.84    2.92 
   1   2 -16  106.75    2.80 
  -1   2  16  108.63    2.86 
   1   2 -16  108.25    2.77 
  -1   2  16  106.29    2.94 
   0  -2  16   52.01    1.70 
   0  -2 -16   52.02    1.84 
   0  -2  16   48.80    1.71 
   0  -2 -16   48.79    1.78 
   0  -2 -16   50.62    1.79 
   0  -2 -16   49.16    1.90 
   0  -2  16   51.01    1.84 
   0   2  16   52.59    1.85 
   0   2 -16   51.15    1.72 
   0   2  16   51.74    1.80 
   0   2  16   50.75    1.90 
   0   2 -16   52.17    1.78 
   0   2  16   50.78    1.81 
   0   2 -16   50.58    1.80 
  -1  -2 -16    0.29    0.46 
  -1  -2 -16    1.50    0.64 
  -1  -2 -16   -0.30    0.61 
  -1  -2 -16    0.83    0.66 
   1  -2  16    0.80    0.45 
   1  -2  16    1.47    0.69 
   1  -2  16    0.53    0.50 
   1   2  16   -0.45    0.54 
   1   2  16    0.19    0.68 
  -1   2 -16    1.26    0.55 
   1   2  16    0.04    0.53 
  -1   2 -16    0.35    0.56 
   1   2  16    0.49    0.62 
  -1   2 -16    0.76    0.56 
  -2  -2 -16   15.20    1.38 
  -2  -2 -16   14.02    1.15 
   2  -2  16   15.08    1.17 
   2  -2  16   14.88    2.12 
   2  -2  16   15.52    1.20 
   2   2  16   14.52    1.21 
  -2   2 -16   13.94    1.18 
  -2   2 -16   14.79    1.32 
   2   2  16   13.95    1.21 
   3  -2  16   14.83    1.30 
  -3  -2 -16   15.25    1.42 
   3  -2  16   15.62    1.48 
  -3   2 -16   18.51    1.38 
   3   2  16   15.99    1.31 
  -3   2 -16   19.10    1.45 
   4  -2  16   10.87    1.41 
  -4  -2 -16    7.46    1.12 
   4   2  16    9.60    1.30 
  -4   2 -16    9.09    1.41 
  -6  -3  16    8.37    0.88 
   6  -3 -16   12.94    1.59 
   6   3 -16   10.50    0.85 
  -6   3  16   10.30    1.24 
   5  -3 -16   12.62    1.53 
  -5  -3  16   13.70    0.91 
  -5   3  16   13.98    1.54 
   5   3 -16   14.42    0.88 
   4  -3 -16    8.32    1.31 
   4  -3 -16   12.34    1.38 
   4  -3 -16   14.39    1.44 
  -4  -3  16    9.60    0.83 
   4   3 -16    9.59    0.80 
  -4   3  16   14.78    1.32 
  -4   3  16   11.62    1.25 
   4   3 -16   11.15    0.88 
  -4   3  16    8.85    1.30 
  -4   3  16   11.65    1.35 
   3  -3 -16   34.86    1.79 
   3  -3 -16   39.89    1.79 
   3  -3 -16   34.65    1.71 
  -3  -3  16   34.97    1.32 
   3  -3 -16   34.31    1.70 
  -3   3  16   39.64    1.72 
   3   3 -16   36.01    1.36 
   3   3 -16   37.83    1.32 
  -3   3  16   37.21    1.74 
  -3   3  16   35.34    1.68 
   2  -3 -16   39.48    1.74 
   2  -3 -16   39.18    1.72 
   2  -3 -16   35.01    1.63 
  -2  -3  16   36.49    1.38 
  -2  -3  16   36.88    1.72 
   2   3 -16   36.58    1.35 
  -2   3  16   39.48    1.65 
  -2   3  16   35.54    1.73 
  -2   3  16   37.20    1.67 
  -2   3  16   37.04    1.73 
  -1  -3  16   11.17    0.92 
   1  -3 -16   12.72    1.28 
   1  -3 -16   10.62    1.16 
   1  -3 -16   14.46    1.37 
   1  -3 -16   12.24    1.24 
  -1   3  16   12.26    1.23 
  -1   3  16   11.17    1.21 
  -1   3  16   11.80    1.50 
  -1   3  16    9.05    1.21 
   1   3 -16   11.35    0.96 
   0  -3  16   12.21    1.04 
   0  -3 -16   14.73    1.31 
   0  -3 -16   15.21    1.26 
   0   3  16   14.57    1.25 
   0   3 -16   14.00    1.08 
   0   3  16   12.41    1.24 
   1  -3  16   27.86    1.42 
  -1  -3 -16   29.20    1.62 
  -1   3 -16   29.07    1.45 
   1   3  16   29.50    1.54 
  -2  -3 -16   21.76    1.56 
   2  -3  16   20.56    1.37 
   2   3  16   19.70    1.47 
  -2   3 -16   18.62    1.34 
   3  -3  16    3.07    0.85 
  -3  -3 -16    1.76    0.80 
   3   3  16    1.93    0.76 
  -3   3 -16    1.11    0.71 
   4  -4 -16   40.49    2.09 
  -4  -4  16   38.23    1.37 
   4   4 -16   38.56    1.31 
  -4   4  16   39.38    1.94 
   3  -4 -16   15.31    1.64 
  -3  -4  16   14.33    0.98 
   3   4 -16   13.48    0.92 
  -3   4  16   15.92    1.46 
   2  -4 -16    3.51    0.84 
  -2  -4  16    5.99    0.86 
  -2   4  16    5.56    0.90 
   2   4 -16    5.96    0.82 
  -1  -4  16    4.84    0.66 
  -1   4  16    5.20    0.78 
   1   4 -16    5.43    0.68 
   0  -4  16   16.64    1.19 
   0  -4 -16   18.47    1.61 
   0   4 -16   15.33    1.19 
   1  -4  16   12.39    1.21 
  -1  -4 -16   10.62    1.51 
   1   4  16   15.07    1.42 
  -1   4 -16   15.36    1.27 
  -2  -4 -16   11.93    1.50 
   2  -4  16    8.44    1.26 
  -2   4 -16    9.42    1.32 
   2   4  16    8.69    1.36 
   7   0 -17   -0.78    0.61 
  -7   0  17   -0.37    0.66 
  -6   0  17    2.20    0.60 
   6   0 -17   -0.39    0.55 
   5   0 -17    0.25    0.51 
  -5   0  17    0.20    0.56 
  -4   0  17   -0.34    0.50 
   4   0 -17    0.32    0.51 
   4   0 -17   -0.23    0.47 
  -4   0  17    0.67    0.53 
  -3   0  17    0.43    0.49 
   3   0 -17    0.49    0.45 
  -3   0  17    0.96    0.54 
   3   0 -17   -0.22    0.42 
  -3   0  17    0.58    0.56 
   3   0 -17   -0.42    0.45 
  -2   0  17    0.61    0.54 
  -2   0  17    0.70    0.46 
   2   0 -17   -0.84    0.65 
   2   0 -17    0.19    0.54 
   2   0 -17    0.59    0.50 
   2   0 -17    0.45    0.52 
  -2   0  17   -0.06    0.47 
  -2   0  17    0.55    0.61 
   1   0 -17   -0.55    0.43 
  -1   0  17   -0.65    0.44 
   1   0 -17   -0.53    0.50 
  -1   0  17    0.01    0.43 
   1   0 -17   -0.06    0.42 
  -1   0  17   -0.65    0.58 
  -1   0  17    0.83    0.53 
   1   0 -17   -0.97    0.52 
   0   0  17    0.00    0.48 
   0   0  17    0.10    0.53 
   0   0 -17   -0.01    0.58 
   0   0  17   -0.11    0.57 
   0   0 -17   -0.36    0.57 
   0   0  17    0.53    0.65 
   0   0 -17   -0.68    0.58 
   0   0 -17   -0.43    0.43 
  -1   0 -17    0.14    0.64 
  -1   0 -17   -0.07    0.52 
   1   0  17   -0.26    0.67 
   1   0  17    0.55    0.51 
  -1   0 -17   -0.21    0.56 
  -1   0 -17    0.56    0.66 
   1   0  17    2.08    0.69 
   1   0  17    1.37    0.84 
  -2   0 -17   -0.32    0.77 
  -2   0 -17   -1.14    0.55 
  -2   0 -17    1.09    0.75 
   2   0  17   -1.49    0.54 
   2   0  17    0.31    0.59 
  -2   0 -17    0.62    0.76 
   2   0  17   -1.19    0.75 
   2   0  17   -1.04    0.64 
   3   0  17    0.28    0.64 
  -3   0 -17   -0.28    0.65 
   3   0  17    0.17    0.71 
  -3   0 -17    3.03    0.90 
  -3   0 -17   -0.53    0.85 
   4   0  17   -1.52    0.72 
  -4   0 -17   -1.51    0.84 
  -7  -1  17    0.47    0.60 
   7  -1 -17    1.78    0.79 
   7   1 -17    1.29    0.60 
  -7   1  17    1.82    0.77 
  -6  -1  17   -0.41    0.52 
   6  -1 -17   -0.48    0.62 
  -6   1  17   -0.40    0.60 
   6   1 -17    0.29    0.55 
   5  -1 -17    0.39    0.63 
  -5  -1  17    0.10    0.50 
  -5   1  17    1.02    0.64 
   5   1 -17    0.54    0.49 
  -4  -1  17    4.43    0.62 
   4  -1 -17    4.50    0.70 
  -4  -1  17    3.89    0.63 
   4  -1 -17    3.03    0.66 
   4  -1 -17    3.33    0.70 
  -4  -1  17    4.82    0.63 
   4   1 -17    5.22    0.89 
  -4   1  17    3.58    0.75 
   4   1 -17    3.56    0.54 
  -4   1  17    3.96    0.65 
  -4   1  17    2.78    0.67 
   3  -1 -17    6.74    1.02 
   3  -1 -17    8.92    1.03 
  -3  -1  17    7.33    0.86 
   3  -1 -17    4.62    0.96 
  -3  -1  17    6.55    0.82 
  -3  -1  17    6.63    0.87 
  -3   1  17    7.67    0.98 
  -3   1  17    6.35    1.17 
   3   1 -17    6.35    0.83 
   3   1 -17    6.80    0.85 
   3   1 -17    6.12    0.91 
  -3   1  17    8.08    0.96 
  -2  -1  17    2.66    0.51 
   2  -1 -17    3.06    0.60 
  -2  -1  17    2.84    0.56 
   2  -1 -17    3.14    0.60 
  -2  -1  17    3.60    0.62 
   2  -1 -17    3.86    0.70 
   2  -1 -17    2.90    0.59 
  -2   1  17    3.72    0.64 
  -2   1  17    2.55    0.55 
   2   1 -17    2.97    0.54 
  -2   1  17    2.89    0.61 
   2   1 -17    3.65    0.60 
   2   1 -17    3.49    0.59 
  -2   1  17    2.28    0.62 
   1  -1 -17    4.14    0.74 
  -1  -1  17    4.90    0.69 
   1  -1 -17    2.98    0.59 
  -1  -1  17    5.65    0.93 
   1  -1 -17    4.68    0.70 
   1  -1 -17    4.56    0.70 
  -1  -1  17    5.48    0.85 
  -1   1  17    4.39    0.68 
   1   1 -17    3.49    0.52 
  -1   1  17    4.31    0.73 
  -1   1  17    4.87    0.71 
  -1   1  17    4.13    0.69 
   1   1 -17    4.81    0.85 
   0  -1 -17    1.24    0.66 
   0  -1  17    1.09    0.54 
   0  -1  17    1.23    0.62 
   0  -1 -17    1.60    0.69 
   0  -1  17    1.61    0.52 
   0  -1 -17    1.08    0.57 
   0  -1 -17    0.74    0.56 
   0   1  17    1.51    0.60 
   0   1  17    0.48    0.59 
   0   1 -17    0.98    0.56 
   0   1  17    0.48    0.53 
   0   1 -17    0.67    0.58 
   0   1 -17    0.91    0.56 
   0   1  17    0.52    0.70 
  -1  -1 -17    0.46    0.52 
   1  -1  17    1.16    0.66 
   1  -1  17    2.29    0.57 
  -1  -1 -17    0.95    0.57 
  -1  -1 -17    2.14    0.67 
   1  -1  17    0.89    0.76 
  -1  -1 -17    1.72    0.63 
  -1   1 -17    2.22    0.76 
   1   1  17    1.17    0.62 
   1   1  17    1.79    0.74 
   1   1  17    2.38    0.74 
  -1   1 -17    1.68    0.66 
   1   1  17    1.92    0.63 
  -2  -1 -17    1.81    0.60 
   2  -1  17    1.89    0.63 
   2  -1  17    3.05    0.76 
  -2  -1 -17    1.80    0.70 
   2  -1  17    1.57    0.57 
  -2  -1 -17    1.24    0.67 
   2  -1  17    3.20    0.78 
  -2  -1 -17    2.99    0.83 
   2   1  17    1.31    0.68 
  -2   1 -17    2.31    0.84 
   2   1  17    1.81    0.67 
   2   1  17    2.65    0.80 
   2   1  17    2.25    0.90 
  -2   1 -17    3.03    0.75 
  -2   1 -17    2.15    0.81 
   3  -1  17    1.71    0.64 
   3  -1  17    3.14    0.74 
  -3  -1 -17    1.90    0.89 
   3  -1  17    2.33    1.00 
   3   1  17    2.17    0.71 
  -3   1 -17    1.88    0.85 
  -3   1 -17    2.29    0.72 
   4  -1  17   -0.38    1.27 
  -4  -1 -17    1.55    0.86 
   4   1  17    0.48    0.75 
  -6  -2  17    6.23    0.94 
   6  -2 -17    3.69    0.92 
  -6   2  17    4.10    0.96 
   6   2 -17    3.23    0.61 
  -5  -2  17    0.21    0.49 
   5  -2 -17    0.36    0.68 
   5   2 -17   -0.38    0.46 
  -5   2  17   -0.86    0.67 
  -4  -2  17   -0.20    0.45 
   4  -2 -17    0.75    0.70 
   4  -2 -17    0.08    0.63 
  -4   2  17    0.44    0.52 
  -4   2  17    0.23    0.67 
   4   2 -17   -0.71    0.42 
   3  -2 -17    2.65    0.77 
   3  -2 -17    2.32    0.71 
  -3  -2  17    1.52    0.50 
   3  -2 -17    1.45    0.69 
  -3  -2  17    2.70    0.57 
  -3   2  17    0.71    0.70 
   3   2 -17    2.12    0.50 
  -3   2  17    2.75    0.70 
  -3   2  17    2.21    0.74 
   3   2 -17    2.55    0.52 
  -2  -2  17    4.93    0.85 
  -2  -2  17    4.91    0.86 
  -2  -2  17    5.03    0.78 
   2  -2 -17    4.14    0.80 
   2  -2 -17    4.69    0.80 
   2  -2 -17    3.29    0.68 
   2  -2 -17    5.06    0.76 
  -2   2  17    3.85    0.68 
  -2   2  17    3.42    0.76 
  -2   2  17    4.78    0.81 
  -2   2  17    6.74    1.12 
   2   2 -17    5.65    0.85 
   2   2 -17    4.00    0.67 
  -1  -2  17    1.78    0.51 
   1  -2 -17    1.32    0.68 
  -1  -2  17    1.97    0.58 
  -1  -2  17    0.38    0.50 
   1  -2 -17    1.48    0.63 
   1  -2 -17    3.41    0.74 
   1  -2 -17    0.90    0.56 
   1   2 -17    0.43    0.42 
  -1   2  17    1.67    0.59 
   1   2 -17    1.29    0.48 
  -1   2  17    2.87    0.79 
  -1   2  17    0.78    0.64 
  -1   2  17    0.97    0.63 
   0  -2 -17    2.39    0.63 
   0  -2 -17    2.30    0.64 
   0  -2  17    2.13    0.64 
   0  -2  17    2.82    0.57 
   0  -2 -17    2.51    0.65 
   0  -2 -17    2.92    0.76 
   0   2 -17    2.75    0.71 
   0   2  17    2.49    0.80 
   0   2  17    2.74    0.73 
   0   2  17    2.44    0.63 
   0   2  17    2.81    0.66 
   0   2 -17    1.46    0.57 
  -1  -2 -17    0.46    0.64 
  -1  -2 -17    0.55    0.92 
  -1  -2 -17    0.30    0.67 
   1  -2  17    1.36    0.61 
  -1   2 -17    0.65    0.62 
  -1   2 -17    0.75    0.68 
   1   2  17    0.54    0.57 
   1   2  17   -0.06    0.68 
   1   2  17    1.18    0.98 
  -2  -2 -17    1.31    0.81 
   2  -2  17    1.05    0.69 
  -2   2 -17   -0.22    0.66 
   2   2  17   -0.15    0.65 
   3  -2  17    0.36    0.71 
  -3  -2 -17    0.87    0.74 
  -3   2 -17   -0.29    0.77 
   3   2  17    0.59    0.77 
  -4  -2 -17   -0.22    0.90 
   5  -3 -17    1.24    0.82 
  -5  -3  17    0.48    0.48 
   5   3 -17    0.73    0.46 
  -5   3  17   -1.36    0.83 
  -4  -3  17    1.61    0.52 
   4  -3 -17    0.41    0.80 
   4  -3 -17    0.11    0.93 
  -4   3  17   -0.06    0.68 
   4   3 -17    0.49    0.44 
  -3  -3  17    2.21    0.56 
   3  -3 -17    3.79    0.87 
   3  -3 -17    2.79    0.85 
   3  -3 -17    2.41    0.86 
  -3   3  17    1.64    0.89 
  -3   3  17    3.23    0.73 
  -3   3  17    2.90    0.78 
  -3   3  17    1.96    0.89 
   3   3 -17    1.80    0.49 
  -2  -3  17    7.18    0.86 
   2  -3 -17    6.11    0.83 
   2  -3 -17    8.93    1.55 
   2  -3 -17    7.29    1.29 
  -2   3  17    5.70    0.94 
  -2   3  17    4.57    0.96 
   2   3 -17    5.99    0.88 
   1  -3 -17    0.53    0.64 
  -1  -3  17   -0.27    0.51 
   1  -3 -17    0.09    0.64 
   1   3 -17    1.44    0.54 
  -1   3  17    1.09    0.69 
  -1   3  17   -1.40    0.65 
   0  -3 -17    1.57    0.78 
   0  -3  17    1.14    0.55 
   0   3  17    2.45    0.75 
   0   3 -17    1.44    0.62 
  -1  -3 -17    0.67    0.69 
   1  -3  17    0.26    0.64 
   1   3  17    0.49    0.64 
  -1   3 -17    1.35    0.62 
  -2  -3 -17    2.29    0.86 
   2  -3  17    1.33    0.75 
   2   3  17    1.84    0.79 
  -2   3 -17    1.90    0.78 
   3  -4 -17    0.93    1.04 
  -3  -4  17    0.33    0.79 
  -3   4  17   -0.05    0.79 
   3   4 -17    0.43    0.54 
  -2  -4  17    0.60    0.55 
   2  -4 -17    1.25    0.86 
   2   4 -17    1.35    0.55 
  -2   4  17    2.30    0.90 
  -1  -4  17    4.00    0.68 
   1   4 -17    3.99    0.70 
  -1   4  17    4.90    0.88 
   0  -4 -17    1.50    0.87 
   0  -4  17    1.23    0.68 
   0   4 -17    0.02    0.66 
  -7   0  18    2.61    0.77 
   7   0 -18    2.20    0.74 
  -6   0  18    3.96    0.79 
   6   0 -18    3.42    0.71 
  -5   0  18   11.76    1.14 
   5   0 -18   14.61    1.18 
  -4   0  18   54.69    1.92 
   4   0 -18   53.70    1.89 
   3   0 -18   73.63    2.22 
   3   0 -18   73.38    2.69 
  -3   0  18   74.31    2.26 
  -3   0  18   72.05    2.35 
  -2   0  18   27.71    1.33 
  -2   0  18   27.17    1.42 
  -2   0  18   28.36    1.40 
   2   0 -18   26.27    1.36 
   2   0 -18   30.02    1.40 
   2   0 -18   27.95    1.42 
  -1   0  18   13.43    1.09 
   1   0 -18   12.19    1.68 
   1   0 -18   11.46    1.11 
  -1   0  18   15.54    1.26 
  -1   0  18   12.74    1.10 
   1   0 -18   13.98    1.25 
   0   0 -18   23.95    1.32 
   0   0 -18   20.62    1.60 
   0   0  18   21.55    1.31 
   0   0  18   25.15    1.39 
   0   0 -18   24.44    1.38 
   0   0  18   22.21    1.38 
   0   0  18   21.20    1.40 
   0   0 -18   20.61    1.43 
   1   0  18   39.09    1.73 
  -1   0 -18   40.10    1.82 
   1   0  18   39.11    1.70 
  -1   0 -18   38.75    1.71 
   1   0  18   40.99    1.89 
  -1   0 -18   40.26    1.87 
   1   0  18   40.25    1.76 
  -1   0 -18   41.97    1.86 
  -2   0 -18   35.88    1.92 
  -2   0 -18   35.91    1.74 
   2   0  18   37.94    1.76 
   2   0  18   35.30    1.93 
  -2   0 -18   34.93    1.86 
  -2   0 -18   37.07    2.51 
   2   0  18   40.46    1.81 
   2   0  18   39.07    1.79 
   3   0  18   11.64    1.42 
  -3   0 -18   10.20    1.55 
  -3   0 -18    7.03    1.14 
   3   0  18    8.81    1.42 
   6  -1 -18   14.54    1.37 
  -6  -1  18   13.53    1.17 
  -6   1  18   11.11    1.34 
   6   1 -18   14.61    1.18 
  -5  -1  18   24.52    1.33 
   5  -1 -18   24.31    1.51 
   5   1 -18   26.49    1.33 
  -5   1  18   25.73    1.55 
  -4  -1  18   17.17    1.14 
   4  -1 -18   16.40    1.31 
   4   1 -18   17.61    1.12 
  -4   1  18   17.66    1.31 
   3  -1 -18   26.02    1.46 
   3  -1 -18   23.83    1.40 
  -3  -1  18   25.42    1.29 
  -3   1  18   25.86    1.40 
  -3   1  18   23.76    1.54 
  -3   1  18   24.63    1.42 
   3   1 -18   25.51    1.25 
  -2  -1  18   30.30    1.40 
   2  -1 -18   32.10    1.58 
  -2  -1  18   29.04    1.32 
   2  -1 -18   33.24    1.52 
  -2  -1  18   31.84    1.87 
  -2   1  18   29.81    1.48 
  -2   1  18   30.46    1.57 
   2   1 -18   31.65    1.45 
  -2   1  18   29.00    1.50 
   2   1 -18   28.74    1.37 
   1  -1 -18   38.19    1.68 
   1  -1 -18   38.05    1.75 
  -1  -1  18   37.32    1.60 
  -1  -1  18   37.16    1.79 
   1  -1 -18   39.63    1.71 
  -1  -1  18   37.98    1.54 
   1  -1 -18   40.67    1.70 
   1   1 -18   39.03    1.56 
  -1   1  18   39.21    1.66 
   1   1 -18   39.03    2.26 
  -1   1  18   39.34    1.63 
   1   1 -18   40.33    1.65 
  -1   1  18   37.60    1.76 
  -1   1  18   37.12    1.63 
   0  -1  18   52.95    1.84 
   0  -1  18   51.78    1.91 
   0  -1 -18   55.05    2.04 
   0  -1 -18   49.71    1.91 
   0  -1 -18   49.08    2.04 
   0  -1 -18   47.62    1.91 
   0   1 -18   52.70    1.96 
   0   1  18   53.47    2.06 
   0   1  18   50.63    1.93 
   0   1  18   50.38    1.94 
   0   1 -18   50.37    1.88 
   0   1  18   54.17    1.98 
   1  -1  18   17.88    1.34 
  -1  -1 -18   24.82    1.51 
  -1  -1 -18   16.70    1.31 
  -1  -1 -18   22.28    1.45 
   1  -1  18   17.14    1.28 
  -1  -1 -18   20.36    1.51 
  -1   1 -18   19.45    1.45 
  -1   1 -18   18.34    1.29 
   1   1  18   19.46    1.52 
   1   1  18   17.68    1.37 
   1   1  18   22.20    1.46 
   1   1  18   19.33    1.44 
   2  -1  18    7.77    0.99 
  -2  -1 -18    6.83    1.14 
   2  -1  18    7.67    1.21 
  -2  -1 -18    8.61    1.50 
   2   1  18    7.74    1.34 
  -2   1 -18    7.24    0.93 
   2   1  18    7.17    1.28 
   3  -1  18   13.13    1.43 
  -3  -1 -18    9.90    1.61 
   3   1  18   13.76    1.52 
  -3   1 -18   11.14    1.40 
  -6  -2  18   24.49    1.51 
   6  -2 -18   21.86    1.72 
   6   2 -18   23.06    1.60 
  -6   2  18   23.10    1.75 
   5  -2 -18   19.30    1.54 
  -5  -2  18   17.16    1.15 
   5   2 -18   17.91    1.11 
  -5   2  18   16.52    1.51 
  -4  -2  18    3.92    0.64 
   4  -2 -18    4.56    0.84 
   4   2 -18    4.07    0.61 
  -4   2  18    3.68    0.84 
  -3  -2  18    8.93    0.94 
   3  -2 -18    8.16    1.41 
   3   2 -18    9.95    0.95 
  -3   2  18    5.48    1.14 
   2  -2 -18   49.28    1.93 
   2  -2 -18   45.02    1.85 
  -2  -2  18   42.54    1.64 
   2  -2 -18   40.50    1.81 
   2  -2 -18   41.67    1.95 
   2   2 -18   44.92    1.63 
  -2   2  18   44.73    1.86 
  -2   2  18   42.90    1.87 
  -2   2  18   46.70    1.81 
  -2   2  18   43.41    1.91 
   1  -2 -18   40.06    1.88 
   1  -2 -18   37.69    1.74 
   1  -2 -18   38.65    1.77 
  -1  -2  18   39.94    1.61 
   1  -2 -18   38.94    1.80 
  -1   2  18   40.67    1.79 
  -1   2  18   40.82    1.85 
  -1   2  18   42.02    1.74 
  -1   2  18   35.68    1.87 
   1   2 -18   38.42    1.59 
   0  -2 -18   12.01    1.41 
   0  -2 -18   15.52    1.45 
   0  -2 -18   18.36    1.86 
   0  -2  18   13.42    1.19 
   0  -2 -18   15.82    1.36 
   0   2  18   16.84    1.35 
   0   2  18   18.90    2.24 
   0   2 -18   15.05    1.22 
   0   2  18   13.90    1.34 
   1  -2  18   14.82    1.29 
  -1  -2 -18   14.21    1.57 
   1   2  18   16.67    1.41 
  -1   2 -18   10.89    1.19 
   1   2  18   15.07    1.44 
   2  -2  18   15.65    1.41 
  -2  -2 -18   18.35    1.65 
  -2   2 -18   16.05    1.44 
   2   2  18   14.01    1.48 
   3  -2  18   12.36    1.43 
  -3  -2 -18   10.79    1.63 
  -3   2 -18   10.79    1.54 
   3   2  18    9.80    1.53 
   5  -3 -18    9.45    1.24 
  -5   3  18    7.53    1.09 
  -4  -3  18   29.27    1.34 
   4  -3 -18   31.39    1.92 
   4   3 -18   29.82    1.31 
  -4   3  18   32.27    1.91 
   3  -3 -18   20.66    1.70 
  -3  -3  18   21.09    1.21 
   3  -3 -18   21.34    1.62 
   3   3 -18   19.09    1.13 
  -3   3  18   21.09    1.56 
  -3   3  18   21.63    1.68 
   2  -3 -18    6.55    0.95 
  -2  -3  18    7.28    1.00 
   2   3 -18    5.55    0.97 
  -2   3  18    7.72    1.04 
   1  -3 -18   10.24    1.57 
  -1  -3  18   12.24    1.12 
   1   3 -18   13.93    1.16 
  -1   3  18   12.31    1.47 
   0  -3  18   10.22    1.15 
   0  -3 -18   10.31    1.58 
   0   3  18    8.76    1.08 
   0   3 -18   12.26    1.22 
   1  -3  18   15.37    1.29 
  -1  -3 -18   15.83    1.64 
   1   3  18   16.97    1.56 
  -1   3 -18   14.05    1.39 
  -6   0  19    0.19    0.74 
   6   0 -19    0.40    0.71 
  -5   0  19   -0.46    0.68 
   5   0 -19    0.35    0.67 
  -4   0  19    0.43    0.61 
   4   0 -19   -0.18    0.58 
  -3   0  19    0.15    0.62 
   3   0 -19    0.17    0.59 
   2   0 -19   -0.91    0.55 
  -2   0  19   -0.01    0.60 
  -1   0  19    0.37    0.55 
   1   0 -19   -0.60    0.65 
  -1   0  19   -0.02    0.64 
   1   0 -19   -0.44    0.61 
   0   0  19    1.28    0.65 
   0   0  19    0.57    0.70 
   0   0 -19    1.35    0.73 
   0   0 -19   -0.01    0.65 
   1   0  19    0.44    1.11 
   1   0  19    1.93    0.72 
  -1   0 -19    0.09    0.86 
  -1   0 -19   -0.17    0.76 
  -2   0 -19    0.29    0.86 
   2   0  19   -2.01    0.80 
   2   0  19    0.19    0.67 
  -2   0 -19    0.42    0.88 
  -3   0 -19   -0.30    1.54 
   6  -1 -19    6.12    1.01 
  -6  -1  19    4.92    0.84 
  -6   1  19    5.42    0.86 
   6   1 -19    5.43    0.79 
  -5  -1  19    8.08    1.16 
   5  -1 -19    8.95    1.34 
  -5   1  19    7.36    1.28 
   5   1 -19   11.01    1.13 
   4  -1 -19    2.95    0.79 
  -4  -1  19    3.14    0.69 
   4   1 -19    2.65    0.59 
  -4   1  19    3.60    0.86 
  -3  -1  19    5.01    0.72 
   3  -1 -19    3.61    0.74 
  -3   1  19    3.80    0.73 
   3   1 -19    4.45    0.69 
   2  -1 -19    7.63    1.21 
  -2  -1  19    4.94    0.70 
   2  -1 -19    5.28    0.86 
  -2   1  19    4.51    0.79 
   2   1 -19    5.53    1.00 
  -2   1  19    5.23    0.82 
  -1  -1  19    0.90    0.63 
   1  -1 -19    0.94    0.64 
   1   1 -19    1.22    0.63 
  -1   1  19   -0.07    0.66 
   0  -1 -19    0.90    0.87 
   0  -1  19    1.74    0.71 
   0  -1 -19    0.30    0.68 
   0  -1 -19    2.92    0.91 
   0   1 -19    1.49    0.68 
   0   1  19   -0.33    0.82 
   0   1  19    1.42    0.73 
   0   1  19    1.56    0.82 
   0   1  19    1.63    0.80 
   1  -1  19    5.54    0.92 
  -1  -1 -19    4.11    1.02 
  -1   1 -19    2.97    0.72 
   1   1  19    4.48    0.87 
   1   1  19    3.65    0.87 
   2  -1  19    0.65    0.79 
  -2  -1 -19    0.78    0.97 
   2   1  19    2.45    0.82 
  -2   1 -19    0.42    0.80 
  -5  -2  19   -0.29    0.59 
   5  -2 -19    0.70    0.88 
   5   2 -19    0.35    0.56 
  -5   2  19   -1.03    0.82 
  -4  -2  19    3.80    0.70 
   4  -2 -19    5.67    0.98 
   4   2 -19    3.98    0.68 
  -4   2  19    3.05    0.98 
   3  -2 -19    2.95    0.84 
  -3  -2  19   -0.15    0.57 
   3   2 -19    1.45    0.60 
  -3   2  19    0.97    0.88 
  -2  -2  19   -0.02    0.57 
   2  -2 -19    0.66    0.84 
   2   2 -19    1.08    0.58 
  -2   2  19    0.99    1.12 
  -2   2  19    1.20    0.78 
   1  -2 -19    1.28    0.78 
   1  -2 -19    1.94    0.80 
  -1  -2  19   -0.71    0.59 
   1   2 -19    0.18    0.59 
  -1   2  19    0.83    0.83 
  -1   2  19    0.07    0.68 
   0  -2 -19    1.26    0.89 
   0  -2  19   -0.17    0.65 
   0  -2 -19    0.33    0.77 
   0   2  19   -1.03    0.77 
   0   2 -19   -0.22    0.64 
   0   2  19    1.31    0.80 
   1  -2  19   -1.14    0.55 
  -1  -2 -19   -1.48    0.88 
   1   2  19   -1.01    0.77 
  -1   2 -19   -0.31    0.69 
   2  -2  19    2.00    0.77 
  -2  -2 -19   -0.17    0.90 
  -2   2 -19   -0.62    0.74 
   2   2  19    0.95    0.85 
  -3  -3  19    6.52    1.06 
   3   3 -19    5.74    0.98 
  -2  -3  19   11.06    1.18 
   2   3 -19   16.10    1.20 
   1  -3 -19    1.80    0.98 
  -1  -3  19    1.03    0.67 
   1   3 -19    0.72    0.62 
  -1   3  19    0.33    0.88 
   0  -3  19    0.42    0.69 
   0  -3 -19    1.92    0.99 
   0   3  19    1.69    0.87 
   0   3 -19    1.75    0.74 
   5   0 -20    7.35    1.26 
  -5   0  20    5.25    0.88 
  -4   0  20   24.07    1.48 
   4   0 -20   23.30    1.46 
  -3   0  20   15.10    1.30 
   3   0 -20   14.32    1.31 
   2   0 -20   -0.05    0.68 
  -2   0  20   -0.01    0.61 
  -1   0  20   30.50    1.68 
   1   0 -20   30.04    1.63 
   0   0 -20   54.79    2.11 
   0   0  20   55.02    2.21 
  -1   0 -20    9.32    1.34 
   1   0  20    8.94    1.52 
  -5  -1  20   11.01    1.26 
   5  -1 -20    8.89    1.06 
  -5   1  20   11.60    1.52 
   5   1 -20    9.65    1.22 
   4  -1 -20    1.57    0.80 
  -4  -1  20    1.93    0.71 
   4   1 -20    1.99    0.69 
  -4   1  20    2.18    0.90 
   3  -1 -20   16.21    1.42 
  -3  -1  20   15.92    1.26 
  -3   1  20   13.34    1.45 
   3   1 -20   13.05    1.26 
   2  -1 -20   28.27    1.64 
  -2  -1  20   28.27    1.54 
  -2   1  20   29.12    1.70 
   2   1 -20   27.51    1.49 
  -1  -1  20   15.71    1.43 
   1  -1 -20   14.08    1.45 
   1   1 -20   12.66    1.27 
  -1   1  20   13.89    1.44 
   0  -1 -20    7.71    1.46 
   0  -1 -20    8.58    1.35 
   0  -1  20    6.20    1.00 
   0   1 -20    5.44    0.82 
   0   1  20    5.48    1.15 
   1  -1  20    9.89    1.47 
  -1   1 -20   10.60    1.50 
  -4  -2  20   29.71    1.57 
   4  -2 -20   31.84    1.94 
   4   2 -20   32.07    1.62 
  -4   2  20   33.49    1.99 
  -3  -2  20    6.87    1.12 
   3  -2 -20   10.77    1.52 
  -3   2  20    9.49    1.54 
   3   2 -20    7.17    1.13 
   2  -2 -20    9.93    1.48 
  -2  -2  20    9.23    1.24 
   2   2 -20    9.33    1.17 
  -2   2  20    8.76    1.51 
   1  -2 -20    8.06    1.91 
  -1  -2  20    7.21    1.25 
   1   2 -20    9.57    1.22 
  -1   2  20    9.74    1.62 
   0  -2 -20    7.11    1.14 
   0  -2  20    7.12    1.29 
   0   2  20    9.31    1.50 
   0   2 -20   11.29    1.35 
   4   0 -21    0.50    0.76 
  -4   0  21    0.39    0.74 
  -3   0  21    0.83    0.73 
   3   0 -21    0.40    0.74 
  -2   0  21    0.26    0.61 
   2   0 -21   -0.02    0.75 
  -1   0  21   -0.87    0.79 
   1   0 -21    0.32    0.75 
   0   0 -21   -0.58    0.79 
   0   0  21   -1.28    0.82 
  -3  -1  21    0.24    0.71 
   3  -1 -21    1.79    0.87 
  -3   1  21   -0.25    0.92 
   3   1 -21   -1.50    0.67 
  -2  -1  21   -0.46    0.67 
   2  -1 -21   -1.10    0.77 
   2   1 -21    0.09    0.74 
  -2   1  21    1.77    0.93 
   1  -1 -21   -1.43    0.78 
  -1  -1  21    0.85    0.78 
  -1   1  21    0.21    0.67 
   1   1 -21    0.23    0.72 
   0   0   0    0.00    0.00 
;
_shelx_hkl_checksum              98449
loop_
_space_group_symop_operation_xyz
'x, y, z'
'-x, y, -z+1/2'
'-x, -y, -z'
'x, -y, z-1/2'
loop_
_atom_site_label
_atom_site_type_symbol
_atom_site_fract_x
_atom_site_fract_y
_atom_site_fract_z
_atom_site_U_iso_or_equiv
_atom_site_adp_type
_atom_site_occupancy
_atom_site_site_symmetry_order
_atom_site_calc_flag
_atom_site_refinement_flags_posn
_atom_site_refinement_flags_adp
_atom_site_refinement_flags_occupancy
_atom_site_disorder_assembly
_atom_site_disorder_group
Zn1 Zn 0.500000 1.01287(5) 0.750000 0.02497(11) Uani 1 2 d S T P . .
H3C H 0.700(3) 1.287(5) 0.8424(18) 0.056(8) Uiso 1 1 d . . . . .
O1 O 0.55306(17) 0.9208(3) 0.63809(8) 0.0349(3) Uani 1 1 d . . . . .
N1 N 0.72568(18) 0.5422(3) 0.45022(8) 0.0223(3) Uani 1 1 d . . . . .
C1 C 0.6555(2) 0.7417(3) 0.65765(10) 0.0261(4) Uani 1 1 d . . . . .
O2 O 0.7043(2) 0.6816(2) 0.73178(8) 0.0425(4) Uani 1 1 d . . . . .
H3D H 0.703(3) 1.365(6) 0.7711(18) 0.058(8) Uiso 1 1 d . . . . .
N2 N 0.87394(18) 0.2516(3) 0.54978(8) 0.0239(3) Uani 1 1 d . . . . .
C2 C 0.7177(2) 0.5976(3) 0.59221(10) 0.0214(3) Uani 1 1 d . . . . .
N3 N 0.87073(19) 0.1985(3) 0.41231(8) 0.0271(3) Uani 1 1 d . . . . .
H3A H 0.932911 0.066690 0.424300 0.032 Uiso 1 1 calc R U . . .
H3B H 0.840168 0.243873 0.361962 0.032 Uiso 1 1 calc R U . . .
O3 O 0.6967(2) 1.2395(3) 0.79758(9) 0.0339(3) Uani 1 1 d . . . . .
C3 C 0.6747(2) 0.6679(3) 0.51040(10) 0.0219(3) Uani 1 1 d . . . . .
H3 H 0.606848 0.809841 0.497188 0.026 Uiso 1 1 calc R U . . .
C4 C 0.82156(19) 0.3331(3) 0.47195(9) 0.0193(3) Uani 1 1 d . . . . .
C5 C 0.8219(2) 0.3864(3) 0.60790(10) 0.0253(3) Uani 1 1 d . . . . .
H5 H 0.857056 0.336794 0.662168 0.030 Uiso 1 1 calc R U . . .
loop_
_atom_site_aniso_label
_atom_site_aniso_U_11
_atom_site_aniso_U_22
_atom_site_aniso_U_33
_atom_site_aniso_U_23
_atom_site_aniso_U_13
_atom_site_aniso_U_12
Zn1 0.03901(18) 0.02078(16) 0.01751(15) 0.000 0.01145(11) 0.000
O1 0.0395(7) 0.0346(7) 0.0332(7) -0.0099(6) 0.0136(6) 0.0072(6)
N1 0.0273(7) 0.0225(7) 0.0171(6) -0.0003(5) 0.0042(5) 0.0042(5)
C1 0.0347(9) 0.0222(8) 0.0248(8) -0.0050(6) 0.0141(7) -0.0094(7)
O2 0.0831(11) 0.0271(7) 0.0209(6) -0.0020(5) 0.0190(7) -0.0065(7)
N2 0.0297(7) 0.0216(7) 0.0209(7) 0.0009(5) 0.0056(5) 0.0042(6)
C2 0.0256(8) 0.0199(7) 0.0202(8) -0.0029(6) 0.0082(6) -0.0032(6)
N3 0.0342(8) 0.0278(7) 0.0196(7) -0.0032(6) 0.0058(6) 0.0079(6)
O3 0.0567(9) 0.0267(7) 0.0197(6) -0.0010(6) 0.0106(6) -0.0112(6)
C3 0.0232(7) 0.0205(7) 0.0226(8) -0.0010(6) 0.0054(6) 0.0021(6)
C4 0.0185(7) 0.0197(7) 0.0202(7) -0.0018(6) 0.0049(6) -0.0020(6)
C5 0.0334(9) 0.0249(8) 0.0176(8) 0.0021(6) 0.0049(6) 0.0019(7)
loop_
_atom_type_symbol
_atom_type_description
_atom_type_scat_dispersion_real
_atom_type_scat_dispersion_imag
_atom_type_scat_source
C C 0.0033 0.0016 'International Tables Vol C Tables 4.2.6.8 and 6.1.1.4'
H H 0.0000 0.0000 'International Tables Vol C Tables 4.2.6.8 and 6.1.1.4'
N N 0.0061 0.0033 'International Tables Vol C Tables 4.2.6.8 and 6.1.1.4'
O O 0.0106 0.0060 'International Tables Vol C Tables 4.2.6.8 and 6.1.1.4'
Zn Zn 0.2839 1.4301 'International Tables Vol C Tables 4.2.6.8 and 6.1.1.4'
loop_
_geom_angle_atom_site_label_1
_geom_angle_atom_site_label_2
_geom_angle_atom_site_label_3
_geom_angle
_geom_angle_site_symmetry_1
_geom_angle_site_symmetry_3
O3 Zn1 O3 105.60(9) . 2_656
O3 Zn1 O1 93.46(6) . 2_656
O3 Zn1 O1 103.42(6) 2_656 2_656
O3 Zn1 O1 103.42(6) . .
O3 Zn1 O1 93.46(6) 2_656 .
O1 Zn1 O1 152.01(9) 2_656 .
O3 Zn1 O2 149.73(5) . 2_656
O3 Zn1 O2 90.71(6) 2_656 2_656
O1 Zn1 O2 57.49(5) 2_656 2_656
O1 Zn1 O2 100.78(5) . 2_656
O3 Zn1 O2 90.71(6) . .
O3 Zn1 O2 149.73(5) 2_656 .
O1 Zn1 O2 100.78(5) 2_656 .
O1 Zn1 O2 57.49(5) . .
O2 Zn1 O2 87.14(7) 2_656 .
O3 Zn1 C1 99.18(6) . .
O3 Zn1 C1 121.43(6) 2_656 .
O1 Zn1 C1 127.26(6) 2_656 .
O1 Zn1 C1 28.62(6) . .
O2 Zn1 C1 93.40(5) 2_656 .
O2 Zn1 C1 28.91(5) . .
O3 Zn1 C1 121.43(6) . 2_656
O3 Zn1 C1 99.18(6) 2_656 2_656
O1 Zn1 C1 28.62(6) 2_656 2_656
O1 Zn1 C1 127.26(6) . 2_656
O2 Zn1 C1 28.91(5) 2_656 2_656
O2 Zn1 C1 93.40(5) . 2_656
C1 Zn1 C1 111.45(7) . 2_656
C1 O1 Zn1 100.30(11) . .
C3 N1 C4 116.60(14) . .
O1 C1 O2 120.78(16) . .
O1 C1 C2 119.30(15) . .
O2 C1 C2 119.91(16) . .
O1 C1 Zn1 51.08(8) . .
O2 C1 Zn1 69.83(10) . .
C2 C1 Zn1 169.41(13) . .
C1 O2 Zn1 81.26(11) . .
C5 N2 C4 115.99(14) . .
C3 C2 C5 115.53(14) . .
C3 C2 C1 121.34(15) . .
C5 C2 C1 123.13(15) . .
C4 N3 H3A 120.0 . .
C4 N3 H3B 120.0 . .
H3A N3 H3B 120.0 . .
Zn1 O3 H3C 117(2) . .
Zn1 O3 H3D 114(2) . .
H3C O3 H3D 105(3) . .
N1 C3 C2 123.09(15) . .
N1 C3 H3 118.5 . .
C2 C3 H3 118.5 . .
N3 C4 N2 117.04(14) . .
N3 C4 N1 117.95(14) . .
N2 C4 N1 125.00(14) . .
N2 C5 C2 123.71(15) . .
N2 C5 H5 118.1 . .
C2 C5 H5 118.1 . .
loop_
_geom_bond_atom_site_label_1
_geom_bond_atom_site_label_2
_geom_bond_distance
_geom_bond_site_symmetry_2
Zn1 O3 2.0065(14) .
Zn1 O3 2.0065(14) 2_656
Zn1 O1 2.0372(13) 2_656
Zn1 O1 2.0372(13) .
Zn1 O2 2.4466(16) 2_656
Zn1 O2 2.4466(15) .
Zn1 C1 2.5761(17) .
Zn1 C1 2.5761(17) 2_656
O1 C1 1.254(2) .
N1 C3 1.326(2) .
N1 C4 1.360(2) .
C1 O2 1.260(2) .
C1 C2 1.486(2) .
N2 C5 1.328(2) .
N2 C4 1.352(2) .
C2 C3 1.388(2) .
C2 C5 1.391(2) .
N3 C4 1.337(2) .
N3 H3A 0.8600 .
N3 H3B 0.8600 .
O3 H3C 0.78(3) .
O3 H3D 0.81(3) .
C3 H3 0.9300 .
C5 H5 0.9300 .
loop_
_geom_hbond_atom_site_label_D
_geom_hbond_atom_site_label_H
_geom_hbond_atom_site_label_A
_geom_hbond_distance_DH
_geom_hbond_distance_HA
_geom_hbond_distance_DA
_geom_hbond_angle_DHA
_geom_hbond_site_symmetry_A
O3 H3C N1 0.78(3) 1.99(3) 2.7592(19) 171(3) 4_576
N3 H3B O2 0.86 2.26 3.104(2) 167.2 4_565
O3 H3D O2 0.81(3) 1.82(3) 2.611(2) 167(3) 1_565
N3 H3A N2 0.86 2.27 3.122(2) 172.2 3_756
loop_
_geom_torsion_atom_site_label_1
_geom_torsion_atom_site_label_2
_geom_torsion_atom_site_label_3
_geom_torsion_atom_site_label_4
_geom_torsion
_geom_torsion_site_symmetry_1
_geom_torsion_site_symmetry_2
_geom_torsion_site_symmetry_3
_geom_torsion_site_symmetry_4
Zn1 O1 C1 O2 -4.62(19) . . . .
Zn1 O1 C1 C2 174.61(12) . . . .
O1 C1 O2 Zn1 3.83(16) . . . .
C2 C1 O2 Zn1 -175.40(15) . . . .
O1 C1 C2 C3 4.6(2) . . . .
O2 C1 C2 C3 -176.15(16) . . . .
Zn1 C1 C2 C3 28.0(7) . . . .
O1 C1 C2 C5 -175.53(16) . . . .
O2 C1 C2 C5 3.7(3) . . . .
Zn1 C1 C2 C5 -152.1(6) . . . .
C4 N1 C3 C2 1.3(2) . . . .
C5 C2 C3 N1 1.1(2) . . . .
C1 C2 C3 N1 -179.04(15) . . . .
C5 N2 C4 N3 -179.23(14) . . . .
C5 N2 C4 N1 1.9(2) . . . .
C3 N1 C4 N3 178.15(14) . . . .
C3 N1 C4 N2 -3.0(2) . . . .
C4 N2 C5 C2 0.9(2) . . . .
C3 C2 C5 N2 -2.3(3) . . . .
C1 C2 C5 N2 177.85(15) . . . .
