#------------------------------------------------------------------------------
#$Date: 2021-03-25 11:28:29 +0200 (Thu, 25 Mar 2021) $
#$Revision: 263312 $
#$URL: file:///home/coder/svn-repositories/cod/cif/1/56/12/1561248.cif $
#------------------------------------------------------------------------------
#
# This file is available in the Crystallography Open Database (COD),
# http://www.crystallography.net/
#
# All data on this site have been placed in the public domain by the
# contributors.
#
data_1561248
loop_
_publ_author_name
'Sch\"onegger, Sandra'
'Wurst, Klaus'
'Heymann, Gunter'
'Schaur, Andreas'
'Saxer, Andreas'
'Johrendt, Dirk'
'Huppertz, Hubert'
_publ_section_title
;
 Synthesis and characterization of the first hydrothermally synthesized
 tin borate Sn2B3O6(OH)
;
_journal_name_full               'Journal of Solid State Chemistry'
_journal_page_first              410
_journal_page_last               415
_journal_paper_doi               10.1016/j.jssc.2017.11.004
_journal_volume                  258
_journal_year                    2018
_chemical_formula_moiety         'B3 H1 O7 Sn2'
_chemical_formula_sum            'B3 H O7 Sn2'
_chemical_formula_weight         382.8137
_space_group_crystal_system      monoclinic
_space_group_IT_number           14
_space_group_name_Hall           '-P 2yn'
_space_group_name_H-M_alt        'P 1 21/n 1'
_atom_sites_solution_hydrogens   difmap
_cell_angle_alpha                90
_cell_angle_beta                 95.3130(10)
_cell_angle_gamma                90
_cell_formula_units_Z            4
_cell_length_a                   4.4348(2)
_cell_length_b                   11.0251(4)
_cell_length_c                   13.9644(5)
_cell_measurement_reflns_used    25
_cell_measurement_temperature    293(2)
_cell_measurement_theta_max      75.552
_cell_measurement_theta_min      4.715
_cell_volume                     679.84(5)
_computing_cell_refinement       'Bruker SAINT-V 8.34A'
_computing_data_collection       'Bruker Apex II'
_computing_data_reduction        'Bruker SAINT-V 8.34A'
_computing_structure_refinement  'SHELXL-2014/7 (Sheldrick, 2014)'
_computing_structure_solution    SHELXTL-2013/1
_diffrn_ambient_temperature      293(2)
_diffrn_detector_area_resol_mean 10.4
_diffrn_measured_fraction_theta_full 1.000
_diffrn_measured_fraction_theta_max 1.000
_diffrn_measurement_device_type  'Bruker D8 QUEST PHOTON 100'
_diffrn_measurement_method       '\f and \w scans'
_diffrn_radiation_type           MoK\a
_diffrn_radiation_wavelength     0.71073
_diffrn_reflns_av_R_equivalents  0.0433
_diffrn_reflns_av_unetI/netI     0.0250
_diffrn_reflns_Laue_measured_fraction_full 1.000
_diffrn_reflns_Laue_measured_fraction_max 1.000
_diffrn_reflns_limit_h_max       7
_diffrn_reflns_limit_h_min       -7
_diffrn_reflns_limit_k_max       19
_diffrn_reflns_limit_k_min       -19
_diffrn_reflns_limit_l_max       24
_diffrn_reflns_limit_l_min       -24
_diffrn_reflns_number            30911
_diffrn_reflns_point_group_measured_fraction_full 1.000
_diffrn_reflns_point_group_measured_fraction_max 1.000
_diffrn_reflns_theta_full        25.242
_diffrn_reflns_theta_max         37.841
_diffrn_reflns_theta_min         2.358
_diffrn_source                   'Incoatec Microfocus'
_exptl_absorpt_coefficient_mu    7.336
_exptl_absorpt_correction_type   multi-scan
_exptl_absorpt_process_details   'Bruker DIFABS-2014/5)'
_exptl_crystal_colour            colorless
_exptl_crystal_density_diffrn    3.740
_exptl_crystal_description       needle
_exptl_crystal_F_000             688
_exptl_crystal_size_max          0.090
_exptl_crystal_size_mid          0.045
_exptl_crystal_size_min          0.015
_exptl_transmission_factor_max   0.7474
_exptl_transmission_factor_min   0.6201
_refine_diff_density_max         0.919
_refine_diff_density_min         -2.007
_refine_diff_density_rms         0.281
_refine_ls_extinction_coef       .
_refine_ls_extinction_method     none
_refine_ls_goodness_of_fit_ref   1.104
_refine_ls_hydrogen_treatment    refall
_refine_ls_matrix_type           full
_refine_ls_number_parameters     113
_refine_ls_number_reflns         3667
_refine_ls_number_restraints     1
_refine_ls_restrained_S_all      1.104
_refine_ls_R_factor_all          0.0340
_refine_ls_R_factor_gt           0.0255
_refine_ls_shift/su_max          0.002
_refine_ls_shift/su_mean         0.000
_refine_ls_structure_factor_coef Fsqd
_refine_ls_weighting_details
'w=1/[\s^2^(Fo^2^)+(0.0237P)^2^+0.7045P] where P=(Fo^2^+2Fc^2^)/3'
_refine_ls_weighting_scheme      calc
_refine_ls_wR_factor_gt          0.0508
_refine_ls_wR_factor_ref         0.0530
_reflns_Friedel_coverage         0.000
_reflns_Friedel_fraction_full    .
_reflns_Friedel_fraction_max     .
_reflns_number_gt                3208
_reflns_number_total             3667
_reflns_threshold_expression     'I > 2\s(I)'
_cod_data_source_file            JSSC-2018-258-410.cif
_cod_data_source_block           p
_cod_original_sg_symbol_H-M      'P 21/n'
_cod_original_formula_sum        'B3 H1 O7 Sn2'
_cod_database_code               1561248
_shelx_space_group_comment
;
The symmetry employed for this shelxl refinement is uniquely defined
by the following loop, which should always be used as a source of
symmetry information in preference to the above space-group names.
They are only intended as comments.
;
_shelx_estimated_absorpt_t_min   4.715
_shelx_estimated_absorpt_t_max   75.552
_shelx_res_file
;

    p.res created by SHELXL-2014/7


TITL s196_11_0m in P21/n
CELL  0.71073   4.4348  11.0251  13.9644   90.000   95.313   90.000
ZERR    10.00   0.0002   0.0004   0.0005    0.000    0.001    0.000
LATT    1
SYMM   1/2-X,1/2+Y,1/2-Z
SFAC  B    H    O    SN
UNIT  12   4    28   8
MERG   2
FMAP   2
PLAN   20
ACTA
BOND
L.S.   4
BOND $H
DFIX 0.84 0.02 O7 H1
HTAB O7 O4
WGHT    0.023700    0.704500
FVAR       0.10429
SN1   4    0.194044    0.253848    0.357174    11.00000    0.00996    0.00789 =
         0.01065   -0.00051   -0.00077    0.00055
SN2   4   -0.193688    0.387849    0.161821    11.00000    0.01293    0.00823 =
         0.00976    0.00001    0.00021    0.00059
O1    3   -0.346179    0.527188    0.257195    11.00000    0.00445    0.00599 =
         0.01392   -0.00142    0.00252   -0.00122
O2    3   -0.218048    0.244469    0.263352    11.00000    0.00776    0.00639 =
         0.01342   -0.00113   -0.00145   -0.00074
O3    3    0.358078    0.107637    0.263472    11.00000    0.00410    0.00563 =
         0.01334   -0.00257    0.00273   -0.00090
O4    3   -0.658523    0.520916    0.388341    11.00000    0.00864    0.01274 =
         0.01150    0.00261    0.00186    0.00477
O5    3   -0.767190    0.392689    0.250354    11.00000    0.00810    0.00591 =
         0.01913   -0.00004   -0.00036   -0.00103
O6    3   -0.417043    0.154682    0.117280    11.00000    0.00820    0.01099 =
         0.01145    0.00137   -0.00060   -0.00343
O7    3   -0.191559    0.390314    0.468854    11.00000    0.01433    0.01820 =
         0.01022   -0.00306   -0.00206    0.00652
B1    1   -0.658589    0.513260    0.283844    11.00000    0.00529    0.00601 =
         0.01171    0.00173    0.00171    0.00079
B2    1   -0.355773    0.134338    0.220531    11.00000    0.00535    0.00645 =
         0.01052   -0.00089    0.00246    0.00031
B3    1   -0.148616    0.405675    0.566768    11.00000    0.00917    0.00815 =
         0.01102   -0.00093   -0.00026   -0.00031
H1    2   -0.338684    0.431247    0.446917    11.00000    0.04943
HKLF    4

REM  s196_11_0m in P21/n
REM R1 =  0.0255 for    3208 Fo > 4sig(Fo)  and  0.0340 for all    3667 data
REM    113 parameters refined using      1 restraints

END

WGHT      0.0237      0.7044

REM Highest difference peak  0.919,  deepest hole -2.007,  1-sigma level  0.281
Q1    1   0.0926  0.4829  0.0071  11.00000  0.05    0.92
Q2    1  -0.6611  0.3638  0.5065  11.00000  0.05    0.91
Q3    1  -0.1603  0.3991  0.5190  11.00000  0.05    0.90
Q4    1  -0.0941  0.3771  0.1003  11.00000  0.05    0.86
Q5    1   0.0844  0.4004  0.0078  11.00000  0.05    0.85
Q6    1   0.2225  0.4767  0.0455  11.00000  0.05    0.85
Q7    1  -0.6134  0.5178  0.4620  11.00000  0.05    0.85
Q8    1  -0.3225  0.3169  0.0509  11.00000  0.05    0.83
Q9    1  -0.1388  0.1622  0.0634  11.00000  0.05    0.83
Q10   1  -0.0761  0.4263  0.4772  11.00000  0.05    0.82
Q11   1   0.4186  0.1360  0.4646  11.00000  0.05    0.82
Q12   1  -0.2503  0.1662  0.0436  11.00000  0.05    0.80
Q13   1  -0.0981  0.1428  0.4968  11.00000  0.05    0.78
Q14   1   0.1305  0.2964  0.4211  11.00000  0.05    0.77
Q15   1  -0.4439  0.3540  0.0144  11.00000  0.05    0.76
Q16   1  -0.0546  0.1929  0.0367  11.00000  0.05    0.75
Q17   1  -0.2093  0.3009  0.4991  11.00000  0.05    0.75
Q18   1  -0.5850  0.4622  0.0241  11.00000  0.05    0.75
Q19   1   0.2319  0.2539  0.5013  11.00000  0.05    0.75
Q20   1  -0.4182  0.2665  0.0486  11.00000  0.05    0.75
;
_shelx_res_checksum              95716
_shelx_hkl_file
;
  -1   0   0    0.17    0.10
   1   0   0    0.10    0.08
   1   0   0    0.12    0.10
   1   0   0    0.17    0.12
  -1   0   0    0.02    0.11
  -1   0   0    0.26    0.08
  -1   0   0    0.01    0.08
  -1   0   0    0.11    0.09
  -1   0   0    0.03    0.15
  -1   0   0    0.07    0.04
  -2   0   0  842.99   23.88
   2   0   0  820.13   23.73
   2   0   0  762.09   23.76
  -2   0   0  831.86   23.85
  -2   0   0  856.05   23.65
  -2   0   0  873.75   23.75
  -2   0   0  829.81   23.78
  -2   0   0  790.68   23.83
  -3   0   0    0.33    0.50
  -3   0   0   -0.01    0.17
  -3   0   0   -0.53    0.39
  -3   0   0    0.29    0.32
  -3   0   0   -0.49    0.29
  -3   0   0   -0.12    0.28
   3   0   0    0.37    0.26
   3   0   0    0.02    0.21
   4   0   0    0.01    0.38
  -4   0   0   -0.51    0.68
  -4   0   0   -0.30    0.54
  -4   0   0   -0.01    0.39
  -4   0   0    0.52    0.77
  -4   0   0    0.89    0.49
  -4   0   0    0.55    0.31
   4   0   0    0.30    0.30
  -5   0   0    0.74    0.56
  -5   0   0    0.92    0.61
  -5   0   0   -0.16    0.40
   5   0   0    0.13    0.45
  -6   0   0   56.86    2.72
   6   0   0   48.01    2.84
  -6   0   0   59.28    2.40
   7   0   0    0.15    0.82
  -7   0   0    1.11    1.42
  -7   0   0   -1.55    1.00
  -7   0   0    0.12    1.16
   1  -1   0   35.70    1.11
   1  -1   0   35.24    1.07
  -1  -1   0   34.93    1.11
  -1  -1   0   36.93    1.26
  -1  -1   0   33.22    1.02
  -1  -1   0   33.35    1.21
  -1  -1   0   33.96    1.25
  -1  -1   0   33.98    1.16
  -1  -1   0   34.62    1.19
  -1  -1   0   33.68    1.11
   1   1   0   34.70    1.17
  -1   1   0   34.46    1.07
   1   1   0   36.49    1.20
  -1   1   0   35.86    1.11
   1   1   0   36.62    1.27
   1   1   0   36.09    1.26
  -1   1   0   35.38    1.08
  -1   1   0   34.22    1.09
   1   1   0   34.35    1.22
  -1   1   0   33.20    1.11
  -1   1   0   38.81    1.11
  -2  -1   0    5.65    0.39
  -2  -1   0    5.27    0.45
  -2  -1   0    6.27    0.46
   2  -1   0    5.85    0.37
   2  -1   0    5.56    0.37
  -2  -1   0    5.47    0.60
  -2  -1   0    6.12    0.52
  -2  -1   0    5.67    0.35
  -2  -1   0    6.39    0.61
   2   1   0    5.65    0.44
  -2   1   0    5.48    0.40
  -2   1   0    6.41    0.29
  -2   1   0    6.24    0.33
   2   1   0    5.33    0.53
   2   1   0    6.67    0.59
   2   1   0    5.96    0.59
  -2   1   0    5.43    0.40
  -2   1   0    5.62    0.52
  -2   1   0    6.45    0.45
  -2   1   0    5.88    0.39
  -2   1   0    5.49    0.47
  -3  -1   0   57.47    1.99
  -3  -1   0   56.13    2.30
   3  -1   0   59.99    2.03
  -3  -1   0   62.41    2.37
  -3  -1   0   56.60    2.19
  -3  -1   0   58.45    2.39
   3  -1   0   61.23    2.06
  -3  -1   0   60.05    2.16
   3   1   0   60.33    2.07
  -3   1   0   59.41    2.11
   3   1   0   61.41    2.27
  -3   1   0   60.65    2.06
  -3   1   0   62.82    1.82
  -3   1   0   58.91    2.25
  -3   1   0   58.08    1.94
  -3   1   0   60.61    2.25
  -3   1   0   55.98    2.18
   3   1   0   58.43    2.13
  -3   1   0   58.20    1.95
  -4  -1   0    2.60    0.84
   4  -1   0    3.08    0.47
  -4  -1   0    2.11    0.65
  -4  -1   0    3.35    0.47
  -4  -1   0    3.35    0.60
  -4  -1   0    4.29    0.91
  -4  -1   0    4.07    0.73
  -4   1   0    3.85    0.60
  -4   1   0    3.16    0.44
  -4   1   0    3.21    0.53
   4   1   0    3.38    0.60
   4   1   0    4.10    0.68
  -4   1   0    3.66    0.85
  -4   1   0    3.46    0.62
   4   1   0    4.05    0.56
  -4   1   0    3.36    0.75
  -4   1   0    3.12    0.30
   5  -1   0   26.55    1.42
  -5  -1   0   23.89    1.59
  -5  -1   0   24.82    1.31
  -5  -1   0   25.60    1.85
   5   1   0   27.14    1.42
  -5   1   0   26.47    1.30
  -5   1   0   23.84    1.52
  -5   1   0   26.47    1.78
   6  -1   0    3.96    1.05
  -6  -1   0    3.91    0.77
  -6  -1   0    3.92    1.01
  -6   1   0    2.22    0.70
  -6   1   0    2.88    0.87
  -7  -1   0    9.70    1.85
  -7  -1   0    7.98    1.45
   7  -1   0    5.49    1.15
  -7  -1   0   10.06    1.37
   7   1   0    7.25    1.25
  -7   1   0    6.30    1.38
  -7   1   0    8.39    1.69
   0  -2   0   97.28    2.93
   0  -2   0  106.71    3.09
   0  -2   0  101.53    2.98
   0  -2   0  100.21    2.97
   0  -2   0  101.98    2.98
   0  -2   0   99.39    2.97
   0  -2   0  102.64    2.93
   0  -2   0  101.96    3.01
   0   2   0  104.14    3.09
   0   2   0  101.13    2.97
   0   2   0   99.40    2.98
   0   2   0   97.33    2.94
   0   2   0  103.68    2.99
   0   2   0   99.37    3.01
   0   2   0  103.03    3.03
   0   2   0  104.29    2.97
   1  -2   0  248.05    7.14
  -1  -2   0  247.77    7.30
  -1  -2   0  247.30    7.15
   1  -2   0  238.48    7.13
  -1  -2   0  260.69    7.36
  -1  -2   0  251.65    7.23
   1  -2   0  238.27    7.12
  -1  -2   0  255.14    7.35
  -1  -2   0  246.59    7.25
  -1  -2   0  237.46    7.07
  -1  -2   0  247.56    7.15
   1   2   0  212.95    7.08
   1   2   0  244.97    7.38
  -1   2   0  254.10    7.14
  -1   2   0  230.69    7.04
   1   2   0  244.08    7.34
   1   2   0  265.63    7.27
   1   2   0  263.62    7.16
  -1   2   0  248.56    7.13
   1   2   0  238.35    7.15
   1   2   0  238.84    7.23
  -1   2   0  243.48    7.13
   1   2   0  267.64    7.33
  -2  -2   0   63.83    2.14
  -2  -2   0   69.65    2.43
  -2  -2   0   67.52    2.26
   2  -2   0   65.02    2.14
  -2  -2   0   64.57    2.37
  -2  -2   0   68.19    2.45
  -2  -2   0   67.57    2.15
  -2  -2   0   65.33    2.29
  -2   2   0   70.39    2.21
   2   2   0   65.81    2.31
   2   2   0   67.84    2.27
  -2   2   0   64.73    2.16
  -2   2   0   75.15    2.15
  -2   2   0   70.78    2.07
  -2   2   0   64.48    2.11
   2   2   0   63.64    2.41
  -2   2   0   66.66    2.14
  -2   2   0   68.08    2.08
   2   2   0   67.65    2.44
   3  -2   0   27.34    1.14
  -3  -2   0   29.31    1.33
  -3  -2   0   28.30    1.58
  -3  -2   0   26.13    1.11
  -3  -2   0   25.36    1.28
  -3  -2   0   25.20    1.41
  -3  -2   0   30.22    1.55
   3   2   0   25.59    1.44
   3   2   0   27.26    1.16
  -3   2   0   26.03    1.13
  -3   2   0   27.48    1.24
   3   2   0   26.58    1.26
  -3   2   0   28.44    1.28
  -3   2   0   29.23    1.22
  -3   2   0   27.88    1.33
  -3   2   0   27.48    1.02
  -3   2   0   28.97    0.98
  -4  -2   0   12.45    1.18
  -4  -2   0   13.29    0.81
  -4  -2   0   13.02    1.67
  -4  -2   0   11.29    1.01
   4  -2   0   13.60    0.87
  -4   2   0   13.81    0.63
  -4   2   0   12.22    0.73
   4   2   0   12.85    1.35
  -4   2   0   12.75    1.14
   4   2   0   12.61    0.87
   4   2   0   11.59    1.06
  -4   2   0   13.04    1.39
  -4   2   0   13.41    0.96
  -4   2   0   14.22    1.05
  -4   2   0   12.27    0.87
   5  -2   0    9.44    0.96
  -5  -2   0    8.39    1.25
  -5  -2   0    7.95    0.83
  -5  -2   0    8.06    1.04
   5   2   0   10.41    0.97
  -5   2   0    7.91    0.82
  -5   2   0    6.79    0.99
  -5   2   0    7.85    1.01
  -6  -2   0    0.81    1.35
  -6  -2   0    0.26    0.63
  -6   2   0   -0.01    0.69
  -6   2   0    0.89    1.09
   6   2   0    0.47    0.74
  -6   2   0   -0.27    0.71
  -7  -2   0   12.22    1.82
  -7  -2   0   14.53    2.22
   7  -2   0   15.48    1.80
  -7  -2   0   16.31    1.95
   7   2   0   16.16    1.78
  -7   2   0   11.44    1.83
  -7   2   0   15.60    1.61
   0  -3   0   -0.01    0.08
   0  -3   0    0.25    0.07
   0  -3   0    0.19    0.17
   0  -3   0   -0.02    0.07
   0  -3   0    0.06    0.05
   0  -3   0    0.36    0.15
   0  -3   0    0.54    0.12
   0   3   0    0.10    0.08
   0   3   0    0.13    0.11
   0   3   0    0.01    0.09
   0   3   0    0.07    0.08
   0   3   0    0.06    0.15
   0   3   0   -0.04    0.11
   0   3   0    0.08    0.07
   0   3   0    0.33    0.12
  -1  -3   0  127.14    3.55
  -1  -3   0  111.49    3.65
  -1  -3   0  121.94    3.78
  -1  -3   0  116.74    3.78
   1  -3   0  114.88    3.53
  -1  -3   0  110.04    3.47
   1  -3   0  114.93    3.54
  -1  -3   0  116.50    3.54
   1  -3   0  113.20    3.53
  -1  -3   0  119.04    3.73
   1   3   0  125.38    3.56
   1   3   0  117.38    3.85
   1   3   0  119.61    3.65
   1   3   0  124.89    3.76
  -1   3   0  125.93    3.54
  -1   3   0  117.93    3.52
   1   3   0  113.40    3.77
  -1   3   0  119.14    3.54
   1   3   0  126.24    3.69
   1   3   0  114.73    3.55
   1   3   0  121.77    3.48
  -2  -3   0  360.03   10.18
   2  -3   0  325.22    9.77
  -2  -3   0  326.46    9.83
  -2  -3   0  332.99   10.12
  -2  -3   0  331.85   10.02
  -2  -3   0  356.34    9.99
  -2  -3   0  344.30   10.19
  -2  -3   0  337.32    9.65
  -2  -3   0  340.03    9.84
   2  -3   0  319.82    9.81
  -2   3   0  330.41    9.80
  -2   3   0  335.68    9.69
   2   3   0  329.25   10.23
  -2   3   0  345.05    9.81
   2   3   0  348.44   10.05
  -2   3   0  357.35    9.78
  -2   3   0  326.88    9.75
  -2   3   0  322.03    9.71
   2   3   0  333.08    9.99
   2   3   0  331.89   10.20
  -3  -3   0  117.42    4.05
  -3  -3   0  105.10    3.90
  -3  -3   0  111.42    3.54
  -3  -3   0  113.91    3.94
  -3  -3   0  111.62    3.79
  -3  -3   0  113.89    3.76
   3  -3   0  107.88    3.52
  -3   3   0  107.35    3.46
   3   3   0  103.39    3.55
  -3   3   0  117.34    3.43
  -3   3   0  118.23    3.41
  -3   3   0  108.46    3.55
  -3   3   0  109.76    3.58
   3   3   0  113.13    3.74
   3   3   0  110.15    3.97
  -3   3   0  111.53    3.65
   3   3   0  103.49    3.95
  -3   3   0  116.16    3.36
  -4  -3   0  297.93    9.33
  -4  -3   0  284.27    9.00
   4  -3   0  285.84    8.67
  -4  -3   0  280.28    8.65
  -4  -3   0  297.22    9.35
   4   3   0  276.79    9.08
  -4   3   0  283.51    8.81
  -4   3   0  320.26    8.75
  -4   3   0  282.61    8.80
  -4   3   0  284.31    8.46
   4   3   0  270.82    9.21
   4   3   0  278.58    8.69
  -4   3   0  301.26    8.41
  -4   3   0  279.15    8.78
  -4   3   0  276.50    8.61
   5  -3   0   15.20    1.13
  -5  -3   0   14.27    1.73
  -5  -3   0   16.70    1.11
  -5  -3   0   16.64    1.49
   5   3   0   17.38    1.18
  -5   3   0   17.64    1.06
   5   3   0   19.13    1.88
  -5   3   0   14.91    1.82
  -5   3   0   17.45    1.38
  -5   3   0   17.06    1.18
  -6  -3   0   55.78    3.75
  -6  -3   0   62.12    3.04
  -6  -3   0   64.71    2.63
  -6   3   0   61.43    2.65
  -6   3   0   57.63    3.00
   6   3   0   58.87    2.68
  -6   3   0   65.12    2.52
   7  -3   0   -2.08    0.86
  -7  -3   0    1.63    1.30
  -7  -3   0    1.71    1.03
  -7  -3   0    2.78    1.68
  -7   3   0   -0.87    1.18
  -7   3   0    0.30    1.16
   7   3   0    1.68    0.98
   0  -4   0    4.69    0.23
   0  -4   0    4.93    0.23
   0  -4   0    4.93    0.30
   0  -4   0    5.04    0.32
   0  -4   0    5.54    0.40
   0  -4   0    5.10    0.30
   0  -4   0    5.28    0.35
   0  -4   0    4.87    0.47
   0  -4   0    4.53    0.31
   0   4   0    4.87    0.26
   0   4   0    4.32    0.46
   0   4   0    4.27    0.31
   0   4   0    5.06    0.38
   0   4   0    4.56    0.26
   0   4   0    5.28    0.40
  -1  -4   0   71.38    2.47
  -1  -4   0   77.93    2.62
  -1  -4   0   75.19    2.45
  -1  -4   0   77.12    2.56
  -1  -4   0   76.98    2.35
  -1  -4   0   70.36    2.29
   1  -4   0   75.00    2.35
  -1  -4   0   74.54    2.34
   1  -4   0   71.24    2.35
   1  -4   0   74.58    2.35
  -1  -4   0   76.10    2.64
   1   4   0   77.49    2.30
   1   4   0   76.94    2.37
  -1   4   0   77.16    2.36
   1   4   0   75.18    2.63
   1   4   0   72.19    2.70
  -1   4   0   76.77    2.33
   1   4   0   74.02    2.48
   1   4   0   78.51    2.52
   1   4   0   81.92    2.60
  -1   4   0   76.90    2.35
  -1   4   0   73.58    2.23
   1   4   0   77.02    2.36
  -2  -4   0    0.89    0.20
   2  -4   0    0.79    0.19
   2  -4   0    1.64    0.27
   2  -4   0    0.96    0.20
  -2  -4   0    1.09    0.54
  -2  -4   0    0.53    0.28
  -2  -4   0    0.61    0.44
  -2  -4   0    0.76    0.32
  -2  -4   0    1.10    0.29
  -2  -4   0    1.52    0.40
  -2  -4   0    0.94    0.14
   2   4   0    1.20    0.40
  -2   4   0    1.08    0.13
  -2   4   0    1.60    0.27
   2   4   0    0.78    0.41
   2   4   0    1.00    0.33
  -2   4   0    0.93    0.11
   2   4   0    1.43    0.43
   2   4   0    1.30    0.54
   2   4   0    0.86    0.14
  -2   4   0    1.27    0.26
  -2   4   0    0.93    0.26
   3  -4   0    0.45    0.23
  -3  -4   0    0.63    0.46
  -3  -4   0    0.29    0.33
  -3  -4   0    0.62    0.72
  -3  -4   0    0.50    0.24
  -3   4   0    1.02    0.32
   3   4   0    0.35    0.53
  -3   4   0    1.14    0.31
  -3   4   0    0.30    0.35
   3   4   0    0.73    0.72
  -3   4   0    0.19    0.20
  -3   4   0    0.64    0.23
  -3   4   0    0.72    0.49
   3   4   0    1.19    0.57
  -4  -4   0    0.16    0.51
  -4  -4   0    0.37    0.33
  -4  -4   0   -0.10    0.51
   4  -4   0    0.04    0.29
  -4   4   0    0.49    0.27
  -4   4   0    0.76    0.46
   4   4   0   -0.35    0.71
  -4   4   0    0.19    0.39
   4   4   0    0.81    0.41
   4   4   0    0.04    0.53
  -4   4   0    0.32    0.36
  -4   4   0   -0.04    0.29
  -4   4   0   -0.03    0.77
  -5  -4   0    0.88    0.77
   5  -4   0    2.44    0.61
  -5  -4   0    2.19    0.94
  -5  -4   0    1.75    0.52
   5   4   0    3.33    1.18
  -5   4   0    2.17    0.89
  -5   4   0    1.74    0.57
   5   4   0    1.97    0.57
  -5   4   0    2.25    0.67
  -6  -4   0    0.85    0.70
  -6  -4   0    0.71    0.90
   6  -4   0    0.24    0.64
  -6  -4   0    2.89    1.37
   6   4   0    1.73    0.73
  -6   4   0    1.32    0.84
  -6   4   0    0.38    0.70
  -7  -4   0    3.70    1.52
  -7  -4   0    2.43    1.17
   7  -4   0    1.84    1.08
  -7  -4   0    2.36    1.87
  -7   4   0    4.58    1.27
  -7   4   0    0.35    1.05
   7   4   0    1.38    1.03
   0  -5   0    0.27    0.19
   0  -5   0    0.37    0.23
   0  -5   0    0.33    0.10
   0  -5   0   -0.06    0.16
   0  -5   0    0.01    0.14
   0  -5   0    0.06    0.13
   0  -5   0    0.20    0.08
   0  -5   0   -0.14    0.12
   0   5   0   -0.08    0.14
   0   5   0    0.14    0.25
   0   5   0    0.03    0.19
   0   5   0    0.10    0.19
   0   5   0   -0.06    0.14
   0   5   0    0.24    0.11
   0   5   0    0.09    0.14
   0   5   0   -0.06    0.12
   0   5   0    0.12    0.27
  -1  -5   0   83.34    2.80
  -1  -5   0   79.06    2.54
   1  -5   0   78.88    2.57
  -1  -5   0   81.82    2.54
  -1  -5   0   79.74    2.67
  -1  -5   0   81.45    2.57
  -1  -5   0   80.35    2.83
  -1  -5   0   82.39    2.71
   1  -5   0   80.84    2.57
  -1  -5   0   83.63    2.52
  -1  -5   0   80.90    2.91
  -1   5   0   82.04    2.54
   1   5   0   88.45    2.77
   1   5   0   86.19    2.84
  -1   5   0   77.72    2.75
   1   5   0   85.27    2.52
   1   5   0   86.67    2.58
   1   5   0   80.03    3.00
  -1   5   0   82.59    2.59
   1   5   0   82.13    2.58
   1   5   0   79.20    2.69
  -1   5   0   75.93    2.48
  -1   5   0   78.86    2.47
  -1   5   0   80.54    2.38
  -1   5   0   83.88    2.38
  -1   5   0   84.39    2.58
   1   5   0   78.30    2.87
  -1   5   0   80.66    2.45
  -2  -5   0   89.68    2.59
   2  -5   0   84.68    2.74
  -2  -5   0   82.15    2.95
  -2  -5   0   84.18    3.07
   2  -5   0   82.80    2.70
   2  -5   0   82.74    2.70
  -2  -5   0   84.46    3.17
   2   5   0   81.17    3.17
   2   5   0   86.29    2.96
   2   5   0   91.09    2.59
   2   5   0   84.19    3.28
  -2   5   0   82.87    2.69
   2   5   0   85.56    3.13
  -2   5   0   83.43    2.72
  -3  -5   0  166.68    5.03
   3  -5   0  153.40    4.97
  -3  -5   0  163.26    5.33
  -3  -5   0  170.88    4.71
  -3  -5   0  161.27    5.50
  -3   5   0  167.46    4.71
  -3   5   0  150.53    4.72
  -3   5   0  159.17    4.86
   3   5   0  153.98    5.65
   3   5   0  158.93    5.62
  -3   5   0  167.07    4.72
   3   5   0  159.56    5.28
  -4  -5   0  138.74    4.78
  -4  -5   0  137.89    5.02
   4  -5   0  132.56    4.35
  -4  -5   0  129.76    4.36
   4   5   0  136.36    4.76
  -4   5   0  129.71    4.31
  -4   5   0  129.87    4.54
  -4   5   0  129.90    4.11
  -4   5   0  132.37    4.32
  -4   5   0  136.20    4.07
  -4   5   0  136.72    4.08
   4   5   0  137.45    4.44
   4   5   0  136.07    5.14
  -5  -5   0   36.81    2.16
  -5  -5   0   40.76    1.81
  -5  -5   0   38.02    2.70
   5  -5   0   37.68    1.81
  -5   5   0   37.07    1.98
   5   5   0   38.02    1.87
  -5   5   0   36.19    1.56
  -5   5   0   36.18    1.86
   5   5   0   39.52    2.32
   5   5   0   38.49    2.82
  -5   5   0   37.63    1.55
  -6  -5   0   40.07    2.48
   6  -5   0   37.21    2.08
  -6  -5   0   39.31    3.22
  -6  -5   0   37.20    1.97
   6   5   0   37.56    2.13
   6   5   0   39.81    3.49
  -6   5   0   37.65    1.84
  -6   5   0   34.05    2.18
  -7  -5   0    0.56    1.38
  -7  -5   0   -0.04    1.08
   7  -5   0   -1.34    0.99
  -7  -5   0   -2.12    1.79
  -7   5   0    0.59    1.21
   7   5   0    1.96    1.10
   0  -6   0  474.53   13.46
   0  -6   0  475.30   13.64
   0  -6   0  438.57   13.59
   0  -6   0  469.56   13.62
   0  -6   0  455.63   13.60
   0  -6   0  496.36   13.68
   0  -6   0  436.04   13.45
   0  -6   0  470.05   13.59
   0   6   0  500.21   13.69
   0   6   0  471.03   13.61
   0   6   0  494.71   13.53
   0   6   0  466.40   14.03
   0   6   0  453.15   13.53
   0   6   0  465.26   13.81
   0   6   0  470.72   13.60
   0   6   0  484.00   13.75
   0   6   0  453.23   13.64
   1  -6   0  181.70    5.67
  -1  -6   0  194.77    5.82
  -1  -6   0  197.49    5.92
  -1  -6   0  184.13    5.66
   1  -6   0  183.00    5.66
  -1  -6   0  198.01    5.63
  -1  -6   0  187.37    5.62
  -1  -6   0  182.96    5.61
   1   6   0  204.04    5.89
   1   6   0  187.78    6.21
  -1   6   0  186.22    5.47
  -1   6   0  182.39    5.63
   1   6   0  208.79    5.77
   1   6   0  179.33    5.81
  -1   6   0  175.07    5.64
   1   6   0  190.60    5.61
  -1   6   0  187.10    5.56
   1   6   0  199.36    5.99
   1   6   0  193.69    5.68
  -1   6   0  184.94    5.95
   1   6   0  180.34    6.02
  -1   6   0  192.43    5.63
  -1   6   0  182.38    5.59
  -1   6   0  190.85    5.47
  -2  -6   0  242.78    7.68
   2  -6   0  230.70    7.40
   2  -6   0  244.08    7.42
   2  -6   0  240.71    7.39
  -2  -6   0  261.87    7.28
  -2  -6   0  252.69    7.41
  -2  -6   0  251.51    7.82
   2   6   0  245.49    8.11
   2   6   0  250.20    7.26
   2   6   0  257.67    8.00
   2   6   0  262.53    7.89
   2   6   0  237.65    7.64
  -2   6   0  246.52    7.58
  -3  -6   0   26.25    0.93
   3  -6   0   25.26    1.17
  -3  -6   0   27.36    1.47
  -3  -6   0   24.48    1.16
  -3  -6   0   25.25    1.69
   3   6   0   27.32    1.46
   3   6   0   26.30    1.90
   3   6   0   26.18    1.92
  -4  -6   0   12.05    0.89
  -4  -6   0   12.89    1.59
  -4  -6   0   11.23    1.22
   4  -6   0   12.11    0.90
   4   6   0   10.96    0.94
  -4   6   0    9.82    0.83
   4   6   0   10.17    1.60
   4   6   0   11.61    1.31
  -4   6   0   11.60    0.83
  -5  -6   0    3.56    0.99
  -5  -6   0    3.58    1.29
   5  -6   0    4.62    0.75
  -5  -6   0    3.00    0.64
   5   6   0    3.47    1.06
  -5   6   0    4.30    0.84
   5   6   0    0.55    1.35
  -5   6   0    3.70    0.48
  -5   6   0    3.79    0.69
   5   6   0    3.39    0.67
  -6  -6   0   12.87    1.42
  -6  -6   0   16.45    2.19
  -6  -6   0   11.47    1.54
   6  -6   0   13.40    1.51
   6   6   0   12.68    2.38
   6   6   0   13.85    1.50
  -6   6   0   12.93    1.55
  -7  -6   0    8.28    2.55
   7  -6   0   14.63    1.60
  -7  -6   0   11.27    1.94
  -7  -6   0    8.22    1.37
  -7   6   0   12.75    1.57
   7   6   0   11.96    1.51
   0  -7   0   -0.15    0.16
   0  -7   0    0.71    0.46
   0  -7   0    0.02    0.11
   0  -7   0    0.17    0.14
   0  -7   0   -0.08    0.22
   0  -7   0    0.05    0.28
   0   7   0    0.09    0.15
   0   7   0    0.17    0.31
   0   7   0   -0.24    0.41
   0   7   0    0.21    0.23
   0   7   0   -0.06    0.20
   0   7   0   -0.27    0.27
   1  -7   0    0.54    0.23
  -1  -7   0    0.39    0.19
  -1  -7   0    0.38    0.37
  -1  -7   0    0.43    0.31
  -1  -7   0    0.21    0.20
   1  -7   0    0.35    0.15
  -1  -7   0    0.42    0.21
  -1  -7   0    0.14    0.24
   1  -7   0    0.19    0.22
  -1   7   0    0.13    0.12
  -1   7   0    0.56    0.23
   1   7   0    0.27    0.41
   1   7   0    0.47    0.23
  -1   7   0   -0.09    0.23
  -1   7   0    0.81    0.42
   1   7   0    0.40    0.44
   1   7   0   -0.01    0.48
  -1   7   0    0.45    0.32
  -1   7   0    0.45    0.16
   1   7   0    0.55    0.46
   1   7   0   -0.05    0.27
   1   7   0    0.54    0.28
  -1   7   0    0.29    0.25
  -2  -7   0    8.82    0.54
  -2  -7   0    8.58    0.58
   2  -7   0    8.59    0.68
   2  -7   0    7.85    0.59
  -2  -7   0    7.62    0.84
  -2  -7   0    8.12    0.96
   2  -7   0    9.38    0.63
   2   7   0    8.36    1.04
   2   7   0    9.71    0.59
   2   7   0    6.39    1.00
   2   7   0    8.29    1.12
  -2   7   0    7.02    0.83
   2   7   0    9.10    0.81
   3  -7   0    0.94    0.35
   3  -7   0    0.56    0.34
  -3  -7   0    0.87    0.34
  -3  -7   0    0.55    0.51
  -3  -7   0    0.50    0.21
  -3  -7   0    0.81    0.65
   3   7   0    0.66    0.80
   3   7   0    0.37    0.43
   3   7   0    1.67    0.90
  -3   7   0    0.49    0.51
  -4  -7   0    0.16    0.83
  -4  -7   0    0.59    0.62
   4  -7   0   -0.05    0.42
  -4  -7   0    0.59    0.35
   4   7   0    0.90    0.46
  -4   7   0    0.66    0.35
  -4   7   0    0.70    0.38
   4   7   0   -0.37    1.14
   4   7   0    0.74    0.73
  -4   7   0    1.11    0.60
  -5  -7   0    1.00    0.85
  -5  -7   0    0.93    1.24
   5  -7   0    0.63    0.59
  -5  -7   0    0.59    0.51
  -5   7   0    0.68    0.65
   5   7   0   -1.49    1.43
  -5   7   0    0.40    0.50
   5   7   0    0.55    1.04
   5   7   0    0.78    0.58
  -6  -7   0   -0.55    1.69
  -6  -7   0    1.29    1.12
  -6  -7   0    1.00    0.75
   6  -7   0    1.01    0.86
  -6   7   0    0.34    0.78
   6   7   0    0.27    2.16
   6   7   0   -0.25    0.83
  -7  -7   0   -1.23    2.36
  -7  -7   0    0.57    1.67
  -7  -7   0    0.26    1.08
   7  -7   0    2.31    1.34
   7   7   0    1.96    1.25
  -7   7   0    0.73    1.24
   0  -8   0  750.72   21.04
   0  -8   0  696.60   21.27
   0  -8   0  702.81   21.04
   0  -8   0  754.77   21.28
   0  -8   0  686.16   21.25
   0  -8   0  773.66   21.31
   0   8   0  735.35   21.92
   0   8   0  713.01   21.56
   0   8   0  762.19   21.50
   0   8   0  694.08   21.18
   0   8   0  826.55   21.44
   0   8   0  728.60   21.34
   1  -8   0   32.38    1.10
   1  -8   0   33.78    1.33
  -1  -8   0   34.36    1.32
  -1  -8   0   32.98    1.29
  -1  -8   0   34.20    1.28
   1  -8   0   31.07    1.32
  -1  -8   0   34.11    1.58
  -1  -8   0   33.64    1.24
  -1  -8   0   32.58    1.46
   1   8   0   34.01    1.74
  -1   8   0   33.16    1.14
  -1   8   0   33.41    1.15
  -1   8   0   31.92    1.71
   1   8   0   32.33    1.47
  -1   8   0   32.12    1.38
   1   8   0   33.98    1.73
   1   8   0   36.18    1.65
  -1   8   0   31.32    1.33
   1   8   0   32.80    1.94
  -1   8   0   34.63    1.30
   2  -8   0  285.92    8.63
  -2  -8   0  289.24    9.05
  -2  -8   0  294.86    8.50
  -2  -8   0  285.90    8.57
  -2  -8   0  289.84    8.61
  -2  -8   0  282.50    8.88
   2  -8   0  284.35    8.62
  -2   8   0  276.10    8.38
  -2   8   0  284.85    8.25
  -2   8   0  296.19    9.49
   2   8   0  292.44    9.55
   2   8   0  295.59    9.34
   2   8   0  285.73    8.91
   2   8   0  276.63    9.13
  -3  -8   0    0.10    0.35
  -3  -8   0    0.69    0.53
   3  -8   0    0.75    0.35
   3  -8   0    0.28    0.38
   3  -8   0    0.03    0.36
  -3  -8   0    0.18    0.25
  -3  -8   0   -0.30    0.65
   3   8   0    0.13    0.83
   3   8   0    0.11    0.56
   3   8   0    0.13    0.92
  -3   8   0   -0.27    0.57
  -4  -8   0    4.70    0.94
   4  -8   0    3.23    0.66
  -4  -8   0    2.28    0.53
  -4  -8   0    3.35    1.07
  -4   8   0    3.12    1.02
   4   8   0    3.72    0.94
   4   8   0    4.94    1.49
  -5  -8   0    3.17    0.71
  -5  -8   0    6.03    1.64
  -5  -8   0    3.02    1.01
   5  -8   0    3.64    0.82
   5   8   0    5.05    0.86
   5   8   0    6.03    1.93
  -6  -8   0   23.13    2.42
  -6  -8   0   26.79    1.90
   6  -8   0   28.27    2.09
  -6  -8   0   27.94    3.62
   6   8   0   21.95    2.01
   0  -9   0    0.47    0.26
   0  -9   0    0.09    0.23
   0  -9   0    0.19    0.32
   0  -9   0   -0.02    0.14
   0  -9   0    0.68    0.42
   0  -9   0    0.20    0.17
   0   9   0    0.28    0.24
   0   9   0    0.09    0.27
   0   9   0   -0.25    0.57
   0   9   0    0.21    0.38
   0   9   0   -0.08    0.45
   0   9   0    0.30    0.49
   1  -9   0   23.49    0.88
   1  -9   0   21.88    1.06
   1  -9   0   20.16    1.05
  -1  -9   0   23.79    1.38
  -1  -9   0   21.73    1.01
  -1  -9   0   21.45    1.20
   1  -9   0   20.73    0.85
  -1  -9   0   21.28    0.93
  -1  -9   0   23.18    1.04
  -1  -9   0   21.64    1.02
  -1   9   0   20.93    1.11
  -1   9   0   22.27    1.49
   1   9   0   21.34    1.56
  -1   9   0   21.57    1.08
  -1   9   0   21.06    0.87
   1   9   0   21.05    1.49
   1   9   0   21.87    1.23
   1   9   0   24.36    1.77
   1   9   0   20.22    1.44
  -1   9   0   20.30    0.91
  -1   9   0   21.58    1.15
  -2  -9   0   57.03    2.55
  -2  -9   0   58.49    1.98
   2  -9   0   54.78    2.09
  -2  -9   0   58.86    2.02
  -2  -9   0   57.21    2.36
   2  -9   0   53.41    2.08
  -2  -9   0   54.14    2.06
  -2   9   0   55.38    2.48
  -2   9   0   53.29    1.74
   2   9   0   57.39    2.79
   2   9   0   56.17    2.98
   2   9   0   54.78    2.35
  -2   9   0   51.38    1.88
   3  -9   0   93.43    3.37
  -3  -9   0   99.30    3.35
  -3  -9   0   95.63    3.73
   3  -9   0   98.26    3.41
  -3  -9   0   93.95    3.31
  -3  -9   0   92.56    3.99
  -3   9   0   99.34    3.73
   3   9   0   99.09    4.34
   3   9   0  104.29    3.80
   3   9   0   97.87    4.50
   4  -9   0   41.57    1.95
  -4  -9   0   42.72    1.87
  -4  -9   0   42.60    2.40
  -4  -9   0   37.90    2.88
   4   9   0   47.92    3.39
   4   9   0   40.98    2.43
  -4   9   0   40.33    2.29
   5  -9   0   45.47    2.32
  -5  -9   0   43.63    3.19
  -5  -9   0   47.86    2.20
  -5  -9   0   47.91    3.71
   5   9   0   53.47    4.19
   5   9   0   46.82    2.71
  -6  -9   0    7.38    1.12
   6  -9   0    9.56    1.41
  -6  -9   0    9.11    1.74
  -6  -9   0    9.58    2.57
   6   9   0    8.90    1.32
   6   9   0    8.30    3.10
   0 -10   0    2.07    0.26
   0 -10   0    0.91    0.57
   0 -10   0    1.46    0.42
   0 -10   0    2.03    0.27
   0 -10   0    1.23    0.36
   0 -10   0    1.29    0.35
   0  10   0    1.16    0.65
   0  10   0    0.77    0.78
   0  10   0    1.68    0.44
   0  10   0    1.18    0.54
   0  10   0    1.39    0.61
  -1 -10   0   13.88    1.08
  -1 -10   0   15.99    0.90
   1 -10   0   15.09    0.92
  -1 -10   0   16.02    0.94
  -1 -10   0   16.15    0.79
  -1 -10   0   16.56    1.31
   1 -10   0   15.80    0.77
  -1 -10   0   15.59    0.92
   1 -10   0   15.58    0.94
   1  10   0   16.24    1.60
  -1  10   0   15.79    1.11
  -1  10   0   15.52    1.48
   1  10   0   15.46    1.11
  -1  10   0   15.28    1.07
  -1  10   0   16.86    1.07
   1  10   0   16.25    1.41
   1  10   0   18.71    1.73
  -2 -10   0    0.24    0.31
  -2 -10   0    0.37    0.32
   2 -10   0    0.65    0.41
  -2 -10   0    0.91    0.59
  -2 -10   0    0.62    0.33
   2 -10   0    0.26    0.36
  -2 -10   0    0.16    0.70
  -2  10   0    0.42    0.38
  -2  10   0    0.59    0.31
   2  10   0    0.59    0.48
  -2  10   0    0.71    0.67
   2  10   0    0.28    0.74
   2  10   0   -0.14    0.88
  -3 -10   0    2.01    0.48
  -3 -10   0    1.62    0.76
  -3 -10   0    1.97    0.42
  -3 -10   0    1.56    0.47
   3 -10   0    2.25    0.64
  -3 -10   0    1.72    1.13
   3  10   0    0.27    1.07
  -3  10   0    2.65    0.93
   3  10   0    0.71    0.67
  -4 -10   0    0.30    1.38
  -4 -10   0    0.88    0.54
  -4 -10   0    1.18    0.52
  -4 -10   0    1.45    0.95
   4 -10   0    1.00    0.67
   4  10   0    2.36    1.61
   4  10   0    1.56    0.97
  -4  10   0    0.37    1.00
   5 -10   0   -0.40    1.03
  -5 -10   0    3.04    1.84
  -5 -10   0    1.35    0.70
  -5 -10   0   -0.92    0.63
  -5 -10   0    0.23    1.15
   5  10   0    2.57    3.08
   5  10   0    1.17    0.78
  -6 -10   0    1.28    1.53
   6 -10   0    1.84    1.34
  -6 -10   0    0.74    0.94
  -6 -10   0   -1.75    0.91
  -6 -10   0    0.43    2.63
   6  10   0    0.04    1.04
   6  10   0    4.24    3.14
   0 -11   0    0.48    0.35
   0 -11   0    0.23    0.48
   0 -11   0    0.40    0.69
   0 -11   0    0.02    0.33
   0  11   0    0.47    0.71
   0  11   0    0.21    0.40
   0  11   0    0.05    0.78
   0  11   0    0.32    0.53
   0  11   0    0.72    0.78
   1 -11   0    0.03    0.36
   1 -11   0    0.04    0.38
  -1 -11   0    0.15    0.38
   1 -11   0    0.29    0.38
  -1 -11   0   -0.10    0.28
  -1 -11   0    0.04    0.30
  -1 -11   0    0.43    0.48
  -1 -11   0   -0.06    0.55
  -1  11   0    0.44    0.55
   1  11   0    0.66    0.98
  -1  11   0    0.90    0.79
   1  11   0   -0.25    0.69
   1  11   0    0.06    0.47
  -1  11   0   -1.02    0.91
   1  11   0   -0.71    1.05
  -2 -11   0  131.11    4.19
   2 -11   0  129.32    4.36
  -2 -11   0  128.22    4.87
  -2 -11   0  130.80    4.62
  -2 -11   0  132.91    4.31
   2 -11   0  127.25    4.33
  -2 -11   0  130.85    4.20
   2  11   0  131.45    5.54
  -2  11   0  125.81    4.21
  -2  11   0  126.29    4.99
   2  11   0  132.62    4.71
   2  11   0  133.09    5.23
  -3 -11   0   -0.17    0.44
  -3 -11   0    1.32    1.34
   3 -11   0    0.32    0.57
  -3 -11   0    0.76    0.42
  -3 -11   0    0.63    0.47
  -3 -11   0    0.28    0.79
   3  11   0   -0.78    1.20
   3  11   0   -0.27    0.67
  -3  11   0    0.24    0.99
  -4 -11   0  127.95    4.39
  -4 -11   0  125.37    5.03
  -4 -11   0  126.69    5.65
  -4 -11   0  128.07    4.41
  -4  11   0  129.71    5.07
   4  11   0  124.21    6.09
   4  11   0  121.49    4.95
  -5 -11   0    0.59    0.71
  -5 -11   0    1.25    1.29
  -5 -11   0    3.04    2.25
  -5 -11   0    1.50    0.71
   5  11   0    0.55    0.90
   5  11   0   -0.79    2.31
   6 -11   0   33.63    2.96
  -6 -11   0   28.47    3.42
  -6 -11   0   35.86    2.32
  -6 -11   0   32.22    2.36
   6  11   0   31.53    4.24
   6  11   0   40.85    2.64
   0 -12   0   14.81    0.98
   0 -12   0   15.00    1.16
   0 -12   0   14.30    1.01
   0  12   0   15.97    1.50
   0  12   0   11.20    1.57
   0  12   0   14.48    1.70
  -1 -12   0  107.74    3.68
   1 -12   0  105.62    3.69
  -1 -12   0  108.62    3.65
   1 -12   0  107.26    3.72
  -1 -12   0  104.89    3.38
  -1 -12   0  107.61    3.86
   1  12   0  106.42    4.38
   1  12   0  106.14    3.91
   1  12   0  113.16    4.88
  -1  12   0  107.49    3.91
  -1  12   0  104.83    4.54
  -2 -12   0    6.59    0.81
   2 -12   0    6.60    0.83
  -2 -12   0    6.09    1.36
   2 -12   0    4.05    0.62
  -2 -12   0    5.29    0.70
  -2 -12   0    6.54    1.03
  -2 -12   0    5.41    0.63
   2  12   0    2.94    1.27
  -2  12   0    7.06    1.41
   2  12   0    4.80    0.89
  -3 -12   0    5.85    0.78
  -3 -12   0    5.73    1.26
   3 -12   0    7.23    1.01
  -3 -12   0    6.64    0.82
   3  12   0    8.08    1.24
   3  12   0    6.05    1.72
  -3  12   0    3.59    1.36
  -4 -12   0    1.76    1.22
  -4 -12   0    0.90    0.62
  -4 -12   0    0.52    0.60
   4  12   0    1.45    2.02
  -4  12   0   -1.01    1.59
  -5 -12   0    7.21    1.13
  -5 -12   0    5.58    1.63
  -5 -12   0    7.21    1.14
   5  12   0    6.41    1.20
   5  12   0    3.69    2.93
   0 -13   0   -0.38    0.43
   0 -13   0   -0.70    0.41
   0  13   0    0.77    1.03
   1 -13   0    2.03    0.58
  -1 -13   0    3.08    0.46
  -1 -13   0    2.36    0.96
   1 -13   0    2.16    0.54
  -1 -13   0    2.93    0.56
  -1 -13   0    3.14    0.65
   1  13   0    0.95    1.22
  -1  13   0    1.31    1.18
   2 -13   0    3.07    0.75
  -2 -13   0    4.12    0.67
  -2 -13   0    4.70    0.64
  -2 -13   0    4.65    0.73
  -2 -13   0    4.02    1.09
   2 -13   0    4.51    0.73
   2  13   0    4.93    0.93
  -2  13   0    4.11    1.38
   2  13   0    4.38    1.57
  -3 -13   0   17.25    1.58
  -3 -13   0   18.74    2.20
   3 -13   0   21.16    1.61
  -3 -13   0   18.92    1.34
   3  13   0   12.80    2.93
  -3  13   0   24.99    2.73
  -4 -13   0   10.31    1.12
  -4 -13   0   11.74    1.36
   4  13   0   12.45    2.67
  -5 -13   0   15.52    1.76
  -5 -13   0   11.08    2.17
  -5 -13   0   11.41    1.42
   5  13   0   18.51    3.73
   5  13   0   13.99    1.59
   0 -14   0  230.84    7.39
   0 -14   0  236.83    7.43
   0  14   0  232.09    8.82
  -1 -14   0   21.10    1.06
  -1 -14   0   21.63    1.37
   1 -14   0   22.51    1.44
   1 -14   0   22.38    1.45
  -1 -14   0   22.04    1.39
  -1  14   0   21.48    2.53
   1  14   0   15.02    2.18
   2 -14   0  107.83    4.05
  -2 -14   0  117.03    3.77
  -2 -14   0  115.15    4.19
  -2 -14   0  114.44    3.94
  -2 -14   0  112.59    4.48
   2  14   0   96.00    6.18
  -2  14   0  116.93    5.26
  -3 -14   0    5.85    1.55
   3 -14   0    6.93    1.13
  -3 -14   0    6.64    0.94
   3  14   0    6.93    2.24
  -3  14   0    5.45    1.98
  -4 -14   0    3.50    0.93
  -4 -14   0    0.45    1.65
  -4 -14   0    1.45    0.90
   4  14   0    3.00    2.66
  -5 -14   0   -0.03    1.08
  -5 -14   0    3.88    1.97
  -5 -14   0   -0.28    1.07
   5  14   0    2.73    1.29
   5  14   0    4.63    3.69
   0 -15   0    0.04    0.54
   0  15   0   -0.15    1.51
   1 -15   0    2.06    0.85
  -1 -15   0    2.28    0.71
   1 -15   0    4.79    0.89
  -1 -15   0    4.44    0.71
  -1  15   0    3.57    1.83
   1  15   0    3.89    1.89
  -2 -15   0    1.60    0.67
  -2 -15   0    1.92    0.71
   2 -15   0    1.41    0.79
  -2  15   0   -0.01    1.85
   2  15   0    0.75    2.09
  -3 -15   0   12.57    1.46
   3 -15   0   10.71    1.32
  -3 -15   0   11.73    2.03
  -3 -15   0   13.97    1.57
  -3  15   0   15.03    2.72
   3  15   0   11.11    2.91
  -4 -15   0   -0.27    0.97
  -4 -15   0    1.28    1.94
  -4 -15   0    0.17    0.95
   4  15   0   -1.65    2.92
   0 -16   0   38.47    2.00
   0  16   0   31.73    3.74
   1 -16   0    8.76    1.06
  -1 -16   0    9.56    1.11
   1  16   0   10.26    2.41
  -1  16   0    9.57    2.29
   2 -16   0   28.40    1.97
  -2 -16   0   28.70    1.86
   2  16   0   26.43    3.62
  -2  16   0   26.42    3.23
  -3 -16   0   -0.34    0.97
   3 -16   0   -0.75    1.11
  -3 -16   0    0.40    0.85
  -3  16   0   -1.07    2.61
   3  16   0   -4.29    2.42
  -4 -16   0    3.29    1.25
  -4 -16   0    4.74    1.27
   4  16   0   -3.48    3.44
   0 -17   0    2.42    0.89
   0  17   0    6.46    2.48
   1 -17   0    5.64    1.07
  -1 -17   0    5.48    1.05
   1  17   0    2.34    2.35
  -1  17   0    0.91    2.31
   2 -17   0   29.98    2.18
  -2 -17   0   33.29    2.10
  -2  17   0   31.51    3.75
   2  17   0   28.06    3.67
  -3 -17   0   26.90    2.13
   3 -17   0   19.62    2.37
   3  17   0   22.44    3.97
   0 -18   0    0.71    0.90
   0  18   0   -2.43    2.80
   1 -18   0    2.12    1.01
  -1 -18   0    1.33    0.94
   1  18   0    1.03    2.79
  -1  18   0   -0.09    2.87
  -2 -18   0   -1.12    1.05
   2 -18   0    2.66    1.22
   2  18   0    3.96    3.32
  -2  18   0    0.05    3.24
   0 -19   0    1.82    1.25
   0  19   0   -4.82    3.12
  -7   0   1    1.70    1.40
  -7   0   1    0.97    1.15
  -7   0   1    3.05    1.08
   7   0  -1    1.59    0.92
  -6   0   1   -0.55    0.60
   6   0  -1    0.39    0.87
  -6   0   1   -0.29    0.80
  -6   0   1    1.50    1.44
  -5   0   1    2.59    0.54
   5   0  -1    2.82    0.56
  -5   0   1    2.61    0.79
  -5   0   1    2.04    0.62
  -4   0   1   -0.58    0.38
   4   0  -1    0.58    0.32
  -4   0   1    0.20    0.37
  -4   0   1   -0.82    0.52
  -4   0   1   -0.37    0.70
  -4   0   1   -0.02    0.31
  -4   0   1    1.07    0.91
  -3   0   1    0.97    0.60
  -3   0   1    1.44    0.35
  -3   0   1    1.21    0.37
  -3   0   1    1.74    0.27
   3   0  -1    1.15    0.28
  -3   0   1    1.49    0.45
  -2   0   1    0.28    0.31
  -2   0   1    0.29    0.18
  -2   0   1    0.13    0.11
   2   0  -1   -0.14    0.12
   2   0  -1   -0.06    0.20
  -2   0   1    0.34    0.20
  -2   0   1   -0.15    0.23
  -2   0   1   -0.16    0.17
  -2   0   1    0.03    0.06
   2   0  -1   -0.08    0.15
  -2   0   1    0.03    0.15
   2   0  -1    0.25    0.24
  -1   0   1   10.91    0.41
   1   0  -1   11.60    0.44
   1   0  -1   10.73    0.42
  -1   0   1   12.93    0.58
   1   0  -1   12.35    0.56
  -1   0   1   11.63    0.36
  -1   0   1   11.01    0.46
  -1   0   1   12.25    0.44
   1   0  -1   11.63    0.49
   1   0  -1   11.23    0.36
   1   0  -1   11.59    0.46
  -1   0   1   10.79    0.45
  -1   0   1   10.41    0.48
  -1   0  -1    4.66    0.22
  -1   0  -1    4.91    0.33
  -1   0  -1    4.52    0.26
   1   0   1    4.62    0.26
   1   0   1    4.64    0.22
  -1   0  -1    4.44    0.27
   1   0   1    4.47    0.27
  -2   0  -1    0.00    0.13
   2   0   1    0.20    0.20
  -2   0  -1   -0.16    0.24
   2   0   1   -0.04    0.11
  -2   0  -1    0.46    0.24
  -2   0  -1    0.28    0.18
  -2   0  -1    0.18    0.18
  -2   0  -1    0.01    0.09
   2   0   1   -0.04    0.16
   3   0   1    5.01    0.53
  -3   0  -1    4.86    0.67
  -3   0  -1    5.25    0.63
  -3   0  -1    3.94    0.58
  -3   0  -1    4.99    0.28
   3   0   1    4.33    0.46
  -3   0  -1    4.28    0.58
   3   0   1    5.13    0.58
  -3   0  -1    4.31    0.58
  -4   0  -1   -0.42    0.41
   4   0   1    0.53    0.44
  -4   0  -1   -0.08    0.29
  -4   0  -1    0.26    0.64
  -4   0  -1   -0.37    0.36
  -4   0  -1    0.09    0.62
  -4   0  -1   -0.89    0.53
   4   0   1   -0.34    0.28
  -5   0  -1    0.33    0.59
  -5   0  -1   -0.50    0.58
  -5   0  -1   -0.16    0.43
   5   0   1    0.58    0.47
  -6   0  -1    0.94    0.87
  -6   0  -1    0.13    1.21
  -6   0  -1    0.76    0.66
  -7   0  -1    2.66    1.37
  -7   0  -1    2.45    1.09
   7   0   1    1.17    0.87
  -7   0  -1    0.95    1.17
  -7  -1   1    2.31    1.24
   7  -1  -1    3.42    0.94
  -7  -1   1    3.58    1.56
  -7  -1   1    2.01    1.11
   7   1  -1    2.96    0.92
  -7   1   1    1.67    1.18
  -7   1   1    3.14    1.38
  -6  -1   1    6.47    1.11
  -6  -1   1    7.16    0.92
   6  -1  -1    6.49    1.18
  -6  -1   1    6.63    2.47
  -6   1   1    6.98    1.04
  -6   1   1    7.76    0.89
  -5  -1   1   98.76    3.79
   5  -1  -1  102.30    3.58
  -5  -1   1  106.35    4.13
  -5  -1   1  100.56    3.47
   5   1  -1  102.64    3.59
  -5   1   1  100.48    3.67
  -5   1   1  103.83    3.98
  -5   1   1  100.08    3.41
  -4  -1   1   48.36    2.05
  -4  -1   1   44.86    1.73
  -4  -1   1   46.31    1.96
  -4  -1   1   50.69    2.41
  -4  -1   1   45.33    2.11
   4  -1  -1   46.49    1.82
  -4   1   1   46.23    1.69
   4   1  -1   45.62    2.12
  -4   1   1   45.87    1.86
   4   1  -1   44.26    1.81
  -4   1   1   45.01    2.01
  -4   1   1   47.90    1.89
  -4   1   1   46.94    2.18
  -4   1   1   44.53    2.34
   3  -1  -1  327.10    9.89
  -3  -1   1  328.46    9.84
  -3  -1   1  327.35   10.04
  -3  -1   1  348.12   10.27
  -3  -1   1  330.78   10.17
  -3  -1   1  366.97   10.03
  -3  -1   1  347.88   10.26
  -3   1   1  341.15    9.89
  -3   1   1  325.09    9.77
  -3   1   1  333.58    9.77
  -3   1   1  334.08   10.09
   3   1  -1  336.64    9.99
   3   1  -1  324.19   10.12
  -3   1   1  346.76    9.64
  -3   1   1  321.33   10.02
  -3   1   1  331.93    9.82
  -3   1   1  329.95    9.93
  -3   1   1  341.07   10.14
   3   1  -1  327.97    9.90
  -2  -1   1   66.51    2.34
   2  -1  -1   65.93    2.04
  -2  -1   1   62.09    2.28
  -2  -1   1   63.40    2.14
  -2  -1   1   57.13    1.99
  -2  -1   1   62.42    2.21
   2  -1  -1   63.14    1.91
   2  -1  -1   61.21    2.03
  -2  -1   1   65.87    2.12
  -2   1   1   61.74    2.13
  -2   1   1   67.98    2.00
   2   1  -1   63.31    2.26
  -2   1   1   62.18    2.09
   2   1  -1   63.47    2.04
   2   1  -1   66.17    2.13
  -2   1   1   66.20    1.91
  -2   1   1   65.11    2.03
   2   1  -1   63.23    2.14
  -2   1   1   58.22    2.03
  -2   1   1   64.98    2.20
  -2   1   1   65.09    2.05
  -2   1   1   63.18    1.94
  -1  -1   1  424.00   12.04
  -1  -1   1  407.02   11.94
   1  -1  -1  403.76   11.83
  -1  -1   1  438.54   12.09
  -1  -1   1  417.71   11.94
  -1  -1   1  412.11   11.99
   1   1  -1  414.08   11.94
  -1   1   1  387.35   11.85
   1   1  -1  411.00   11.94
   1   1  -1  424.12   11.99
   1   1  -1  412.87   12.06
  -1   1   1  414.97   11.87
   1   1  -1  407.96   11.86
   0  -1  -1    1.06    0.07
   0  -1  -1    0.96    0.11
   0  -1   1    0.94    0.11
   0  -1   1    1.11    0.14
   0  -1  -1    0.99    0.09
   0  -1  -1    1.04    0.09
   0  -1   1    1.06    0.07
   0  -1   1    0.95    0.09
   0   1  -1    0.77    0.18
   0   1  -1    1.05    0.08
   0   1   1    1.08    0.11
   0   1  -1    1.07    0.08
   0   1   1    0.99    0.10
  -1  -1  -1   74.50    2.18
   1  -1   1   71.82    2.18
   1  -1   1   70.48    2.16
   1  -1   1   72.21    2.15
  -1  -1  -1   72.26    2.25
  -1  -1  -1   66.13    2.25
  -1  -1  -1   74.44    2.24
  -1   1  -1   73.58    2.17
   1   1   1   70.48    2.17
   1   1   1   72.12    2.28
  -1   1  -1   73.04    2.16
  -1   1  -1   71.43    2.12
  -1   1  -1   73.68    2.15
   1   1   1   72.58    2.24
   1   1   1   71.21    2.33
  -1   1  -1   76.41    2.19
  -1   1  -1   70.79    2.21
  -2  -1  -1    7.65    0.52
   2  -1   1    7.34    0.42
   2  -1   1    7.30    0.52
  -2  -1  -1    6.93    0.66
  -2  -1  -1    6.53    0.42
  -2  -1  -1    7.76    0.51
  -2  -1  -1    8.13    0.61
  -2  -1  -1    8.05    0.58
   2   1   1    7.17    0.59
   2   1   1    7.21    0.62
   2   1   1    7.58    0.44
  -2   1  -1    7.07    0.46
  -2   1  -1    8.12    0.36
  -2   1  -1    7.02    0.37
  -2   1  -1    6.64    0.50
  -2   1  -1    7.42    0.45
   2   1   1    7.77    0.51
  -2   1  -1    7.06    0.54
  -3  -1  -1   86.89    2.89
  -3  -1  -1   89.76    3.13
  -3  -1  -1   87.43    3.22
   3  -1   1   88.03    2.94
  -3  -1  -1   90.95    3.28
  -3  -1  -1   93.19    3.06
  -3  -1  -1   93.42    3.12
   3  -1   1   91.92    2.93
  -3   1  -1   91.82    3.15
  -3   1  -1   85.88    2.83
   3   1   1   90.03    2.96
  -3   1  -1   87.60    3.11
  -3   1  -1   94.49    3.01
   3   1   1   89.25    3.24
   3   1   1   90.85    3.09
  -3   1  -1   99.58    2.76
  -3   1  -1   91.95    2.96
   3   1   1   89.48    3.04
  -4  -1  -1   12.18    1.45
  -4  -1  -1   12.48    1.17
  -4  -1  -1   14.01    1.02
  -4  -1  -1   11.81    0.77
  -4  -1  -1   11.19    1.17
   4  -1   1   11.84    0.85
  -4  -1  -1   11.95    1.30
   4  -1   1   12.46    0.92
  -4   1  -1   13.84    0.58
  -4   1  -1   13.01    0.93
  -4   1  -1   12.72    1.00
  -4   1  -1   13.43    1.16
   4   1   1   12.62    1.01
  -4   1  -1   12.51    1.08
   4   1   1   13.26    0.86
  -4   1  -1   13.41    0.79
   4   1   1   12.37    1.05
  -4   1  -1   13.62    1.28
  -5  -1  -1  141.97    4.66
  -5  -1  -1  140.93    5.27
   5  -1   1  144.41    4.74
  -5  -1  -1  147.04    5.05
  -5   1  -1  145.63    4.61
  -5   1  -1  139.07    5.11
  -5   1  -1  140.34    4.87
   5   1   1  138.99    4.73
  -6  -1  -1   12.88    1.25
  -6  -1  -1    9.06    1.84
  -6  -1  -1    9.28    1.30
   6   1   1   10.59    1.61
  -6   1  -1    9.59    1.48
  -6   1  -1   10.98    1.21
  -6   1  -1   12.03    1.49
  -7  -1  -1   57.36    2.89
  -7  -1  -1   59.93    3.24
   7  -1   1   56.17    2.85
  -7  -1  -1   55.56    3.71
   7   1   1   56.06    2.89
  -7   1  -1   56.94    3.56
  -7   1  -1   59.21    4.11
  -7   1  -1   57.31    3.08
   7  -2  -1   27.23    2.03
  -7  -2   1   30.48    2.57
  -7  -2   1   31.47    2.11
  -7  -2   1   24.21    2.71
  -7   2   1   25.66    2.60
  -7   2   1   26.99    2.24
   7   2  -1   28.89    2.09
  -6  -2   1   12.21    1.75
  -6  -2   1   13.17    1.29
  -6   2   1   13.21    1.38
   6   2  -1   13.28    1.77
  -6   2   1   14.73    1.28
   5  -2  -1   45.88    1.94
  -5  -2   1   45.12    2.49
  -5  -2   1   43.88    2.18
  -5  -2   1   44.62    1.85
   5   2  -1   45.37    1.96
  -5   2   1   43.93    2.22
  -5   2   1   41.99    1.75
  -5   2   1   41.18    1.95
  -4  -2   1    0.34    0.51
  -4  -2   1    0.35    0.39
  -4  -2   1    0.40    0.29
  -4  -2   1    0.87    0.92
   4  -2  -1    0.67    0.32
  -4   2   1    0.75    0.46
   4   2  -1    0.57    0.71
  -4   2   1    0.40    0.28
  -4   2   1    0.28    0.35
  -4   2   1    0.72    0.40
   4   2  -1    0.66    0.37
  -4   2   1   -0.53    0.87
  -4   2   1    0.34    0.56
  -4   2   1    0.73    0.23
  -3  -2   1   15.15    1.30
  -3  -2   1   14.85    0.90
   3  -2  -1   14.57    0.76
  -3  -2   1   12.94    0.99
  -3  -2   1   13.13    0.72
  -3  -2   1   13.27    0.94
  -3  -2   1   14.94    1.21
   3   2  -1   13.83    0.76
  -3   2   1   13.42    0.73
  -3   2   1   15.64    0.60
  -3   2   1   14.38    1.08
  -3   2   1   12.58    0.61
  -3   2   1   15.28    0.77
  -3   2   1   13.33    0.88
  -3   2   1   13.98    0.83
   3   2  -1   12.92    0.88
   3   2  -1   14.05    1.12
   2  -2  -1   36.86    1.31
  -2  -2   1   39.26    1.62
  -2  -2   1   37.51    1.32
  -2  -2   1   37.25    1.52
   2  -2  -1   36.85    1.22
  -2  -2   1   38.50    1.44
  -2  -2   1   36.02    1.44
  -2  -2   1   38.28    1.68
   2   2  -1   39.64    1.65
  -2   2   1   38.34    1.26
  -2   2   1   39.12    1.46
  -2   2   1   36.24    1.26
   2   2  -1   37.13    1.33
  -2   2   1   40.70    1.24
   2   2  -1   38.95    1.56
  -2   2   1   42.07    1.29
  -2   2   1   38.33    1.33
  -2   2   1   35.20    1.29
   2   2  -1   38.44    1.44
   2   2  -1   36.01    1.46
   1  -2  -1   19.81    0.71
  -1  -2   1   19.34    0.84
  -1  -2   1   19.10    0.78
  -1  -2   1   20.29    0.79
  -1  -2   1   20.22    0.64
  -1  -2   1   21.64    0.97
   1  -2  -1   19.75    0.68
  -1  -2   1   19.52    0.70
  -1  -2   1   18.94    0.88
   1  -2  -1   19.91    0.68
   1   2  -1   20.67    0.97
   1   2  -1   20.46    0.85
   1   2  -1   21.65    0.72
   1   2  -1   19.30    0.63
  -1   2   1   19.24    0.62
  -1   2   1   21.09    0.68
   1   2  -1   18.58    0.77
   1   2  -1   20.73    0.81
   1   2  -1   18.94    0.88
  -1   2   1   20.97    0.72
  -1   2   1   19.66    0.68
   0  -2   1  123.23    3.57
   0  -2  -1  117.29    3.56
   0  -2   1  128.07    3.67
   0  -2   1  121.25    3.57
   0  -2  -1  127.94    3.63
   0  -2   1  118.89    3.60
   0  -2   1  120.24    3.60
   0  -2  -1  132.09    3.65
   0  -2  -1  117.18    3.59
   0  -2   1  127.53    3.73
   0  -2  -1  125.14    3.56
   0  -2   1  124.61    3.62
   0  -2  -1  128.44    3.61
   0  -2   1  129.00    3.62
   0  -2  -1  118.47    3.59
   0   2  -1  127.60    3.60
   0   2   1  124.12    3.60
   0   2  -1  125.62    3.62
   0   2   1  122.11    3.65
   0   2  -1  125.14    3.75
   0   2  -1  125.08    3.65
   0   2  -1  117.10    3.57
   0   2  -1  123.09    3.60
   0   2   1  119.94    3.61
   0   2   1  124.27    3.57
   0   2   1  114.07    3.57
  -1  -2  -1  276.06    7.54
  -1  -2  -1  263.46    7.59
   1  -2   1  255.17    7.45
  -1  -2  -1  266.43    7.65
   1  -2   1  249.40    7.39
  -1  -2  -1  252.37    7.45
  -1  -2  -1  250.56    7.38
  -1  -2  -1  265.48    7.45
   1  -2   1  245.12    7.41
  -1  -2  -1  262.44    7.63
   1   2   1  261.08    7.66
  -1   2  -1  249.97    7.41
  -1   2  -1  250.84    7.40
   1   2   1  253.96    7.63
   1   2   1  259.27    7.54
  -1   2  -1  232.78    7.34
  -1   2  -1  261.85    7.44
  -1   2  -1  251.75    7.38
  -1   2  -1  272.79    7.46
  -2  -2  -1  273.07    7.95
  -2  -2  -1  254.37    7.57
  -2  -2  -1  273.52    8.06
  -2  -2  -1  265.07    7.74
  -2  -2  -1  271.74    7.87
  -2  -2  -1  259.28    8.01
   2  -2   1  255.24    7.73
  -2  -2  -1  257.92    7.92
  -2  -2  -1  262.95    7.75
  -2   2  -1  269.71    7.74
  -2   2  -1  277.08    7.68
  -2   2  -1  265.80    7.69
   2   2   1  258.84    8.05
   2   2   1  244.98    7.86
  -2   2  -1  284.60    7.76
  -2   2  -1  247.49    7.73
  -2   2  -1  277.38    7.63
  -2   2  -1  265.51    7.79
   2   2   1  256.31    8.01
  -2   2  -1  259.77    7.71
   3  -2   1  151.13    4.80
   3  -2   1  156.07    4.73
  -3  -2  -1  151.76    5.15
  -3  -2  -1  159.32    5.05
  -3  -2  -1  151.14    5.02
  -3  -2  -1  153.87    5.21
  -3  -2  -1  155.78    4.96
  -3  -2  -1  150.48    4.81
  -3   2  -1  156.77    4.67
  -3   2  -1  158.84    4.83
  -3   2  -1  168.40    4.79
   3   2   1  156.64    4.97
   3   2   1  157.10    4.86
  -3   2  -1  149.51    4.93
  -3   2  -1  170.84    4.67
  -3   2  -1  159.18    4.85
   3   2   1  149.29    5.08
   3   2   1  157.11    5.22
  -4  -2  -1   60.51    2.88
  -4  -2  -1   61.31    2.65
  -4  -2  -1   56.94    2.56
  -4  -2  -1   60.67    2.17
   4  -2   1   58.44    2.19
  -4  -2  -1   59.06    2.45
  -4   2  -1   57.77    2.29
  -4   2  -1   63.79    1.95
   4   2   1   56.65    2.40
  -4   2  -1   59.18    2.41
  -4   2  -1   58.41    2.06
  -4   2  -1   64.09    2.24
   4   2   1   59.06    2.49
   4   2   1   59.60    2.24
  -4   2  -1   60.63    2.47
  -4   2  -1   59.17    2.24
  -5  -2  -1   11.01    1.36
   5  -2   1   11.46    1.04
  -5  -2  -1   13.50    1.34
  -5  -2  -1   13.41    1.00
  -5   2  -1   12.35    1.12
   5   2   1   14.95    1.08
   5   2   1   14.21    1.51
  -5   2  -1   13.60    0.94
  -5   2  -1   14.84    1.42
  -6  -2  -1    0.65    0.62
  -6  -2  -1    1.08    1.19
  -6   2  -1    0.84    0.74
   6   2   1    0.32    0.63
  -6   2  -1    0.40    0.69
  -6   2  -1    0.35    0.86
  -7  -2  -1    0.83    1.30
  -7  -2  -1    3.40    1.41
  -7  -2  -1    2.04    1.68
   7  -2   1    4.77    1.10
   7   2   1    2.78    1.09
  -7   2  -1    2.76    1.18
  -7   2  -1    1.42    1.28
   7  -3  -1   -0.69    0.96
  -7  -3   1    0.86    1.01
  -7  -3   1    1.37    1.58
  -7  -3   1    2.60    1.39
  -7   3   1   -2.52    1.17
   7   3  -1   -1.05    0.95
  -7   3   1    0.39    1.12
  -6  -3   1    0.26    0.61
  -6  -3   1   -3.31    1.95
  -6  -3   1   -0.26    0.85
  -6   3   1   -0.64    0.64
  -6   3   1   -0.26    0.89
  -6   3   1   -0.72    0.68
   6   3  -1    0.86    0.63
   5  -3  -1    0.16    0.42
  -5  -3   1   -0.03    0.60
  -5  -3   1   -0.41    0.78
  -5  -3   1    0.28    0.41
  -5   3   1    0.11    0.43
  -5   3   1    0.36    0.58
   5   3  -1    0.59    0.95
   5   3  -1    0.49    0.48
  -5   3   1    0.21    0.82
  -5   3   1   -0.28    0.47
   4  -3  -1    7.01    0.69
  -4  -3   1    5.93    1.18
  -4  -3   1    6.61    0.62
  -4  -3   1    4.10    0.74
  -4  -3   1    5.05    0.75
  -4   3   1    7.09    0.93
  -4   3   1    6.08    0.77
  -4   3   1    8.10    1.05
   4   3  -1    6.87    0.70
  -4   3   1    6.22    0.52
  -4   3   1    6.46    0.65
   4   3  -1    6.41    1.02
  -4   3   1    7.07    0.57
  -3  -3   1    8.70    0.76
   3  -3  -1    7.70    0.58
  -3  -3   1    8.90    1.14
  -3  -3   1    8.52    0.87
  -3  -3   1    7.91    0.87
  -3  -3   1    8.17    0.58
  -3   3   1    8.87    0.51
   3   3  -1    8.13    0.76
  -3   3   1    7.70    0.66
  -3   3   1    7.25    0.53
  -3   3   1    7.85    0.53
  -3   3   1    8.27    0.44
  -3   3   1    9.02    0.96
   3   3  -1    8.72    1.15
  -3   3   1    8.49    0.62
  -2  -3   1   52.59    1.85
  -2  -3   1   51.16    2.09
  -2  -3   1   48.89    2.02
  -2  -3   1   50.84    1.68
   2  -3  -1   50.15    1.68
  -2  -3   1   47.69    1.92
   2  -3  -1   50.08    1.61
  -2  -3   1   49.92    1.85
  -2  -3   1   48.85    1.69
  -2   3   1   53.25    1.65
  -2   3   1   51.58    1.55
  -2   3   1   47.14    1.58
  -2   3   1   52.66    1.62
   2   3  -1   51.61    1.98
   2   3  -1   46.63    1.49
   2   3  -1   48.29    1.82
  -2   3   1   47.15    1.54
  -2   3   1   49.99    1.68
   2   3  -1   50.20    1.69
   2   3  -1   49.27    2.06
  -1  -3   1   50.41    1.92
  -1  -3   1   54.94    1.81
  -1  -3   1   57.54    2.03
  -1  -3   1   53.33    1.81
  -1  -3   1   52.60    1.65
  -1  -3   1   55.31    1.72
   1  -3  -1   52.46    1.72
   1  -3  -1   52.52    1.70
  -1  -3   1   53.93    1.71
   1  -3  -1   55.31    1.70
  -1  -3   1   55.44    1.90
   1   3  -1   55.61    1.72
   1   3  -1   52.59    1.81
   1   3  -1   53.06    1.95
   1   3  -1   56.15    2.05
   1   3  -1   52.85    1.89
  -1   3   1   55.85    1.69
  -1   3   1   55.69    1.72
   1   3  -1   54.50    1.84
   1   3  -1   54.63    1.64
  -1   3   1   53.45    1.70
   0  -3  -1    8.34    0.36
   0  -3  -1    8.08    0.31
   0  -3   1    8.11    0.36
   0  -3   1    8.17    0.39
   0  -3   1    8.34    0.38
   0  -3   1    8.31    0.52
   0  -3   1    8.32    0.45
   0  -3  -1    8.83    0.38
   0  -3  -1    7.80    0.36
   0  -3   1    8.31    0.32
   0  -3   1    8.43    0.38
   0  -3  -1    8.16    0.39
   0  -3  -1    8.62    0.43
   0   3   1    7.87    0.49
   0   3  -1    8.23    0.37
   0   3   1    8.07    0.38
   0   3   1    8.65    0.37
   0   3   1    8.22    0.43
   0   3  -1    8.23    0.33
   0   3   1    8.77    0.41
   0   3   1    7.87    0.43
   0   3  -1    8.12    0.39
   0   3  -1    8.60    0.54
   0   3  -1    8.53    0.43
   0   3  -1    8.31    0.40
   0   3   1    8.04    0.33
   0   3  -1    7.73    0.45
   0   3   1    8.38    0.34
  -1  -3  -1   16.16    0.71
   1  -3   1   15.30    0.62
   1  -3   1   15.48    0.58
  -1  -3  -1   15.61    0.62
  -1  -3  -1   15.65    0.82
  -1  -3  -1   15.57    0.73
  -1  -3  -1   15.50    0.57
  -1  -3  -1   15.35    0.82
  -1  -3  -1   15.47    0.78
  -1  -3  -1   16.00    0.63
   1  -3   1   16.49    0.64
   1   3   1   16.17    0.85
  -1   3  -1   16.11    0.56
  -1   3  -1   16.16    0.59
   1   3   1   17.19    0.77
   1   3   1   16.74    0.57
  -1   3  -1   16.55    0.55
  -1   3  -1   14.95    0.67
   1   3   1   16.30    0.84
   1   3   1   15.89    0.63
   1   3   1   15.33    0.71
  -2  -3  -1    1.15    0.42
  -2  -3  -1    0.11    0.34
  -2  -3  -1    0.34    0.29
  -2  -3  -1    1.03    0.34
  -2  -3  -1    0.98    0.13
  -2  -3  -1    0.79    0.20
  -2  -3  -1    0.83    0.30
  -2  -3  -1    0.53    0.24
   2  -3   1    0.93    0.13
   2  -3   1    0.65    0.18
  -2   3  -1    1.12    0.28
  -2   3  -1    1.07    0.24
  -2   3  -1    0.80    0.21
   2   3   1    0.92    0.38
   2   3   1    0.79    0.26
  -2   3  -1    1.45    0.17
  -2   3  -1    1.36    0.21
   2   3   1    0.77    0.19
   2   3   1    0.62    0.34
   2   3   1    0.63    0.38
  -2   3  -1    0.98    0.16
  -3  -3  -1    0.61    0.45
   3  -3   1    0.02    0.22
  -3  -3  -1    0.67    0.64
  -3  -3  -1   -0.39    0.30
  -3  -3  -1    0.04    0.23
  -3  -3  -1    0.62    0.57
  -3   3  -1    0.32    0.34
  -3   3  -1   -0.09    0.23
  -3   3  -1   -0.42    0.20
   3   3   1   -0.08    0.50
  -3   3  -1    0.05    0.31
  -3   3  -1   -0.10    0.25
   3   3   1   -0.05    0.51
   3   3   1    0.12    0.34
  -3   3  -1   -0.21    0.23
  -4  -3  -1    6.82    1.35
  -4  -3  -1    5.67    0.62
   4  -3   1    5.94    0.67
  -4  -3  -1    2.44    1.11
  -4  -3  -1    4.82    0.76
  -4   3  -1    6.03    0.67
  -4   3  -1    5.43    0.78
  -4   3  -1    5.45    0.70
  -4   3  -1    6.10    0.59
  -4   3  -1    5.64    0.74
   4   3   1    3.60    0.51
  -4   3  -1    5.32    0.77
   4   3   1    4.38    0.78
  -5  -3  -1    2.65    0.96
   5  -3   1    1.68    0.50
  -5  -3  -1    3.46    0.83
  -5  -3  -1    2.25    0.55
   5   3   1    2.29    0.85
  -5   3  -1    3.35    0.65
   5   3   1    2.23    0.62
  -5   3  -1    2.14    0.49
  -5   3  -1    3.09    0.77
   5   3   1    2.12    0.99
  -6  -3  -1    5.73    1.39
  -6  -3  -1    8.00    1.26
  -6  -3  -1    7.87    0.99
   6   3   1    8.04    1.03
  -6   3  -1    7.63    1.22
  -6   3  -1    7.43    0.99
  -6   3  -1    7.26    1.07
  -7  -3  -1    1.45    1.68
   7  -3   1    0.05    0.96
  -7  -3  -1    2.49    1.09
  -7  -3  -1    3.79    1.38
   7   3   1    2.85    1.11
  -7   3  -1    2.27    1.23
  -7   3  -1    2.07    1.34
  -7  -4   1   78.77    3.43
  -7  -4   1   76.64    3.94
  -7  -4   1   82.21    4.72
   7  -4  -1   74.55    3.43
  -7   4   1   72.53    3.22
   7   4  -1   77.29    3.49
  -7   4   1   68.68    3.62
  -6  -4   1   -0.74    1.20
  -6  -4   1   -0.97    0.84
  -6  -4   1    1.14    0.68
   6  -4  -1    0.54    0.70
  -6   4   1    0.15    0.77
  -6   4   1    1.01    0.69
   6   4  -1    0.86    0.65
  -5  -4   1  103.31    4.01
  -5  -4   1  104.82    4.35
  -5  -4   1  101.51    3.57
   5  -4  -1  101.66    3.62
   5   4  -1  102.15    3.66
   5   4  -1  107.82    4.34
  -5   4   1   99.96    3.75
  -5   4   1  104.24    3.87
  -5   4   1   99.60    3.45
  -5   4   1   98.58    3.36
  -4  -4   1    0.09    0.29
  -4  -4   1   -0.36    0.55
   4  -4  -1    0.74    0.37
  -4  -4   1   -0.78    0.47
   4   4  -1   -0.32    0.33
   4   4  -1    0.74    0.83
  -4   4   1    0.18    0.34
  -4   4   1    0.26    0.45
  -4   4   1    0.39    0.24
  -4   4   1    0.34    0.36
  -4   4   1   -0.15    0.81
  -4   4   1    0.60    0.31
   4   4  -1    1.13    0.59
  -3  -4   1    4.37    0.91
  -3  -4   1    4.25    0.45
   3  -4  -1    4.50    0.49
  -3  -4   1    4.81    0.78
   3  -4  -1    4.42    0.42
  -3  -4   1    6.25    0.68
   3   4  -1    4.22    0.69
   3   4  -1    6.16    1.04
  -3   4   1    4.43    0.71
  -3   4   1    4.11    0.51
  -3   4   1    4.73    0.50
  -3   4   1    3.78    0.45
  -3   4   1    4.13    0.38
  -3   4   1    4.15    0.37
   3   4  -1    4.49    0.50
  -2  -4   1    2.83    0.22
   2  -4  -1    2.69    0.33
  -2  -4   1    2.60    0.33
   2  -4  -1    2.58    0.31
  -2  -4   1    3.17    0.47
  -2  -4   1    2.64    0.43
   2  -4  -1    3.09    0.31
  -2  -4   1    2.04    0.38
  -2  -4   1    2.86    0.60
  -2  -4   1    2.69    0.70
  -2  -4   1    2.76    0.38
   2   4  -1    2.99    0.51
   2   4  -1    2.44    0.48
   2   4  -1    3.10    0.22
  -2   4   1    2.93    0.35
  -2   4   1    2.76    0.35
   2   4  -1    3.22    0.56
  -2   4   1    2.97    0.38
   2   4  -1    2.40    0.60
   2   4  -1    2.78    0.44
   2   4  -1    2.96    0.39
  -1  -4   1  278.12    8.26
  -1  -4   1  286.59    8.19
  -1  -4   1  281.76    7.91
  -1  -4   1  260.66    8.02
  -1  -4   1  264.35    7.89
   1  -4  -1  258.38    7.89
   1  -4  -1  257.78    7.88
  -1  -4   1  270.77    8.11
   1  -4  -1  260.56    7.92
  -1  -4   1  273.44    8.02
  -1  -4   1  264.47    7.84
  -1  -4   1  258.76    7.89
   1   4  -1  282.20    7.91
   1   4  -1  274.09    7.84
   1   4  -1  293.93    8.08
   1   4  -1  269.75    8.21
  -1   4   1  275.25    7.88
  -1   4   1  272.09    7.90
   1   4  -1  276.17    8.13
   1   4  -1  271.65    8.33
   1   4  -1  270.82    8.04
  -1   4   1  268.52    7.90
  -1   4   1  255.95    7.76
   0  -4  -1    5.03    0.30
   0  -4   1    5.19    0.32
   0  -4   1    4.99    0.25
   0  -4   1    5.77    0.54
   0  -4   1    5.15    0.24
   0  -4   1    4.82    0.31
   0  -4  -1    5.30    0.25
   0  -4  -1    4.99    0.33
   0  -4  -1    4.85    0.24
   0  -4  -1    5.06    0.31
   0  -4   1    5.14    0.32
   0  -4  -1    5.22    0.37
   0  -4  -1    4.47    0.32
   0  -4   1    3.92    0.38
   0  -4  -1    4.90    0.38
   0  -4   1    4.93    0.35
   0  -4   1    4.22    0.40
   0   4  -1    5.03    0.27
   0   4   1    5.44    0.33
   0   4   1    4.99    0.27
   0   4  -1    5.03    0.34
   0   4  -1    4.51    0.37
   0   4   1    5.12    0.41
   0   4  -1    4.53    0.41
   0   4   1    5.30    0.39
   0   4   1    5.06    0.27
   0   4   1    4.70    0.43
   0   4  -1    4.90    0.36
   0   4   1    5.20    0.32
   0   4   1    5.23    0.49
   0   4  -1    4.87    0.53
   0   4  -1    4.86    0.32
  -1  -4  -1  473.26   13.75
   1  -4   1  463.05   13.82
  -1  -4  -1  483.65   13.81
  -1  -4  -1  483.89   14.07
  -1  -4  -1  506.10   14.09
  -1  -4  -1  492.93   13.91
  -1  -4  -1  504.02   14.04
  -1  -4  -1  489.11   13.80
  -1  -4  -1  470.81   13.96
   1  -4   1  455.43   13.81
   1  -4   1  438.86   13.76
   1   4   1  468.51   14.10
   1   4   1  528.67   14.02
  -1   4  -1  484.15   13.82
  -1   4  -1  469.92   13.94
  -1   4  -1  474.18   13.75
   1   4   1  485.58   14.17
  -1   4  -1  453.45   13.64
  -1   4  -1  476.77   13.71
   1   4   1  468.30   13.82
   1   4   1  512.89   14.08
  -1   4  -1  476.95   13.81
   1   4   1  462.01   13.93
   1   4   1  490.11   13.81
  -1   4  -1  432.00   13.73
   1   4   1  495.95   13.76
  -2  -4  -1    3.36    0.24
  -2  -4  -1    4.13    0.66
  -2  -4  -1    3.46    0.55
  -2  -4  -1    2.86    0.56
  -2  -4  -1    2.07    0.37
   2  -4   1    2.98    0.36
  -2  -4  -1    2.71    0.41
   2  -4   1    2.94    0.33
  -2  -4  -1    3.14    0.36
   2   4   1    1.56    0.48
  -2   4  -1    3.49    0.42
   2   4   1    2.89    0.52
  -2   4  -1    3.07    0.36
   2   4   1    2.63    0.53
  -2   4  -1    3.02    0.24
  -2   4  -1    2.90    0.35
   2   4   1    2.71    0.41
  -2   4  -1    2.91    0.30
   2   4   1    3.00    0.37
  -2   4  -1    3.49    0.19
  -3  -4  -1  224.43    7.07
  -3  -4  -1  232.99    7.24
  -3  -4  -1  230.35    6.47
   3  -4   1  218.06    6.74
  -3  -4  -1  226.44    6.79
  -3  -4  -1  219.18    7.27
  -3   4  -1  233.61    6.54
  -3   4  -1  226.99    6.60
  -3   4  -1  223.00    6.68
  -3   4  -1  221.99    6.76
   3   4   1  223.01    7.34
   3   4   1  211.98    7.28
  -3   4  -1  225.44    6.75
  -3   4  -1  218.41    6.64
  -4  -4  -1    4.53    0.75
  -4  -4  -1    6.26    0.98
  -4  -4  -1    6.57    0.69
   4  -4   1    5.62    0.65
  -4   4  -1    6.23    0.76
  -4   4  -1    5.66    0.64
  -4   4  -1    6.32    0.79
  -4   4  -1    6.19    0.67
   4   4   1    6.10    1.11
  -4   4  -1    6.80    0.82
   4   4   1    6.29    0.89
   4   4   1    5.99    0.72
  -5  -4  -1   19.92    1.25
   5  -4   1   18.99    1.27
  -5  -4  -1   19.07    1.67
  -5  -4  -1   22.07    2.04
  -5   4  -1   20.53    1.92
  -5   4  -1   19.82    1.15
   5   4   1   22.10    1.37
   5   4   1   20.94    1.76
  -5   4  -1   20.19    1.51
  -5   4  -1   19.92    1.25
   5   4   1   23.05    2.09
  -6  -4  -1    0.35    0.77
  -6  -4  -1    0.06    1.30
   6  -4   1   -0.34    0.69
  -6  -4  -1    0.75    0.89
   6   4   1    1.60    0.78
  -6   4  -1    1.08    0.89
  -6   4  -1    1.26    0.74
  -7  -4  -1    4.56    1.56
  -7  -4  -1    0.72    1.96
   7  -4   1    5.99    1.20
  -7  -4  -1    6.92    1.32
  -7   4  -1    6.90    1.27
   7   4   1    5.06    1.25
  -7   4  -1    6.93    1.53
  -7  -5   1    0.05    1.09
   7  -5  -1   -0.44    0.98
  -7  -5   1    3.36    1.94
  -7  -5   1    0.89    1.46
   7   5  -1    0.09    1.01
  -7   5   1    1.92    1.34
   6  -5  -1    6.84    1.02
  -6  -5   1    6.80    1.60
  -6  -5   1    7.60    1.33
  -6  -5   1    8.21    1.05
   6   5  -1    8.02    1.07
  -6   5   1    7.62    1.14
  -6   5   1    6.36    0.87
   6   5  -1    9.88    2.04
  -5  -5   1    6.66    1.03
   5  -5  -1   10.78    1.04
  -5  -5   1   11.47    0.99
  -5  -5   1   10.00    1.52
   5   5  -1    9.74    1.04
  -5   5   1    9.59    0.83
  -5   5   1    9.07    0.81
  -5   5   1    8.91    1.07
  -5   5   1    9.86    1.14
   5   5  -1    8.39    1.65
  -4  -5   1   50.92    2.59
   4  -5  -1   50.69    1.99
  -4  -5   1   51.92    2.35
  -4  -5   1   51.86    2.00
  -4   5   1   50.22    1.93
  -4   5   1   52.84    1.73
  -4   5   1   44.77    2.50
   4   5  -1   53.55    2.84
  -4   5   1   50.34    1.98
   4   5  -1   51.47    2.03
  -4   5   1   52.08    1.71
   4   5  -1   50.93    2.33
  -4   5   1   49.17    1.73
  -3  -5   1  105.47    3.93
   3  -5  -1  107.87    3.45
  -3  -5   1  105.33    3.45
  -3  -5   1  110.14    3.75
   3  -5  -1  104.20    3.48
   3   5  -1  108.66    4.16
   3   5  -1  107.34    3.75
  -3   5   1  111.04    3.15
  -3   5   1  102.82    3.27
  -3   5   1  104.27    3.15
  -3   5   1  106.27    3.31
   2  -5  -1   96.74    3.11
  -2  -5   1  102.76    3.51
   2  -5  -1   98.74    3.13
   2  -5  -1   98.27    3.15
  -2  -5   1  100.69    3.36
  -2  -5   1  104.35    3.00
  -2  -5   1   98.34    3.60
   2   5  -1   96.34    3.73
   2   5  -1  102.76    2.98
   2   5  -1  103.67    3.56
   2   5  -1   99.97    3.37
  -2   5   1   95.85    3.11
  -2   5   1   93.86    3.10
   2   5  -1   96.57    3.61
  -1  -5   1  110.02    3.78
   1  -5  -1  107.95    3.40
  -1  -5   1  112.29    3.39
  -1  -5   1  110.47    3.70
   1  -5  -1  106.73    3.39
  -1  -5   1  108.63    3.62
  -1  -5   1  114.60    3.54
  -1  -5   1  109.87    3.40
  -1  -5   1  110.81    3.38
  -1  -5   1  111.71    3.55
  -1  -5   1  113.82    3.37
  -1   5   1  104.57    3.31
   1   5  -1  116.27    3.42
  -1   5   1  113.65    3.39
  -1   5   1  111.44    3.22
  -1   5   1  107.49    3.31
   1   5  -1  115.20    3.67
  -1   5   1  101.18    3.27
   1   5  -1  112.21    3.75
  -1   5   1  110.53    3.21
  -1   5   1  111.98    3.40
   1   5  -1  119.17    3.60
  -1   5   1  112.03    3.42
   1   5  -1  116.24    3.36
   1   5  -1  111.02    3.89
   1   5  -1  109.37    3.55
   0  -5   1   60.08    2.03
   0  -5   1   59.18    2.19
   0  -5  -1   60.05    1.83
   0  -5  -1   57.89    1.93
   0  -5   1   57.56    1.94
   0  -5   1   61.91    2.01
   0  -5   1   58.86    1.95
   0  -5  -1   58.84    1.94
   0  -5  -1   59.09    1.98
   0  -5  -1   59.41    1.96
   0  -5   1   62.27    1.96
   0  -5  -1   59.37    1.83
   0  -5   1   60.25    1.83
   0  -5  -1   62.79    2.02
   0  -5   1   59.14    1.83
   0  -5  -1   61.08    1.94
   0  -5   1   57.55    1.93
   0   5   1   60.71    1.94
   0   5   1   66.14    2.03
   0   5  -1   61.59    1.95
   0   5  -1   62.34    1.88
   0   5   1   61.34    1.88
   0   5  -1   62.25    2.06
   0   5   1   59.26    2.23
   0   5   1   59.77    2.17
   0   5  -1   62.82    2.00
   0   5   1   59.09    1.97
   0   5  -1   58.77    2.14
   0   5   1   59.81    2.05
   0   5  -1   60.20    1.98
   0   5  -1   61.12    1.95
   0   5  -1   58.82    2.26
   0   5   1   61.96    1.88
   1  -5   1    2.70    0.31
   1  -5   1    2.73    0.18
  -1  -5  -1    2.23    0.37
  -1  -5  -1    3.56    0.33
  -1  -5  -1    2.41    0.35
   1  -5   1    3.27    0.32
  -1  -5  -1    2.18    0.51
  -1  -5  -1    3.15    0.46
  -1  -5  -1    2.24    0.27
   1  -5   1    2.76    0.30
  -1  -5  -1    2.81    0.26
   1  -5   1    2.89    0.20
  -1  -5  -1    2.37    0.47
  -1   5  -1    2.91    0.29
  -1   5  -1    2.49    0.39
   1   5   1    2.53    0.32
   1   5   1    2.70    0.29
   1   5   1    3.09    0.29
   1   5   1    3.03    0.60
   1   5   1    2.89    0.47
  -1   5  -1    2.64    0.28
  -1   5  -1    3.01    0.37
  -1   5  -1    2.91    0.18
   1   5   1    2.20    0.40
  -1   5  -1    2.52    0.31
   1   5   1    3.17    0.47
  -1   5  -1    2.47    0.25
   1   5   1    2.72    0.37
  -2  -5  -1    0.42    0.58
   2  -5   1    0.76    0.22
   2  -5   1    0.51    0.23
  -2  -5  -1    0.29    0.14
  -2  -5  -1    0.15    0.19
  -2  -5  -1    1.00    0.40
   2  -5   1    0.44    0.20
  -2  -5  -1    0.67    0.37
  -2   5  -1    0.83    0.18
   2   5   1    0.65    0.35
  -2   5  -1    0.74    0.14
  -2   5  -1    0.83    0.25
  -2   5  -1    0.81    0.30
  -2   5  -1    0.61    0.28
   2   5   1    0.41    0.43
   2   5   1    0.95    0.53
   2   5   1    0.78    0.30
   3  -5   1   14.63    0.79
  -3  -5  -1   14.49    0.80
  -3  -5  -1   14.41    0.56
  -3  -5  -1   11.27    1.17
  -3  -5  -1   11.67    0.97
   3   5   1   14.06    1.40
   3   5   1   14.00    1.05
   3   5   1   13.28    1.46
  -3   5  -1   13.55    0.60
  -3   5  -1   13.33    0.64
  -3   5  -1   14.76    0.58
  -3   5  -1   13.51    0.73
  -4  -5  -1   33.47    1.87
   4  -5   1   34.54    1.49
  -4  -5  -1   31.95    2.04
  -4  -5  -1   34.39    1.53
  -4   5  -1   33.96    1.34
   4   5   1   33.93    1.59
   4   5   1   34.42    1.92
  -4   5  -1   35.19    1.32
   4   5   1   36.91    2.39
  -4   5  -1   32.41    1.51
  -4   5  -1   30.92    1.70
  -4   5  -1   33.70    1.63
  -4   5  -1   34.15    1.39
   5  -5   1   15.10    1.19
  -5  -5  -1   14.39    1.12
  -5  -5  -1   15.16    2.04
  -5  -5  -1   15.51    1.49
  -5   5  -1   15.20    1.31
   5   5   1   11.85    1.17
   5   5   1   14.06    1.79
  -5   5  -1   15.07    1.46
  -5   5  -1   15.07    0.98
   5   5   1   16.42    1.73
  -5   5  -1   13.87    1.02
  -6  -5  -1   27.53    2.25
   6  -5   1   29.24    1.85
  -6  -5  -1   26.52    1.72
  -6  -5  -1   32.16    3.02
   6   5   1   28.35    1.85
  -6   5  -1   25.19    1.97
  -6   5  -1   25.75    1.61
  -7  -5  -1    4.65    1.22
  -7  -5  -1    8.60    2.26
   7  -5   1    7.91    1.42
  -7  -5  -1    4.47    1.58
  -7   5  -1    4.72    1.43
   7   5   1    6.79    1.35
   7  -6  -1    4.74    1.25
  -7  -6   1    3.02    2.21
  -7  -6   1    1.90    1.50
  -7  -6   1    3.84    1.16
   7   6  -1    3.35    1.19
  -7   6   1    2.77    1.25
  -6  -6   1   11.28    1.92
  -6  -6   1    9.62    1.14
  -6  -6   1    8.26    1.41
   6  -6  -1    9.35    1.20
  -6   6   1   11.92    1.47
   6   6  -1   10.72    2.25
   6   6  -1    8.47    1.16
  -5  -6   1   16.31    1.16
   5  -6  -1   17.54    1.27
  -5  -6   1   15.34    1.62
  -5  -6   1   16.34    2.19
  -5   6   1   14.24    1.42
   5   6  -1   14.87    1.25
  -5   6   1   13.82    1.16
  -5   6   1   15.25    0.82
   5   6  -1   16.54    2.10
  -4  -6   1    0.32    0.77
  -4  -6   1   -0.10    0.55
   4  -6  -1    0.71    0.39
  -4  -6   1    0.64    0.38
  -4   6   1   -0.44    0.40
  -4   6   1   -0.12    0.25
  -4   6   1   -0.36    0.35
   4   6  -1   -0.50    0.96
   4   6  -1   -0.19    0.63
   4   6  -1    0.40    0.38
  -3  -6   1   16.85    1.16
  -3  -6   1   15.77    0.89
   3  -6  -1   17.09    0.92
  -3  -6   1   15.58    1.42
   3  -6  -1   18.26    0.90
   3   6  -1   16.86    1.18
   3   6  -1   19.92    1.67
  -2  -6   1   34.57    1.28
   2  -6  -1   27.88    1.35
   2  -6  -1   33.79    1.53
  -2  -6   1   35.55    1.17
  -2  -6   1   32.73    1.62
  -2  -6   1   33.50    1.54
   2   6  -1   29.87    1.76
   2   6  -1   33.10    1.15
   2   6  -1   32.27    1.49
   2   6  -1   31.86    1.90
  -1  -6   1   12.10    0.61
  -1  -6   1   11.77    0.57
  -1  -6   1   11.83    0.80
  -1  -6   1   11.48    0.60
  -1  -6   1   11.73    0.56
   1  -6  -1   11.10    0.59
   1  -6  -1   10.87    0.61
  -1  -6   1   11.39    0.71
  -1   6   1   11.00    0.57
   1   6  -1   11.44    0.82
   1   6  -1   12.55    0.91
   1   6  -1   12.45    1.10
  -1   6   1   10.83    0.50
  -1   6   1   11.69    0.62
  -1   6   1   10.44    0.58
  -1   6   1   10.94    0.44
  -1   6   1   11.20    0.82
   1   6  -1   11.06    0.57
   1   6  -1   10.71    0.72
  -1   6   1   10.61    0.55
  -1   6   1   11.24    0.42
   1   6  -1   11.51    0.92
  -1   6   1   11.70    0.64
   0  -6   1  133.37    3.91
   0  -6   1  124.06    3.70
   0  -6   1  123.77    4.14
   0  -6  -1  125.84    3.86
   0  -6   1  130.04    3.70
   0  -6  -1  127.14    3.83
   0  -6  -1  120.61    3.82
   0  -6  -1  120.65    3.69
   0  -6  -1  126.39    3.88
   0  -6  -1  120.90    3.83
   0  -6   1  124.73    3.84
   0  -6   1  125.43    3.85
   0  -6   1  121.60    3.84
   0  -6  -1  129.98    3.70
   0  -6   1  120.32    3.83
   0  -6  -1  120.45    3.89
   0  -6   1  125.28    3.92
   0   6  -1  134.68    3.92
   0   6  -1  119.46    3.84
   0   6  -1  123.01    3.89
   0   6  -1  128.10    3.99
   0   6   1  119.29    3.82
   0   6   1  134.99    3.95
   0   6   1  131.66    4.00
   0   6   1  126.09    4.04
   0   6   1  122.96    4.21
   0   6  -1  125.65    4.26
   0   6   1  125.62    3.76
   0   6  -1  119.30    4.03
   0   6  -1  129.33    3.77
   0   6  -1  121.93    3.84
   0   6   1  124.27    3.88
   0   6   1  130.64    3.79
   1  -6   1   54.81    1.65
  -1  -6  -1   55.06    1.80
   1  -6   1   55.49    1.87
   1  -6   1   53.12    1.86
  -1  -6  -1   53.48    2.07
  -1  -6  -1   53.21    1.98
  -1  -6  -1   53.44    1.79
   1  -6   1   57.44    1.68
  -1  -6  -1   54.80    1.85
  -1  -6  -1   56.48    1.81
   1   6   1   53.90    1.85
   1   6   1   56.71    2.16
   1   6   1   52.65    2.31
  -1   6  -1   49.22    2.07
  -1   6  -1   54.52    1.78
  -1   6  -1   55.20    1.66
   1   6   1   56.45    2.22
  -1   6  -1   55.16    1.77
  -1   6  -1   52.75    1.80
   1   6   1   57.67    2.10
   1   6   1   50.17    1.97
   1   6   1   56.23    1.81
  -2  -6  -1   93.69    2.77
  -2  -6  -1   92.50    2.90
  -2  -6  -1   80.35    3.32
  -2  -6  -1   89.46    3.26
   2  -6   1   88.90    2.91
   2  -6   1   88.53    2.89
   2  -6   1   90.20    2.86
  -2   6  -1   87.85    3.05
  -2   6  -1   86.31    2.82
   2   6   1   95.07    2.78
   2   6   1   87.20    3.42
   2   6   1   87.30    3.51
   2   6   1   87.47    2.92
   2   6   1   87.59    3.12
   3  -6   1   31.29    1.29
  -3  -6  -1   29.21    1.78
  -3  -6  -1   31.27    1.59
  -3  -6  -1   32.00    1.08
  -3  -6  -1   29.70    1.32
   3   6   1   32.05    1.61
  -3   6  -1   31.63    1.00
  -3   6  -1   29.54    1.38
   3   6   1   29.55    2.03
  -3   6  -1   29.40    1.13
   3   6   1   27.74    1.98
  -4  -6  -1   13.36    1.33
   4  -6   1   11.95    0.93
  -4  -6  -1   12.24    0.90
  -4  -6  -1    9.92    1.30
  -4   6  -1   11.70    0.66
   4   6   1   13.46    1.67
   4   6   1   12.59    0.97
   4   6   1   13.95    1.35
  -4   6  -1   12.82    0.90
  -4   6  -1   11.31    0.66
  -4   6  -1   11.84    0.97
  -4   6  -1   10.83    0.88
  -5  -6  -1    6.73    1.13
  -5  -6  -1    8.47    1.00
   5  -6   1    6.64    0.84
  -5  -6  -1    9.02    1.56
  -5   6  -1    7.39    0.91
   5   6   1   10.83    1.10
  -5   6  -1    8.41    1.00
   5   6   1    8.92    1.35
  -5   6  -1    6.54    0.75
   5   6   1    7.77    1.65
  -6  -6  -1    0.97    0.75
  -6  -6  -1   -0.81    0.96
   6  -6   1   -0.12    0.80
  -6  -6  -1   -1.95    1.47
   6   6   1   -0.77    2.09
  -6   6  -1    2.64    0.86
   6   6   1    0.71    0.77
  -7  -6  -1    4.39    3.70
   7  -6   1    1.43    1.17
  -7  -6  -1   -1.64    1.06
  -7  -6  -1   -1.85    1.48
  -7   6  -1   -1.90    1.18
   7   6   1    1.27    1.19
  -7  -7   1    7.02    1.37
  -7  -7   1    5.52    1.79
   7  -7  -1    8.19    1.42
  -7  -7   1    8.45    2.58
   7   7  -1   10.86    1.53
  -7   7   1    6.52    1.35
  -6  -7   1    0.36    0.72
   6  -7  -1   -0.54    0.76
  -6  -7   1    0.05    1.07
  -6  -7   1    1.09    1.74
  -6   7   1    0.43    0.77
   6   7  -1    1.61    2.08
   6   7  -1    0.02    0.77
  -5  -7   1   88.71    4.19
  -5  -7   1   82.33    3.09
  -5  -7   1   80.09    3.57
   5  -7  -1   80.85    3.13
   5   7  -1   87.25    4.35
   5   7  -1   82.38    3.15
  -5   7   1   78.90    2.90
  -5   7   1   77.06    2.83
  -5   7   1   73.58    4.32
  -4  -7   1   11.46    0.90
  -4  -7   1   14.70    1.75
   4  -7  -1   12.29    0.99
  -4  -7   1   11.34    1.24
   4   7  -1   13.23    1.01
   4   7  -1   11.64    1.83
  -4   7   1   11.78    0.60
   4   7  -1   15.38    1.40
  -4   7   1   11.32    0.76
  -3  -7   1  277.84    8.13
   3  -7  -1  258.39    8.09
  -3  -7   1  271.91    8.69
  -3  -7   1  257.69    8.43
   3  -7  -1  266.99    8.12
   3  -7  -1  273.80    8.06
   3   7  -1  270.52    9.05
   3   7  -1  264.06    8.47
   2  -7  -1   35.91    1.44
  -2  -7   1   36.00    1.43
  -2  -7   1   37.97    1.71
  -2  -7   1   37.77    1.35
  -2  -7   1   37.81    1.83
   2  -7  -1   38.01    1.51
   2  -7  -1   38.82    1.48
  -2  -7   1   38.87    1.45
   2   7  -1   34.74    1.66
   2   7  -1   38.77    2.15
   2   7  -1   39.00    2.03
   2   7  -1   38.20    2.05
  -2   7   1   36.71    1.71
   2   7  -1   38.27    1.35
  -1  -7   1  296.74    8.90
  -1  -7   1  299.20    8.84
   1  -7  -1  315.96    8.68
   1  -7  -1  292.15    8.92
  -1  -7   1  303.09    8.88
  -1  -7   1  303.41    8.85
  -1  -7   1  309.71    9.18
   1  -7  -1  277.42    9.33
  -1  -7   1  312.89    9.08
   1   7  -1  294.15    9.09
   1   7  -1  312.75    9.28
  -1   7   1  294.98    9.29
   1   7  -1  294.66    8.86
  -1   7   1  287.15    8.87
  -1   7   1  322.02    8.86
   1   7  -1  307.01    9.40
  -1   7   1  276.01    9.04
  -1   7   1  304.70    8.71
  -1   7   1  299.66    8.71
  -1   7   1  296.07    8.80
  -1   7   1  314.44    9.03
   1   7  -1  300.45    9.60
   1   7  -1  320.72    9.17
   0  -7  -1    1.38    0.30
   0  -7   1    1.34    0.35
   0  -7   1    1.32    0.28
   0  -7  -1    1.12    0.25
   0  -7   1    1.82    0.21
   0  -7   1    1.70    0.31
   0  -7   1    1.57    0.19
   0  -7  -1    1.84    0.21
   0  -7   1    1.39    0.35
   0  -7  -1    1.73    0.20
   0  -7  -1    1.48    0.33
   0   7   1    1.24    0.22
   0   7   1    2.06    0.30
   0   7  -1    1.51    0.32
   0   7   1    1.45    0.31
   0   7  -1    1.35    0.37
   0   7   1    1.23    0.57
   0   7  -1    1.86    0.59
   0   7  -1    2.16    0.39
   0   7   1    1.05    0.35
   0   7   1    1.82    0.41
   0   7  -1    1.69    0.28
   1  -7   1   52.98    1.57
   1  -7   1   48.15    1.74
  -1  -7  -1   48.99    1.69
  -1  -7  -1   48.80    1.67
   1  -7   1   47.49    1.74
   1  -7   1   47.62    1.52
  -1  -7  -1   51.84    1.90
  -1  -7  -1   47.84    1.96
  -1  -7  -1   45.12    1.65
   1   7   1   48.11    2.28
   1   7   1   50.76    2.09
   1   7   1   51.52    2.00
  -1   7  -1   47.63    1.66
  -1   7  -1   46.96    2.07
  -1   7  -1   52.30    1.67
   1   7   1   47.77    1.73
  -1   7  -1   45.53    1.70
   1   7   1   46.25    1.87
   1   7   1   48.13    2.13
  -1   7  -1   49.98    1.54
  -2  -7  -1    5.81    0.44
   2  -7   1    5.59    0.52
   2  -7   1    5.51    0.53
   2  -7   1    5.36    0.56
  -2  -7  -1    3.75    0.65
  -2  -7  -1    4.71    0.66
  -2  -7  -1    5.40    0.48
   2   7   1    3.97    0.59
  -2   7  -1    5.01    0.29
  -2   7  -1    4.56    0.39
   2   7   1    4.62    0.83
   2   7   1    5.16    0.89
  -2   7  -1    5.74    0.73
   2   7   1    5.77    0.54
   2   7   1    4.70    0.53
   3  -7   1   38.02    1.61
  -3  -7  -1   36.57    2.12
   3  -7   1   39.18    1.57
  -3  -7  -1   36.60    1.55
  -3  -7  -1   41.11    1.93
  -3  -7  -1   39.00    1.35
  -3   7  -1   38.21    1.20
   3   7   1   38.55    2.40
   3   7   1   36.64    1.85
   3   7   1   37.73    2.36
  -3   7  -1   37.32    1.73
   4  -7   1    5.88    0.70
  -4  -7  -1    5.57    1.21
  -4  -7  -1    6.33    0.74
  -4  -7  -1    3.62    0.83
  -4   7  -1    5.35    0.76
   4   7   1    5.28    1.02
  -4   7  -1    5.08    0.55
  -4   7  -1    3.98    0.87
   4   7   1    6.42    1.50
  -5  -7  -1  139.83    4.84
  -5  -7  -1  145.74    5.43
   5  -7   1  146.00    4.85
  -5  -7  -1  146.38    5.87
   5   7   1  144.81    6.04
  -5   7  -1  138.09    4.67
   5   7   1  142.06    5.42
  -5   7  -1  137.86    4.67
   5   7   1  144.82    4.96
  -6  -7  -1    3.89    0.92
   6  -7   1    2.75    0.90
  -6  -7  -1    4.27    1.26
  -6  -7  -1    2.49    1.77
  -6   7  -1    1.91    0.93
   6   7   1    4.28    0.99
   6   7   1    3.79    2.36
  -7  -7  -1   76.97    3.58
   7  -7   1   82.12    3.76
  -7  -7  -1   75.55    4.25
  -7  -7  -1   74.82    5.55
   7   7   1   86.48    3.85
  -7   7  -1   75.12    3.49
  -6  -8   1   15.66    2.60
  -6  -8   1   14.40    1.60
  -6  -8   1   13.65    1.85
   6  -8  -1   15.92    1.83
   6   8  -1   12.20    3.09
   6   8  -1   13.41    1.49
  -5  -8   1    5.52    1.58
  -5  -8   1    5.02    0.74
  -5  -8   1    4.42    1.09
   5  -8  -1    4.27    0.83
   5   8  -1    8.42    2.05
   5   8  -1    4.28    0.80
  -4  -8   1    4.55    0.64
  -4  -8   1    4.78    1.21
   4  -8  -1    5.32    0.79
  -4  -8   1    4.78    0.96
   4   8  -1    5.23    0.70
   4   8  -1    5.24    1.61
  -4   8   1    6.76    0.98
   4   8  -1    5.03    0.99
  -3  -8   1    1.13    0.77
   3  -8  -1    2.26    0.42
   3  -8  -1    2.99    0.52
   3  -8  -1    2.60    0.48
  -3  -8   1    2.63    0.48
  -3  -8   1    2.52    0.61
   3   8  -1    3.16    0.42
   3   8  -1    2.12    1.04
  -3   8   1    1.38    0.62
   3   8  -1    2.68    0.67
  -2  -8   1   28.09    1.19
  -2  -8   1   28.73    1.15
  -2  -8   1   28.04    1.48
  -2  -8   1   28.70    1.22
   2  -8  -1   29.25    1.26
   2  -8  -1   28.75    1.24
  -2  -8   1   28.50    1.65
  -2   8   1   26.75    1.05
  -2   8   1   27.09    0.91
  -2   8   1   28.10    0.90
   2   8  -1   28.82    2.04
   2   8  -1   26.34    1.89
  -2   8   1   28.61    1.58
   2   8  -1   26.45    1.45
   2   8  -1   29.20    1.85
  -1  -8   1    0.13    0.20
   1  -8  -1    0.17    0.22
  -1  -8   1    0.13    0.38
  -1  -8   1    0.09    0.21
   1  -8  -1   -0.18    0.20
  -1  -8   1    0.36    0.29
  -1  -8   1   -0.14    0.20
   1  -8  -1    0.10    0.23
  -1  -8   1   -0.19    0.31
   1  -8  -1    0.22    0.21
   1   8  -1    0.07    0.43
  -1   8   1    0.46    0.28
  -1   8   1    0.57    0.25
   1   8  -1    0.67    0.57
  -1   8   1    0.23    0.16
   1   8  -1    1.24    0.56
  -1   8   1   -0.22    0.39
  -1   8   1    0.02    0.21
  -1   8   1    0.17    0.28
   1   8  -1    0.31    0.50
   1   8  -1    0.22    0.30
   0  -8  -1  124.54    3.95
   0  -8   1  124.12    3.74
   0  -8   1  126.43    4.00
   0  -8  -1  122.61    3.72
   0  -8  -1  125.83    3.96
   0  -8   1  124.19    3.95
   0  -8  -1  127.49    3.99
   0  -8   1  127.25    3.96
   0  -8   1  131.35    3.74
   0  -8   1  122.70    3.97
   0  -8  -1  127.78    3.73
   0  -8  -1  129.08    3.98
   0   8  -1  124.18    4.26
   0   8   1  122.99    4.01
   0   8   1  129.00    4.20
   0   8   1  137.43    4.13
   0   8   1  121.58    4.22
   0   8   1  121.50    3.86
   0   8   1  120.90    4.48
   0   8  -1  120.83    4.52
   0   8  -1  138.96    4.12
   0   8  -1  128.69    4.18
   0   8  -1  117.88    4.00
  -1  -8  -1    4.50    0.46
   1  -8   1    4.21    0.50
   1  -8   1    4.54    0.41
  -1  -8  -1    4.12    0.47
   1  -8   1    4.34    0.47
   1  -8   1    4.16    0.48
  -1  -8  -1    3.96    0.55
  -1  -8  -1    5.06    0.69
  -1  -8  -1    4.59    0.44
  -1  -8  -1    4.52    0.46
  -1   8  -1    4.51    0.78
   1   8   1    3.48    0.68
  -1   8  -1    4.84    0.55
  -1   8  -1    3.50    0.40
   1   8   1    5.47    0.80
   1   8   1    2.91    0.67
   1   8   1    3.43    0.44
  -1   8  -1    5.20    0.51
   1   8   1    4.45    0.59
  -1   8  -1    3.83    0.52
   1   8   1    4.85    0.71
  -2  -8  -1   43.63    1.65
   2  -8   1   43.44    1.71
  -2  -8  -1   47.22    1.73
  -2  -8  -1   43.36    1.97
  -2  -8  -1   42.85    2.09
   2  -8   1   44.55    1.72
  -2   8  -1   44.80    1.42
   2   8   1   44.31    1.96
  -2   8  -1   43.33    1.53
  -2   8  -1   38.81    2.27
   2   8   1   45.05    2.44
  -2   8  -1   44.55    1.38
   2   8   1   44.07    2.31
   3  -8   1    3.37    0.52
  -3  -8  -1    3.63    0.92
  -3  -8  -1    4.38    0.57
   3  -8   1    3.43    0.54
  -3  -8  -1    4.00    0.74
  -3  -8  -1    3.72    0.47
   3   8   1    4.73    0.81
   3   8   1    7.40    1.30
  -3   8  -1    4.73    0.78
   3   8   1    3.30    1.06
  -3   8  -1    3.62    0.35
  -4  -8  -1    8.39    0.89
   4  -8   1    8.66    0.99
  -4  -8  -1    8.04    1.13
  -4  -8  -1   10.02    1.54
   4   8   1    5.27    1.06
   4   8   1   11.48    1.85
  -4   8  -1    8.39    1.02
  -5  -8  -1   -1.79    1.28
   5  -8   1    0.65    0.67
  -5  -8  -1    0.23    0.93
  -5  -8  -1    1.54    0.79
   5   8   1    0.64    0.68
  -5   8  -1    1.47    0.56
  -5   8  -1    1.06    0.68
   5   8   1    5.12    1.95
   5   8   1    0.03    1.11
   6  -8   1    2.04    1.04
  -6  -8  -1   -2.60    1.96
  -6  -8  -1   -1.71    1.20
  -6  -8  -1   -1.05    0.81
  -6   8  -1    0.44    0.78
   6   8   1   -1.28    0.88
   6   8   1    4.18    2.79
   6  -9  -1    4.12    1.20
  -6  -9   1    6.07    1.61
  -6  -9   1    1.37    2.28
  -6  -9   1    4.27    1.03
   6   9  -1    3.40    1.15
   6   9  -1    2.79    2.98
   5  -9  -1   23.17    1.73
  -5  -9   1   24.76    3.09
  -5  -9   1   22.33    1.50
   5   9  -1   25.41    3.45
  -4  -9   1   25.37    1.41
  -4  -9   1   25.15    1.92
   4  -9  -1   26.71    1.56
  -4  -9   1   25.33    2.49
  -4   9   1   26.83    1.94
   4   9  -1   29.85    1.99
   4   9  -1   27.66    1.53
   4   9  -1   20.71    2.80
   3  -9  -1   96.21    3.29
  -3  -9   1   96.58    3.27
  -3  -9   1   97.22    3.99
  -3  -9   1   97.55    3.68
  -3  -9   1   98.07    3.28
   3  -9  -1   93.37    3.32
   3  -9  -1   92.10    3.34
   3   9  -1   90.73    3.66
  -3   9   1   96.63    3.70
   3   9  -1   95.28    4.46
  -2  -9   1   28.25    1.68
   2  -9  -1   23.69    1.20
  -2  -9   1   25.39    1.18
   2  -9  -1   26.69    1.21
  -2  -9   1   24.74    1.12
  -2  -9   1   25.65    1.49
  -2  -9   1   26.08    1.11
  -2   9   1   23.15    1.59
  -2   9   1   24.73    1.06
  -2   9   1   23.19    0.90
  -2   9   1   23.89    0.87
   2   9  -1   25.45    1.49
  -2   9   1   23.57    1.05
   2   9  -1   27.17    1.85
   2   9  -1   26.53    2.05
  -1  -9   1  106.48    3.41
  -1  -9   1  107.26    3.71
  -1  -9   1  108.09    3.31
   1  -9  -1   99.38    3.45
   1  -9  -1  100.93    3.43
  -1  -9   1  104.28    3.33
  -1  -9   1  107.52    3.44
  -1  -9   1  104.59    3.59
   1  -9  -1  101.28    3.17
   1  -9  -1  112.68    3.19
   1   9  -1  108.09    4.28
   1   9  -1  109.80    3.78
   1   9  -1  110.38    3.91
  -1   9   1  103.79    3.35
  -1   9   1  101.42    3.24
  -1   9   1  100.96    3.23
   1   9  -1  109.09    4.02
   1   9  -1  106.60    3.66
  -1   9   1  107.82    3.98
  -1   9   1  102.96    3.54
  -1   9   1  101.65    3.49
   0  -9  -1   11.29    0.76
   0  -9   1   10.83    0.51
   0  -9   1   12.87    0.93
   0  -9  -1   11.41    0.49
   0  -9   1   11.17    0.50
   0  -9   1   11.57    0.71
   0  -9  -1   11.73    0.73
   0  -9  -1   12.81    0.90
   0  -9  -1   10.84    0.72
   0  -9   1   10.07    0.75
   0  -9   1   11.44    0.72
   0  -9  -1   11.13    0.51
   0   9  -1   10.36    0.97
   0   9   1   12.07    0.77
   0   9   1   13.04    1.04
   0   9   1   11.24    1.00
   0   9  -1   10.95    1.08
   0   9  -1    9.77    1.23
   0   9   1   11.85    1.20
   0   9   1   12.26    1.13
   0   9  -1   11.80    0.97
   0   9   1   11.34    0.66
   1  -9   1    6.67    0.56
   1  -9   1    8.29    0.67
  -1  -9  -1    7.57    0.87
  -1  -9  -1    7.14    0.57
  -1  -9  -1    7.11    0.68
   1  -9   1    7.41    0.63
  -1  -9  -1    7.84    0.60
  -1  -9  -1    6.63    0.52
  -1  -9  -1    7.05    0.77
   1   9   1    6.86    0.94
  -1   9  -1    6.54    0.72
   1   9   1    7.34    0.75
   1   9   1    7.39    1.11
  -1   9  -1    7.01    0.94
   1   9   1    8.35    1.07
   1   9   1    5.83    0.58
  -1   9  -1    8.12    0.71
  -1   9  -1    8.56    0.81
   1   9   1    6.99    0.97
  -2  -9  -1    2.12    0.39
  -2  -9  -1    2.44    0.41
  -2  -9  -1    2.21    0.62
   2  -9   1    2.72    0.51
  -2  -9  -1    3.24    0.76
   2  -9   1    2.35    0.45
  -2  -9  -1    2.37    0.38
  -2   9  -1    2.67    0.78
   2   9   1    1.23    0.52
   2   9   1    3.74    1.06
   2   9   1    1.39    0.67
  -2   9  -1    2.21    0.32
  -2   9  -1    2.39    0.40
  -2   9  -1    2.44    0.30
  -3  -9  -1   27.61    1.36
  -3  -9  -1   25.44    2.03
  -3  -9  -1   31.08    1.24
  -3  -9  -1   28.75    1.76
   3  -9   1   29.64    1.48
   3  -9   1   30.58    1.47
   3   9   1   29.69    2.51
   3   9   1   27.68    1.71
   3   9   1   28.28    2.43
  -3   9  -1   27.75    1.81
  -4  -9  -1   19.71    1.74
  -4  -9  -1   16.95    2.29
  -4  -9  -1   18.03    1.18
   4  -9   1   17.51    1.30
   4   9   1   15.42    1.72
  -4   9  -1   18.38    1.78
   4   9   1   15.05    2.14
  -5  -9  -1   35.50    1.91
   5  -9   1   39.22    2.11
  -5  -9  -1   35.63    2.60
  -5  -9  -1   39.72    3.59
   5   9   1   38.50    2.13
   5   9   1   38.77    2.65
   5   9   1   36.32    3.92
  -6  -9  -1    4.93    1.04
   6  -9   1    6.75    1.31
  -6  -9  -1    4.24    2.45
  -6  -9  -1    4.80    1.61
   6   9   1    5.15    1.21
   6   9   1    5.17    3.03
  -6 -10   1    1.49    1.01
   6 -10  -1    2.34    1.32
  -6 -10   1    3.22    1.64
  -6 -10   1    2.47    0.94
  -6 -10   1    5.83    2.82
   6  10  -1    2.83    3.11
   6  10  -1    0.96    1.06
  -5 -10   1   31.89    2.59
  -5 -10   1   34.62    1.83
  -5 -10   1   33.42    3.63
  -5 -10   1   31.03    1.85
   5  10  -1   33.79    2.01
   4 -10  -1    0.71    0.69
  -4 -10   1    0.68    0.53
  -4 -10   1    1.37    0.50
  -4 -10   1    0.91    0.96
  -4 -10   1    1.59    1.32
  -4  10   1    0.18    1.08
   4  10  -1    1.79    1.71
  -3 -10   1    1.58    0.76
   3 -10  -1    1.71    0.48
  -3 -10   1    2.63    1.04
   3 -10  -1    1.19    0.53
  -3 -10   1    1.57    0.45
  -3 -10   1    1.08    0.45
   3  10  -1    0.35    0.63
   3  10  -1    1.30    1.29
  -3  10   1    2.37    0.89
  -2 -10   1    2.15    0.43
  -2 -10   1    1.51    0.36
   2 -10  -1    1.40    0.44
  -2 -10   1    1.25    0.59
   2 -10  -1    0.86    0.38
  -2 -10   1    1.44    0.83
  -2 -10   1    1.86    0.39
  -2  10   1    1.77    0.28
   2  10  -1    1.37    0.60
  -2  10   1    0.24    0.63
  -2  10   1    1.66    0.36
   2  10  -1    2.23    1.08
  -1 -10   1   32.12    1.37
   1 -10  -1   27.66    1.34
   1 -10  -1   31.47    1.35
  -1 -10   1   29.73    1.50
  -1 -10   1   27.05    1.29
  -1 -10   1   31.75    1.20
   1 -10  -1   30.04    1.11
  -1 -10   1   33.18    1.72
  -1 -10   1   29.30    1.31
  -1  10   1   31.84    1.27
   1  10  -1   29.81    1.52
  -1  10   1   30.36    1.50
   1  10  -1   28.30    1.79
  -1  10   1   28.74    1.15
  -1  10   1   30.58    1.95
  -1  10   1   31.28    1.50
   1  10  -1   28.87    2.14
   1  10  -1   30.75    1.97
   0 -10   1   27.53    0.95
   0 -10  -1   29.68    1.30
   0 -10  -1   28.42    0.94
   0 -10   1   27.76    1.47
   0 -10  -1   28.65    1.28
   0 -10  -1   28.16    1.27
   0 -10   1   28.23    1.28
   0 -10  -1   27.43    1.39
   0 -10   1   26.97    1.26
   0 -10   1   28.76    1.30
   0 -10  -1   25.16    1.01
   0  10   1   28.19    1.95
   0  10  -1   28.39    1.64
   0  10   1   26.79    1.58
   0  10   1   30.60    1.60
   0  10  -1   28.73    1.54
   0  10   1   28.34    1.35
   0  10   1   28.20    1.64
   0  10   1   29.34    1.20
   0  10  -1   27.74    1.98
  -1 -10  -1  162.81    5.23
  -1 -10  -1  153.81    4.89
   1 -10   1  154.25    5.07
  -1 -10  -1  158.15    5.01
  -1 -10  -1  163.09    5.33
  -1 -10  -1  162.00    4.88
   1 -10   1  165.78    4.81
   1 -10   1  158.09    5.06
  -1 -10  -1  161.69    5.06
   1  10   1  160.38    5.04
   1  10   1  160.43    5.65
   1  10   1  162.74    6.00
  -1  10  -1  165.44    5.06
  -1  10  -1  150.68    5.12
  -1  10  -1  160.46    5.73
   1  10   1  161.17    5.27
  -2 -10  -1   63.78    2.27
  -2 -10  -1   63.53    2.36
  -2 -10  -1   64.64    2.92
  -2 -10  -1   66.35    2.67
  -2 -10  -1   67.36    2.28
   2 -10   1   63.33    2.40
   2 -10   1   61.87    2.39
   2  10   1   64.27    3.10
   2  10   1   58.63    3.32
  -2  10  -1   66.15    2.93
  -2  10  -1   61.07    2.05
  -2  10  -1   59.75    2.23
   2  10   1   65.38    2.73
  -3 -10  -1  125.81    4.66
  -3 -10  -1  128.62    4.02
  -3 -10  -1  122.28    4.97
  -3 -10  -1  127.86    4.24
   3 -10   1  125.39    4.32
  -3 -10  -1  126.74    4.20
   3  10   1  129.73    5.37
   3  10   1  122.88    5.49
   3  10   1  125.20    4.68
  -3  10  -1  129.04    4.73
   4 -10   1   39.03    1.98
  -4 -10  -1   39.39    2.49
  -4 -10  -1   39.28    3.92
  -4 -10  -1   39.44    1.85
   4  10   1   37.59    3.51
   4  10   1   37.39    2.45
  -4  10  -1   41.23    2.49
  -5 -10  -1   15.20    1.35
  -5 -10  -1   15.74    2.50
  -5 -10  -1   12.23    1.75
   5 -10   1   14.37    1.71
   5  10   1   11.86    1.71
   5  10   1   12.28    2.85
   5  10   1   13.08    1.62
  -6 -10  -1    1.44    1.63
  -6 -10  -1    4.18    2.66
   6 -10   1    2.94    1.34
  -6 -10  -1    0.53    0.97
   6  10   1   -4.09    3.08
   6  10   1    3.69    1.24
  -6 -11   1    1.48    1.13
  -6 -11   1   -0.06    1.03
  -6 -11   1   -0.42    1.66
   6  11  -1    4.89    1.28
   6  11  -1    4.71    3.39
  -5 -11   1   -0.57    0.68
  -5 -11   1    0.03    0.69
  -5 -11   1    2.05    1.35
  -5 -11   1    2.56    2.33
   5  11  -1    1.27    2.31
   5  11  -1    1.03    0.87
  -4 -11   1    8.53    1.90
  -4 -11   1    5.26    0.78
  -4 -11   1    6.57    0.83
  -4 -11   1    6.12    1.38
   4  11  -1    5.58    2.09
  -4  11   1    5.39    1.46
   3 -11  -1    1.04    0.56
  -3 -11   1    0.59    1.27
   3 -11  -1    0.72    0.58
  -3 -11   1    1.70    0.84
  -3 -11   1    0.54    0.45
  -3 -11   1    0.74    0.48
  -3  11   1    1.43    1.02
   3  11  -1   -0.29    0.64
   3  11  -1    1.41    1.34
  -2 -11   1    5.70    0.71
   2 -11  -1    4.51    0.66
  -2 -11   1    4.56    0.87
   2 -11  -1    4.85    0.63
  -2 -11   1    4.57    1.11
  -2 -11   1    4.87    0.60
  -2 -11   1    5.05    0.59
   2  11  -1    4.54    0.83
  -2  11   1    4.92    1.04
   2  11  -1    5.68    1.45
   1 -11  -1    1.63    0.37
  -1 -11   1    0.88    0.42
  -1 -11   1    0.54    0.50
  -1 -11   1    1.53    0.41
  -1 -11   1    1.01    0.59
   1 -11  -1    0.90    0.40
  -1 -11   1    1.06    0.31
   1 -11  -1    1.30    0.45
   1  11  -1   -0.15    0.96
  -1  11   1    0.95    0.33
  -1  11   1    1.57    0.59
  -1  11   1    0.95    0.54
  -1  11   1   -1.04    0.74
   1  11  -1    4.00    1.11
   0 -11   1    2.05    0.46
   0 -11  -1    2.49    0.57
   0 -11   1    2.39    0.78
   0 -11  -1    2.37    0.48
   0 -11   1    2.67    0.48
   0 -11   1    2.09    0.54
   0 -11  -1    3.62    0.73
   0 -11  -1    2.36    0.43
   0  11  -1    3.48    1.08
   0  11   1    2.07    0.51
   0  11   1    2.89    1.01
   0  11   1    2.55    0.78
   0  11  -1    1.77    0.84
   0  11   1    2.04    0.41
   0  11  -1    1.94    0.78
   0  11   1    2.57    0.65
  -1 -11  -1    8.93    1.06
  -1 -11  -1    9.15    0.85
   1 -11   1    9.80    0.85
   1 -11   1    8.65    0.84
  -1 -11  -1   10.91    0.83
  -1 -11  -1    8.59    0.76
  -1 -11  -1   10.35    0.66
   1 -11   1   11.97    0.79
   1  11   1    7.00    1.29
  -1  11  -1    9.93    1.10
   1  11   1   10.71    0.99
   1  11   1    7.80    1.12
  -1  11  -1    9.68    1.38
  -2 -11  -1    0.19    0.37
  -2 -11  -1   -0.20    0.33
   2 -11   1   -0.05    0.38
   2 -11   1    0.37    0.41
  -2 -11  -1    0.31    0.37
  -2 -11  -1   -0.14    0.90
  -2 -11  -1    0.36    0.68
  -2  11  -1    0.35    0.84
   2  11   1   -0.65    0.53
   2  11   1    0.10    0.88
  -2  11  -1    0.19    0.49
   2  11   1    1.68    1.14
   3 -11   1    1.94    0.60
  -3 -11  -1    1.01    0.82
  -3 -11  -1    1.90    0.48
  -3 -11  -1    1.41    0.50
  -3 -11  -1    0.36    0.46
  -3 -11  -1   -0.74    1.87
  -3  11  -1   -0.01    1.02
   3  11   1    0.84    0.73
   3  11   1    3.22    1.40
   3  11   1    4.63    1.38
  -4 -11  -1    2.72    0.70
  -4 -11  -1    1.75    1.06
  -4 -11  -1    2.60    0.65
  -4 -11  -1    1.15    1.72
   4  11   1    2.23    1.08
   4  11   1    0.88    1.83
  -4  11  -1    1.58    1.35
  -5 -11  -1   -1.78    2.17
  -5 -11  -1   -0.39    1.28
  -5 -11  -1    1.43    0.79
  -5 -11  -1    0.99    0.77
   5  11   1   -4.60    2.47
   5  11   1    1.73    0.92
  -6 -11  -1   -0.05    1.76
  -6 -11  -1    2.80    1.16
  -6 -11  -1    2.95    1.08
   6 -11   1    3.63    1.59
   6  11   1    2.59    1.28
   6  11   1    2.98    3.46
  -5 -12   1   34.14    2.08
  -5 -12   1   35.42    2.12
  -5 -12   1   37.62    3.00
   5  12  -1   35.41    2.32
   5  12  -1   39.87    4.99
  -4 -12   1   -1.13    1.13
  -4 -12   1    0.71    0.64
  -4 -12   1    0.39    0.63
  -4  12   1   -0.74    1.56
   4  12  -1    1.12    2.02
  -3 -12   1    3.54    0.69
   3 -12  -1    2.85    0.74
   3 -12  -1    2.30    0.67
  -3 -12   1    2.93    1.13
  -3 -12   1    3.02    0.63
   3  12  -1    4.76    1.75
  -3  12   1    3.31    1.31
   2 -12  -1    5.27    0.77
   2 -12  -1    3.50    0.58
  -2 -12   1    4.81    0.65
  -2 -12   1    2.69    1.21
  -2 -12   1    3.78    0.90
  -2 -12   1    5.24    0.71
  -2 -12   1    4.09    0.59
   2  12  -1    2.10    1.26
  -2  12   1    4.84    1.15
   1 -12  -1   42.53    1.82
  -1 -12   1   41.91    1.80
  -1 -12   1   43.29    1.57
   1 -12  -1   39.55    1.80
  -1 -12   1   42.06    2.05
  -1 -12   1   40.14    1.78
  -1  12   1   41.02    2.69
  -1  12   1   43.18    2.12
   1  12  -1   37.56    2.78
   0 -12   1   10.83    0.94
   0 -12  -1   11.58    0.90
   0 -12   1   12.04    1.06
   0 -12  -1   11.72    1.11
   0 -12  -1   10.65    0.89
   0 -12   1   11.20    0.87
   0  12  -1    9.99    1.53
   0  12   1   11.66    1.03
   0  12  -1   13.22    1.68
   0  12   1    9.62    1.26
   0  12   1   10.50    1.57
   1 -12   1  146.99    4.87
  -1 -12  -1  148.78    4.56
   1 -12   1  147.69    4.90
  -1 -12  -1  146.01    4.84
  -1 -12  -1  144.44    4.99
  -1 -12  -1  149.21    4.82
   1  12   1  155.34    5.64
   1  12   1  152.43    6.06
  -1  12  -1  147.48    5.05
  -1  12  -1  146.32    5.80
   1  12   1  146.24    5.11
  -2 -12  -1   10.40    1.25
   2 -12   1   13.20    1.11
  -2 -12  -1   14.08    1.06
  -2 -12  -1   12.27    0.94
  -2 -12  -1   15.45    1.85
  -2 -12  -1   11.86    0.94
   2  12   1   13.70    2.01
  -2  12  -1   10.31    1.22
  -2  12  -1   11.80    1.67
   2  12   1   13.13    1.34
   2  12   1   14.63    1.80
  -3 -12  -1   80.37    3.58
   3 -12   1   79.46    3.10
  -3 -12  -1   75.52    2.97
  -3 -12  -1   77.42    2.91
  -3 -12  -1   80.65    2.82
   3  12   1   78.58    3.55
   3  12   1   77.45    4.61
  -3  12  -1   79.14    3.90
  -4 -12  -1   12.21    1.22
  -4 -12  -1    9.10    1.56
  -4 -12  -1   10.01    1.20
   4  12   1   10.00    2.46
   4  12   1    9.69    1.52
  -5 -12  -1    1.07    1.48
  -5 -12  -1    4.45    0.97
  -5 -12  -1    1.67    0.90
   5  12   1    7.72    1.34
   5  12   1    2.92    3.00
  -5 -13   1   23.61    1.96
  -5 -13   1   29.90    2.04
  -5 -13   1   25.87    2.73
   5  13  -1   40.28    5.39
   5  13  -1   26.24    2.30
  -4 -13   1   35.76    1.93
  -4 -13   1   32.39    1.96
  -4  13   1   30.05    3.49
   4  13  -1   48.63    4.55
  -3 -13   1   89.45    3.95
  -3 -13   1   86.32    3.34
   3 -13  -1   88.00    3.43
  -3 -13   1   89.22    3.22
   3  13  -1   86.75    6.27
  -3  13   1   88.69    4.43
   2 -13  -1   44.57    2.07
   2 -13  -1   46.51    2.11
  -2 -13   1   46.71    2.03
  -2 -13   1   44.54    2.48
  -2 -13   1   45.94    1.86
   2  13  -1   42.75    3.41
  -2  13   1   44.21    3.00
  -1 -13   1   58.11    2.69
  -1 -13   1   57.36    2.30
   1 -13  -1   56.19    2.35
  -1 -13   1   55.68    2.30
  -1 -13   1   57.89    1.98
   1 -13  -1   57.48    2.34
   1  13  -1   56.27    3.57
  -1  13   1   56.44    3.27
   0 -13   1   31.14    1.57
   0 -13  -1   30.13    1.54
   0 -13   1   31.12    1.52
   0 -13  -1   28.47    1.48
   0  13   1   25.94    2.59
   0  13  -1   30.83    2.60
   0  13   1   27.85    2.04
  -1 -13  -1   -0.77    0.86
  -1 -13  -1    0.67    0.46
  -1 -13  -1    0.62    0.45
  -1 -13  -1   -0.07    0.35
   1 -13   1    0.55    0.50
   1 -13   1    1.92    0.57
   1  13   1    1.74    0.92
  -1  13  -1    0.98    1.20
   1  13   1    0.44    0.63
   1  13   1    2.13    1.15
  -2 -13  -1    0.66    0.49
  -2 -13  -1   -0.67    0.89
  -2 -13  -1   -0.60    0.45
   2 -13   1    0.50    0.57
  -2 -13  -1   -0.38    0.47
   2  13   1    0.02    1.35
   2  13   1    1.21    1.12
   2  13   1   -0.92    0.65
  -2  13  -1   -0.39    1.21
  -2  13  -1    1.31    0.80
   3 -13   1   20.23    1.62
  -3 -13  -1   22.51    2.28
  -3 -13  -1   23.77    1.44
  -3 -13  -1   22.53    1.41
  -3  13  -1   25.78    2.77
   3  13   1   15.64    2.69
   3  13   1   21.20    3.67
  -4 -13  -1   25.06    1.65
  -4 -13  -1   21.87    1.67
   4  13   1   27.13    3.47
  -5 -13  -1   26.42    2.03
  -5 -13  -1   27.17    3.31
  -5 -13  -1   21.57    1.94
   5  13   1   23.84    2.36
   5  13   1   16.87    3.89
  -5 -14   1    0.98    1.88
  -5 -14   1    2.00    1.13
  -5 -14   1   -0.11    1.08
   5  14  -1    2.05    1.27
   5  14  -1    6.57    3.63
  -4 -14   1   -0.66    0.84
  -4 -14   1   -0.36    0.78
  -4 -14   1   -0.29    1.54
   4  14  -1    3.99    2.68
  -3 -14   1    2.11    0.79
   3 -14  -1    3.93    0.93
  -3 -14   1    3.71    1.41
  -3  14   1    1.50    1.71
   3  14  -1    1.51    1.89
   2 -14  -1    2.41    0.70
   2 -14  -1    1.84    0.78
  -2 -14   1    2.34    0.69
  -2 -14   1    1.51    0.58
  -2 -14   1    2.70    1.22
  -2  14   1    4.45    1.57
   2  14  -1    0.61    1.76
  -1 -14   1   -0.88    0.41
   1 -14  -1    0.09    0.57
   1 -14  -1    0.24    0.48
  -1 -14   1    0.39    0.49
   1  14  -1    0.40    1.46
  -1  14   1   -2.29    1.23
   0 -14   1    7.72    0.96
   0 -14   1    6.59    0.84
   0 -14  -1    5.58    0.72
   0 -14  -1    5.77    0.77
   0  14  -1    7.00    1.80
   0  14   1    4.87    1.60
  -1 -14  -1    0.31    0.44
   1 -14   1    0.83    0.56
  -1 -14  -1   -0.03    0.49
  -1 -14  -1    1.39    0.56
   1  14   1    0.43    0.98
   1  14   1   -0.53    1.32
  -1  14  -1    0.87    1.39
   1  14   1   -0.01    0.65
   2 -14   1    0.67    0.61
  -2 -14  -1    0.86    0.89
  -2 -14  -1    0.28    0.55
  -2 -14  -1   -0.25    1.17
  -2 -14  -1    0.81    0.58
   2  14   1   -0.96    2.10
  -2  14  -1    3.11    1.60
   2  14   1    0.04    1.01
  -3 -14  -1    1.15    1.45
  -3 -14  -1    0.45    0.69
   3 -14   1   -0.29    0.73
   3  14   1    1.39    1.04
   3  14   1    1.21    1.99
  -3  14  -1    3.61    1.94
  -4 -14  -1    1.27    1.69
  -4 -14  -1    0.35    0.88
  -4 -14  -1    0.79    0.82
   4  14   1   -3.87    2.62
  -5 -14  -1   -1.87    1.98
  -5 -14  -1    0.45    1.11
  -5 -14  -1    3.78    1.17
   5  14   1    0.61    1.32
   5  14   1   -4.85    3.69
  -4 -15   1    1.14    0.98
  -4 -15   1    0.75    0.99
  -4 -15   1    2.55    1.96
   4  15  -1    0.34    3.03
   4  15  -1   -0.24    1.14
  -3 -15   1   85.28    4.31
   3 -15  -1   83.34    3.49
  -3 -15   1   80.76    3.34
  -3 -15   1   83.56    3.19
   3  15  -1   76.11    5.50
   2 -15  -1    1.75    0.75
   2 -15  -1    1.42    0.71
  -2 -15   1    3.08    0.73
  -2 -15   1    2.90    0.75
  -2  15   1    2.93    1.82
   2  15  -1    1.96    1.90
   1 -15  -1   64.40    3.86
   1 -15  -1   84.89    3.21
  -1 -15   1   80.44    3.13
   1  15  -1   73.80    5.04
  -1  15   1   89.47    4.74
   0 -15  -1   -0.15    0.56
   0  15   1    2.42    1.73
   0  15  -1   -1.11    1.62
  -1 -15  -1   15.00    1.25
   1 -15   1   11.03    1.25
  -1 -15  -1   10.13    1.22
  -1  15  -1   14.25    2.18
   1  15   1   12.06    2.37
   2 -15   1    0.77    0.75
  -2 -15  -1    0.93    0.66
  -2 -15  -1    1.52    0.74
  -2 -15  -1    1.90    0.68
  -2  15  -1   -0.05    1.73
   2  15   1    0.28    1.73
  -3 -15  -1   11.83    1.18
  -3 -15  -1   11.78    2.04
  -3 -15  -1   11.95    1.51
   3 -15   1   13.65    1.53
  -3  15  -1   12.41    2.63
   3  15   1   14.96    3.07
  -4 -15  -1   -1.34    0.90
  -4 -15  -1    0.09    1.88
  -4 -15  -1    2.41    1.04
   4  15   1    0.08    2.98
  -4 -16   1    2.63    1.19
  -4 -16   1    2.17    1.22
   4  16  -1    0.90    3.64
   4  16  -1    2.69    1.42
  -3 -16   1    1.22    0.87
  -3 -16   1    1.81    1.04
   3 -16  -1    3.98    1.19
   3  16  -1    2.36    2.52
  -3  16   1    4.40    2.73
  -2 -16   1   11.99    1.45
   2 -16  -1   13.07    1.58
   2  16  -1   13.36    2.73
  -2  16   1    4.46    2.41
   1 -16  -1    3.45    0.82
   1 -16  -1    1.70    0.77
  -1 -16   1    3.28    0.79
  -1  16   1    3.22    1.94
   1  16  -1    6.03    2.24
   0 -16   1   53.49    2.47
   0 -16  -1   54.36    2.51
   0 -16  -1   53.24    2.46
   0  16   1   50.51    4.18
   0  16  -1   53.94    4.36
  -1 -16  -1    7.81    1.05
   1 -16   1    8.55    1.04
  -1 -16  -1   12.51    1.33
  -1  16  -1    8.35    2.32
   1  16   1    7.92    2.26
   2 -16   1   46.46    2.48
  -2 -16  -1   50.66    2.43
  -2  16  -1   55.33    4.53
   2  16   1   52.04    4.64
  -3 -16  -1    6.23    1.17
   3 -16   1    6.77    1.37
  -3 -16  -1    5.74    1.15
   3  16   1    6.85    2.80
  -3  16  -1    9.03    3.01
  -4 -16  -1   12.89    1.44
  -4 -16  -1   11.73    1.48
   4  16   1   10.99    3.93
  -3 -17   1    8.38    1.34
   3 -17  -1    7.13    1.51
  -3  17   1    5.42    3.21
   3  17  -1    1.62    3.14
   2 -17  -1    4.95    1.17
  -2 -17   1    1.80    0.93
   2  17  -1    3.63    2.72
  -2  17   1    4.21    2.72
   1 -17  -1    4.93    1.03
  -1 -17   1    5.97    0.98
   1  17  -1    4.88    2.48
  -1  17   1    9.09    2.70
   0 -17  -1    1.91    0.92
   0 -17   1    4.11    0.97
   0  17  -1    2.40    2.37
   0  17   1    0.75    2.16
  -1 -17  -1    1.11    0.82
   1 -17   1   -0.23    0.82
   1  17   1    2.06    2.34
  -1  17  -1   -1.01    2.33
  -2 -17  -1   -0.69    0.91
   2 -17   1    1.66    1.01
   2  17   1   -0.91    2.46
  -2  17  -1    1.60    2.78
   3 -17   1    0.72    1.27
  -3 -17  -1    1.90    1.02
   3  17   1    6.95    3.14
   2 -18  -1    0.86    1.17
  -2 -18   1   -0.38    1.08
   2  18  -1   -0.94    3.11
  -2  18   1   -0.26    3.04
  -1 -18   1   16.35    1.79
   1 -18  -1   15.65    1.63
  -1  18   1    9.26    3.13
   1  18  -1   16.36    3.44
   0 -18   1    2.09    0.99
   0 -18  -1    0.63    0.98
   0  18  -1    1.78    2.79
   0  18   1    1.85    2.80
  -1 -18  -1   47.70    2.53
   1 -18   1   45.89    2.63
   1  18   1   50.47    5.37
  -1  18  -1   44.27    4.78
   2 -18   1    4.56    1.29
  -2 -18  -1    5.03    1.25
  -2  18  -1    0.69    3.41
   2  18   1    1.08    3.08
   0 -19   1    6.57    1.35
   0 -19  -1    6.28    1.46
   0  19  -1   -0.60    3.33
   0  19   1    2.56    3.36
  -7   0   2    0.76    1.15
  -7   0   2    1.53    1.33
   7   0  -2    1.61    0.95
  -7   0   2   -0.21    1.01
   6   0  -2  125.59    5.18
  -6   0   2  133.53    4.88
  -6   0   2  141.43    4.58
   5   0  -2   -0.53    0.36
  -5   0   2    0.44    0.42
  -5   0   2    0.15    0.54
  -5   0   2   -0.05    0.66
  -4   0   2  264.00    8.55
  -4   0   2  276.55    8.13
  -4   0   2  265.62    8.36
   4   0  -2  271.24    8.25
  -4   0   2  273.49    8.89
  -4   0   2  279.61    8.33
   3   0  -2   -0.14    0.19
  -3   0   2   -0.05    0.16
  -3   0   2    0.23    0.38
  -3   0   2    0.35    0.31
  -3   0   2   -0.96    0.59
  -3   0   2    0.03    0.29
  -3   0   2   -0.53    0.29
   2   0  -2    3.88    0.43
   2   0  -2    4.36    0.54
  -2   0   2    3.96    0.37
  -2   0   2    3.76    0.27
  -2   0   2    3.89    0.40
  -2   0   2    3.30    0.34
  -2   0   2    3.59    0.53
   2   0  -2    3.95    0.33
   2   0  -2    4.21    0.47
   2   0  -2    3.94    0.17
  -2   0   2    3.96    0.42
   1   0  -2   -0.09    0.06
  -1   0   2   -0.03    0.08
   1   0  -2   -0.08    0.10
   1   0  -2   -0.03    0.06
  -1   0   2    0.01    0.09
  -1   0   2    0.13    0.07
   1   0  -2   -0.11    0.11
  -1   0   2    0.19    0.21
  -1   0   2    0.14    0.11
   1   0  -2    0.09    0.18
   0   0   2  411.62   11.88
   1   0   2    0.00    0.13
  -1   0  -2    0.01    0.07
   1   0   2    0.23    0.10
   1   0   2   -0.09    0.09
   1   0   2    0.11    0.07
  -1   0  -2   -0.07    0.10
  -1   0  -2   -0.09    0.13
   2   0   2  549.27   16.35
   2   0   2  555.48   16.26
  -2   0  -2  573.97   16.26
  -2   0  -2  613.94   16.27
   2   0   2  551.81   16.24
   2   0   2  531.47   17.03
  -2   0  -2  596.42   16.37
  -2   0  -2  599.94   16.53
  -2   0  -2  539.96   16.42
   2   0   2  539.32   16.31
  -3   0  -2   -0.08    0.27
   3   0   2    0.33    0.29
  -3   0  -2   -0.03    0.31
   3   0   2    0.05    0.44
  -3   0  -2   -0.06    0.15
  -3   0  -2    0.41    0.34
   3   0   2   -0.07    0.22
  -4   0  -2  323.09    8.56
  -4   0  -2  287.13    9.29
   4   0   2  290.45    8.93
  -4   0  -2  278.19    8.82
  -4   0  -2  287.20    9.12
   4   0   2  290.26    8.97
  -4   0  -2  290.85    9.01
  -4   0  -2  309.84    9.39
  -4   0  -2  304.79    8.84
  -5   0  -2   -0.29    0.61
   5   0   2   -0.62    0.68
  -5   0  -2    0.08    0.42
   5   0   2    0.09    0.44
  -5   0  -2   -0.01    0.59
  -6   0  -2   41.69    2.39
  -6   0  -2   46.16    2.11
  -6   0  -2   43.44    2.75
   6   0   2   41.57    3.06
  -7   0  -2    0.47    1.26
  -7   0  -2    0.99    1.15
   7   0   2    1.29    0.99
  -7  -1   2    2.70    1.46
  -7  -1   2    2.26    1.24
  -7  -1   2    4.83    1.16
   7  -1  -2    2.59    0.90
  -7   1   2    2.69    1.38
  -7   1   2    0.45    1.18
   7   1  -2    1.87    0.88
  -6  -1   2    3.68    0.95
  -6  -1   2    0.68    1.57
  -6  -1   2    3.78    0.76
   6  -1  -2    2.65    1.00
  -6   1   2    2.73    0.85
  -6   1   2    3.48    0.75
  -5  -1   2   -0.26    0.66
  -5  -1   2    0.50    0.58
   5  -1  -2    0.48    0.42
  -5  -1   2    0.82    0.41
   5   1  -2    0.62    0.42
  -5   1   2    0.77    0.38
  -5   1   2    0.03    0.50
  -5   1   2   -0.21    0.65
  -4  -1   2    1.56    0.45
  -4  -1   2    1.14    0.51
  -4  -1   2    2.28    0.65
  -4  -1   2    1.08    0.30
  -4  -1   2    0.80    0.74
   4  -1  -2    0.72    0.35
  -4   1   2    1.45    0.38
  -4   1   2    0.82    0.29
  -4   1   2    1.06    0.64
  -4   1   2    1.47    0.51
  -4   1   2    1.11    0.45
   4   1  -2    1.20    0.38
  -3  -1   2   42.10    1.85
  -3  -1   2   42.14    1.72
  -3  -1   2   44.96    1.98
  -3  -1   2   44.54    2.13
  -3  -1   2   45.52    1.57
   3  -1  -2   42.77    1.61
  -3  -1   2   44.08    1.74
  -3   1   2   44.85    1.51
   3   1  -2   44.93    1.94
  -3   1   2   43.24    2.00
   3   1  -2   42.78    1.61
  -3   1   2   45.70    1.65
  -3   1   2   46.66    1.54
  -3   1   2   43.33    1.82
  -3   1   2   43.17    1.74
  -3   1   2   43.13    1.65
  -3   1   2   46.27    1.37
  -2  -1   2   23.87    0.96
  -2  -1   2   21.18    1.02
  -2  -1   2   21.75    0.83
   2  -1  -2   22.51    0.87
  -2  -1   2   21.86    1.12
   2  -1  -2   22.30    0.87
  -2  -1   2   21.78    0.95
   2  -1  -2   21.73    0.74
  -2  -1   2   22.39    1.22
   2   1  -2   21.71    1.03
  -2   1   2   23.96    0.80
  -2   1   2   22.02    0.87
   2   1  -2   22.17    0.86
   2   1  -2   23.12    0.83
  -2   1   2   23.44    1.12
  -2   1   2   22.17    0.74
   2   1  -2   23.44    1.13
  -2   1   2   21.88    0.77
  -2   1   2   20.52    0.91
   2   1  -2   22.01    0.99
  -1  -1   2  173.78    5.41
   1  -1  -2  179.45    5.25
   1  -1  -2  181.94    5.28
  -1  -1   2  188.83    5.29
  -1  -1   2  174.50    5.28
   1  -1  -2  177.88    5.21
  -1  -1   2  174.96    5.36
  -1  -1   2  194.19    5.56
  -1  -1   2  184.05    5.37
   1  -1  -2  187.98    5.29
   1  -1  -2  175.08    5.30
   1   1  -2  188.57    5.37
  -1   1   2  171.23    5.23
  -1   1   2  173.03    5.28
   1   1  -2  195.00    5.54
  -1   1   2  174.79    5.31
   1   1  -2  186.81    5.28
  -1   1   2  181.86    5.25
   1   1  -2  192.27    5.44
   1   1  -2  176.84    5.28
   0  -1   2   24.48    0.84
   0  -1  -2   25.59    0.89
   0  -1   2   24.98    0.80
   0  -1   2   25.21    0.79
   0  -1   2   25.30    0.90
   0  -1  -2   26.30    0.84
   0   1  -2   25.50    0.91
   0   1   2   25.71    0.84
   0   1   2   24.97    0.89
   0   1  -2   25.17    0.85
   0   1  -2   25.73    0.91
   0   1  -2   25.90    0.80
   0   1   2   25.05    0.80
  -1  -1  -2  137.76    3.83
  -1  -1  -2  137.54    4.01
   1  -1   2  125.46    3.80
  -1  -1  -2  129.11    3.89
   1  -1   2  125.34    3.77
   1  -1   2  128.07    3.83
   1   1   2  129.51    3.89
  -1   1  -2  129.93    3.90
   1   1   2  127.61    3.83
  -1   1  -2  132.34    3.78
  -1   1  -2  135.67    3.84
   1   1   2  122.28    3.89
   1   1   2  128.49    4.00
   2  -1   2   48.21    1.71
  -2  -1  -2   51.11    1.71
  -2  -1  -2   49.97    1.87
  -2  -1  -2   44.99    1.74
   2  -1   2   49.05    1.62
  -2  -1  -2   48.61    1.66
   2  -1   2   46.77    1.59
  -2  -1  -2   49.24    1.60
   2   1   2   49.76    1.87
  -2   1  -2   48.20    1.74
   2   1   2   46.78    1.58
   2   1   2   48.36    1.72
  -2   1  -2   50.01    1.54
  -2   1  -2   46.50    1.50
  -2   1  -2   49.08    1.63
   2   1   2   45.41    1.69
  -3  -1  -2    4.61    0.57
  -3  -1  -2    4.86    0.58
  -3  -1  -2    5.19    0.57
   3  -1   2    4.11    0.46
   3  -1   2    3.82    0.47
  -3  -1  -2    5.13    0.75
  -3  -1  -2    5.13    0.68
  -3   1  -2    4.66    0.64
   3   1   2    4.55    0.66
   3   1   2    4.81    0.58
  -3   1  -2    4.76    0.56
  -3   1  -2    4.33    0.50
  -3   1  -2    4.34    0.37
   3   1   2    4.51    0.55
  -3   1  -2    4.25    0.57
   3   1   2    4.21    0.48
  -4  -1  -2    3.18    0.46
   4  -1   2    4.17    0.59
  -4  -1  -2    3.99    0.78
  -4  -1  -2    3.21    0.68
  -4  -1  -2    3.85    0.62
  -4  -1  -2    3.70    0.90
  -4  -1  -2    3.88    0.96
   4  -1   2    3.21    0.47
   4   1   2    4.90    0.65
  -4   1  -2    2.95    0.55
  -4   1  -2    3.66    0.54
  -4   1  -2    3.88    0.43
  -4   1  -2    3.43    0.65
  -4   1  -2    3.25    0.67
   4   1   2    3.79    0.64
  -4   1  -2    4.21    0.83
   4   1   2    2.96    0.45
  -5  -1  -2   16.79    1.08
  -5  -1  -2   13.91    1.35
   5  -1   2   14.55    1.11
  -5  -1  -2   15.98    1.63
  -5   1  -2   12.73    1.47
   5   1   2   13.47    1.10
  -5   1  -2   14.52    1.03
  -5   1  -2   14.82    1.24
   5   1   2   13.67    1.49
  -6  -1  -2    2.61    1.11
  -6  -1  -2    2.83    0.77
   6   1   2    2.01    0.76
  -6   1  -2    0.84    0.93
  -6   1  -2    1.20    0.73
  -6   1  -2    3.74    1.00
  -7  -1  -2   11.82    1.99
  -7  -1  -2   13.05    1.75
   7  -1   2    9.65    1.29
  -7  -1  -2   14.41    1.55
  -7   1  -2   12.07    1.68
   7   1   2   14.71    1.56
  -7   1  -2   14.10    1.93
  -7  -2   2   10.86    1.94
   7  -2  -2   11.87    1.36
  -7  -2   2   11.15    1.70
  -7  -2   2   15.07    1.53
  -7   2   2   10.11    1.70
  -7   2   2   12.55    1.54
   7   2  -2   12.64    1.45
  -6  -2   2   11.91    1.50
  -6  -2   2   12.72    1.27
  -6   2   2   15.14    1.43
  -6   2   2   14.94    1.25
   6   2  -2   16.64    2.13
  -5  -2   2   32.30    1.52
   5  -2  -2   33.66    1.61
  -5  -2   2   34.79    2.16
  -5  -2   2   34.41    1.90
  -5   2   2   30.48    1.42
  -5   2   2   32.80    1.86
   5   2  -2   33.39    1.63
  -5   2   2   30.88    1.61
  -4  -2   2   47.12    2.09
  -4  -2   2   50.44    1.86
   4  -2  -2   49.43    1.91
  -4  -2   2   52.20    2.35
  -4  -2   2   47.29    2.61
  -4   2   2   49.67    1.93
  -4   2   2   49.34    1.91
  -4   2   2   49.05    2.08
   4   2  -2   47.71    2.35
   4   2  -2   50.19    1.93
  -4   2   2   50.75    2.20
  -4   2   2   50.87    1.76
  -3  -2   2   59.11    2.45
  -3  -2   2   59.12    2.20
  -3  -2   2   57.83    1.98
   3  -2  -2   58.19    1.82
  -3  -2   2   59.68    2.58
  -3  -2   2   55.16    2.15
  -3  -2   2   55.49    2.30
   3  -2  -2   58.07    2.01
  -3   2   2   55.30    1.85
  -3   2   2   61.25    1.94
  -3   2   2   57.69    2.32
  -3   2   2   54.44    1.97
  -3   2   2   55.82    2.08
  -3   2   2   55.60    2.14
   3   2  -2   57.84    2.40
  -3   2   2   61.20    1.82
   3   2  -2   59.34    2.02
  -2  -2   2   40.11    1.63
   2  -2  -2   41.83    1.32
  -2  -2   2   41.80    1.74
  -2  -2   2   43.10    1.55
   2  -2  -2   41.55    1.42
  -2  -2   2   37.95    1.52
  -2  -2   2   38.35    1.39
  -2  -2   2   42.03    1.84
   2  -2  -2   41.33    1.34
  -2   2   2   39.98    1.42
   2   2  -2   42.11    1.42
  -2   2   2   45.64    1.36
  -2   2   2   42.98    1.63
  -2   2   2   42.90    1.32
   2   2  -2   40.15    1.63
  -2   2   2   38.55    1.40
   2   2  -2   42.73    1.41
   2   2  -2   41.88    1.57
  -2   2   2   39.31    1.35
  -2   2   2   41.48    1.37
  -2   2   2   39.75    1.28
   2   2  -2   40.36    1.76
  -1  -2   2   27.21    1.10
  -1  -2   2   30.22    1.28
   1  -2  -2   28.74    0.93
   1  -2  -2   29.08    0.91
  -1  -2   2   28.84    1.17
   1  -2  -2   27.60    0.89
   1  -2  -2   27.95    0.97
  -1  -2   2   28.94    1.05
  -1  -2   2   28.42    1.04
  -1  -2   2   28.09    0.95
   1   2  -2   28.54    1.25
   1   2  -2   28.53    0.89
  -1   2   2   26.08    0.90
  -1   2   2   29.37    0.94
  -1   2   2   29.24    0.91
   1   2  -2   29.64    1.13
   1   2  -2   30.28    0.97
   1   2  -2   27.10    0.93
  -1   2   2   27.29    0.93
  -1   2   2   27.40    0.85
   1   2  -2   29.59    1.06
   0  -2   2    2.87    0.36
   0  -2   2    3.23    0.28
   0  -2   2    3.40    0.23
   0  -2  -2    3.43    0.18
   0  -2  -2    3.28    0.27
   0  -2  -2    3.52    0.22
   0  -2  -2    3.13    0.20
   0  -2   2    3.72    0.19
   0  -2   2    2.99    0.19
   0   2  -2    3.31    0.35
   0   2   2    3.41    0.22
   0   2  -2    3.63    0.28
   0   2  -2    3.48    0.20
   0   2  -2    3.40    0.19
   0   2   2    3.67    0.19
   0   2   2    3.91    0.28
   0   2   2    3.59    0.21
   1  -2   2   70.32    2.16
  -1  -2  -2   72.60    2.32
   1  -2   2   69.10    2.07
  -1  -2  -2   64.85    2.12
   1  -2   2   70.63    2.13
  -1  -2  -2   74.75    2.27
  -1  -2  -2   73.94    2.39
   1  -2   2   71.00    2.15
   1  -2   2   71.79    2.20
   1   2   2   67.85    2.31
   1   2   2   70.79    2.27
  -1   2  -2   73.93    2.17
  -1   2  -2   77.09    2.20
  -1   2  -2   68.76    2.20
   1   2   2   71.52    2.39
  -1   2  -2   71.17    2.19
  -1   2  -2   73.56    2.10
  -1   2  -2   67.65    2.15
   1   2   2   70.86    2.19
  -1   2  -2   71.92    2.13
  -2  -2  -2  126.34    4.10
   2  -2   2  125.07    3.76
   2  -2   2  122.56    3.76
  -2  -2  -2  125.99    3.91
   2  -2   2  123.07    3.73
  -2  -2  -2  125.27    3.78
  -2  -2  -2  119.55    3.97
  -2  -2  -2  126.08    3.91
  -2  -2  -2  115.20    4.03
   2   2   2  120.66    4.00
  -2   2  -2  128.51    3.74
  -2   2  -2  123.34    3.86
  -2   2  -2  125.76    3.80
   2   2   2  123.19    3.79
   2   2   2  118.29    4.09
  -2   2  -2  131.48    3.68
  -2   2  -2  130.71    3.76
   2   2   2  127.19    3.93
  -2   2  -2  124.43    3.67
   3  -2   2   69.76    2.36
  -3  -2  -2   71.26    2.53
   3  -2   2   68.93    2.30
  -3  -2  -2   69.73    2.60
  -3  -2  -2   71.24    2.76
  -3  -2  -2   68.10    2.53
  -3  -2  -2   70.94    2.80
  -3  -2  -2   70.01    2.73
  -3  -2  -2   70.60    2.11
   3   2   2   69.91    2.62
  -3   2  -2   73.46    2.25
  -3   2  -2   69.86    2.26
   3   2   2   67.56    2.76
  -3   2  -2   73.10    2.36
  -3   2  -2   69.98    2.25
   3   2   2   69.68    2.53
   3   2   2   69.32    2.41
  -3   2  -2   73.92    2.56
  -4  -2  -2   98.10    3.39
  -4  -2  -2  101.92    3.60
  -4  -2  -2  103.72    3.73
   4  -2   2  101.97    3.43
   4  -2   2  102.18    3.38
  -4  -2  -2  105.11    3.94
  -4  -2  -2  102.42    4.13
   4   2   2  100.57    3.65
  -4   2  -2  103.55    3.74
   4   2   2  100.77    3.47
  -4   2  -2  101.33    3.52
  -4   2  -2  111.02    3.48
  -4   2  -2  104.66    3.19
  -4   2  -2  106.33    3.20
   4   2   2  103.32    3.66
  -4   2  -2   97.38    3.67
  -5  -2  -2   16.39    1.12
   5  -2   2   16.62    1.18
  -5  -2  -2   15.08    1.71
  -5  -2  -2   17.80    1.43
  -5   2  -2   15.67    1.01
  -5   2  -2   15.93    1.52
  -5   2  -2   16.65    1.26
   5   2   2   16.02    1.16
   5   2   2   14.89    1.59
  -6  -2  -2   19.09    1.46
  -6  -2  -2   16.40    1.98
  -6  -2  -2   14.67    1.76
   6   2   2   17.21    1.56
  -6   2  -2   17.20    1.59
  -6   2  -2   20.06    1.87
  -6   2  -2   21.83    1.51
  -7  -2  -2    3.20    1.12
  -7  -2  -2    2.31    1.36
   7  -2   2    0.33    0.96
  -7  -2  -2    2.68    1.57
  -7   2  -2    0.98    1.22
   7   2   2    1.15    1.04
  -7   2  -2   -1.62    1.26
  -7  -3   2    3.20    1.06
  -7  -3   2    3.28    1.43
  -7  -3   2    4.50    1.75
   7  -3  -2    5.44    1.11
   7   3  -2    5.27    1.08
  -7   3   2    3.22    1.44
  -7   3   2    2.51    1.15
  -6  -3   2   15.91    3.41
  -6  -3   2   13.34    1.78
  -6  -3   2   12.16    1.26
   6  -3  -2   11.80    1.49
  -6   3   2   12.15    1.81
   6   3  -2   13.35    1.33
  -6   3   2   15.53    1.26
  -6   3   2   13.34    1.40
  -5  -3   2    2.38    0.79
  -5  -3   2    2.34    0.54
  -5  -3   2    1.84    0.90
   5  -3  -2    2.35    0.55
  -5   3   2    1.63    0.65
   5   3  -2    2.24    0.59
  -5   3   2    2.91    0.60
  -5   3   2    2.79    0.54
   5   3  -2    2.57    1.08
  -5   3   2    2.96    0.92
  -4  -3   2   33.04    1.40
   4  -3  -2   31.39    1.43
  -4  -3   2   32.27    1.86
  -4  -3   2   34.75    1.71
  -4  -3   2   32.00    2.37
  -4   3   2   33.15    1.38
   4   3  -2   34.74    2.04
   4   3  -2   33.26    1.47
  -4   3   2   33.94    1.56
  -4   3   2   32.93    1.65
  -4   3   2   34.41    1.23
  -4   3   2   31.61    1.25
  -3  -3   2   77.20    2.84
  -3  -3   2   77.93    2.98
   3  -3  -2   76.92    2.60
  -3  -3   2   79.28    2.82
  -3  -3   2   75.71    2.57
   3  -3  -2   78.08    2.45
  -3  -3   2   80.40    3.12
  -3   3   2   83.34    2.46
  -3   3   2   73.55    2.49
  -3   3   2   76.23    2.60
  -3   3   2   77.36    2.66
  -3   3   2   78.24    2.90
  -3   3   2   84.06    2.51
   3   3  -2   72.56    2.75
   3   3  -2   78.15    3.12
  -3   3   2   80.61    2.41
   3   3  -2   77.80    2.65
  -3   3   2   77.48    2.52
  -2  -3   2  501.75   15.39
  -2  -3   2  503.57   15.10
  -2  -3   2  570.23   15.63
  -2  -3   2  572.22   15.54
   2  -3  -2  497.28   15.11
   2  -3  -2  502.22   15.05
  -2  -3   2  532.03   15.13
  -2  -3   2  533.72   15.28
  -2  -3   2  511.93   15.29
   2  -3  -2  512.66   15.04
   2   3  -2  512.17   15.27
   2   3  -2  543.72   15.12
  -2   3   2  527.10   15.13
   2   3  -2  531.31   15.31
  -2   3   2  561.44   15.06
  -2   3   2  550.55   15.05
   2   3  -2  532.44   15.41
   2   3  -2  490.74   15.10
  -2   3   2  490.86   15.02
  -2   3   2  484.30   14.98
  -2   3   2  528.05   14.99
  -2   3   2  506.14   14.92
   2   3  -2  522.12   15.58
  -1  -3   2   63.49    1.95
   1  -3  -2   64.15    1.94
  -1  -3   2   64.13    2.24
  -1  -3   2   60.56    2.15
   1  -3  -2   64.35    2.01
   1  -3  -2   61.77    1.96
  -1  -3   2   62.04    2.08
  -1  -3   2   65.91    2.10
  -1  -3   2   67.21    2.35
   1  -3  -2   61.65    1.85
  -1  -3   2   60.73    1.96
   1   3  -2   66.06    1.92
  -1   3   2   60.77    1.91
  -1   3   2   64.38    1.93
   1   3  -2   62.95    2.10
   1   3  -2   61.21    2.32
   1   3  -2   64.62    1.98
  -1   3   2   63.63    1.96
   1   3  -2   67.28    2.20
  -1   3   2   61.02    1.83
  -1   3   2   60.73    1.89
   0  -3  -2  919.90   26.77
   0  -3   2  993.30   26.92
   0  -3   2 1000.00   26.83
   0   3  -2  868.55   26.80
   0   3  -2  946.58   26.95
   0   3  -2  950.17   26.75
   0   3   2  861.72   26.79
  -1  -3  -2    0.06    0.18
   1  -3   2    0.72    0.16
  -1  -3  -2    0.44    0.18
  -1  -3  -2    0.86    0.17
  -1  -3  -2    0.56    0.19
  -1  -3  -2    0.25    0.27
   1  -3   2    0.80    0.13
  -1  -3  -2    0.71    0.12
  -1  -3  -2    0.58    0.14
  -1   3  -2    0.92    0.10
   1   3   2    0.35    0.20
  -1   3  -2    0.99    0.19
  -1   3  -2    0.62    0.17
  -1   3  -2    0.67    0.12
  -1   3  -2    0.77    0.16
   1   3   2    0.71    0.19
  -1   3  -2    1.31    0.17
   1   3   2    0.54    0.23
   1   3   2    0.42    0.13
  -1   3  -2    0.80    0.20
  -2  -3  -2  191.11    5.84
  -2  -3  -2  174.26    5.47
  -2  -3  -2  182.27    5.61
  -2  -3  -2  180.15    5.68
  -2  -3  -2  186.26    5.79
   2  -3   2  180.04    5.42
  -2  -3  -2  185.96    5.80
  -2  -3  -2  183.14    5.32
   2  -3   2  187.76    5.35
  -2  -3  -2  177.67    5.46
  -2   3  -2  188.43    5.44
   2   3   2  168.81    5.62
  -2   3  -2  181.99    5.37
   2   3   2  180.54    5.85
  -2   3  -2  183.48    5.39
  -2   3  -2  188.29    5.48
   2   3   2  179.28    5.48
   2   3   2  176.54    5.78
  -2   3  -2  186.46    5.45
  -2   3  -2  186.36    5.48
  -2   3  -2  189.59    5.32
  -3  -3  -2    0.54    0.37
  -3  -3  -2   -0.48    0.51
   3  -3   2   -0.01    0.24
  -3  -3  -2   -0.83    0.54
  -3  -3  -2    0.29    0.26
  -3  -3  -2    0.15    0.11
  -3  -3  -2   -0.44    0.35
  -3   3  -2    0.42    0.31
   3   3   2    0.25    0.46
   3   3   2   -0.35    0.45
  -3   3  -2    0.22    0.26
  -3   3  -2   -0.15    0.21
  -3   3  -2    0.26    0.28
  -3   3  -2    0.00    0.31
  -3   3  -2   -0.21    0.23
  -4  -3  -2    5.10    0.90
  -4  -3  -2    5.31    0.63
  -4  -3  -2    3.63    0.71
  -4  -3  -2    6.45    1.30
   4  -3   2    3.72    0.51
  -4   3  -2    2.98    0.63
  -4   3  -2    4.81    0.51
   4   3   2    5.37    0.86
   4   3   2    4.76    0.94
   4   3   2    5.12    1.05
  -4   3  -2    5.38    0.62
   4   3   2    4.83    0.64
  -4   3  -2    5.85    0.68
  -4   3  -2    6.27    0.81
  -5  -3  -2    3.36    0.61
   5  -3   2    3.25    0.59
  -5  -3  -2    3.76    1.08
  -5  -3  -2    2.46    0.79
  -5   3  -2    2.56    0.53
  -5   3  -2    1.41    0.73
   5   3   2    3.37    1.01
  -5   3  -2    3.12    0.67
   5   3   2    4.03    0.99
   5   3   2    2.47    0.57
  -6  -3  -2   44.91    2.64
  -6  -3  -2   46.54    2.25
  -6  -3  -2   44.83    3.14
   6  -3   2   46.01    3.21
   6   3   2   44.56    2.31
  -6   3  -2   50.21    2.19
  -6   3  -2   44.06    2.59
  -6   3  -2   46.14    2.29
  -7  -3  -2    0.95    1.40
   7  -3   2    2.04    1.05
  -7  -3  -2    1.74    1.09
  -7  -3  -2    2.47    1.84
   7   3   2    2.33    1.14
  -7   3  -2    1.66    1.26
  -7   3  -2    1.72    1.42
  -7  -4   2    2.20    1.08
   7  -4  -2    3.14    1.11
  -7  -4   2    4.22    1.92
  -7  -4   2    2.11    1.36
  -7   4   2    0.51    1.08
   7   4  -2    1.23    0.99
  -7   4   2    2.50    1.29
  -6  -4   2    1.39    1.29
   6  -4  -2    1.16    0.70
  -6  -4   2    2.02    0.94
  -6  -4   2    0.95    0.66
  -6   4   2    1.72    0.71
   6   4  -2    1.75    0.74
  -6   4   2    2.67    0.87
   5  -4  -2   10.52    1.01
  -5  -4   2    8.81    1.31
  -5  -4   2    9.76    1.27
  -5  -4   2    9.32    0.89
   5   4  -2    8.28    1.46
  -5   4   2   11.31    1.19
  -5   4   2    8.14    0.81
  -5   4   2    8.33    0.91
   5   4  -2    9.93    1.02
  -5   4   2    9.03    1.12
  -4  -4   2    0.21    0.30
  -4  -4   2   -0.09    0.46
   4  -4  -2    0.42    0.32
  -4  -4   2   -0.07    0.53
  -4   4   2   -0.01    0.37
  -4   4   2   -0.03    0.44
  -4   4   2    0.87    0.36
  -4   4   2    0.02    0.24
   4   4  -2    0.03    0.75
  -4   4   2    0.24    0.28
  -4   4   2    0.89    0.42
   4   4  -2    0.22    0.35
  -3  -4   2    8.86    1.12
   3  -4  -2    6.51    0.54
  -3  -4   2    5.62    0.66
  -3  -4   2    6.37    0.86
   3  -4  -2    6.33    0.46
  -3  -4   2    5.73    0.51
  -3   4   2    5.54    0.43
  -3   4   2    6.00    0.36
  -3   4   2    5.59    0.57
   3   4  -2    5.64    0.82
   3   4  -2    5.74    0.90
  -3   4   2    8.13    1.10
   3   4  -2    6.85    0.56
  -3   4   2    4.78    0.48
  -3   4   2    4.95    0.52
  -3   4   2    6.54    0.54
  -2  -4   2    2.21    0.39
   2  -4  -2    3.68    0.33
  -2  -4   2    4.27    0.37
   2  -4  -2    3.48    0.38
   2  -4  -2    3.14    0.31
  -2  -4   2    4.26    0.54
  -2  -4   2    4.02    0.77
  -2  -4   2    2.81    0.54
  -2  -4   2    2.78    0.50
  -2   4   2    3.40    0.23
  -2   4   2    4.05    0.37
   2   4  -2    3.42    0.42
   2   4  -2    2.88    0.51
  -2   4   2    3.50    0.37
   2   4  -2    3.93    0.69
  -2   4   2    3.57    0.26
  -2   4   2    4.35    0.44
   2   4  -2    3.93    0.50
  -2   4   2    3.32    0.22
   2   4  -2    3.39    0.24
   2   4  -2    2.88    0.54
  -1  -4   2    0.12    0.10
   1  -4  -2    0.08    0.11
  -1  -4   2   -0.03    0.17
  -1  -4   2    0.12    0.11
   1  -4  -2    0.19    0.07
  -1  -4   2    0.29    0.29
  -1  -4   2    0.29    0.45
   1  -4  -2    0.25    0.08
   1  -4  -2    0.32    0.17
  -1  -4   2   -0.04    0.20
   1  -4  -2    0.10    0.10
  -1  -4   2    0.27    0.18
  -1  -4   2    0.09    0.24
   1   4  -2    0.17    0.25
  -1   4   2    0.09    0.08
  -1   4   2    0.15    0.06
   1   4  -2    0.41    0.26
  -1   4   2    0.20    0.07
  -1   4   2    0.18    0.13
   1   4  -2    0.18    0.11
   1   4  -2    0.32    0.18
  -1   4   2    0.11    0.11
  -1   4   2    0.17    0.13
   1   4  -2    0.34    0.35
  -1   4   2   -0.11    0.14
   1   4  -2    0.34    0.18
   0  -4   2    1.21    0.20
   0  -4  -2    1.36    0.20
   0  -4   2    0.92    0.15
   0  -4  -2    1.48    0.20
   0  -4   2    1.22    0.15
   0  -4   2    1.34    0.21
   0  -4   2    0.95    0.30
   0  -4  -2    1.41    0.16
   0  -4  -2    1.08    0.24
   0  -4  -2    0.86    0.14
   0  -4   2    1.25    0.27
   0  -4  -2    1.07    0.19
   0  -4   2    0.94    0.22
   0  -4   2    1.24    0.21
   0  -4  -2    1.26    0.14
   0   4   2    0.79    0.15
   0   4  -2    1.39    0.20
   0   4   2    1.59    0.27
   0   4   2    0.83    0.23
   0   4  -2    1.33    0.25
   0   4  -2    0.97    0.31
   0   4   2    1.35    0.15
   0   4  -2    0.97    0.15
   0   4  -2    1.68    0.24
   0   4   2    1.04    0.19
   0   4  -2    1.33    0.21
  -1  -4  -2    0.43    0.26
  -1  -4  -2    0.13    0.10
  -1  -4  -2    0.29    0.21
  -1  -4  -2    0.02    0.22
  -1  -4  -2    0.18    0.16
   1  -4   2    0.35    0.14
  -1  -4  -2    0.30    0.14
   1  -4   2    0.23    0.11
  -1  -4  -2    0.32    0.31
   1   4   2    0.55    0.15
  -1   4  -2    0.20    0.15
   1   4   2    0.30    0.15
   1   4   2   -0.01    0.25
  -1   4  -2    0.04    0.12
  -1   4  -2    0.50    0.18
  -1   4  -2    0.57    0.13
  -1   4  -2    0.33    0.18
   1   4   2    0.23    0.18
  -1   4  -2    0.25    0.10
   1   4   2   -0.24    0.19
  -1   4  -2    0.35    0.23
   2  -4   2    0.81    0.24
  -2  -4  -2    0.20    0.11
  -2  -4  -2    0.15    0.30
  -2  -4  -2    0.43    0.19
  -2  -4  -2   -0.16    0.42
  -2  -4  -2    0.11    0.31
   2  -4   2    0.11    0.14
  -2  -4  -2    0.38    0.45
  -2  -4  -2    0.53    0.36
  -2   4  -2    0.39    0.20
  -2   4  -2    0.35    0.19
   2   4   2    0.37    0.42
   2   4   2    0.36    0.22
  -2   4  -2    0.12    0.15
  -2   4  -2    0.26    0.23
  -2   4  -2    0.21    0.22
   2   4   2    0.47    0.28
   2   4   2    0.35    0.38
  -2   4  -2    0.08    0.11
  -3  -4  -2   10.67    1.06
   3  -4   2   11.61    0.70
  -3  -4  -2   12.35    1.37
  -3  -4  -2   11.33    0.47
  -3  -4  -2   10.20    0.70
  -3  -4  -2   10.48    0.92
  -3   4  -2   11.21    0.56
  -3   4  -2   10.84    0.67
  -3   4  -2   11.12    0.74
   3   4   2   12.11    1.25
  -3   4  -2   13.78    0.65
  -3   4  -2   11.15    0.80
  -3   4  -2   11.36    0.61
   3   4   2   10.14    0.93
   3   4   2   10.47    1.22
  -4  -4  -2    0.18    0.32
   4  -4   2   -0.02    0.31
  -4  -4  -2    0.09    0.61
  -4  -4  -2    0.49    0.54
  -4   4  -2    0.29    0.49
   4   4   2   -0.32    0.86
  -4   4  -2    0.30    0.35
   4   4   2   -0.17    0.33
   4   4   2    1.01    0.80
  -4   4  -2    0.59    0.40
   4   4   2    0.65    0.55
   5  -4   2    7.77    0.95
  -5  -4  -2    5.59    0.81
  -5  -4  -2    8.23    1.40
  -5  -4  -2    5.29    1.03
  -5   4  -2    7.32    1.00
   5   4   2    7.93    1.39
  -5   4  -2    7.43    0.87
   5   4   2    7.25    1.19
  -5   4  -2    5.69    0.77
   5   4   2    7.59    0.96
   6  -4   2    0.52    0.71
  -6  -4  -2    0.73    1.03
  -6  -4  -2    1.56    1.25
  -6   4  -2    2.59    0.82
  -6   4  -2    0.84    0.97
   6   4   2    0.95    0.73
   7  -4   2    1.13    1.05
  -7  -4  -2   -1.50    1.87
  -7  -4  -2   -1.95    1.35
  -7  -4  -2    0.98    1.09
  -7   4  -2   -1.14    1.28
   7   4   2    1.21    1.11
  -7   4  -2    2.47    1.20
  -7  -5   2    3.60    1.94
  -7  -5   2    3.45    1.21
  -7  -5   2    2.31    1.45
   7  -5  -2    3.90    1.15
   7   5  -2    3.53    1.12
  -7   5   2    1.98    1.32
  -6  -5   2    0.38    0.93
  -6  -5   2    2.68    1.37
   6  -5  -2    0.85    0.74
  -6  -5   2    1.22    0.72
  -6   5   2    1.55    0.85
  -6   5   2    1.73    0.72
   6   5  -2    2.21    0.82
   6   5  -2    2.34    1.77
   5  -5  -2    3.59    0.65
  -5  -5   2    5.46    0.99
  -5  -5   2    3.98    1.21
  -5  -5   2    4.61    0.68
  -5   5   2    4.08    0.72
  -5   5   2    4.14    0.56
   5   5  -2    3.71    0.66
   5   5  -2    4.88    1.38
  -5   5   2    4.60    0.87
  -5   5   2    4.00    0.53
  -4  -5   2   14.56    0.92
   4  -5  -2   13.98    0.96
  -4  -5   2   13.47    1.18
  -4  -5   2   13.61    1.48
   4   5  -2   13.46    1.76
  -4   5   2   13.23    0.99
  -4   5   2   13.35    0.67
  -4   5   2   14.08    0.72
  -4   5   2   13.89    0.73
   4   5  -2   12.70    0.94
  -4   5   2   13.52    0.90
   3  -5  -2   66.60    2.37
  -3  -5   2   67.62    2.83
   3  -5  -2   68.87    2.41
  -3  -5   2   67.85    2.64
  -3  -5   2   70.45    2.38
   3   5  -2   69.83    2.39
   3   5  -2   66.28    2.62
  -3   5   2   72.15    2.09
  -3   5   2   67.53    2.09
  -3   5   2   66.26    2.25
  -3   5   2   71.31    2.07
   3   5  -2   71.19    3.07
  -3   5   2   66.56    2.19
  -2  -5   2  161.85    5.07
   2  -5  -2  155.89    4.85
   2  -5  -2  160.31    4.80
  -2  -5   2  159.91    5.18
  -2  -5   2  158.58    5.30
  -2  -5   2  145.91    4.86
   2  -5  -2  157.37    4.79
   2   5  -2  158.98    5.06
  -2   5   2  154.99    4.79
   2   5  -2  162.72    5.22
   2   5  -2  150.10    5.87
   2   5  -2  170.12    4.67
  -2   5   2  160.82    4.77
   1  -5  -2  140.40    3.95
  -1  -5   2  133.47    4.09
  -1  -5   2  129.39    4.08
   1  -5  -2  125.44    4.10
  -1  -5   2  133.56    4.08
  -1  -5   2  137.03    4.35
  -1  -5   2  138.57    4.11
  -1  -5   2  135.81    4.25
   1  -5  -2  131.04    4.09
  -1  -5   2  138.25    4.56
  -1  -5   2  133.31    4.23
   1  -5  -2  135.96    3.94
  -1  -5   2  139.35    4.44
  -1   5   2  138.34    4.14
  -1   5   2  139.34    4.08
  -1   5   2  130.92    4.00
   1   5  -2  130.39    4.60
   1   5  -2  142.29    4.40
   1   5  -2  147.27    4.32
  -1   5   2  135.35    3.94
  -1   5   2  129.44    4.05
   1   5  -2  140.42    4.07
   1   5  -2  132.52    4.25
  -1   5   2  136.52    3.94
   1   5  -2  140.53    4.12
   0  -5   2  425.93   12.07
   0  -5  -2  425.22   12.24
   0  -5   2  423.19   12.29
   0  -5   2  401.70   12.17
   0  -5   2  437.14   12.21
   0  -5  -2  393.43   12.16
   0  -5  -2  395.95   12.15
   0  -5   2  412.58   12.20
   0  -5   2  395.99   12.16
   0  -5  -2  426.86   12.25
   0  -5   2  407.22   12.07
   0  -5  -2  436.98   12.18
   0  -5   2  423.50   12.40
   0  -5   2  444.01   12.48
   0  -5  -2  416.20   12.05
   0  -5  -2  437.08   12.22
   0  -5  -2  403.00   12.06
   0   5   2  415.27   12.20
   0   5  -2  433.21   12.31
   0   5  -2  419.18   12.10
   0   5   2  425.46   12.11
   0   5   2  419.88   12.17
   0   5   2  413.16   12.47
   0   5  -2  454.29   12.25
   0   5   2  431.76   12.11
   0   5  -2  411.32   12.55
   0   5  -2  421.45   12.17
   0   5   2  407.21   12.33
  -1  -5  -2   15.80    0.91
  -1  -5  -2   16.40    0.70
  -1  -5  -2   16.36    0.86
  -1  -5  -2   16.88    1.01
  -1  -5  -2   16.79    0.85
  -1  -5  -2   14.95    0.66
   1  -5   2   15.67    0.61
  -1  -5  -2   16.86    0.71
   1  -5   2   17.33    0.63
   1  -5   2   16.19    0.74
   1  -5   2   16.67    0.68
   1  -5   2   16.07    0.73
  -1   5  -2   17.74    0.59
   1   5   2   16.28    0.72
  -1   5  -2   16.48    0.74
   1   5   2   16.63    0.84
   1   5   2   15.38    0.97
   1   5   2   16.85    0.93
   1   5   2   16.58    0.69
  -1   5  -2   16.28    0.91
   1   5   2   16.04    1.04
  -1   5  -2   17.48    0.76
  -1   5  -2   16.40    0.67
  -1   5  -2   16.87    0.64
  -2  -5  -2  101.55    3.59
  -2  -5  -2  104.12    3.25
  -2  -5  -2  103.67    3.68
  -2  -5  -2   96.46    3.45
   2  -5   2   97.66    3.15
  -2  -5  -2  103.19    3.09
   2  -5   2   97.34    3.28
   2   5   2  104.39    3.27
  -2   5  -2  103.34    3.15
  -2   5  -2  102.07    3.15
  -2   5  -2  109.83    2.99
  -2   5  -2  100.31    3.28
   2   5   2   95.10    3.71
  -2   5  -2  106.40    3.07
   2   5   2   98.57    3.70
  -3  -5  -2    3.26    0.30
  -3  -5  -2    2.71    0.69
  -3  -5  -2    2.68    0.50
  -3  -5  -2    4.23    0.50
   3  -5   2    2.79    0.39
   3   5   2    3.58    0.87
  -3   5  -2    2.95    0.41
  -3   5  -2    3.43    0.41
   3   5   2    2.36    0.57
   3   5   2    4.17    0.95
  -3   5  -2    3.64    0.36
  -3   5  -2    3.27    0.43
  -3   5  -2    3.54    0.45
  -4  -5  -2   -0.15    0.35
   4  -5   2   -0.36    0.33
  -4  -5  -2   -0.70    0.53
  -4  -5  -2   -0.33    0.65
  -4   5  -2    0.11    0.37
  -4   5  -2    0.12    0.47
   4   5   2    0.26    0.37
  -4   5  -2   -0.17    0.34
   4   5   2    1.96    0.97
  -4   5  -2   -0.20    0.32
  -4   5  -2    0.00    0.52
   4   5   2   -0.12    0.99
   4   5   2   -0.09    0.59
  -5  -5  -2    9.21    0.99
  -5  -5  -2    7.57    1.36
  -5  -5  -2    6.82    1.08
   5  -5   2    6.45    0.82
   5   5   2    7.02    0.87
   5   5   2    5.34    1.42
  -5   5  -2    7.42    0.97
  -5   5  -2    7.28    0.97
   5   5   2    7.52    1.27
   6  -5   2   16.17    1.53
  -6  -5  -2   12.99    1.63
  -6  -5  -2   18.69    1.53
  -6  -5  -2   20.28    2.42
  -6   5  -2   15.65    1.74
  -6   5  -2   18.01    1.59
   6   5   2   15.69    1.63
  -7  -5  -2    5.43    1.22
  -7  -5  -2    6.71    2.18
  -7  -5  -2    1.76    1.51
   7  -5   2    6.86    1.35
  -7   5  -2    1.61    1.32
   7   5   2    4.15    1.23
  -7  -6   2   13.58    1.53
   7  -6  -2   10.51    1.50
  -7  -6   2    9.73    2.63
  -7  -6   2   10.56    1.86
  -7   6   2   11.12    1.54
   7   6  -2   12.09    1.54
  -6  -6   2   30.13    2.45
   6  -6  -2   32.90    2.02
  -6  -6   2   34.15    3.15
  -6  -6   2   32.51    1.92
  -6   6   2   29.46    1.98
   6   6  -2   33.50    2.03
   6   6  -2   35.26    3.62
  -5  -6   2   45.67    2.03
   5  -6  -2   45.38    2.09
  -5  -6   2   47.47    2.56
  -5  -6   2   48.39    3.05
   5   6  -2   49.36    3.22
  -5   6   2   43.77    1.58
   5   6  -2   46.19    2.10
  -5   6   2   43.62    1.94
  -5   6   2   44.83    2.34
   4  -6  -2   81.80    2.92
  -4  -6   2   83.00    3.29
  -4  -6   2   85.10    3.61
  -4  -6   2   81.68    2.90
  -4   6   2   79.73    2.76
   4   6  -2   82.26    2.92
  -4   6   2   81.57    2.71
   4   6  -2   77.81    3.82
  -4   6   2   79.69    2.52
   3  -6  -2   63.56    2.34
  -3  -6   2   64.76    2.57
  -3  -6   2   65.71    2.81
  -3  -6   2   64.80    2.28
   3  -6  -2   63.40    2.21
   3   6  -2   63.23    3.06
   3   6  -2   59.35    2.50
   3   6  -2   67.33    1.98
  -2  -6   2   59.97    2.53
  -2  -6   2   63.52    2.13
   2  -6  -2   59.63    2.13
   2  -6  -2   61.24    2.18
  -2  -6   2   62.86    2.51
  -2  -6   2   62.90    2.13
   2  -6  -2   62.11    2.12
   2   6  -2   64.37    2.59
   2   6  -2   62.81    2.83
   2   6  -2   65.63    2.00
   1  -6  -2    1.09    0.24
  -1  -6   2    1.04    0.24
  -1  -6   2    1.27    0.24
  -1  -6   2    1.25    0.23
   1  -6  -2    1.17    0.23
  -1  -6   2    0.90    0.28
  -1  -6   2    0.80    0.26
   1  -6  -2    1.18    0.17
  -1  -6   2    0.72    0.32
  -1   6   2    1.11    0.23
   1   6  -2    1.75    0.43
  -1   6   2    1.26    0.17
   1   6  -2    0.80    0.29
  -1   6   2    1.15    0.15
   1   6  -2    0.73    0.22
  -1   6   2    1.65    0.32
   1   6  -2    1.22    0.40
   1   6  -2    0.78    0.55
  -1   6   2    1.22    0.24
  -1   6   2    0.83    0.18
   0  -6  -2   48.76    1.55
   0  -6   2   52.04    1.57
   0  -6   2   48.34    1.72
   0  -6  -2   48.48    1.68
   0  -6  -2   47.50    1.77
   0  -6   2   49.07    1.69
   0  -6   2   51.83    1.79
   0  -6  -2   51.36    1.73
   0  -6   2   49.78    1.71
   0  -6   2   47.14    1.81
   0  -6  -2   51.98    1.76
   0  -6   2   51.46    1.72
   0  -6   2   48.12    2.03
   0  -6  -2   51.23    1.56
   0  -6  -2   48.01    1.69
   0  -6  -2   48.50    1.68
   0  -6   2   51.45    1.57
   0   6   2   50.48    1.89
   0   6   2   46.91    1.68
   0   6   2   48.66    1.73
   0   6  -2   52.73    1.79
   0   6  -2   47.48    2.10
   0   6   2   50.49    1.62
   0   6  -2   51.23    1.86
   0   6   2   48.19    2.04
   0   6   2   52.66    1.67
   0   6  -2   48.53    1.62
  -1  -6  -2  107.13    3.35
   1  -6   2  112.41    3.30
   1  -6   2  106.46    3.44
  -1  -6  -2  106.91    3.65
   1  -6   2  107.66    3.43
  -1  -6  -2  106.80    3.56
   1  -6   2  109.16    3.26
  -1  -6  -2  105.51    3.37
  -1  -6  -2  108.53    3.37
   1   6   2  108.74    3.80
   1   6   2  121.59    3.69
   1   6   2  108.27    3.36
  -1   6  -2  116.04    3.25
   1   6   2  107.85    3.41
  -1   6  -2  114.25    3.35
   1   6   2  109.08    3.57
   1   6   2  107.64    3.90
  -1   6  -2  110.06    3.30
  -1   6  -2  103.35    3.69
  -1   6  -2  107.99    3.41
  -2  -6  -2  305.82    9.33
   2  -6   2  294.70    8.84
  -2  -6  -2  303.46    8.93
   2  -6   2  297.02    8.95
  -2  -6  -2  309.97    8.79
  -2   6  -2  282.68    8.80
   2   6   2  308.51    9.52
   2   6   2  301.96    8.96
  -2   6  -2  293.91    8.81
  -2   6  -2  301.27    9.07
  -2   6  -2  298.65    8.71
   2   6   2  311.99    9.20
   2   6   2  292.09    9.54
  -2   6  -2  306.56    8.65
  -3  -6  -2   94.39    2.76
  -3  -6  -2   89.95    3.33
   3  -6   2   88.36    2.93
  -3  -6  -2   91.10    3.55
  -3   6  -2   87.82    2.87
  -3   6  -2   90.30    2.72
  -3   6  -2   87.50    2.75
   3   6   2   82.26    3.67
   3   6   2   88.10    3.30
  -3   6  -2   88.19    3.00
   3   6   2   86.54    3.72
  -3   6  -2   90.61    2.68
  -4  -6  -2  165.79    5.33
  -4  -6  -2  169.03    6.03
   4  -6   2  165.66    5.26
  -4  -6  -2  171.01    5.78
   4   6   2  166.96    5.71
   4   6   2  160.91    6.40
  -4   6  -2  169.64    5.00
  -4   6  -2  161.74    5.07
   4   6   2  169.30    6.20
  -4   6  -2  158.74    5.00
  -4   6  -2  164.34    5.22
  -5  -6  -2   19.13    1.77
  -5  -6  -2   18.52    1.29
   5  -6   2   20.74    1.36
  -5  -6  -2   21.01    2.33
  -5   6  -2   15.12    1.05
   5   6   2   17.35    2.12
  -5   6  -2   17.28    1.39
   5   6   2   17.93    1.92
   5   6   2   19.04    1.41
  -5   6  -2   20.93    1.52
  -6  -6  -2   34.52    3.47
  -6  -6  -2   41.07    2.08
   6  -6   2   32.23    2.05
  -6  -6  -2   33.59    2.45
  -6   6  -2   33.09    1.67
   6   6   2   31.87    2.12
  -6   6  -2   30.76    2.14
   7  -6   2    1.56    1.19
  -7  -6  -2   -1.44    1.06
  -7  -6  -2    2.58    2.25
  -7  -6  -2    2.05    1.67
  -7   6  -2   -0.11    1.32
   7   6   2    1.72    1.21
  -7  -7   2    1.12    1.18
  -7  -7   2   -0.43    1.59
  -7  -7   2   -1.21    2.30
   7  -7  -2    0.61    1.25
  -7   7   2    0.33    1.21
   7   7  -2    1.47    1.13
   6  -7  -2    1.30    0.85
  -6  -7   2    2.36    0.79
  -6  -7   2    0.68    1.70
  -6  -7   2    1.98    1.21
   6   7  -2    1.07    0.84
  -6   7   2    3.08    0.85
   6   7  -2    2.19    2.13
   5  -7  -2    0.73    0.59
  -5  -7   2    1.03    0.83
  -5  -7   2   -0.23    0.48
  -5  -7   2   -0.18    1.20
  -5   7   2    0.65    0.62
   5   7  -2    0.60    0.57
  -5   7   2    0.77    0.49
   5   7  -2    0.15    1.43
   4  -7  -2    0.96    0.47
  -4  -7   2    1.29    0.41
  -4  -7   2    0.30    0.85
  -4  -7   2    1.18    0.65
   4   7  -2    1.27    1.20
   4   7  -2    0.26    0.39
  -4   7   2    1.13    0.25
   3  -7  -2    1.43    0.38
   3  -7  -2    2.48    0.45
  -3  -7   2    2.64    0.44
  -3  -7   2    1.11    0.47
   3  -7  -2    1.23    0.42
  -3  -7   2    2.32    0.79
   3   7  -2    2.31    0.33
   3   7  -2    1.91    0.55
   3   7  -2    2.68    0.84
  -2  -7   2    0.77    0.26
  -2  -7   2    1.08    0.50
   2  -7  -2    0.47    0.24
  -2  -7   2    0.70    0.44
  -2  -7   2    0.71    0.27
   2  -7  -2    0.15    0.31
   2  -7  -2    0.21    0.25
   2   7  -2    0.67    0.37
   2   7  -2    0.63    0.63
   2   7  -2    0.36    0.27
   2   7  -2    0.59    0.67
   1  -7  -2    0.31    0.20
  -1  -7   2    0.15    0.22
   1  -7  -2    0.28    0.18
  -1  -7   2    0.36    0.20
  -1  -7   2    0.40    0.19
   1  -7  -2    0.21    0.22
  -1  -7   2    0.06    0.29
  -1  -7   2    0.27    0.27
  -1  -7   2    0.49    0.39
  -1   7   2    0.19    0.19
   1   7  -2    0.86    0.63
  -1   7   2    0.32    0.19
   1   7  -2    0.14    0.26
   1   7  -2    0.48    0.45
   1   7  -2    0.49    0.47
   1   7  -2   -0.06    0.28
  -1   7   2    0.11    0.12
   0  -7   2   13.59    0.57
   0  -7  -2   15.02    0.82
   0  -7  -2   14.82    0.57
   0  -7   2   15.04    0.59
   0  -7  -2   15.09    0.77
   0  -7   2   11.57    0.71
   0  -7   2   15.76    0.87
   0  -7   2   14.36    0.74
   0  -7  -2   14.22    0.56
   0   7  -2   13.53    1.17
   0   7   2   15.00    0.70
   0   7   2   12.48    1.10
   0   7  -2   14.42    0.69
   0   7   2   13.68    0.76
   0   7   2   13.52    0.64
   0   7  -2   14.13    0.83
   0   7  -2   15.10    0.92
   0   7   2   12.75    0.91
  -1  -7  -2    0.04    0.19
   1  -7   2    0.03    0.20
  -1  -7  -2   -0.19    0.24
  -1  -7  -2    0.42    0.24
   1  -7   2    0.43    0.27
  -1  -7  -2    0.45    0.32
  -1  -7  -2    0.39    0.22
   1  -7   2    0.26    0.23
   1  -7   2    0.04    0.21
  -1  -7  -2    0.71    0.39
  -1   7  -2    0.40    0.43
   1   7   2    0.06    0.39
   1   7   2    0.28    0.51
  -1   7  -2    0.27    0.26
   1   7   2   -0.03    0.20
  -1   7  -2   -0.08    0.23
  -1   7  -2    0.18    0.16
   1   7   2    0.35    0.31
   1   7   2   -0.68    0.47
  -1   7  -2    0.09    0.20
  -2  -7  -2    3.44    0.65
  -2  -7  -2    4.69    0.48
   2  -7   2    4.28    0.50
  -2  -7  -2    4.27    0.43
   2  -7   2    5.01    0.53
  -2  -7  -2    3.73    0.66
  -2   7  -2    3.37    0.62
  -2   7  -2    4.54    0.34
   2   7   2    2.95    0.73
   2   7   2    4.69    0.84
  -2   7  -2    4.69    0.46
   2   7   2    4.55    0.51
  -2   7  -2    3.92    0.42
   2   7   2    5.54    0.68
  -3  -7  -2   -0.01    0.46
  -3  -7  -2   -0.52    0.63
   3  -7   2    0.16    0.30
  -3  -7  -2    0.06    0.20
  -3  -7  -2    0.07    0.30
  -3   7  -2   -0.18    0.22
  -3   7  -2   -0.32    0.47
  -3   7  -2    0.13    0.32
   3   7   2   -0.34    0.83
   3   7   2   -0.43    0.46
   3   7   2    0.19    0.78
  -4  -7  -2   -0.73    0.78
   4  -7   2    1.16    0.50
  -4  -7  -2    0.54    0.24
  -4  -7  -2   -0.17    0.37
  -4  -7  -2    0.71    0.61
  -4   7  -2    1.41    0.48
   4   7   2   -1.57    1.10
   4   7   2    2.02    1.25
   4   7   2    1.14    0.73
  -4   7  -2   -0.45    0.58
  -5  -7  -2    0.67    0.90
  -5  -7  -2    0.40    1.20
  -5  -7  -2   -0.44    0.53
   5  -7   2    0.60    0.60
  -5   7  -2    0.12    0.62
   5   7   2   -0.65    1.09
  -5   7  -2    0.48    0.86
   5   7   2    0.41    1.63
   5   7   2    0.69    0.64
  -6  -7  -2    0.76    0.73
  -6  -7  -2   -0.01    1.81
  -6  -7  -2    1.16    1.15
   6  -7   2    0.21    0.91
  -6   7  -2   -1.65    0.81
   6   7   2    0.47    0.89
   7  -7   2    2.79    1.34
   7   7   2   -0.42    1.42
   6  -8  -2   75.14    3.33
  -6  -8   2   74.55    3.20
  -6  -8   2   69.60    3.75
  -6  -8   2   78.08    4.85
   6   8  -2   75.56    5.19
   6   8  -2   74.73    3.26
  -5  -8   2   14.99    1.77
  -5  -8   2   14.28    1.22
  -5  -8   2   17.93    2.18
   5  -8  -2   13.66    1.43
   5   8  -2   15.69    1.36
   5   8  -2   16.43    2.26
  -5   8   2   17.96    1.86
  -4  -8   2  125.79    4.20
  -4  -8   2  123.79    4.64
  -4  -8   2  124.43    5.00
   4  -8  -2  120.77    4.23
   4   8  -2  125.42    4.22
   4   8  -2  123.76    5.41
  -3  -8   2   17.85    0.96
   3  -8  -2   17.15    0.98
  -3  -8   2   18.54    1.33
  -3  -8   2   15.72    0.96
  -3  -8   2   16.06    1.63
   3  -8  -2   15.51    1.05
   3  -8  -2   16.16    1.01
   3   8  -2   17.36    1.31
   3   8  -2   16.85    1.93
   3   8  -2   17.35    0.85
  -2  -8   2   15.52    1.08
   2  -8  -2   15.00    0.85
  -2  -8   2   13.85    1.23
   2  -8  -2   14.61    0.84
  -2  -8   2   15.13    0.81
  -2  -8   2   15.48    0.82
   2   8  -2   14.55    1.59
  -2   8   2   13.58    1.08
  -2   8   2   14.84    0.53
  -2   8   2   13.43    0.68
  -2   8   2   14.98    0.58
   2   8  -2   16.80    1.58
   2   8  -2   12.80    1.00
   1  -8  -2    0.27    0.25
  -1  -8   2    0.60    0.25
  -1  -8   2    0.31    0.21
   1  -8  -2    0.45    0.22
   1  -8  -2    0.27    0.25
  -1  -8   2    0.43    0.41
  -1  -8   2    0.43    0.32
  -1  -8   2    0.95    0.38
  -1  -8   2    0.00    0.22
  -1   8   2    0.30    0.44
  -1   8   2    0.65    0.31
  -1   8   2   -0.07    0.22
   1   8  -2    0.30    0.57
  -1   8   2    0.57    0.25
   1   8  -2    0.50    0.56
  -1   8   2    0.32    0.16
   1   8  -2    0.12    0.57
   0  -8  -2  103.18    3.37
   0  -8   2  109.36    3.50
   0  -8   2  108.31    3.40
   0  -8   2  102.29    3.41
   0  -8   2  108.09    3.17
   0  -8  -2  102.39    3.15
   0  -8  -2  110.06    3.17
   0  -8   2  104.42    3.38
   0  -8  -2  105.97    3.39
   0  -8  -2  106.64    3.40
   0  -8   2  100.88    3.17
   0  -8  -2  108.47    3.43
   0   8   2  106.08    3.30
   0   8   2  104.77    3.90
   0   8   2  106.01    3.67
   0   8  -2  107.54    3.63
   0   8  -2  111.78    3.52
   0   8  -2  100.93    3.97
   0   8   2  102.27    3.44
   0   8  -2  103.20    3.31
   1  -8   2    7.89    0.64
  -1  -8  -2    9.41    0.61
  -1  -8  -2    8.13    0.76
   1  -8   2    7.92    0.61
   1  -8   2    9.60    0.57
   1  -8   2    7.58    0.55
  -1  -8  -2    7.88    0.63
  -1  -8  -2    9.15    0.91
  -1  -8  -2    8.25    0.57
  -1  -8  -2    8.49    0.55
   1   8   2    7.22    1.02
  -1   8  -2   10.03    0.67
  -1   8  -2    8.14    0.51
   1   8   2    8.76    0.96
   1   8   2    8.95    0.74
   1   8   2    7.87    0.59
  -1   8  -2    8.98    0.71
   1   8   2   10.57    1.05
  -1   8  -2    8.24    0.56
  -2  -8  -2  242.09    7.40
   2  -8   2  236.57    7.53
  -2  -8  -2  254.01    7.97
  -2  -8  -2  250.51    7.81
  -2  -8  -2  252.50    7.47
  -2   8  -2  252.31    7.26
  -2   8  -2  247.46    7.19
  -2   8  -2  244.30    7.38
  -2   8  -2  242.92    7.85
   2   8   2  263.17    8.25
   2   8   2  247.56    7.56
   2   8   2  246.94    8.36
   2   8   2  242.10    7.80
  -3  -8  -2    9.41    1.12
   3  -8   2    8.75    0.80
  -3  -8  -2   10.11    0.63
  -3  -8  -2    9.12    0.76
  -3  -8  -2   11.30    1.36
   3  -8   2    9.44    0.85
   3   8   2    9.66    1.09
  -3   8  -2   10.99    1.14
   3   8   2    8.49    1.24
  -3   8  -2    9.69    0.69
   3   8   2    9.15    1.40
  -3   8  -2    8.57    0.55
  -4  -8  -2  137.98    5.05
   4  -8   2  138.95    4.50
  -4  -8  -2  137.01    5.40
  -4  -8  -2  140.42    4.09
  -4  -8  -2  132.14    4.52
   4   8   2  136.16    5.74
  -4   8  -2  128.31    4.28
  -4   8  -2  133.42    4.53
   4   8   2  136.97    5.73
   4   8   2  134.27    5.02
  -5  -8  -2    3.41    1.49
  -5  -8  -2    2.09    1.11
   5  -8   2    0.54    0.70
  -5   8  -2    0.38    0.59
   5   8   2    0.99    1.18
  -5   8  -2    0.54    0.78
   5   8   2    1.32    1.77
  -6  -8  -2   27.29    2.54
   6  -8   2   26.83    2.16
  -6  -8  -2   27.66    1.93
  -6  -8  -2   32.78    4.00
  -6   8  -2   28.66    1.87
   6   8   2   29.73    2.21
  -6  -9   2    3.79    2.35
  -6  -9   2    3.68    1.56
  -6  -9   2    4.37    1.04
   6  -9  -2    3.55    1.21
  -6  -9   2    3.77    1.04
   6   9  -2    2.93    2.73
   6   9  -2    6.31    1.14
  -5  -9   2    2.14    1.60
   5  -9  -2    2.99    0.88
  -5  -9   2    0.82    0.61
  -5  -9   2    4.23    1.45
  -5  -9   2    0.95    0.62
   5   9  -2    1.66    0.85
  -5   9   2    0.42    1.45
   5   9  -2    1.87    1.86
  -4  -9   2    5.79    0.75
  -4  -9   2    6.44    1.43
  -4  -9   2    5.42    1.07
   4  -9  -2    6.25    0.87
  -4  -9   2    6.33    0.80
   4   9  -2    6.94    1.71
   4   9  -2    5.76    0.76
  -4   9   2    7.73    1.14
  -3  -9   2   49.66    2.40
   3  -9  -2   51.26    2.10
  -3  -9   2   54.25    2.06
  -3  -9   2   50.14    2.74
   3  -9  -2   52.85    2.06
  -3  -9   2   53.94    2.05
  -3   9   2   51.91    2.45
   3   9  -2   54.97    3.18
  -2  -9   2   50.48    1.84
   2  -9  -2   50.28    1.91
  -2  -9   2   52.51    2.20
  -2  -9   2   50.75    1.88
  -2  -9   2   51.87    2.40
   2  -9  -2   47.77    1.91
   2   9  -2   52.40    2.89
  -2   9   2   48.63    1.56
  -2   9   2   48.97    1.75
  -2   9   2   48.05    1.60
   2   9  -2   48.61    2.16
  -2   9   2   46.48    2.30
  -1  -9   2  181.06    5.66
   1  -9  -2  179.82    5.69
  -1  -9   2  175.12    5.55
  -1  -9   2  187.68    5.66
   1  -9  -2  183.17    5.67
   1  -9  -2  176.34    5.41
  -1  -9   2  182.35    5.54
  -1  -9   2  190.26    5.97
  -1  -9   2  187.60    5.84
   1   9  -2  195.56    6.05
  -1   9   2  180.93    6.22
  -1   9   2  182.64    5.79
  -1   9   2  186.34    5.59
   1   9  -2  194.70    6.17
  -1   9   2  175.12    5.45
   0  -9   2   67.17    2.36
   0  -9   2   64.97    2.09
   0  -9   2   69.55    2.10
   0  -9   2   64.04    2.35
   0  -9   2   70.54    2.48
   0  -9  -2   67.09    2.07
   0  -9  -2   66.55    2.34
   0  -9   2   63.93    2.34
   0  -9  -2   68.85    2.09
   0  -9  -2   66.22    2.35
   0  -9  -2   69.92    2.38
   0  -9  -2   68.27    2.40
   0   9   2   67.19    2.94
   0   9  -2   72.66    2.56
   0   9  -2   62.96    2.99
   0   9   2   67.40    2.26
   0   9   2   68.54    2.67
   0   9  -2   70.65    2.65
   0   9   2   67.05    2.42
   0   9  -2   68.23    2.36
  -1  -9  -2   90.70    3.09
   1  -9   2   94.48    3.13
  -1  -9  -2   85.84    2.97
   1  -9   2   97.21    2.93
  -1  -9  -2   95.71    3.39
   1  -9   2   91.53    3.14
  -1  -9  -2   94.36    3.28
  -1  -9  -2   90.67    2.96
  -1  -9  -2   95.22    3.06
  -1   9  -2   92.70    3.65
   1   9   2   92.18    3.30
   1   9   2   95.77    3.65
   1   9   2   95.05    3.88
  -1   9  -2   93.95    3.18
  -1   9  -2   92.03    3.08
   1   9   2   92.51    3.08
   2  -9   2   36.36    1.56
  -2  -9  -2   37.21    1.44
  -2  -9  -2   37.70    2.02
  -2  -9  -2   39.74    1.58
  -2  -9  -2   35.33    1.83
  -2  -9  -2   37.18    1.49
  -2   9  -2   37.60    1.35
  -2   9  -2   37.32    1.28
  -2   9  -2   34.87    1.45
   2   9   2   38.25    1.83
   2   9   2   36.09    2.21
   2   9   2   40.17    1.63
   2   9   2   34.55    2.37
  -2   9  -2   36.25    2.00
   3  -9   2    0.45    0.38
  -3  -9  -2    0.16    0.81
   3  -9   2    0.45    0.44
  -3  -9  -2    0.93    0.40
  -3  -9  -2    0.62    0.33
  -3  -9  -2    0.80    0.68
  -3   9  -2    1.76    0.79
   3   9   2    0.64    1.07
   3   9   2    0.53    0.55
   3   9   2   -0.33    0.96
  -4  -9  -2    2.84    0.96
  -4  -9  -2    1.18    1.19
  -4  -9  -2    0.80    0.46
  -4  -9  -2    1.04    0.39
   4  -9   2    1.52    0.62
   4   9   2    2.22    0.98
  -4   9  -2    1.42    0.92
   4   9   2    1.62    1.48
   4   9   2    0.95    1.46
  -5  -9  -2   11.25    1.56
  -5  -9  -2   10.63    2.10
  -5  -9  -2    7.45    0.95
   5  -9   2    9.71    1.16
   5   9   2   11.23    2.51
   5   9   2    8.51    1.65
   5   9   2   13.61    1.54
   6  -9   2    6.74    1.33
  -6  -9  -2    4.96    1.03
  -6  -9  -2    8.95    2.65
  -6  -9  -2    5.62    1.55
   6   9   2    5.76    1.24
  -6 -10   2    1.57    0.97
  -6 -10   2    1.39    1.01
  -6 -10   2    2.72    2.76
  -6 -10   2   -0.59    1.48
   6 -10  -2    2.92    1.29
   6  10  -2    2.39    1.06
   6  10  -2   -0.35    2.94
  -5 -10   2    4.61    1.98
   5 -10  -2    5.88    1.07
  -5 -10   2    2.90    1.32
  -5 -10   2    3.91    0.97
  -5 -10   2    3.41    0.83
   5  10  -2    9.00    2.49
   5  10  -2    2.62    0.83
  -4 -10   2    7.63    0.95
  -4 -10   2    8.77    1.32
   4 -10  -2    7.43    1.01
  -4 -10   2    9.22    0.94
  -4 -10   2   10.81    1.82
   4  10  -2    9.57    1.08
   4  10  -2    6.07    2.00
  -4  10   2    8.91    1.43
  -3 -10   2    2.32    0.84
  -3 -10   2    1.73    1.08
  -3 -10   2    1.67    0.49
   3 -10  -2    2.04    0.57
   3 -10  -2    1.68    0.53
  -3 -10   2    2.14    0.47
  -3  10   2    0.84    0.85
   3  10  -2    1.19    1.09
  -2 -10   2    2.79    0.71
  -2 -10   2    2.33    0.41
  -2 -10   2    2.79    0.49
   2 -10  -2    2.44    0.48
   2 -10  -2    2.33    0.45
  -2 -10   2    2.49    0.87
  -2  10   2    3.51    0.86
  -2  10   2    2.74    0.48
   2  10  -2    4.28    1.19
  -2  10   2    3.17    0.38
   1 -10  -2    0.03    0.28
  -1 -10   2    0.03    0.27
  -1 -10   2    0.21    0.57
   1 -10  -2    0.10    0.32
  -1 -10   2    0.07    0.46
   1 -10  -2   -0.10    0.30
  -1 -10   2    0.22    0.28
  -1 -10   2    0.05    0.53
  -1 -10   2    0.10    0.24
  -1  10   2    0.24    0.23
  -1  10   2   -0.24    0.29
   1  10  -2   -0.22    0.78
   1  10  -2   -0.72    0.72
  -1  10   2    0.19    0.58
  -1  10   2    0.01    0.43
   0 -10   2    1.04    0.21
   0 -10  -2    1.86    0.46
   0 -10   2    0.89    0.38
   0 -10  -2    0.16    0.26
   0 -10   2    0.56    0.31
   0 -10  -2    0.67    0.18
   0 -10   2    0.74    0.27
   0 -10   2    1.49    0.65
   0 -10  -2    1.07    0.55
   0 -10   2    0.70    0.33
   0 -10  -2    0.28    0.28
   0  10   2    1.14    0.77
   0  10   2    0.79    0.45
   0  10  -2    1.50    0.67
   0  10  -2    0.51    0.68
   0  10   2    1.40    0.41
   0  10  -2    0.35    0.60
   0  10   2    1.03    0.35
  -1 -10  -2    1.67    0.55
   1 -10   2    1.56    0.41
  -1 -10  -2    1.91    0.39
  -1 -10  -2    1.39    0.32
  -1 -10  -2    2.84    0.72
   1 -10   2    0.64    0.33
  -1 -10  -2    1.31    0.48
  -1 -10  -2    1.57    0.38
  -1  10  -2    1.98    0.79
   1  10   2    1.87    0.50
   1  10   2    1.55    0.38
   1  10   2    1.18    0.57
   1  10   2    1.07    0.80
  -1  10  -2    1.37    0.69
  -1  10  -2    2.23    0.57
  -2 -10  -2   -0.04    0.75
  -2 -10  -2    1.30    0.38
  -2 -10  -2    0.99    0.59
  -2 -10  -2    1.25    0.37
   2 -10   2    1.13    0.40
  -2 -10  -2    1.29    0.35
   2  10   2    0.87    0.69
   2  10   2    1.16    0.57
   2  10   2   -0.63    0.75
  -2  10  -2    0.17    0.41
  -2  10  -2    0.73    0.78
  -2  10  -2    1.37    0.39
  -3 -10  -2    3.29    1.07
  -3 -10  -2    3.78    0.92
   3 -10   2    3.24    0.62
  -3 -10  -2    4.32    0.67
  -3 -10  -2    4.13    0.61
  -3 -10  -2    4.87    0.55
   3  10   2    3.42    0.86
   3  10   2    5.72    1.60
   3  10   2    5.03    1.43
  -3  10  -2    4.43    1.02
   4 -10   2    7.97    0.97
  -4 -10  -2    7.62    1.88
  -4 -10  -2    7.82    0.99
  -4 -10  -2    6.72    1.27
   4  10   2    7.70    2.04
  -4  10  -2    8.36    1.71
   4  10   2    7.22    2.01
   4  10   2    7.05    1.28
  -5 -10  -2    1.34    1.23
   5 -10   2    3.08    1.06
  -5 -10  -2    2.11    2.06
  -5 -10  -2    2.73    0.71
   5  10   2    1.17    1.28
   5  10   2    5.45    2.60
   5  10   2    2.26    0.91
  -6 -10  -2    1.78    0.97
   6 -10   2    3.52    1.50
  -6 -10  -2    3.63    2.81
  -6 -10  -2    4.20    1.68
   6  10   2    2.05    1.18
  -6 -11   2   15.46    2.25
  -6 -11   2   10.54    1.41
  -6 -11   2   13.19    1.47
   6  11  -2   17.81    3.58
   6  11  -2   14.60    1.58
  -5 -11   2   -3.41    2.16
  -5 -11   2    1.27    0.75
  -5 -11   2   -0.35    1.24
  -5 -11   2    0.64    0.72
   5  11  -2    2.05    0.85
   5  11  -2   -1.45    2.16
  -4 -11   2   26.38    3.23
  -4 -11   2   24.01    1.45
  -4 -11   2   27.14    2.30
  -4 -11   2   25.80    1.53
   4  11  -2   26.07    1.61
  -4  11   2   23.90    2.41
   4  11  -2   28.36    3.45
   3 -11  -2    1.63    0.57
   3 -11  -2    2.92    0.65
  -3 -11   2    2.67    0.90
  -3 -11   2    0.57    1.47
  -3 -11   2    2.70    0.58
  -3 -11   2    2.67    0.50
   3  11  -2    2.23    1.45
  -3  11   2    4.88    1.15
  -2 -11   2  245.91    7.60
  -2 -11   2  249.01    8.16
  -2 -11   2  249.60    7.93
   2 -11  -2  243.97    7.65
  -2 -11   2  253.85    7.50
   2 -11  -2  240.96    7.62
  -2  11   2  241.79    7.53
   2  11  -2  235.19    8.86
  -2  11   2  250.45    7.25
  -2  11   2  248.11    8.32
  -1 -11   2    2.08    0.35
   1 -11  -2    1.60    0.39
   1 -11  -2    0.98    0.41
  -1 -11   2    0.89    0.61
  -1 -11   2    1.38    0.41
  -1 -11   2    1.45    0.41
   1 -11  -2    1.82    0.45
  -1  11   2    1.23    0.32
   1  11  -2    0.81    1.04
  -1  11   2    0.28    0.74
  -1  11   2    0.52    0.51
  -1  11   2    1.32    0.42
   1  11  -2    0.79    0.95
   0 -11  -2  289.29    8.66
   0 -11   2  282.11    8.70
   0 -11   2  289.06    8.72
   0 -11   2  293.02    8.74
   0 -11  -2  287.23    8.62
   0 -11  -2  281.54    8.68
   0 -11   2  284.58    8.66
   0 -11  -2  288.97    8.71
   0  11  -2  288.28    9.70
   0  11   2  273.39    9.56
   0  11  -2  296.54    8.93
   0  11   2  274.71    8.76
   0  11   2  285.29    8.58
   0  11   2  293.31    9.17
   0  11  -2  284.64    9.08
  -1 -11  -2   -0.07    0.30
   1 -11   2    0.12    0.45
   1 -11   2    0.32    0.41
  -1 -11  -2   -0.58    0.58
  -1 -11  -2    0.15    0.29
  -1 -11  -2    0.30    0.37
   1  11   2   -0.76    0.67
   1  11   2   -0.80    0.43
  -1  11  -2    0.10    0.78
   1  11   2    0.30    0.90
  -1  11  -2    0.77    0.60
   1  11   2    0.39    0.37
  -1  11  -2    0.24    0.61
  -2 -11  -2   70.86    2.99
  -2 -11  -2   68.28    3.27
   2 -11   2   71.22    2.67
  -2 -11  -2   68.54    2.50
  -2 -11  -2   72.19    2.53
  -2 -11  -2   73.50    2.65
  -2  11  -2   67.46    2.60
   2  11   2   68.78    2.93
   2  11   2   73.02    3.78
  -2  11  -2   68.00    2.39
  -2  11  -2   75.20    3.39
   2  11   2   72.05    3.55
  -3 -11  -2    0.00    1.63
  -3 -11  -2    0.61    0.86
   3 -11   2    1.08    0.57
  -3 -11  -2    0.70    0.44
  -3 -11  -2    0.74    0.43
  -3 -11  -2    0.80    0.46
   3  11   2    0.80    1.28
  -3  11  -2    1.98    1.13
   3  11   2    0.00    1.39
   3  11   2    1.45    0.79
  -4 -11  -2    2.23    1.10
  -4 -11  -2    4.44    1.87
  -4 -11  -2    2.23    0.89
   4  11   2    3.33    1.88
   4  11   2    4.17    1.15
  -5 -11  -2    0.63    0.80
  -5 -11  -2    0.75    2.42
  -5 -11  -2    0.59    0.79
  -5 -11  -2    0.10    1.28
   5  11   2   -0.67    0.96
   5  11   2    1.89    1.37
   5  11   2   -0.47    2.72
  -6 -11  -2   28.94    3.41
  -6 -11  -2   27.58    2.28
   6 -11   2   31.51    3.02
  -6 -11  -2   26.57    2.18
   6  11   2   33.44    2.58
  -5 -12   2   32.32    2.89
  -5 -12   2   30.76    1.97
  -5 -12   2   30.93    2.00
   5  12  -2   31.81    2.21
   5  12  -2   35.17    4.08
  -4 -12   2    5.19    0.84
  -4 -12   2    5.38    1.15
  -4 -12   2    4.44    1.31
  -4  12   2    4.02    1.62
   4  12  -2    5.78    2.23
   4  12  -2    4.79    0.90
   3 -12  -2   20.08    1.39
  -3 -12   2   21.48    1.31
   3 -12  -2   16.84    1.39
  -3 -12   2   18.63    1.27
  -3 -12   2   17.07    1.84
   3  12  -2   18.89    2.52
  -3  12   2   21.42    2.30
  -2 -12   2    3.90    0.67
   2 -12  -2    4.83    0.70
  -2 -12   2    5.43    0.63
   2 -12  -2    5.09    0.75
  -2 -12   2    4.24    1.31
  -2 -12   2    3.64    0.96
   2  12  -2    3.14    1.38
  -2  12   2    5.18    1.17
  -2  12   2    4.00    0.49
  -2  12   2    4.09    0.71
  -1 -12   2    0.73    0.34
   1 -12  -2    0.34    0.43
  -1 -12   2    0.94    0.45
  -1 -12   2   -0.05    0.67
   1 -12  -2    1.53    0.50
   1  12  -2    1.34    1.17
  -1  12   2    1.07    0.60
  -1  12   2    1.25    0.41
  -1  12   2    0.76    1.00
   0 -12   2    0.43    0.39
   0 -12   2    1.02    0.59
   0 -12  -2    0.73    0.43
   0 -12  -2   -0.51    0.57
   0 -12   2    0.17    0.42
   0 -12  -2    0.43    0.38
   0  12  -2    1.57    0.96
   0  12   2    0.43    0.48
   0  12   2   -0.08    0.35
   0  12   2    0.00    0.98
   0  12   2   -0.74    0.56
   0  12  -2   -0.80    0.96
  -1 -12  -2   20.35    1.16
  -1 -12  -2   20.30    1.17
  -1 -12  -2   20.64    0.97
  -1 -12  -2   18.32    1.48
   1 -12   2   19.30    1.18
  -1  12  -2   20.45    1.57
   1  12   2   18.75    1.80
   1  12   2   19.33    2.11
  -1  12  -2   18.10    2.04
   1  12   2   18.91    1.43
  -2 -12  -2    5.29    1.06
   2 -12   2    5.09    0.74
  -2 -12  -2    5.38    0.66
  -2 -12  -2    4.74    0.65
  -2 -12  -2    5.32    0.67
   2  12   2    7.42    1.46
  -2  12  -2    5.81    0.84
  -2  12  -2    5.96    1.39
   2  12   2    4.17    1.52
   2  12   2    5.62    0.93
   3 -12   2   32.20    1.82
  -3 -12  -2   30.56    1.60
  -3 -12  -2   30.91    1.65
  -3 -12  -2   33.66    2.36
  -3 -12  -2   32.16    1.55
   3  12   2   34.40    3.18
  -3  12  -2   32.81    1.52
   3  12   2   29.93    2.17
   3  12   2   33.28    3.24
  -3  12  -2   33.68    2.75
  -4 -12  -2   14.91    1.31
  -4 -12  -2   14.49    1.84
  -4 -12  -2   14.73    1.36
   4  12   2   10.58    2.51
   4  12   2   14.46    1.79
  -5 -12  -2   14.60    1.64
  -5 -12  -2   16.45    2.13
  -5 -12  -2   15.69    1.71
   5  12   2   16.47    2.03
   5  12   2   17.70    3.71
  -5 -13   2    1.27    1.72
  -5 -13   2    0.39    0.92
  -5 -13   2    2.19    0.99
   5  13  -2    0.83    1.09
   5  13  -2   -0.33    2.99
  -4 -13   2    1.59    0.82
  -4 -13   2    3.41    0.82
  -4  13   2    2.73    2.02
   4  13  -2    4.15    2.34
   4  13  -2    1.04    0.92
   3 -13  -2   10.01    1.14
  -3 -13   2   10.41    1.12
  -3 -13   2   12.81    1.21
   3 -13  -2    8.65    1.06
  -3 -13   2   13.05    1.63
  -3  13   2   11.67    1.87
  -2 -13   2   12.46    1.10
   2 -13  -2   12.02    1.10
   2 -13  -2   10.72    1.13
  -2 -13   2   12.81    0.98
  -2 -13   2   10.30    1.34
   2  13  -2    9.14    1.78
  -2  13   2   11.12    1.75
   1 -13  -2   28.49    1.51
  -1 -13   2   26.04    1.90
  -1 -13   2   25.92    1.41
  -1 -13   2   25.74    1.16
   1 -13  -2   25.68    1.44
  -1  13   2   24.23    1.76
  -1  13   2   24.51    2.39
   1  13  -2   25.47    2.62
   0 -13   2   22.35    1.32
   0 -13  -2   23.20    1.34
   0 -13  -2   24.34    1.34
   0  13   2   22.91    1.82
   0  13   2   20.39    2.29
   0  13   2   20.81    1.44
   0  13  -2   23.64    2.46
  -1 -13  -2    5.49    0.73
  -1 -13  -2    6.19    0.66
  -1 -13  -2    9.07    0.89
  -1 -13  -2    7.51    1.16
   1 -13   2    6.68    0.80
   1  13   2    9.08    1.75
   1  13   2    8.37    1.30
  -1  13  -2    8.89    1.63
   1  13   2    7.91    1.01
   2 -13   2   13.98    1.20
  -2 -13  -2   15.39    1.09
  -2 -13  -2   14.36    1.80
  -2 -13  -2   14.25    1.11
  -2 -13  -2   15.72    1.21
   2  13   2   19.17    1.65
   2  13   2   16.11    1.95
   2  13   2   20.39    2.66
  -2  13  -2   15.84    2.08
  -2  13  -2   16.58    1.56
  -3 -13  -2    2.05    0.65
  -3 -13  -2    3.21    0.68
  -3 -13  -2    2.16    0.71
  -3 -13  -2    2.21    1.23
   3  13   2    0.22    0.96
  -3  13  -2   -0.60    1.59
   3  13   2    3.69    1.73
  -4 -13  -2    0.68    1.88
  -4 -13  -2    0.73    0.74
  -4 -13  -2   -0.54    0.68
   4  13   2    3.45    2.37
   4  13   2    1.00    1.24
  -5 -13  -2    1.92    1.06
  -5 -13  -2    3.00    1.79
  -5 -13  -2    3.56    1.07
   5  13   2   -2.44    3.41
   5  13   2    3.93    1.28
  -5 -14   2    8.60    2.11
  -5 -14   2   11.92    1.48
  -5 -14   2   10.25    1.41
   5  14  -2   15.10    3.69
   5  14  -2   11.63    1.59
  -4 -14   2   51.45    2.58
  -4 -14   2   55.01    2.56
  -4 -14   2   58.12    3.76
  -4  14   2   47.59    4.38
   4  14  -2   51.74    5.19
   4  14  -2   59.11    2.78
  -3 -14   2   10.41    1.12
   3 -14  -2    8.36    1.15
   3 -14  -2    7.98    1.06
  -3 -14   2    6.92    1.62
  -3  14   2    9.73    2.01
   3  14  -2    8.33    2.46
  -2 -14   2   12.22    1.10
  -2 -14   2   11.79    1.19
  -2 -14   2   12.88    1.61
   2 -14  -2   12.62    1.57
   2 -14  -2   12.23    1.32
   2  14  -2   10.08    2.81
  -2  14   2   13.77    2.10
   1 -14  -2    0.78    0.59
  -1 -14   2   -0.50    0.43
  -1 -14   2   -0.09    0.45
   1 -14  -2    0.71    0.49
  -1  14   2    0.82    0.79
  -1  14   2    0.79    1.24
   1  14  -2    1.40    1.48
   0 -14  -2   31.56    1.65
   0 -14   2   29.90    1.62
   0 -14  -2   30.29    1.66
   0  14  -2   33.27    3.08
   0  14   2   33.27    1.79
   0  14   2   31.76    2.31
   0  14   2   29.83    2.81
  -1 -14  -2   11.89    1.12
  -1 -14  -2   11.69    0.84
   1 -14   2   11.37    1.14
  -1 -14  -2   12.47    1.13
   1  14   2   10.48    1.56
   1  14   2   14.05    2.13
  -1  14  -2   11.59    1.98
   1  14   2   10.47    1.37
   2 -14   2  113.28    5.14
  -2 -14  -2  131.40    4.13
  -2 -14  -2  128.56    4.31
  -2 -14  -2  123.15    4.83
   2  14   2  124.02    5.63
  -2  14  -2  128.26    5.68
   3 -14   2   24.93    1.83
  -3 -14  -2   22.63    1.55
  -3 -14  -2   20.87    2.47
  -3 -14  -2   25.70    1.64
  -3 -14  -2   22.71    1.87
  -3  14  -2   25.01    3.38
   3  14   2   27.03    2.15
   3  14   2   25.86    3.33
  -4 -14  -2   82.98    4.30
  -4 -14  -2   83.96    3.36
  -4 -14  -2   76.21    3.25
   4  14   2   80.39    6.04
   4  14   2   73.84    4.02
  -5 -14  -2    8.61    2.30
  -5 -14  -2    5.45    1.26
  -5 -14  -2    8.87    1.40
   5  14   2    9.70    4.20
   5  14   2    6.18    1.49
  -4 -15   2    7.29    2.17
  -4 -15   2    0.94    0.96
  -4 -15   2    2.00    1.08
   4  15  -2    5.56    1.32
   4  15  -2    0.20    3.03
  -3 -15   2    5.75    1.86
  -3 -15   2    9.03    1.09
  -3 -15   2    5.12    0.96
   3 -15  -2    6.95    1.13
  -3  15   2    9.02    2.28
   3  15  -2    4.73    2.39
   2 -15  -2   -0.22    0.72
   2 -15  -2    0.41    0.69
  -2 -15   2    0.55    0.70
  -2 -15   2    1.77    0.66
   2  15  -2   -2.54    1.79
  -2  15   2    3.10    2.05
  -1 -15   2   21.07    1.44
   1 -15  -2   19.34    1.44
   1 -15  -2   18.61    2.24
  -1  15   2   19.60    2.52
   1  15  -2   20.54    2.89
   0 -15   2    4.69    0.87
   0 -15  -2    5.02    0.92
   0  15  -2    2.85    1.79
   0  15   2    6.10    1.45
   1 -15   2   17.06    1.38
  -1 -15  -2   17.22    1.38
  -1 -15  -2   17.55    1.39
   1  15   2   16.95    2.39
  -1  15  -2   18.49    2.50
   1  15   2   20.83    2.43
  -2 -15  -2    3.63    0.86
  -2 -15  -2    2.87    0.76
   2 -15   2    4.42    0.86
  -2 -15  -2    4.01    0.75
   2  15   2    3.94    1.96
  -2  15  -2    5.29    1.95
   2  15   2    3.93    1.13
   3 -15   2    1.74    0.96
  -3 -15  -2   -0.85    2.15
  -3 -15  -2    0.55    0.78
  -3 -15  -2    2.25    0.84
   3  15   2    0.14    2.37
  -3  15  -2    0.51    2.22
   3  15   2    2.35    1.21
  -4 -15  -2   -1.20    2.02
  -4 -15  -2    0.40    1.02
  -4 -15  -2   -0.01    0.99
   4  15   2   -2.92    3.15
  -4 -16   2   18.40    2.04
  -4 -16   2   15.49    1.60
   4  16  -2   19.86    1.87
   4  16  -2    8.33    3.67
  -3 -16   2    5.64    1.04
   3 -16  -2    6.14    1.32
  -3 -16   2    6.96    1.17
  -3  16   2    6.91    2.74
   3  16  -2    4.11    2.64
  -2 -16   2    7.21    1.03
   2 -16  -2    5.90    1.04
   2 -16  -2    3.98    0.94
  -2  16   2    6.12    2.34
   2  16  -2    9.02    2.64
   1 -16  -2    0.77    0.74
   1 -16  -2    0.83    0.73
  -1 -16   2   -0.01    0.69
  -1  16   2   -2.23    1.90
   1  16  -2    0.32    2.07
   0 -16  -2    6.38    0.92
   0 -16  -2    6.21    1.00
   0 -16   2    6.25    0.95
   0  16   2    5.98    2.10
   0  16  -2    8.80    2.43
  -1 -16  -2    7.17    0.99
  -1 -16  -2    5.71    0.91
   1 -16   2    6.25    0.90
   1  16   2    5.99    2.18
  -1  16  -2    6.26    2.12
  -2 -16  -2   33.38    1.97
   2 -16   2   30.48    2.01
  -2 -16  -2   29.89    1.94
   2  16   2   31.18    4.18
  -2  16  -2   32.68    3.45
  -3 -16  -2    4.78    1.13
  -3 -16  -2    3.30    0.97
   3 -16   2    3.67    1.18
   3  16   2    1.73    2.79
  -4 -16  -2   24.10    2.23
  -4 -16  -2   20.57    2.14
   4  16   2   16.64    4.21
  -3 -17   2   18.03    2.01
   3 -17  -2   19.00    2.29
   3  17  -2   18.23    3.81
  -3  17   2   25.41    3.87
   2 -17  -2   45.63    2.56
  -2 -17   2   37.19    2.36
  -2  17   2   40.71    4.88
   2  17  -2   35.60    4.88
   1 -17  -2   43.20    2.38
  -1 -17   2   41.01    2.29
   1 -17  -2   46.29    2.43
   1  17  -2   36.41    4.64
  -1  17   2   50.77    4.56
   0 -17   2   47.32    2.46
   0 -17  -2   50.28    2.49
   0 -17  -2   48.36    2.51
   0  17   2   45.57    4.49
   0  17  -2   51.48    4.66
  -1 -17  -2   17.68    1.78
   1 -17   2   18.29    1.75
  -1 -17  -2   19.22    1.75
  -1  17  -2   20.82    3.31
   1  17   2   20.48    3.14
  -2 -17  -2    9.45    1.23
   2 -17   2    6.62    1.16
  -2  17  -2    6.44    3.13
   2  17   2    3.66    2.68
   3 -17   2    6.16    1.49
  -3 -17  -2    1.69    1.10
   3  17   2   -0.52    3.29
   2 -18  -2    2.08    1.20
  -2 -18   2   -1.71    1.03
  -2  18   2   -4.13    3.15
   2  18  -2   -1.74    2.98
  -1 -18   2    1.93    0.98
   1 -18  -2    0.89    1.14
   1  18  -2   -5.11    2.80
  -1  18   2   -2.24    2.63
   0 -18   2    2.43    0.94
   0 -18  -2    0.53    0.95
   0  18   2   -1.20    2.72
   0  18  -2    4.43    2.91
   1 -18   2    0.47    1.09
  -1 -18  -2    1.69    1.01
  -1  18  -2    3.83    3.19
   1  18   2   -3.34    2.76
  -2 -18  -2    1.52    1.08
   2 -18   2   -0.47    1.17
  -2  18  -2   -1.32    3.43
   2  18   2    3.60    3.21
   7   0  -3    1.18    0.97
  -7   0   3    2.19    1.43
  -7   0   3    3.63    1.11
  -7   0   3    3.03    1.24
  -6   0   3    0.18    0.63
  -6   0   3    0.82    0.76
   5   0  -3    9.92    0.96
  -5   0   3   10.95    1.08
  -5   0   3   11.37    0.88
  -5   0   3    9.78    1.33
   4   0  -3    0.71    0.33
  -4   0   3   -0.21    0.25
  -4   0   3   -0.22    0.43
  -4   0   3   -0.01    0.57
  -4   0   3   -1.08    0.66
  -4   0   3    0.03    0.39
  -3   0   3    0.33    0.27
   3   0  -3    0.48    0.23
  -3   0   3    0.28    0.31
  -3   0   3    0.78    0.48
  -3   0   3    0.89    0.22
  -3   0   3    0.28    0.34
  -3   0   3    0.90    0.70
   2   0  -3   -0.02    0.12
   2   0  -3    0.15    0.24
  -2   0   3    0.49    0.23
   2   0  -3    0.08    0.26
   2   0  -3    0.19    0.13
  -2   0   3    0.08    0.10
  -2   0   3    0.80    0.42
  -2   0   3    0.02    0.18
   2   0  -3    0.37    0.28
  -2   0   3    0.27    0.20
   2   0  -3    0.04    0.07
  -2   0   3    0.00    0.15
   1   0  -3   20.86    0.72
  -1   0   3   19.98    0.78
   1   0  -3   20.29    0.70
   1   0  -3   20.04    0.82
  -1   0   3   22.23    0.98
  -1   0   3   19.89    0.83
   1   0  -3   22.10    0.95
   1   0  -3   20.45    0.78
  -1   0   3   20.88    0.71
  -1   0   3   20.94    0.72
   0   0   3    0.01    0.06
   0   0  -3   -0.10    0.09
   0   0  -3    0.21    0.08
   0   0  -3   -0.33    0.13
   0   0   3    0.03    0.09
   0   0   3    0.06    0.12
   1   0   3   49.46    1.72
  -1   0  -3   51.53    1.63
  -1   0  -3   47.48    1.81
  -1   0  -3   52.50    1.56
   1   0   3   48.12    1.62
   1   0   3   50.20    1.55
  -2   0  -3    0.16    0.17
  -2   0  -3    0.03    0.20
   2   0   3   -0.08    0.11
   2   0   3    0.06    0.17
   2   0   3    0.25    0.27
   2   0   3    0.33    0.18
  -3   0  -3   24.13    1.38
  -3   0  -3   24.29    1.28
  -3   0  -3   25.64    1.21
   3   0   3   25.37    1.15
  -3   0  -3   25.63    0.95
   3   0   3   24.85    1.09
  -4   0  -3    0.33    0.45
  -4   0  -3    0.10    0.48
  -4   0  -3    0.08    0.60
  -4   0  -3    0.28    0.74
  -4   0  -3    0.17    0.26
   4   0   3   -0.47    0.42
   4   0   3    0.12    0.30
   5   0   3    1.33    0.53
  -5   0  -3    0.72    0.46
  -5   0  -3   -0.27    0.66
  -5   0  -3    2.17    0.65
   5   0   3    1.40    0.80
  -6   0  -3   -0.69    0.93
  -6   0  -3   -0.02    0.70
   6   0   3    0.14    0.70
  -7   0  -3    5.28    1.47
  -7   0  -3    9.55    1.32
  -7   0  -3    7.71    1.83
   7   0   3    6.26    1.20
  -7  -1   3   35.13    2.60
  -7  -1   3   27.24    3.03
   7  -1  -3   32.10    2.14
  -7  -1   3   29.83    2.20
  -7   1   3   26.94    2.34
   7   1  -3   33.37    2.12
  -7   1   3   25.91    2.84
  -6  -1   3    4.20    1.00
  -6  -1   3    4.84    0.83
  -6   1   3    5.80    0.99
  -6   1   3    6.56    0.86
  -5  -1   3   33.21    2.07
  -5  -1   3   32.63    1.80
   5  -1  -3   33.76    1.63
  -5  -1   3   32.24    1.50
   5   1  -3   34.93    1.64
  -5   1   3   32.60    1.46
  -5   1   3   33.30    1.69
  -5   1   3   34.35    1.98
  -4  -1   3    0.21    0.75
  -4  -1   3    0.72    0.39
  -4  -1   3   -0.34    0.24
  -4  -1   3    0.21    0.60
  -4  -1   3   -0.02    0.46
   4  -1  -3   -0.10    0.30
  -4   1   3    0.05    0.39
  -4   1   3   -0.07    0.59
   4   1  -3    0.19    0.27
  -4   1   3   -0.27    0.25
  -4   1   3    0.28    0.48
  -4   1   3    0.14    0.33
  -3  -1   3    8.54    0.99
   3  -1  -3    8.38    0.59
   3  -1  -3    8.71    0.38
  -3  -1   3    8.05    0.53
  -3  -1   3    6.89    0.67
  -3  -1   3    9.22    0.77
  -3  -1   3    8.69    0.81
  -3  -1   3    8.30    1.11
  -3   1   3    8.00    0.70
  -3   1   3    9.85    1.03
   3   1  -3    8.14    0.58
  -3   1   3    8.76    0.54
  -3   1   3    6.99    0.82
  -3   1   3    8.06    0.64
  -3   1   3    7.99    0.48
   3   1  -3    8.88    0.96
  -2  -1   3   11.84    0.60
  -2  -1   3   12.43    1.00
  -2  -1   3   10.51    0.70
  -2  -1   3   11.98    0.70
  -2  -1   3   11.25    0.64
   2  -1  -3   11.48    0.60
   2  -1  -3   11.97    0.46
   2  -1  -3   12.05    0.63
  -2  -1   3   11.17    0.53
   2  -1  -3   12.31    0.58
  -2   1   3   11.91    0.49
  -2   1   3   12.00    0.60
   2   1  -3   11.92    0.70
   2   1  -3   11.64    0.76
  -2   1   3   12.72    0.48
   2   1  -3   12.13    0.54
  -2   1   3   11.91    0.65
   2   1  -3   11.35    0.55
   2   1  -3   11.37    0.39
  -2   1   3   10.84    0.57
   2   1  -3   11.39    0.84
  -2   1   3   11.70    0.88
  -1  -1   3  546.41   16.41
  -1  -1   3  612.59   16.65
   1  -1  -3  579.88   16.38
  -1  -1   3  544.71   16.47
   1  -1  -3  584.02   16.35
  -1  -1   3  542.27   16.32
   1   1  -3  576.97   16.42
  -1   1   3  550.32   16.40
   1   1  -3  598.36   16.33
   1   1  -3  529.85   16.30
  -1   1   3  582.94   16.34
  -1   1   3  558.60   16.35
   1   1  -3  586.47   16.61
   1   1  -3  578.65   16.48
   0  -1   3  143.14    4.22
   0  -1   3  140.47    4.17
   0  -1   3  137.72    4.26
   0  -1  -3  142.38    4.25
   0  -1   3  144.62    4.41
   0  -1  -3  154.41    4.33
   0  -1  -3  157.22    4.42
   0  -1   3  138.77    4.32
   0  -1   3  154.56    4.41
   0   1   3  141.39    4.31
   0   1  -3  145.16    4.26
   0   1  -3  143.15    4.33
   0   1   3  153.37    4.42
   0   1  -3  148.40    4.22
   0   1   3  140.64    4.25
   0   1  -3  145.78    4.38
  -1  -1  -3  723.44   20.61
   1  -1   3  710.48   20.52
  -1  -1  -3  747.59   20.82
  -1  -1  -3  747.98   20.70
  -1   1  -3  714.79   20.73
   1   1   3  713.34   20.65
  -1   1  -3  726.18   20.66
   1   1   3  750.02   20.84
  -1   1  -3  692.83   20.62
   1   1   3  671.12   20.68
  -2  -1  -3  185.89    5.62
   2  -1   3  171.81    5.31
  -2  -1  -3  167.72    5.50
   2  -1   3  172.59    5.23
   2  -1   3  170.14    5.35
   2  -1   3  178.76    5.47
  -2  -1  -3  187.97    5.44
  -2  -1  -3  182.48    5.31
  -2   1  -3  186.86    5.27
  -2   1  -3  182.02    5.51
   2   1   3  169.36    5.30
   2   1   3  175.70    5.41
   2   1   3  177.65    5.44
  -2   1  -3  188.62    5.38
   2   1   3  181.93    5.63
  -3  -1  -3  165.71    5.45
  -3  -1  -3  170.24    5.36
  -3  -1  -3  179.04    5.20
   3  -1   3  167.07    5.23
  -3  -1  -3  175.27    5.65
   3  -1   3  171.79    5.27
   3   1   3  168.65    5.37
   3   1   3  166.73    5.26
  -3   1  -3  174.33    5.50
   3   1   3  168.78    5.57
  -3   1  -3  180.82    5.30
  -3   1  -3  164.20    5.37
   3   1   3  166.12    5.26
  -3   1  -3  175.46    5.10
   4  -1   3    9.00    0.90
  -4  -1  -3   10.19    0.53
  -4  -1  -3    9.81    0.88
  -4  -1  -3   10.68    1.32
  -4  -1  -3   10.23    0.99
  -4  -1  -3    9.61    0.73
   4  -1   3    9.19    0.77
  -4  -1  -3   10.86    1.15
  -4   1  -3   10.01    1.28
  -4   1  -3   10.26    0.92
   4   1   3   11.07    1.00
  -4   1  -3   10.83    0.66
   4   1   3    8.28    0.86
   4   1   3    9.44    0.82
  -4   1  -3   11.04    1.07
  -4   1  -3   12.36    1.13
  -5  -1  -3    0.28    0.63
   5  -1   3   -0.84    0.75
  -5  -1  -3   -0.39    0.71
   5  -1   3    0.89    0.50
  -5  -1  -3    0.41    0.45
   5   1   3    0.01    0.83
  -5   1  -3    0.44    0.44
   5   1   3    0.71    0.52
  -5   1  -3   -0.23    0.54
  -5   1  -3    0.96    0.73
  -6  -1  -3    1.05    1.09
  -6  -1  -3    2.01    0.97
  -6  -1  -3    2.91    0.78
   6  -1   3    0.82    0.96
  -6   1  -3    4.05    1.10
   6   1   3    2.98    0.81
  -6   1  -3    2.06    0.78
  -6   1  -3    1.13    0.91
  -7  -1  -3   22.15    2.25
  -7  -1  -3   25.44    3.05
   7  -1   3   25.48    2.08
  -7  -1  -3   26.05    2.59
  -7   1  -3   27.28    2.54
   7   1   3   27.06    2.25
  -7   1  -3   30.25    2.94
   7  -2  -3    2.83    0.96
  -7  -2   3    1.37    1.31
  -7  -2   3    3.46    1.09
  -7  -2   3    1.96    1.58
  -7   2   3    2.92    1.36
  -7   2   3    4.00    1.18
   7   2  -3    2.67    0.92
   6  -2  -3    8.93    1.45
  -6  -2   3    8.16    1.52
  -6  -2   3    9.26    1.03
  -6   2   3    9.53    1.01
   6   2  -3    8.86    1.40
  -6   2   3    7.81    1.03
  -5  -2   3   72.58    2.95
  -5  -2   3   71.69    3.23
  -5  -2   3   66.68    2.55
   5  -2  -3   67.57    2.64
   5   2  -3   69.04    2.68
  -5   2   3   72.37    2.48
  -5   2   3   68.07    2.66
  -5   2   3   68.41    2.92
  -4  -2   3   70.83    2.97
   4  -2  -3   70.93    2.57
  -4  -2   3   74.24    2.81
  -4  -2   3   73.94    3.28
  -4  -2   3   71.94    2.51
  -4   2   3   69.36    2.39
   4   2  -3   73.94    2.58
  -4   2   3   77.00    2.61
   4   2  -3   72.74    3.04
  -4   2   3   76.47    2.77
  -4   2   3   69.05    2.83
  -4   2   3   70.72    2.55
   3  -2  -3  276.75    8.35
   3  -2  -3  282.09    8.23
  -3  -2   3  257.46    8.43
  -3  -2   3  278.01    8.77
  -3  -2   3  307.63    8.95
  -3  -2   3  277.56    8.62
  -3  -2   3  287.14    8.61
   3  -2  -3  287.26    8.46
  -3   2   3  295.52    8.24
  -3   2   3  275.27    8.40
  -3   2   3  277.57    8.78
  -3   2   3  277.86    8.27
  -3   2   3  302.38    8.42
   3   2  -3  283.74    8.91
  -3   2   3  297.88    8.32
  -3   2   3  275.98    8.52
   3   2  -3  280.33    8.43
   2  -2  -3  199.24    5.85
  -2  -2   3  200.43    6.30
  -2  -2   3  209.18    6.10
  -2  -2   3  196.76    6.20
  -2  -2   3  191.81    5.93
   2  -2  -3  196.28    5.96
  -2  -2   3  192.57    6.08
  -2  -2   3  211.22    6.46
   2  -2  -3  205.10    5.88
   2   2  -3  200.18    6.10
  -2   2   3  193.01    5.82
  -2   2   3  210.79    5.86
   2   2  -3  208.45    6.20
  -2   2   3  217.96    5.85
  -2   2   3  201.38    5.96
  -2   2   3  189.98    5.96
   2   2  -3  185.00    5.76
   2   2  -3  206.53    5.93
  -2   2   3  207.68    6.22
   2   2  -3  197.63    6.34
  -2   2   3  191.61    5.91
   2   2  -3  193.69    5.93
   1  -2  -3  228.18    6.82
  -1  -2   3  230.07    6.95
  -1  -2   3  237.69    6.84
   1  -2  -3  224.07    6.72
  -1  -2   3  225.86    7.01
  -1  -2   3  223.34    6.77
   1  -2  -3  236.90    6.82
   1  -2  -3  240.51    6.82
  -1  -2   3  262.64    7.26
   1  -2  -3  229.81    6.76
   1  -2  -3  229.82    6.87
  -1   2   3  238.69    6.86
   1   2  -3  237.49    7.18
  -1   2   3  219.38    6.76
  -1   2   3  224.94    6.83
   1   2  -3  252.01    6.85
   1   2  -3  227.93    6.79
   1   2  -3  250.13    7.05
   1   2  -3  246.60    6.97
  -1   2   3  240.22    6.82
  -1   2   3  225.55    6.88
  -1   2   3  236.94    6.76
   0  -2   3    4.41    0.24
   0  -2  -3    4.48    0.31
   0  -2  -3    4.47    0.25
   0  -2   3    4.86    0.38
   0  -2   3    4.79    0.31
   0  -2  -3    4.49    0.26
   0  -2   3    4.20    0.48
   0  -2   3    4.70    0.26
   0  -2  -3    5.12    0.39
   0   2   3    4.27    0.24
   0   2  -3    4.70    0.32
   0   2  -3    4.91    0.26
   0   2   3    4.54    0.36
   0   2  -3    4.95    0.45
   0   2  -3    4.17    0.38
   0   2   3    4.70    0.29
   0   2  -3    4.67    0.26
  -1  -2  -3    1.34    0.19
   1  -2   3    1.14    0.21
   1  -2   3    1.15    0.14
  -1  -2  -3    0.56    0.25
   1  -2   3    1.13    0.14
   1  -2   3    0.96    0.16
   1  -2   3    1.08    0.15
  -1  -2  -3    0.69    0.22
  -1   2  -3    1.46    0.25
   1   2   3    1.04    0.17
   1   2   3    0.83    0.27
   1   2   3    0.87    0.19
  -1   2  -3    1.04    0.18
  -1   2  -3    1.31    0.20
  -1   2  -3    1.03    0.13
   1   2   3    1.23    0.23
   2  -2   3  117.22    3.65
  -2  -2  -3  116.81    3.68
   2  -2   3  119.52    3.67
  -2  -2  -3  111.79    3.88
  -2  -2  -3  131.35    4.06
   2  -2   3  124.11    3.74
   2   2   3  115.44    4.02
   2   2   3  118.01    3.70
  -2   2  -3  120.87    3.81
  -2   2  -3  123.88    3.60
  -2   2  -3  123.75    3.67
  -2   2  -3  126.79    3.73
   2   2   3  118.67    3.88
   2   2   3  120.71    3.84
  -2   2  -3  122.08    3.69
   3  -2   3   58.94    2.05
  -3  -2  -3   61.85    2.47
  -3  -2  -3   60.97    2.16
  -3  -2  -3   55.20    2.27
  -3  -2  -3   64.32    2.59
  -3  -2  -3   58.96    2.25
   3  -2   3   59.35    2.13
   3  -2   3   61.01    2.05
   3   2   3   58.83    2.30
  -3   2  -3   60.89    1.98
   3   2   3   58.21    2.24
  -3   2  -3   58.77    2.26
  -3   2  -3   57.55    2.15
  -3   2  -3   61.74    2.09
   3   2   3   57.31    2.48
  -4  -2  -3  122.57    3.35
  -4  -2  -3  113.63    3.33
  -4  -2  -3  114.30    4.09
  -4  -2  -3  111.55    3.77
  -4  -2  -3  103.01    4.18
   4  -2   3  111.79    3.69
  -4  -2  -3  113.03    3.72
  -4  -2  -3  115.29    4.46
   4  -2   3  116.60    3.74
  -4   2  -3  109.40    4.03
  -4   2  -3  119.26    3.80
  -4   2  -3  116.16    3.53
   4   2   3  110.62    3.78
  -4   2  -3  106.15    3.82
   4   2   3  112.98    4.34
   4   2   3  113.59    3.87
   4   2   3  111.00    3.97
  -5  -2  -3   55.01    2.22
  -5  -2  -3   56.28    2.63
  -5  -2  -3   56.64    2.94
   5  -2   3   54.32    2.25
   5   2   3   55.64    2.33
  -5   2  -3   55.23    2.39
   5   2   3   55.07    2.62
  -5   2  -3   52.58    2.61
  -5   2  -3   54.89    2.14
  -6  -2  -3   39.08    2.02
   6  -2   3   32.94    2.43
  -6  -2  -3   40.45    2.42
  -6  -2  -3   33.17    2.74
  -6   2  -3   36.98    1.95
   6   2   3   38.44    2.08
  -6   2  -3   39.53    2.47
  -6   2  -3   35.46    2.17
  -7  -2  -3   10.41    2.03
  -7  -2  -3   15.82    1.99
   7  -2   3   16.84    1.94
  -7  -2  -3   15.63    2.01
  -7   2  -3   13.00    2.01
  -7   2  -3   15.94    1.80
   7   2   3   20.89    2.05
  -7  -3   3    3.18    1.37
  -7  -3   3    2.13    1.04
  -7  -3   3    1.01    1.62
   7  -3  -3    1.70    0.95
  -7   3   3    2.46    1.40
  -7   3   3    0.59    1.13
   7   3  -3    3.22    1.02
  -6  -3   3    7.01    1.25
  -6  -3   3    5.87    1.81
   6  -3  -3    8.11    1.02
  -6  -3   3    7.40    0.96
  -6   3   3    6.75    1.29
  -6   3   3    8.34    0.95
  -6   3   3    6.89    1.01
   6   3  -3    7.59    0.98
  -5  -3   3    3.35    0.84
   5  -3  -3    3.24    0.58
  -5  -3   3    5.51    0.69
  -5  -3   3    1.83    0.88
   5   3  -3    3.32    1.19
  -5   3   3    3.69    0.56
   5   3  -3    3.07    0.62
  -5   3   3    3.20    0.73
  -5   3   3    3.37    0.64
  -5   3   3    3.79    1.04
  -4  -3   3    1.69    1.05
  -4  -3   3    2.66    0.63
   4  -3  -3    1.76    0.40
  -4  -3   3    1.74    0.63
  -4  -3   3    1.73    0.38
  -4   3   3    1.86    0.53
  -4   3   3    1.77    0.40
  -4   3   3    1.63    0.45
   4   3  -3    1.41    0.82
  -4   3   3    2.06    0.58
   4   3  -3    1.16    0.42
  -4   3   3    1.75    0.32
  -3  -3   3    3.59    0.72
  -3  -3   3    5.25    0.62
   3  -3  -3    5.04    0.38
  -3  -3   3    3.90    0.63
  -3  -3   3    4.67    0.46
   3  -3  -3    4.62    0.49
  -3   3   3    4.37    0.45
  -3   3   3    4.44    0.43
  -3   3   3    5.81    0.85
  -3   3   3    4.85    0.47
  -3   3   3    5.60    0.51
   3   3  -3    4.66    0.48
  -3   3   3    4.30    0.50
   3   3  -3    3.96    0.80
  -3   3   3    4.99    0.34
  -2  -3   3   40.26    1.63
  -2  -3   3   45.99    2.07
   2  -3  -3   44.60    1.42
   2  -3  -3   42.93    1.43
  -2  -3   3   43.38    1.68
  -2  -3   3   45.10    1.51
   2  -3  -3   43.93    1.52
   2  -3  -3   43.22    1.36
  -2  -3   3   45.22    1.90
  -2  -3   3   39.82    1.74
  -2   3   3   40.65    1.46
   2   3  -3   43.55    1.51
  -2   3   3   43.50    1.33
  -2   3   3   43.81    1.47
  -2   3   3   41.15    1.51
   2   3  -3   40.87    1.77
   2   3  -3   44.53    1.32
   2   3  -3   41.38    1.68
  -2   3   3   43.16    1.41
  -2   3   3   45.26    1.41
   2   3  -3   41.76    1.47
   2   3  -3   46.51    2.00
   1  -3  -3   10.56    0.44
  -1  -3   3   10.01    0.62
   1  -3  -3   11.55    0.46
  -1  -3   3   12.28    0.91
  -1  -3   3   11.08    0.59
  -1  -3   3   11.11    0.67
   1  -3  -3   10.71    0.48
   1  -3  -3   10.26    0.41
  -1  -3   3   10.13    0.45
   1   3  -3   11.39    0.51
   1   3  -3   11.28    0.63
  -1   3   3   12.05    0.50
  -1   3   3   10.72    0.46
  -1   3   3   10.96    0.40
  -1   3   3   11.47    0.53
   1   3  -3   11.19    0.46
   1   3  -3   10.54    0.82
  -1   3   3   10.95    0.44
   1   3  -3   10.44    0.67
   0  -3   3   85.11    2.87
   0  -3  -3   85.26    2.63
   0  -3   3   83.74    2.69
   0  -3  -3   89.93    2.76
   0  -3  -3   85.64    2.66
   0  -3   3   89.14    2.79
   0  -3  -3   89.27    2.59
   0  -3   3   83.00    2.60
   0  -3   3   84.03    2.62
   0   3   3   83.88    2.67
   0   3  -3   87.18    2.78
   0   3   3   85.52    2.60
   0   3  -3   92.90    2.62
   0   3   3   88.44    2.64
   0   3   3   85.78    2.77
   0   3  -3   89.87    2.63
   0   3  -3   90.82    2.71
   0   3  -3   82.88    2.88
   1  -3   3    0.90    0.22
   1  -3   3    0.89    0.16
  -1  -3  -3    1.24    0.27
   1  -3   3    1.21    0.15
  -1  -3  -3    1.34    0.26
  -1  -3  -3    1.12    0.34
   1  -3   3    1.27    0.12
  -1  -3  -3    0.85    0.14
   1  -3   3    1.26    0.18
  -1  -3  -3    1.54    0.22
   1   3   3    0.67    0.26
  -1   3  -3    1.33    0.16
  -1   3  -3    1.00    0.23
   1   3   3    1.39    0.19
   1   3   3    1.25    0.30
   1   3   3    0.96    0.22
  -1   3  -3    1.30    0.16
  -1   3  -3    0.89    0.22
  -1   3  -3    1.39    0.21
  -1   3  -3    1.01    0.18
  -1   3  -3    1.49    0.21
  -2  -3  -3   37.58    1.47
   2  -3   3   36.49    1.20
   2  -3   3   34.64    1.20
  -2  -3  -3   35.85    1.51
  -2  -3  -3   32.72    1.56
  -2  -3  -3   36.27    1.17
   2  -3   3   35.32    1.23
  -2  -3  -3   33.51    1.63
   2   3   3   33.95    1.64
   2   3   3   34.65    1.44
  -2   3  -3   36.76    1.16
  -2   3  -3   36.27    1.28
  -2   3  -3   37.29    1.26
  -2   3  -3   34.58    1.33
   2   3   3   32.26    1.53
   3  -3   3    6.20    0.56
  -3  -3  -3    5.03    0.74
  -3  -3  -3    6.61    0.86
   3  -3   3    7.01    0.54
  -3  -3  -3    6.87    0.56
  -3  -3  -3    6.77    0.97
  -3  -3  -3    7.13    0.36
  -3   3  -3    7.25    0.71
  -3   3  -3    7.23    0.60
   3   3   3    7.67    0.79
   3   3   3    6.49    0.55
  -3   3  -3    7.72    0.60
   3   3   3    6.95    0.92
   3   3   3    7.08    0.88
  -3   3  -3    6.28    0.61
  -3   3  -3    7.96    0.52
   4  -3   3   -0.08    0.31
  -4  -3  -3    1.01    0.36
  -4  -3  -3    0.06    0.50
  -4  -3  -3   -0.49    0.53
  -4  -3  -3    0.80    0.72
  -4  -3  -3   -0.43    1.06
  -4  -3  -3    0.21    0.14
   4   3   3   -0.23    0.69
  -4   3  -3   -0.07    0.38
   4   3   3    0.18    0.39
  -4   3  -3   -0.56    0.47
   4   3   3   -0.04    0.55
  -4   3  -3    0.05    0.53
   4   3   3   -0.42    0.81
  -5  -3  -3    4.87    0.97
   5  -3   3    6.31    0.83
  -5  -3  -3    6.94    1.22
  -5  -3  -3    5.13    0.76
  -5   3  -3    5.45    0.81
  -5   3  -3    5.94    0.69
  -5   3  -3    5.26    0.94
   5   3   3    5.03    1.06
   5   3   3    5.14    0.77
  -6  -3  -3    2.12    1.27
  -6  -3  -3    2.07    0.77
   6  -3   3    2.29    0.90
  -6  -3  -3    1.91    1.02
  -6   3  -3    3.61    0.89
  -6   3  -3    2.25    0.86
  -6   3  -3    1.69    0.99
   6   3   3    1.61    0.83
  -7  -3  -3   -0.21    1.36
  -7  -3  -3    1.98    1.83
   7  -3   3    0.66    0.96
  -7  -3  -3   -0.66    1.15
   7   3   3    2.56    1.11
  -7   3  -3    0.35    1.38
  -7   3  -3   -0.69    1.22
  -7  -4   3   11.11    1.43
  -7  -4   3   12.24    1.85
  -7  -4   3   12.15    2.28
   7  -4  -3   10.79    1.39
  -7   4   3   10.79    1.69
   7   4  -3   12.83    1.52
  -7   4   3   13.94    1.49
  -6  -4   3    0.49    0.88
  -6  -4   3    0.47    1.23
   6  -4  -3   -0.08    0.72
  -6  -4   3    0.79    0.71
  -6   4   3    0.41    0.86
   6   4  -3    0.06    0.62
  -6   4   3   -0.79    0.65
   5  -4  -3  161.86    5.29
  -5  -4   3  169.12    5.26
  -5  -4   3  166.94    6.03
  -5  -4   3  160.68    5.65
  -5   4   3  157.86    5.36
  -5   4   3  142.06    5.07
  -5   4   3  160.67    5.09
   5   4  -3  161.37    5.27
   5   4  -3  159.79    6.01
  -5   4   3  159.31    5.49
   4  -4  -3    3.66    0.54
  -4  -4   3    3.66    0.71
  -4  -4   3    2.93    0.79
  -4  -4   3    3.38    0.51
  -4   4   3    3.83    0.56
  -4   4   3    3.42    0.37
  -4   4   3    3.93    0.61
   4   4  -3    2.42    0.89
  -4   4   3    3.01    0.43
  -4   4   3    2.89    0.46
   4   4  -3    2.83    0.49
   3  -4  -3  419.88   12.59
   3  -4  -3  415.54   12.43
  -3  -4   3  421.08   12.57
  -3  -4   3  436.51   13.17
  -3  -4   3  430.64   12.85
  -3  -4   3  428.95   13.02
   3   4  -3  428.04   13.23
  -3   4   3  430.71   12.47
  -3   4   3  430.65   12.51
  -3   4   3  411.71   12.39
  -3   4   3  438.95   12.45
   3   4  -3  433.60   12.57
  -3   4   3  419.27   12.32
  -3   4   3  446.36   12.41
   2  -4  -3    1.97    0.26
   2  -4  -3    1.62    0.23
  -2  -4   3    1.41    0.27
  -2  -4   3    1.42    0.42
  -2  -4   3    1.34    0.43
  -2  -4   3    2.00    0.39
  -2  -4   3    1.92    0.58
   2  -4  -3    2.19    0.33
  -2   4   3    1.74    0.20
  -2   4   3    1.83    0.25
   2   4  -3    1.67    0.25
   2   4  -3    1.88    0.59
  -2   4   3    1.32    0.25
  -2   4   3    1.42    0.15
  -2   4   3    1.91    0.24
   2   4  -3    2.09    0.53
   2   4  -3    1.79    0.21
  -1  -4   3  508.09   15.71
  -1  -4   3  568.08   15.89
   1  -4  -3  530.53   15.73
   1  -4  -3  518.46   15.80
  -1  -4   3  563.38   15.89
  -1  -4   3  526.64   15.96
   1  -4  -3  520.54   15.69
  -1  -4   3  582.04   16.24
   1  -4  -3  541.29   15.65
  -1  -4   3  502.89   15.68
  -1  -4   3  587.96   16.10
  -1   4   3  495.62   15.60
  -1   4   3  530.65   15.66
  -1   4   3  560.90   15.74
  -1   4   3  540.05   15.78
   1   4  -3  564.04   16.26
  -1   4   3  492.71   15.74
   1   4  -3  599.62   15.93
   1   4  -3  586.42   16.02
   1   4  -3  571.95   15.70
   1   4  -3  583.46   15.75
  -1   4   3  535.95   15.67
   0  -4   3    1.34    0.40
   0  -4  -3    1.40    0.19
   0  -4  -3    1.59    0.18
   0  -4  -3    1.68    0.23
   0  -4  -3    1.27    0.16
   0  -4   3    1.83    0.35
   0  -4   3    1.67    0.26
   0  -4   3    1.75    0.41
   0  -4   3    1.65    0.20
   0  -4  -3    1.56    0.22
   0  -4   3    1.48    0.18
   0  -4  -3    1.53    0.28
   0  -4   3    1.44    0.22
   0  -4  -3    1.44    0.24
   0   4   3    1.24    0.26
   0   4  -3    1.21    0.19
   0   4  -3    1.97    0.42
   0   4   3    2.20    0.26
   0   4  -3    1.48    0.26
   0   4  -3    1.18    0.18
   0   4   3    1.04    0.15
   0   4  -3    1.27    0.24
   0   4   3    1.52    0.22
   0   4  -3    1.93    0.22
   1  -4   3   42.25    1.50
   1  -4   3   44.45    1.40
  -1  -4  -3   43.12    1.71
  -1  -4  -3   42.09    1.40
   1  -4   3   42.99    1.34
  -1  -4  -3   44.29    1.43
   1  -4   3   42.29    1.46
  -1  -4  -3   41.46    1.43
  -1  -4  -3   43.02    1.61
  -1  -4  -3   41.82    1.67
   1  -4   3   42.52    1.41
  -1  -4  -3   42.80    1.55
   1   4   3   42.75    1.73
  -1   4  -3   41.33    1.57
  -1   4  -3   43.09    1.47
   1   4   3   39.46    1.54
   1   4   3   41.78    1.70
  -1   4  -3   39.23    1.49
  -1   4  -3   44.05    1.33
  -1   4  -3   43.06    1.43
  -1   4  -3   43.29    1.35
   1   4   3   40.21    1.43
  -1   4  -3   44.41    1.46
  -2  -4  -3   11.53    0.81
  -2  -4  -3   11.62    0.52
   2  -4   3   11.48    0.57
  -2  -4  -3   11.31    1.09
   2  -4   3   11.66    0.51
  -2  -4  -3   11.05    0.92
  -2   4  -3   11.74    0.67
   2   4   3   11.21    0.95
  -2   4  -3   12.62    0.50
  -2   4  -3   11.87    0.59
  -2   4  -3   11.93    0.62
  -2   4  -3   11.79    0.66
   2   4   3   11.34    1.00
   2   4   3   11.31    0.80
  -2   4  -3   11.52    0.59
  -3  -4  -3  173.09    5.88
   3  -4   3  170.48    5.22
  -3  -4  -3  176.24    5.31
   3  -4   3  173.71    5.06
  -3  -4  -3  170.32    5.53
  -3  -4  -3  175.37    5.64
  -3  -4  -3  165.35    5.73
  -3  -4  -3  168.54    5.02
   3   4   3  171.62    5.88
  -3   4  -3  162.59    5.26
   3   4   3  163.15    5.75
   3   4   3  178.14    5.58
   3   4   3  164.31    5.29
  -3   4  -3  181.32    5.19
  -3   4  -3  167.70    5.07
  -3   4  -3  173.28    5.34
  -4  -4  -3   10.86    0.86
   4  -4   3   11.54    0.87
  -4  -4  -3   12.67    1.39
  -4  -4  -3   11.95    1.16
  -4   4  -3   11.44    1.02
  -4   4  -3   11.73    1.09
   4   4   3   10.53    0.92
   4   4   3   14.24    1.59
  -4   4  -3   12.47    0.89
   4   4   3   12.17    1.63
   4   4   3   12.13    1.22
  -5  -4  -3  171.09    6.02
  -5  -4  -3  171.01    6.34
   5  -4   3  171.79    5.51
  -5  -4  -3  173.76    5.57
  -5   4  -3  162.35    5.76
   5   4   3  166.81    5.95
   5   4   3  172.15    5.62
   5   4   3  165.29    5.95
  -5   4  -3  164.36    5.49
   6  -4   3    0.83    0.74
  -6  -4  -3    3.40    1.13
  -6  -4  -3    1.16    1.31
  -6  -4  -3    1.14    0.73
  -6   4  -3   -0.32    0.90
   6   4   3   -0.48    0.70
  -6   4  -3    0.36    0.81
   7  -4   3   38.80    2.63
  -7  -4  -3   44.94    4.15
  -7  -4  -3   43.37    3.21
  -7  -4  -3   45.47    2.65
   7   4   3   44.74    2.75
  -7   4  -3   39.29    3.08
  -7   4  -3   46.49    2.62
   7  -5  -3   11.49    1.51
  -7  -5   3   13.24    1.54
  -7  -5   3   11.64    2.36
  -7  -5   3   11.73    1.94
   7   5  -3   12.11    1.51
  -7   5   3   15.23    1.79
  -6  -5   3   18.15    1.90
  -6  -5   3   23.02    2.68
  -6  -5   3   20.06    1.53
   6  -5  -3   18.74    1.57
   6   5  -3   18.53    1.57
  -6   5   3   18.87    1.81
  -6   5   3   19.59    1.39
   6   5  -3   22.25    2.56
  -5  -5   3    6.10    1.36
  -5  -5   3    5.71    0.75
  -5  -5   3    6.84    1.02
   5  -5  -3    5.42    0.81
   5   5  -3    5.40    0.75
  -5   5   3    5.20    0.80
   5   5  -3    5.87    1.43
  -5   5   3    6.20    0.63
  -5   5   3    5.50    0.94
  -5   5   3    5.61    0.62
  -4  -5   3    0.22    0.65
   4  -5  -3    0.36    0.33
   4  -5  -3    1.08    0.39
  -4  -5   3    1.47    0.43
  -4  -5   3    0.54    0.55
  -4   5   3    0.20    0.31
   4   5  -3    0.83    0.91
  -4   5   3    0.56    0.25
   4   5  -3    0.34    0.33
  -4   5   3    0.50    0.45
  -4   5   3    0.67    0.37
  -4   5   3    0.43    0.28
   3  -5  -3    1.46    0.33
  -3  -5   3    2.10    0.50
  -3  -5   3    1.58    0.30
  -3  -5   3    1.06    0.56
  -3   5   3    2.14    0.31
   3   5  -3    2.34    0.37
   3   5  -3    2.65    0.79
  -3   5   3    2.03    0.24
  -3   5   3    2.20    0.26
  -3   5   3    2.18    0.22
   3   5  -3    2.43    0.23
  -2  -5   3  105.43    3.21
  -2  -5   3  100.90    3.72
  -2  -5   3  102.27    3.47
   2  -5  -3   92.58    3.46
  -2  -5   3  101.23    3.59
   2  -5  -3  100.80    3.19
  -2  -5   3  106.68    3.26
   2  -5  -3   99.21    3.21
   2   5  -3  102.54    3.64
  -2   5   3   99.93    3.11
  -2   5   3  103.56    2.99
   2   5  -3  110.32    3.10
  -2   5   3  105.11    3.04
  -2   5   3  104.25    3.17
   1  -5  -3   10.13    0.46
  -1  -5   3   10.23    0.73
  -1  -5   3    9.32    0.92
   1  -5  -3    9.46    0.53
  -1  -5   3   10.08    0.63
  -1  -5   3    9.77    1.10
  -1  -5   3   10.92    0.58
  -1  -5   3   10.10    0.51
   1  -5  -3   10.75    0.51
   1  -5  -3   10.18    0.48
  -1  -5   3    9.43    0.50
  -1  -5   3   10.14    0.70
  -1   5   3    9.10    0.56
  -1   5   3   10.07    0.46
   1   5  -3   10.40    0.81
  -1   5   3   10.22    0.51
  -1   5   3    9.65    0.61
   1   5  -3    9.38    0.71
   1   5  -3   10.38    0.58
  -1   5   3    9.39    0.54
   1   5  -3   10.45    0.52
  -1   5   3   10.30    0.40
   1   5  -3    9.65    0.96
   0  -5   3  352.14   10.44
   0  -5   3  343.79   10.31
   0  -5  -3  359.52   10.50
   0  -5  -3  335.17   10.37
   0  -5   3  363.35   10.31
   0  -5   3  378.10   10.47
   0  -5   3  365.28   10.73
   0  -5  -3  365.87   10.30
   0  -5   3  328.30   10.38
   0  -5  -3  342.50   10.39
   0  -5  -3  343.30   10.30
   0  -5   3  359.60   10.56
   0  -5  -3  354.80   10.46
   0  -5  -3  365.26   10.42
   0   5  -3  361.63   10.57
   0   5   3  340.42   10.57
   0   5   3  352.06   10.44
   0   5  -3  383.23   10.36
   0   5  -3  373.44   10.41
   0   5  -3  368.12   10.42
   0   5   3  354.96   10.39
   0   5  -3  377.54   10.49
   0   5   3  346.26   10.33
   0   5  -3  356.50   10.82
   1  -5   3   38.38    1.31
  -1  -5  -3   40.09    1.57
   1  -5   3   39.01    1.39
  -1  -5  -3   40.73    1.71
   1  -5   3   39.17    1.43
  -1  -5  -3   37.11    1.51
   1  -5   3   42.95    1.31
   1  -5   3   40.05    1.33
  -1  -5  -3   40.68    1.65
   1  -5   3   40.08    1.35
   1  -5   3   39.79    1.52
  -1  -5  -3   39.68    1.39
  -1  -5  -3   40.92    1.39
  -1  -5  -3   39.67    1.37
  -1   5  -3   42.28    1.40
  -1   5  -3   39.82    1.43
   1   5   3   41.53    1.39
  -1   5  -3   39.23    1.47
  -1   5  -3   42.95    1.31
  -1   5  -3   38.04    1.62
  -1   5  -3   41.95    1.29
   1   5   3   41.11    1.74
   1   5   3   40.56    1.76
   1   5   3   42.30    1.43
   1   5   3   37.88    1.53
  -2  -5  -3  127.73    3.88
  -2  -5  -3  126.90    4.02
   2  -5   3  127.55    3.78
   2  -5   3  128.51    3.91
  -2  -5  -3  117.18    4.82
  -2  -5  -3  132.62    4.41
   2  -5   3  131.33    4.05
   2   5   3  131.43    4.53
  -2   5  -3  133.80    3.80
  -2   5  -3  133.74    3.91
  -2   5  -3  127.26    4.05
   2   5   3  123.70    4.23
  -2   5  -3  128.99    3.90
   2   5   3  127.72    4.50
   2   5   3  128.35    4.04
  -2   5  -3  132.74    4.02
  -3  -5  -3   24.53    1.11
  -3  -5  -3   22.06    1.54
  -3  -5  -3   24.41    0.88
   3  -5   3   22.99    1.05
  -3  -5  -3   24.09    1.40
  -3   5  -3   23.65    0.90
  -3   5  -3   21.89    0.96
  -3   5  -3   22.26    1.09
   3   5   3   21.88    1.74
   3   5   3   23.26    1.34
  -3   5  -3   24.20    0.99
   3   5   3   22.53    1.11
  -3   5  -3   24.26    0.99
   3   5   3   20.90    1.71
  -4  -5  -3    4.07    0.34
  -4  -5  -3    4.12    1.00
   4  -5   3    3.42    0.54
  -4  -5  -3    3.12    0.72
  -4  -5  -3    3.66    0.55
   4   5   3    2.49    1.08
  -4   5  -3    3.77    0.54
   4   5   3    4.13    0.82
  -4   5  -3    4.19    0.67
  -4   5  -3    3.66    0.54
   4   5   3    4.09    1.21
  -5  -5  -3    1.24    0.97
   5  -5   3    2.03    0.61
  -5  -5  -3    2.08    0.80
  -5  -5  -3    1.10    0.66
   5   5   3    0.77    1.19
   5   5   3    1.75    1.01
  -5   5  -3    0.92    0.57
  -5   5  -3    3.20    0.76
   5   5   3    0.71    0.57
   6  -5   3    3.98    0.90
  -6  -5  -3    5.80    1.02
  -6  -5  -3    5.07    1.31
  -6  -5  -3    5.73    1.74
  -6   5  -3    6.64    0.98
   6   5   3    7.57    1.19
  -6   5  -3    3.50    1.05
   6   5   3    4.84    1.69
  -7  -5  -3    0.04    1.48
  -7  -5  -3    2.57    2.26
   7  -5   3    2.22    1.24
  -7  -5  -3   -1.95    1.02
  -7   5  -3    0.97    1.36
   7   5   3    0.28    1.13
  -7  -6   3    0.71    1.46
  -7  -6   3   -0.12    1.06
  -7  -6   3    1.56    2.19
   7  -6  -3   -0.67    1.12
   7   6  -3    0.43    1.06
  -7   6   3   -0.03    1.30
  -6  -6   3    4.31    1.59
   6  -6  -3    5.23    1.01
  -6  -6   3    5.42    0.94
  -6  -6   3    6.23    1.31
  -6   6   3    5.09    1.01
   6   6  -3    5.61    0.92
   6   6  -3    5.65    2.01
  -5  -6   3   13.09    1.74
   5  -6  -3   15.01    1.24
  -5  -6   3   14.65    1.63
  -5  -6   3   14.61    1.13
   5   6  -3   13.37    1.17
  -5   6   3   12.43    1.44
  -5   6   3   12.99    1.14
   5   6  -3   14.31    2.03
  -5   6   3   13.43    0.78
  -4  -6   3   26.95    1.32
  -4  -6   3   26.70    1.69
   4  -6  -3   26.37    1.36
  -4  -6   3   27.29    1.99
   4  -6  -3   26.25    1.21
  -4   6   3   22.71    1.25
   4   6  -3   27.64    1.35
   4   6  -3   27.06    2.31
  -4   6   3   25.57    1.19
  -4   6   3   25.60    0.98
  -3  -6   3   29.49    1.30
   3  -6  -3   31.91    1.29
   3  -6  -3   29.02    1.25
  -3  -6   3   30.59    1.57
  -3  -6   3   31.33    1.85
   3  -6  -3   31.56    1.36
  -3   6   3   30.19    0.98
   3   6  -3   31.18    2.08
   3   6  -3   31.48    1.04
  -3   6   3   29.89    1.11
   3   6  -3   29.23    1.29
   2  -6  -3   38.48    1.48
   2  -6  -3   40.39    1.47
  -2  -6   3   39.41    1.84
  -2  -6   3   40.07    1.48
   2  -6  -3   40.97    1.57
  -2   6   3   41.04    1.22
   2   6  -3   41.38    1.38
  -2   6   3   38.86    1.24
   2   6  -3   40.00    2.00
  -2   6   3   39.02    1.36
   2   6  -3   40.38    2.16
   1  -6  -3   26.70    1.05
  -1  -6   3   27.82    1.04
   1  -6  -3   27.46    1.09
   1  -6  -3   27.15    0.96
  -1  -6   3   27.89    1.09
   1  -6  -3   29.02    0.99
  -1  -6   3   26.65    1.05
  -1  -6   3   26.87    1.20
  -1  -6   3   27.49    1.30
   1   6  -3   27.50    1.07
  -1   6   3   26.39    0.99
   1   6  -3   26.87    1.65
   1   6  -3   29.59    1.31
  -1   6   3   26.33    1.09
  -1   6   3   27.59    0.92
  -1   6   3   26.76    1.05
   1   6  -3   28.82    1.41
   0  -6   3    0.40    0.28
   0  -6  -3   -0.15    0.37
   0  -6  -3    0.36    0.17
   0  -6  -3    0.20    0.18
   0  -6  -3    0.11    0.21
   0  -6   3    0.19    0.47
   0  -6  -3    0.14    0.26
   0  -6   3    0.34    0.18
   0  -6  -3    0.42    0.15
   0  -6   3   -0.22    0.46
   0  -6  -3    0.18    0.12
   0  -6   3    0.40    0.13
   0  -6   3    0.63    0.31
   0  -6   3    0.28    0.16
   0  -6  -3    0.33    0.26
   0  -6   3    0.30    0.21
   0   6   3    0.38    0.15
   0   6   3    0.02    0.30
   0   6  -3    0.17    0.29
   0   6   3   -0.03    0.24
   0   6  -3    0.16    0.27
   0   6  -3    0.75    0.46
   0   6  -3    0.08    0.24
   0   6   3    0.50    0.28
   0   6   3    0.22    0.18
   0   6  -3    0.25    0.22
   0   6  -3    0.01    0.19
  -1  -6  -3    8.94    0.70
  -1  -6  -3    8.44    0.52
  -1  -6  -3    7.89    0.49
  -1  -6  -3    8.48    0.78
   1  -6   3    7.65    0.52
  -1  -6  -3    8.82    0.56
   1   6   3    8.35    0.84
  -1   6  -3    8.29    0.42
  -1   6  -3    9.58    0.61
  -1   6  -3    8.54    0.44
  -1   6  -3    7.96    0.54
   1   6   3    7.85    0.53
   1   6   3    8.47    0.90
   1   6   3    7.57    0.56
  -1   6  -3    8.30    0.81
   2  -6   3   47.02    1.75
  -2  -6  -3   46.24    1.71
  -2  -6  -3   47.15    1.60
   2  -6   3   47.18    1.62
  -2  -6  -3   49.72    2.03
  -2  -6  -3   45.64    2.10
   2   6   3   44.93    1.73
  -2   6  -3   45.24    1.85
   2   6   3   49.46    1.96
   2   6   3   44.85    2.27
  -2   6  -3   47.17    1.61
  -2   6  -3   45.92    1.70
   2   6   3   44.31    2.24
  -2   6  -3   49.85    1.50
  -2   6  -3   48.58    1.58
  -3  -6  -3    4.89    0.73
  -3  -6  -3    6.60    0.99
  -3  -6  -3    5.02    0.41
   3  -6   3    4.46    0.55
  -3  -6  -3    5.56    0.60
  -3   6  -3    4.39    0.48
  -3   6  -3    4.93    0.45
  -3   6  -3    5.29    0.63
   3   6   3    3.62    0.51
   3   6   3    4.78    0.96
  -3   6  -3    4.60    0.72
   3   6   3    5.25    0.74
  -4  -6  -3   47.48    1.50
  -4  -6  -3   47.32    2.68
   4  -6   3   46.42    1.87
  -4  -6  -3   47.54    1.95
  -4  -6  -3   46.62    2.32
   4   6   3   43.29    2.30
   4   6   3   46.76    2.83
  -4   6  -3   44.59    1.92
  -4   6  -3   43.93    1.72
  -4   6  -3   45.04    1.70
  -5  -6  -3    9.55    1.59
   5  -6   3   10.89    1.15
  -5  -6  -3    8.74    1.29
  -5  -6  -3   11.58    1.11
  -5   6  -3    8.66    0.97
   5   6   3   12.57    1.58
   5   6   3    8.71    2.48
   5   6   3   12.91    1.25
  -5   6  -3    9.18    1.03
  -6  -6  -3   11.13    1.62
  -6  -6  -3   12.33    1.50
   6  -6   3   13.32    1.38
  -6  -6  -3   14.98    2.32
  -6   6  -3   10.33    1.33
  -6   6  -3   11.43    1.33
   6   6   3   13.20    1.68
   6   6   3   12.63    2.07
  -7  -6  -3    3.13    2.39
  -7  -6  -3    4.40    1.73
  -7  -6  -3    4.73    1.29
   7  -6   3    3.97    1.23
   7   6   3    6.13    1.46
  -7   6  -3    3.69    1.44
  -7  -7   3   33.17    2.54
   7  -7  -3   36.46    2.78
  -7  -7   3   42.57    4.65
  -7  -7   3   36.80    3.14
   7   7  -3   43.28    2.69
  -7   7   3   35.72    2.56
  -6  -7   3    1.89    1.78
  -6  -7   3    0.90    1.12
   6  -7  -3    0.78    0.90
  -6  -7   3    1.32    0.77
   6   7  -3   -0.25    2.61
  -6   7   3    1.06    0.78
   6   7  -3    0.84    0.79
  -5  -7   3   34.64    2.19
  -5  -7   3   34.87    2.83
   5  -7  -3   30.36    1.77
  -5  -7   3   31.63    1.67
   5   7  -3   28.97    2.95
  -5   7   3   31.25    1.53
  -5   7   3   31.25    1.68
   5   7  -3   32.18    1.74
   4  -7  -3    1.19    0.50
  -4  -7   3    2.80    0.76
   4  -7  -3    1.10    0.42
  -4  -7   3    0.93    0.42
  -4  -7   3    2.74    0.96
  -4   7   3    1.82    0.47
  -4   7   3    1.04    0.35
   4   7  -3    0.33    1.16
  -4   7   3    1.41    0.27
   4   7  -3    0.95    0.43
  -3  -7   3   13.18    0.84
  -3  -7   3   14.22    1.42
   3  -7  -3   14.46    0.89
  -3  -7   3   14.30    1.14
   3  -7  -3   13.88    0.93
  -3  -7   3   14.47    0.81
   3  -7  -3   14.03    0.86
   3   7  -3   13.36    0.68
   3   7  -3   13.76    1.70
   3   7  -3   15.30    0.87
  -2  -7   3    2.03    0.59
  -2  -7   3    3.30    0.42
  -2  -7   3    2.09    0.50
   2  -7  -3    2.05    0.34
  -2  -7   3    3.26    0.40
   2  -7  -3    3.15    0.43
   2   7  -3    1.60    0.78
  -2   7   3    2.45    0.21
  -2   7   3    2.00    0.24
   2   7  -3    2.81    0.36
   2   7  -3    2.22    0.84
  -2   7   3    2.45    0.30
   1  -7  -3  382.08   10.71
  -1  -7   3  366.90   11.16
  -1  -7   3  381.84   10.84
   1  -7  -3  362.65   10.71
  -1  -7   3  365.09   10.85
  -1  -7   3  380.42   11.06
   1  -7  -3  348.86   10.87
   1  -7  -3  361.42   10.89
  -1   7   3  354.80   10.78
   1   7  -3  369.84   11.62
  -1   7   3  353.98   10.91
  -1   7   3  357.17   10.68
   1   7  -3  397.24   11.29
   1   7  -3  401.67   11.15
   0  -7  -3    6.48    0.64
   0  -7   3    6.49    0.38
   0  -7   3    7.48    0.76
   0  -7  -3    6.77    0.56
   0  -7   3    6.16    0.49
   0  -7  -3    5.90    0.36
   0  -7   3    6.51    0.54
   0  -7   3    7.12    0.42
   0  -7  -3    7.18    0.40
   0   7   3    4.99    0.74
   0   7  -3    5.68    0.86
   0   7  -3    6.61    0.45
   0   7  -3    8.15    0.68
   0   7  -3    8.28    0.75
   0   7   3    6.65    0.43
   0   7  -3    8.66    0.79
   0   7   3    5.99    0.66
   0   7   3    5.87    0.70
   1  -7   3  651.65   18.61
  -1  -7  -3  644.16   18.95
  -1  -7  -3  658.26   18.67
  -1  -7  -3  602.94   18.83
  -1  -7  -3  688.52   19.07
  -1  -7  -3  626.75   18.75
   1  -7   3  617.40   18.76
  -1   7  -3  642.37   18.58
   1   7   3  669.78   19.25
  -1   7  -3  657.68   18.59
  -1   7  -3  679.44   18.73
  -1   7  -3  647.58   19.18
   1   7   3  662.08   18.96
   1   7   3  652.89   19.35
  -1   7  -3  657.23   18.82
   1   7   3  591.49   18.82
  -2  -7  -3   22.44    1.42
  -2  -7  -3   19.89    1.22
  -2  -7  -3   22.23    0.98
   2  -7   3   19.58    0.91
  -2  -7  -3   19.76    0.88
   2  -7   3   19.53    1.01
  -2   7  -3   19.15    1.22
  -2   7  -3   20.85    0.86
   2   7   3   22.06    1.60
  -2   7  -3   21.47    0.80
   2   7   3   20.16    1.54
   2   7   3   20.03    1.01
   2   7   3   19.75    1.15
  -2   7  -3   19.40    0.89
  -2   7  -3   19.91    0.96
  -3  -7  -3  179.48    5.41
  -3  -7  -3  168.59    5.96
  -3  -7  -3  174.83    5.13
   3  -7   3  173.60    5.28
  -3  -7  -3  173.27    5.76
   3   7   3  165.94    5.71
  -3   7  -3  167.22    5.40
  -3   7  -3  159.51    5.26
   3   7   3  176.72    6.27
   3   7   3  172.69    6.19
  -3   7  -3  171.53    5.07
   3   7   3  169.91    5.43
  -3   7  -3  164.44    5.02
  -4  -7  -3    2.40    1.06
  -4  -7  -3    3.11    0.84
  -4  -7  -3    3.22    0.56
   4  -7   3    3.91    0.60
  -4  -7  -3    3.50    0.45
   4   7   3    3.27    0.96
   4   7   3    4.88    1.48
  -4   7  -3    3.54    0.43
  -4   7  -3    3.68    0.67
   4   7   3    3.38    1.27
  -4   7  -3    4.08    0.44
   5  -7   3    0.25    0.60
  -5  -7  -3    1.94    1.34
  -5  -7  -3    2.48    1.04
  -5  -7  -3    0.15    0.54
   5   7   3    0.73    0.68
  -5   7  -3    0.54    0.46
   5   7   3    0.20    1.14
   5   7   3   -2.25    1.66
  -5   7  -3    0.99    0.64
  -6  -7  -3    0.79    1.85
  -6  -7  -3    0.48    1.20
   6  -7   3    0.03    0.90
  -6  -7  -3    1.03    0.83
   6   7   3    0.29    0.94
   6   7   3   -0.84    1.86
  -6   7  -3    0.93    0.91
  -6  -8   3   13.17    1.58
   6  -8  -3   13.74    1.53
  -6  -8   3   12.94    2.46
  -6  -8   3   12.70    1.75
   6   8  -3   11.20    1.35
   6   8  -3   13.78    2.73
  -5  -8   3   -0.22    0.88
  -5  -8   3    0.28    0.56
   5  -8  -3   -0.06    0.66
  -5  -8   3   -2.01    1.25
   5   8  -3   -0.81    1.45
   5   8  -3    0.76    0.64
  -4  -8   3   35.21    1.67
  -4  -8   3   37.28    1.60
   4  -8  -3   35.49    1.62
   4  -8  -3   37.87    1.81
  -4  -8   3   37.72    2.12
  -4  -8   3   34.00    2.52
   4   8  -3   34.25    1.67
   4   8  -3   36.31    2.91
   3  -8  -3    3.15    0.49
  -3  -8   3    3.38    0.52
  -3  -8   3    4.11    0.89
  -3  -8   3    4.54    0.57
  -3  -8   3    3.13    0.68
   3  -8  -3    4.25    0.53
   3  -8  -3    3.03    0.53
   3   8  -3    3.84    1.09
   3   8  -3    3.86    0.45
  -2  -8   3   24.71    1.35
  -2  -8   3   22.94    1.06
  -2  -8   3   23.04    1.05
  -2  -8   3   24.56    1.54
   2  -8  -3   23.55    1.08
   2  -8  -3   23.17    1.09
   2   8  -3   25.34    1.95
  -2   8   3   23.80    0.80
  -2   8   3   22.98    0.96
  -2   8   3   21.96    0.83
   1  -8  -3   14.23    0.74
   1  -8  -3   14.87    0.79
  -1  -8   3   14.75    0.77
  -1  -8   3   13.53    0.93
  -1  -8   3   14.75    0.84
   1  -8  -3   13.97    0.80
  -1  -8   3   14.26    0.70
  -1  -8   3   14.97    1.07
   1  -8  -3   14.37    0.66
  -1   8   3   13.93    0.86
   1   8  -3   14.89    1.21
  -1   8   3   12.34    0.83
  -1   8   3   12.39    1.09
   1   8  -3   14.81    1.45
  -1   8   3   13.87    0.61
   1   8  -3   14.60    1.27
   0  -8  -3    2.61    0.48
   0  -8  -3    3.58    0.34
   0  -8   3    2.72    0.40
   0  -8   3    1.82    0.31
   0  -8   3    2.54    0.30
   0  -8  -3    2.79    0.44
   0  -8  -3    2.83    0.37
   0  -8   3    2.99    0.35
   0  -8  -3    2.94    0.39
   0  -8  -3    2.72    0.27
   0   8  -3    3.25    0.79
   0   8  -3    2.45    0.51
   0   8  -3    2.89    0.36
   0   8   3    2.39    0.33
   0   8  -3    3.19    0.56
   0   8   3    3.18    0.46
   0   8   3    2.84    0.53
   0   8   3    4.23    0.72
  -1  -8  -3   14.15    0.97
  -1  -8  -3   15.17    0.81
   1  -8   3   13.95    0.79
  -1  -8  -3   13.56    0.71
  -1  -8  -3   14.71    0.79
  -1  -8  -3   13.73    0.73
  -1  -8  -3   14.70    1.10
  -1   8  -3   14.90    0.69
   1   8   3   13.20    0.76
   1   8   3   14.07    1.16
   1   8   3   15.09    0.95
  -1   8  -3   14.03    0.67
   1   8   3   14.41    1.32
  -1   8  -3   13.42    0.89
  -2  -8  -3   21.56    1.47
  -2  -8  -3   20.45    0.99
  -2  -8  -3   18.16    1.27
   2  -8   3   21.14    1.08
  -2  -8  -3   21.64    0.94
   2   8   3   20.87    1.63
  -2   8  -3   21.49    1.42
  -2   8  -3   20.26    0.83
  -2   8  -3   18.69    0.99
   2   8   3   21.08    1.08
   2   8   3   20.33    1.28
  -2   8  -3   20.31    0.90
   2   8   3   19.45    1.63
  -3  -8  -3    1.65    0.43
  -3  -8  -3    1.77    0.41
  -3  -8  -3    2.68    0.89
   3  -8   3    1.33    0.42
  -3  -8  -3    1.14    0.70
  -3   8  -3    2.00    0.44
  -3   8  -3    2.86    0.69
  -3   8  -3    1.73    0.38
   3   8   3    1.33    1.02
   3   8   3    2.16    1.03
  -3   8  -3    2.32    0.30
   3   8   3    1.67    0.64
  -4  -8  -3   34.67    1.29
  -4  -8  -3   34.39    2.18
  -4  -8  -3   32.82    2.59
  -4  -8  -3   35.61    1.68
   4  -8   3   34.80    1.66
   4   8   3   38.97    3.01
  -4   8  -3   32.64    1.72
   4   8   3   35.43    2.17
  -4   8  -3   33.20    1.98
   4   8   3   32.38    3.04
  -5  -8  -3   -1.46    1.37
  -5  -8  -3    1.06    0.61
   5  -8   3    1.59    0.77
   5   8   3    0.54    1.89
  -5   8  -3    1.63    0.63
   5   8   3   -0.03    0.67
   5   8   3    1.82    1.19
  -6  -8  -3   10.60    2.55
  -6  -8  -3    5.96    1.55
   6  -8   3   10.76    1.40
  -6  -8  -3    8.49    1.20
  -6   8  -3    8.58    1.20
   6   8   3   12.65    1.51
   6   8   3   10.77    2.15
  -6  -9   3    2.21    0.91
  -6  -9   3    4.79    1.53
  -6  -9   3    3.70    1.00
   6  -9  -3    4.97    1.20
  -6  -9   3    5.54    2.42
   6   9  -3   -2.45    2.55
   6   9  -3    4.98    1.10
  -5  -9   3   10.53    1.08
  -5  -9   3    9.23    1.03
  -5  -9   3    7.90    1.71
  -5  -9   3   10.90    2.06
   5  -9  -3   11.59    1.82
  -5   9   3    8.46    1.52
   5   9  -3    8.90    2.12
   5   9  -3    7.94    1.04
   4  -9  -3   -0.85    0.55
  -4  -9   3    0.12    0.44
  -4  -9   3    0.67    0.43
  -4  -9   3   -0.18    0.80
   4  -9  -3   -0.26    0.50
  -4  -9   3    0.55    1.19
   4   9  -3    0.38    0.47
   4   9  -3    2.25    1.50
   3  -9  -3    0.75    0.38
  -3  -9   3   -0.12    0.35
  -3  -9   3    1.14    0.67
  -3  -9   3    0.43    0.92
   3  -9  -3    0.52    0.43
  -3  -9   3    0.85    0.36
   3   9  -3    1.10    1.15
  -2  -9   3   28.73    1.24
  -2  -9   3   28.16    1.76
  -2  -9   3   29.25    1.30
   2  -9  -3   26.84    1.28
   2  -9  -3   28.00    1.27
  -2  -9   3   27.82    1.54
  -2   9   3   26.71    1.16
  -2   9   3   26.80    0.99
   2   9  -3   25.41    2.17
  -2   9   3   26.31    0.95
  -2   9   3   28.12    1.64
   1  -9  -3   55.33    2.10
  -1  -9   3   57.85    2.08
  -1  -9   3   55.67    2.39
   1  -9  -3   57.82    2.08
  -1  -9   3   60.50    2.29
  -1  -9   3   59.16    2.24
   1  -9  -3   55.29    1.89
  -1  -9   3   58.33    1.97
   1   9  -3   59.65    2.61
  -1   9   3   58.98    2.62
  -1   9   3   56.96    2.22
  -1   9   3   56.96    2.01
  -1   9   3   58.96    1.90
   1   9  -3   58.31    2.89
   0  -9   3   95.03    2.86
   0  -9   3   91.81    2.87
   0  -9   3   97.24    3.28
   0  -9  -3   97.91    3.17
   0  -9   3   91.46    3.10
   0  -9  -3   93.99    2.84
   0  -9  -3   91.65    3.11
   0  -9  -3   95.48    3.15
   0  -9  -3   89.84    3.08
   0  -9   3   93.74    3.13
   0  -9  -3   91.53    2.83
   0   9  -3  100.45    3.31
   0   9   3   92.09    3.17
   0   9  -3  100.45    3.45
   0   9  -3   91.31    2.97
   0   9  -3   92.52    3.81
   0   9   3   92.28    3.01
   0   9   3   93.26    3.45
   0   9   3   91.65    3.69
  -1  -9  -3   85.94    3.36
   1  -9   3   92.93    3.14
   1  -9   3   96.57    3.02
  -1  -9  -3   91.72    3.06
  -1  -9  -3   91.08    3.28
  -1  -9  -3   94.94    3.19
  -1  -9  -3   94.00    3.11
  -1  -9  -3   95.69    2.99
  -1   9  -3   90.34    2.92
   1   9   3   94.45    3.86
  -1   9  -3   91.41    3.22
   1   9   3   91.41    3.63
  -1   9  -3   95.81    3.12
  -1   9  -3   92.82    3.71
   1   9   3   96.11    3.10
   1   9   3   93.15    3.32
   2  -9   3   38.57    1.65
  -2  -9  -3   38.76    1.63
  -2  -9  -3   37.78    1.54
  -2  -9  -3   38.89    2.10
  -2  -9  -3   41.67    1.95
  -2  -9  -3   39.52    1.51
   2   9   3   39.20    2.45
  -2   9  -3   36.68    2.10
   2   9   3   41.97    2.36
  -2   9  -3   36.78    1.58
   2   9   3   39.22    1.66
   2   9   3   40.09    1.91
  -2   9  -3   38.65    1.46
  -3  -9  -3   38.02    1.69
  -3  -9  -3   40.78    2.48
  -3  -9  -3   41.37    2.17
  -3  -9  -3   41.11    1.52
   3  -9   3   39.81    1.70
   3  -9   3   38.67    1.78
  -3   9  -3   38.52    1.58
   3   9   3   39.15    2.92
   3   9   3   38.75    2.08
  -3   9  -3   39.24    2.15
   3   9   3   39.53    2.74
   4  -9   3    2.96    0.69
  -4  -9  -3    3.01    0.62
  -4  -9  -3    4.76    1.44
  -4  -9  -3    3.60    1.11
  -4  -9  -3    3.78    0.53
   4   9   3    2.18    0.95
   4   9   3   -0.38    1.51
  -4   9  -3    3.42    0.63
   4   9   3    2.28    1.58
  -5  -9  -3    4.55    1.79
  -5  -9  -3    2.80    1.18
   5  -9   3    3.22    0.95
  -5  -9  -3    2.81    0.70
   5   9   3    2.14    0.89
   5   9   3    1.22    2.21
   5   9   3    1.52    1.36
  -6  -9  -3    4.90    2.62
  -6  -9  -3    3.03    1.01
  -6  -9  -3    1.02    1.46
   6  -9   3    2.80    1.33
   6   9   3   -0.02    1.89
   6   9   3    3.23    1.16
  -6 -10   3    2.30    1.54
  -6 -10   3    4.93    1.06
  -6 -10   3    4.82    1.11
  -6 -10   3    9.72    2.88
   6 -10  -3    4.09    1.34
   6  10  -3    4.35    3.10
   6  10  -3    6.66    1.30
   5 -10  -3   62.83    2.94
  -5 -10   3   59.23    3.33
  -5 -10   3   61.91    2.69
  -5 -10   3   65.45    4.50
  -5  10   3   64.91    4.12
   5  10  -3   61.84    2.76
   5  10  -3   61.61    4.55
  -4 -10   3   32.11    2.21
  -4 -10   3   31.98    1.58
  -4 -10   3   31.12    3.09
  -4 -10   3   31.78    1.63
   4 -10  -3   29.87    1.65
   4  10  -3   30.87    1.67
   4  10  -3   29.46    3.26
  -4  10   3   33.15    2.35
  -3 -10   3  231.18    7.07
  -3 -10   3  233.00    7.09
   3 -10  -3  225.20    7.12
  -3 -10   3  223.03    7.52
  -3 -10   3  236.67    7.87
   3 -10  -3  219.24    7.11
  -3  10   3  228.68    7.68
   3  10  -3  225.64    8.43
  -2 -10   3   52.47    1.98
   2 -10  -3   52.10    2.07
  -2 -10   3   52.27    2.62
   2 -10  -3   51.93    2.08
  -2 -10   3   54.82    2.05
  -2 -10   3   54.69    2.37
   2  10  -3   56.70    3.21
  -2  10   3   53.22    1.74
  -2  10   3   54.22    2.02
  -2  10   3   54.65    2.65
   1 -10  -3  169.96    5.34
  -1 -10   3  166.39    5.33
  -1 -10   3  174.77    5.68
  -1 -10   3  170.95    5.18
   1 -10  -3  170.59    5.37
  -1 -10   3  168.54    5.52
   1 -10  -3  167.17    5.37
  -1  10   3  162.18    5.11
   1  10  -3  171.43    5.91
   1  10  -3  167.42    6.33
  -1  10   3  172.40    5.54
  -1  10   3  175.12    5.28
  -1  10   3  173.50    6.03
   0 -10   3   11.79    0.57
   0 -10  -3   13.08    0.82
   0 -10   3   12.14    0.92
   0 -10  -3   12.86    1.09
   0 -10   3   12.58    0.80
   0 -10  -3   12.23    0.52
   0 -10  -3   13.41    0.94
   0 -10   3   12.73    0.61
   0 -10   3   13.58    1.26
   0 -10  -3   12.96    0.83
   0  10   3   10.57    1.34
   0  10  -3   11.37    1.52
   0  10   3   12.44    0.90
   0  10   3   11.39    0.93
   0  10   3   12.22    1.15
   0  10  -3   11.76    1.28
   0  10  -3   12.43    1.24
  -1 -10  -3    0.12    0.26
  -1 -10  -3    0.73    0.63
   1 -10   3    0.19    0.31
  -1 -10  -3    0.04    0.28
  -1 -10  -3    0.50    0.29
  -1 -10  -3    0.22    0.51
   1 -10   3    0.60    0.44
   1  10   3   -0.32    0.28
   1  10   3   -0.13    0.39
   1  10   3    0.48    0.64
  -1  10  -3    0.75    0.72
   1  10   3    0.18    0.75
  -1  10  -3    1.03    0.53
  -1  10  -3    0.20    0.50
  -2 -10  -3   18.99    1.46
  -2 -10  -3   20.34    1.12
  -2 -10  -3   18.66    1.00
  -2 -10  -3   20.64    1.75
   2 -10   3   20.93    1.17
  -2 -10  -3   19.63    1.04
   2  10   3   19.62    1.84
   2  10   3   22.00    2.13
  -2  10  -3   18.01    1.01
  -2  10  -3   19.42    1.70
   2  10   3   20.63    1.38
   2  10   3   18.25    1.15
  -2  10  -3   18.80    1.14
  -3 -10  -3   72.17    3.53
  -3 -10  -3   75.51    3.24
  -3 -10  -3   74.60    2.53
   3 -10   3   72.34    2.83
  -3 -10  -3   73.58    2.70
   3  10   3   75.10    3.90
   3  10   3   74.11    4.06
  -3  10  -3   69.21    2.62
  -3  10  -3   71.24    3.24
   3  10   3   74.49    3.19
  -4 -10  -3   49.35    3.45
  -4 -10  -3   55.57    1.95
   4 -10   3   50.56    2.32
  -4 -10  -3   56.73    2.94
  -4 -10  -3   53.20    2.26
   4  10   3   50.35    3.93
   4  10   3   54.31    4.15
   4  10   3   47.41    2.78
  -5 -10  -3   77.93    3.23
  -5 -10  -3   79.77    4.00
  -5 -10  -3   89.68    5.12
   5 -10   3   80.57    3.39
   5  10   3   79.88    4.19
   5  10   3   83.65    3.54
   5  10   3   81.95    5.70
  -6 -10  -3   15.13    2.15
  -6 -10  -3   19.48    3.31
   6 -10   3   21.91    2.52
  -6 -10  -3   19.17    1.93
   6  10   3   17.95    1.87
  -6 -11   3   -0.33    1.68
  -6 -11   3    1.18    1.09
  -6 -11   3    1.74    1.09
   6  11  -3    1.29    3.31
   6  11  -3    2.94    1.18
  -5 -11   3    2.72    0.86
  -5 -11   3    3.23    2.42
  -5 -11   3    3.58    0.86
  -5 -11   3    3.85    1.40
   5  11  -3    5.54    1.05
   5  11  -3    7.09    2.39
   4 -11  -3    1.06    0.64
  -4 -11   3    0.67    0.60
  -4 -11   3   -0.50    1.57
  -4 -11   3    3.07    1.11
  -4 -11   3    1.96    0.60
  -4  11   3    1.00    1.39
   4  11  -3    1.16    1.90
   4  11  -3    0.50    0.64
  -3 -11   3    7.60    0.87
   3 -11  -3    6.38    0.84
  -3 -11   3    8.66    2.01
  -3 -11   3    5.40    1.04
  -3 -11   3    8.13    0.89
   3 -11  -3    6.71    0.87
  -3  11   3   10.13    1.38
   3  11  -3    6.52    1.57
  -2 -11   3    3.45    0.52
  -2 -11   3    2.25    0.45
  -2 -11   3    2.88    1.05
   2 -11  -3    2.34    0.52
   2 -11  -3    2.26    0.55
  -2 -11   3    2.17    0.81
   2  11  -3    2.10    1.16
  -2  11   3    2.52    0.58
  -2  11   3    3.53    0.41
  -2  11   3    3.58    1.08
   1 -11  -3    2.78    0.43
   1 -11  -3    1.91    0.44
   1 -11  -3    1.66    0.46
  -1 -11   3    1.80    0.45
  -1 -11   3    1.98    0.67
  -1 -11   3    2.41    0.40
  -1  11   3    2.10    0.37
  -1  11   3    1.42    0.55
  -1  11   3    3.74    0.90
   1  11  -3    2.15    1.07
   1  11  -3    3.28    1.23
  -1  11   3    1.93    0.45
   0 -11   3   14.27    1.44
   0 -11   3   12.56    1.03
   0 -11  -3   12.85    0.91
   0 -11   3   12.59    0.56
   0 -11  -3   12.68    1.22
   0 -11  -3   12.22    1.02
   0 -11  -3   13.38    0.91
   0 -11   3   14.02    0.59
   0 -11   3   12.25    0.88
   0  11  -3   11.01    1.48
   0  11   3   12.45    0.82
   0  11   3   13.46    1.34
   0  11  -3   11.83    1.51
   0  11   3   15.90    1.66
   0  11  -3   11.55    1.46
   0  11   3   11.19    0.98
   1 -11   3    1.14    0.40
  -1 -11  -3    0.93    0.63
  -1 -11  -3    1.11    0.39
  -1 -11  -3    0.94    0.38
  -1 -11  -3    0.84    0.34
  -1  11  -3    0.81    0.65
   1  11   3    1.45    0.42
  -1  11  -3    2.27    0.87
  -1  11  -3    1.17    0.71
   1  11   3    1.08    0.56
   1  11   3    0.54    0.89
   1  11   3    0.45    0.77
  -2 -11  -3    6.00    0.72
   2 -11   3    5.84    0.75
  -2 -11  -3    5.63    0.71
  -2 -11  -3    5.26    1.01
  -2 -11  -3    6.69    1.22
  -2 -11  -3    5.21    0.63
   2  11   3    5.77    0.92
   2  11   3    5.23    0.70
   2  11   3    5.64    1.32
   2  11   3    5.79    1.32
  -2  11  -3    5.56    0.77
  -2  11  -3    6.32    1.24
  -2  11  -3    5.89    0.67
  -3 -11  -3    1.37    1.25
  -3 -11  -3    0.97    0.49
  -3 -11  -3    0.36    0.45
  -3 -11  -3    0.19    0.49
  -3 -11  -3    1.55    0.95
   3 -11   3    0.07    0.52
   3  11   3    1.16    1.40
  -3  11  -3    0.36    0.56
   3  11   3    1.14    0.74
  -3  11  -3    0.77    1.08
   3  11   3    1.75    1.32
  -4 -11  -3   -0.26    1.11
  -4 -11  -3   -0.76    0.66
  -4 -11  -3    1.89    1.85
  -4 -11  -3   -0.02    0.64
   4  11   3    0.35    1.90
   4  11   3    0.68    1.11
   4  11   3   -0.06    1.88
  -5 -11  -3    3.50    0.89
  -5 -11  -3    2.68    2.82
  -5 -11  -3    1.39    1.47
   5  11   3    2.30    1.47
   5  11   3    0.69    3.05
   5  11   3    3.90    1.06
  -6 -11  -3   -1.96    1.84
  -6 -11  -3   -1.50    1.04
  -6 -11  -3    1.66    1.14
   6  11   3   -0.69    1.38
  -5 -12   3   45.03    3.39
  -5 -12   3   50.06    2.41
  -5 -12   3   46.54    2.43
   5  12  -3   50.96    5.16
   5  12  -3   46.13    2.59
  -4 -12   3    6.27    1.37
  -4 -12   3    6.03    0.89
  -4  12   3    7.76    1.74
   4  12  -3    8.98    2.40
   4  12  -3    6.62    0.98
  -3 -12   3  118.12    3.96
  -3 -12   3  114.85    4.51
  -3 -12   3  107.00    5.66
   3 -12  -3  112.27    4.01
  -3 -12   3  112.00    3.89
   3 -12  -3  113.47    4.03
  -3  12   3  116.56    4.85
   3  12  -3  110.25    5.54
  -2 -12   3    4.73    0.99
  -2 -12   3    6.05    0.75
   2 -12  -3    4.20    0.68
  -2 -12   3    5.10    0.63
  -2 -12   3    3.14    1.55
   2 -12  -3    4.34    0.69
  -2  12   3    6.09    0.77
   2  12  -3    6.38    1.69
  -2  12   3    4.89    0.52
  -2  12   3    4.61    1.24
   1 -12  -3   63.45    2.44
   1 -12  -3   62.69    2.46
  -1 -12   3   64.14    2.42
  -1 -12   3   62.83    2.18
  -1 -12   3   63.22    2.71
  -1  12   3   64.20    2.38
   1  12  -3   65.81    3.62
  -1  12   3   59.27    2.35
  -1  12   3   65.80    3.29
  -1  12   3   61.03    2.70
   0 -12   3    0.71    0.39
   0 -12   3   -0.45    0.58
   0 -12  -3    0.52    0.38
   0 -12  -3    0.08    0.61
   0 -12  -3   -0.28    0.35
   0  12   3    0.63    0.71
   0  12   3    0.27    0.40
   0  12   3    0.12    0.96
   0  12   3    0.15    0.47
   0  12  -3    1.59    1.11
  -1 -12  -3   -0.13    0.75
   1 -12   3    0.81    0.41
  -1 -12  -3   -0.10    0.39
  -1 -12  -3   -0.20    0.32
  -1 -12  -3    0.06    0.36
  -1  12  -3    0.33    0.75
   1  12   3    0.78    1.12
   1  12   3   -0.12    0.77
   1  12   3    0.08    0.43
  -1  12  -3    0.70    0.97
   1  12   3   -0.23    0.57
  -2 -12  -3   18.67    1.72
  -2 -12  -3   19.24    1.12
  -2 -12  -3   20.90    1.23
  -2 -12  -3   17.14    1.11
   2 -12   3   17.40    1.21
   2  12   3   17.83    2.44
  -2  12  -3   17.13    1.46
   2  12   3   16.92    1.50
  -2  12  -3   18.67    2.17
   2  12   3   20.52    2.23
  -3 -12  -3   28.27    1.46
  -3 -12  -3   29.44    1.56
  -3 -12  -3   28.14    1.58
   3 -12   3   27.04    1.71
  -3 -12  -3   29.75    2.28
  -3  12  -3   30.12    1.58
  -3  12  -3   25.66    2.68
   3  12   3   30.81    3.19
   3  12   3   31.72    2.11
   3  12   3   28.99    3.14
  -4 -12  -3   23.23    1.63
  -4 -12  -3   22.46    1.60
  -4 -12  -3   26.82    2.44
   4  12   3   22.68    2.38
   4  12   3   25.01    3.29
   4  12   3   23.67    2.99
  -5 -12  -3   37.95    2.32
  -5 -12  -3   45.59    2.47
  -5 -12  -3   45.21    3.31
   5  12   3   48.99    2.81
   5  12   3   46.53    4.98
   5  12   3   48.13    3.41
  -5 -13   3    5.36    1.18
  -5 -13   3    5.98    1.17
  -5 -13   3    7.16    1.95
   5  13  -3    6.57    3.02
   5  13  -3    4.53    1.25
  -4 -13   3    0.57    0.74
  -4 -13   3    1.93    0.81
  -4 -13   3   -0.62    2.07
   4  13  -3    1.99    2.21
  -4  13   3    0.17    1.78
   3 -13  -3    3.07    0.80
   3 -13  -3    3.93    0.89
  -3 -13   3    2.99    0.71
  -3 -13   3    4.36    0.75
  -3 -13   3    4.27    1.30
   3  13  -3    0.72    3.16
  -3  13   3    7.00    1.63
  -2 -13   3   23.44    1.31
   2 -13  -3   23.93    1.49
  -2 -13   3   25.03    2.04
   2 -13  -3   23.68    1.48
  -2 -13   3   23.78    1.41
  -2  13   3   26.82    2.45
   2  13  -3   27.80    2.96
  -2  13   3   22.76    1.55
   1 -13  -3   47.73    2.11
   1 -13  -3   49.87    2.09
  -1 -13   3   48.79    2.05
  -1 -13   3   45.29    1.74
  -1  13   3   45.49    2.36
  -1  13   3   50.38    2.03
   1  13  -3   50.76    3.44
  -1  13   3   40.94    2.96
  -1  13   3   48.00    1.89
   0 -13  -3  102.19    3.66
   0 -13  -3  101.38    3.63
   0 -13   3  104.51    3.65
   0  13   3  108.50    3.57
   0  13   3   96.46    4.72
   0  13   3  109.04    3.80
   0  13   3  101.73    4.20
   0  13  -3  103.09    4.90
  -1 -13  -3   61.96    2.43
   1 -13   3   60.16    2.48
  -1 -13  -3   59.95    2.10
  -1 -13  -3   60.61    2.46
   1  13   3   62.35    3.23
  -1  13  -3   61.59    3.57
   1  13   3   63.63    2.47
   1  13   3   60.26    2.72
   1  13   3   60.37    3.69
  -2 -13  -3   72.79    2.69
  -2 -13  -3   69.44    2.77
  -2 -13  -3   68.23    3.26
   2 -13   3   67.40    2.79
  -2 -13  -3   70.44    2.58
  -2  13  -3   69.98    3.84
   2  13   3   72.58    3.87
   2  13   3   72.62    4.24
   2  13   3   72.89    3.19
  -3 -13  -3   21.68    1.45
  -3 -13  -3   20.50    2.28
   3 -13   3   23.47    1.70
  -3 -13  -3   21.30    1.50
  -3 -13  -3   24.21    1.43
  -3  13  -3   23.71    3.07
   3  13   3   27.06    3.28
   3  13   3   20.72    2.07
  -3  13  -3   23.37    1.60
  -4 -13  -3    9.03    1.81
  -4 -13  -3   10.17    1.23
  -4 -13  -3    9.08    1.13
   4  13   3    9.25    1.60
   4  13   3   11.87    2.96
  -5 -13  -3    1.91    1.88
  -5 -13  -3    0.53    0.98
  -5 -13  -3    0.44    0.98
   5  13   3    0.81    3.76
   5  13   3   -1.10    1.67
   5  13   3    1.67    1.22
  -5 -14   3    1.11    1.28
  -5 -14   3    0.32    1.99
  -5 -14   3   -0.56    1.06
   5  14  -3   -1.52    1.29
   5  14  -3    3.75    3.24
  -4 -14   3   -0.48    1.68
  -4 -14   3    0.83    0.90
  -4 -14   3    0.98    0.85
   4  14  -3    3.30    2.66
   4  14  -3   -0.23    0.99
  -4  14   3   -2.49    2.94
   3 -14  -3   -0.84    0.83
  -3 -14   3   -0.02    0.67
  -3 -14   3   -2.46    1.36
   3 -14  -3    0.51    0.77
   3  14  -3   -0.40    1.87
  -3  14   3    0.50    1.67
  -2 -14   3    1.64    0.59
  -2 -14   3    0.78    0.62
   2 -14  -3    0.20    0.68
  -2 -14   3   -0.68    1.13
  -2  14   3    4.05    1.63
   1 -14  -3    1.74    0.62
  -1 -14   3    2.36    0.52
  -1 -14   3    1.17    0.55
   1 -14  -3    1.05    0.54
  -1  14   3   -0.17    1.33
   1  14  -3    2.69    1.70
  -1  14   3    2.11    0.58
  -1  14   3    1.73    0.88
   0 -14  -3   -0.54    0.48
   0 -14   3   -0.39    0.45
   0 -14  -3    0.99    0.56
   0  14   3    0.61    0.80
   0  14   3    0.54    0.66
   0  14   3    0.77    1.32
   0  14  -3    0.66    1.48
   1 -14   3    5.45    0.83
  -1 -14  -3    7.33    0.90
  -1 -14  -3    6.75    0.62
  -1 -14  -3    5.82    0.80
   1  14   3    4.59    1.27
   1  14   3    3.32    1.48
   1  14   3    6.40    1.02
  -1  14  -3    4.56    1.58
  -2 -14  -3    0.83    0.56
  -2 -14  -3    0.86    0.63
  -2 -14  -3   -0.02    1.21
   2 -14   3   -0.54    0.66
  -2 -14  -3   -0.22    0.60
   2  14   3    1.21    1.76
   2  14   3    1.44    1.04
   2  14   3    0.43    1.36
  -2  14  -3    1.74    1.66
   3 -14   3    2.21    0.84
  -3 -14  -3    1.95    0.78
  -3 -14  -3    3.01    0.77
  -3 -14  -3   -0.92    1.40
  -3 -14  -3    1.90    0.80
   3  14   3    3.20    1.94
   3  14   3    3.36    2.39
   3  14   3    4.37    1.18
  -3  14  -3   -0.64    1.99
  -4 -14  -3    0.06    0.86
  -4 -14  -3    1.40    1.84
  -4 -14  -3    2.04    0.90
   4  14   3    3.46    1.49
   4  14   3    2.61    2.89
  -4 -15   3    0.62    0.97
  -4 -15   3    1.48    0.99
  -4 -15   3   -0.83    2.04
   4  15  -3   -1.15    1.12
   4  15  -3    3.31    2.96
  -3 -15   3    4.72    1.77
  -3 -15   3    2.92    0.85
   3 -15  -3    4.63    1.09
  -3 -15   3    5.73    0.99
   3 -15  -3    4.49    1.06
  -3  15   3    7.88    2.28
   3  15  -3    3.30    2.38
   2 -15  -3    0.82    0.71
   2 -15  -3    0.15    0.72
  -2 -15   3    1.57    0.70
  -2 -15   3    0.16    0.69
   2  15  -3   -3.10    1.86
  -2  15   3   -1.47    1.79
  -1 -15   3   72.62    2.90
   1 -15  -3   70.62    2.92
  -1  15   3   69.81    3.40
   1  15  -3   75.61    4.76
   0 -15   3    0.85    0.59
   0 -15  -3    1.85    1.18
   0  15   3   -1.70    2.13
   0  15   3    0.29    0.75
   0  15   3    0.44    0.97
   0  15  -3    1.45    1.67
   1 -15   3  140.65    4.99
  -1 -15  -3  151.35    5.02
  -1 -15  -3  145.74    4.99
   1  15   3  141.88    6.03
   1  15   3  148.69    6.71
   1  15   3  140.02    5.51
  -1  15  -3  143.96    6.49
  -2 -15  -3    3.39    0.93
  -2 -15  -3    2.93    0.79
   2 -15   3    3.18    0.85
  -2 -15  -3    4.31    0.78
  -2  15  -3    0.32    1.92
   2  15   3    3.36    1.13
   2  15   3    3.91    1.87
   2  15   3    3.19    1.71
  -3 -15  -3   55.67    2.63
   3 -15   3   50.17    2.74
  -3 -15  -3   55.24    2.56
  -3 -15  -3   57.81    2.50
   3  15   3   56.98    3.32
   3  15   3   52.81    5.06
  -4 -15  -3    5.79    2.23
   4  15   3    4.61    3.27
  -4 -16   3   23.05    2.20
  -4 -16   3   22.97    2.12
   4  16  -3   25.22    4.12
  -3 -16   3   16.15    1.84
   3 -16  -3   16.65    2.04
  -3 -16   3   15.70    1.77
  -3  16   3   16.62    3.04
   3  16  -3   14.76    3.20
   2 -16  -3   26.03    1.95
  -2 -16   3   25.63    1.84
   2 -16  -3   24.97    1.91
   2  16  -3   21.63    3.49
  -2  16   3   27.83    3.75
   1 -16  -3   13.39    1.38
   1 -16  -3   11.01    1.34
  -1 -16   3   11.69    1.29
   1  16  -3   10.23    2.42
  -1  16   3    7.44    2.29
   0 -16  -3    1.48    0.81
   0 -16  -3    0.69    0.73
   0 -16   3    2.88    0.79
   0  16   3    1.42    1.21
   0  16  -3    0.06    2.04
   0  16   3    3.32    1.98
  -1 -16  -3    2.12    0.73
   1 -16   3    1.10    0.79
  -1 -16  -3    1.75    0.76
  -1  16  -3    3.66    2.31
   1  16   3    0.77    1.76
   1  16   3    0.23    1.35
   1  16   3   -1.46    0.91
  -2 -16  -3   10.80    1.21
   2 -16   3   14.75    1.60
  -2 -16  -3   13.28    1.49
  -2  16  -3   14.96    3.00
   2  16   3   12.70    1.65
   2  16   3   10.15    2.82
  -3 -16  -3    5.47    1.14
  -3 -16  -3    3.80    1.07
   3 -16   3    2.98    1.22
   3  16   3    4.00    1.44
   3  16   3    2.83    2.93
  -3 -17   3    1.45    1.00
   3 -17  -3    1.20    1.34
   3  17  -3    0.73    3.14
  -3  17   3   -3.51    3.02
  -2 -17   3    4.00    1.06
   2 -17  -3    5.76    1.18
   2 -17  -3    5.28    1.20
   2  17  -3    5.58    2.84
  -2  17   3    4.89    2.75
  -1 -17   3    1.39    0.83
   1 -17  -3    0.08    0.94
   1 -17  -3    1.46    0.93
  -1  17   3    0.28    2.28
   1  17  -3   -3.15    2.35
   0 -17  -3    7.08    1.08
   0 -17   3    7.93    1.12
   0 -17  -3   10.77    1.23
   0  17   3    9.86    2.54
   0  17  -3    5.76    2.54
  -1 -17  -3    1.69    0.89
  -1 -17  -3    3.56    0.97
   1 -17   3    2.28    1.00
  -1  17  -3    2.21    2.64
   1  17   3    0.27    2.47
  -2 -17  -3    3.35    0.98
   2 -17   3    3.49    1.05
  -2 -17  -3    1.49    1.01
   2  17   3   -1.00    2.79
  -2  17  -3    8.11    3.17
  -3 -17  -3    3.79    1.11
   3 -17   3    2.54    1.28
   3  17   3    1.85    3.55
  -2 -18   3    5.93    1.31
   2 -18  -3    5.35    1.39
  -2  18   3   10.03    3.37
   2  18  -3   10.46    3.47
   1 -18  -3   50.50    2.76
   1 -18  -3   48.06    2.75
  -1 -18   3   48.34    2.63
  -1  18   3   51.72    5.50
   1  18  -3   47.43    5.52
   0 -18  -3    4.83    1.15
   0 -18  -3    2.48    1.10
   0 -18   3    2.90    1.03
   0  18  -3    2.73    3.04
   0  18   3    7.96    2.73
  -1 -18  -3    2.23    1.04
   1 -18   3    1.02    1.04
  -1 -18  -3    1.00    1.01
  -1  18  -3    6.74    3.33
   1  18   3   -2.61    2.83
   2  18   3    5.75    3.42
  -2  18  -3    9.68    5.50
  -7   0   4    1.54    1.39
  -7   0   4   -0.71    1.10
   7   0  -4    0.21    0.87
  -7   0   4    0.84    1.02
  -6   0   4    9.78    1.24
  -6   0   4   10.89    1.18
  -6   0   4    9.41    2.44
  -5   0   4   -0.22    0.38
   5   0  -4    0.53    0.46
  -5   0   4   -0.57    0.51
  -5   0   4    0.55    0.62
  -4   0   4  150.12    5.11
   4   0  -4  153.94    4.81
  -4   0   4  146.66    4.91
  -4   0   4  152.15    4.68
  -4   0   4  143.75    4.89
  -4   0   4  154.95    5.28
  -3   0   4    0.53    0.34
  -3   0   4    0.16    0.26
  -3   0   4   -0.23    0.35
   3   0  -4   -0.08    0.18
   3   0  -4    0.28    0.10
  -3   0   4    0.19    0.18
   2   0  -4  377.84   11.25
   2   0  -4  400.33   11.40
   2   0  -4  400.20   11.19
  -2   0   4  368.99   11.20
  -2   0   4  398.38   11.26
  -2   0   4  375.24   11.34
  -2   0   4  413.02   11.68
   2   0  -4  386.25   11.32
  -2   0   4  372.82   11.43
   2   0  -4  379.56   11.11
   1   0  -4    0.11    0.08
   1   0  -4    0.01    0.18
   1   0  -4   -0.09    0.09
  -1   0   4    0.11    0.15
  -1   0   4    0.12    0.08
  -1   0   4    0.59    0.33
  -1   0   4   -0.07    0.11
  -1   0   4    0.01    0.10
   1   0  -4    0.30    0.16
   0   0   4  266.42    7.97
   0   0  -4  287.16    8.10
   0   0   4  258.70    7.88
   0   0  -4  279.64    7.89
   0   0   4  268.03    8.09
  -1   0  -4   -0.10    0.15
   1   0   4   -0.07    0.17
   1   0   4    0.11    0.10
  -1   0  -4    0.09    0.19
   1   0   4    0.02    0.13
  -1   0  -4    0.07    0.11
  -2   0  -4    0.04    0.18
   2   0   4    0.05    0.14
  -2   0  -4    0.34    0.24
   2   0   4    0.13    0.20
   2   0   4   -0.02    0.25
   2   0   4    0.53    0.17
  -2   0  -4   -0.04    0.29
  -3   0  -4    0.41    0.50
  -3   0  -4   -0.08    0.39
   3   0   4    0.54    0.59
  -3   0  -4   -0.03    0.29
   3   0   4   -0.14    0.19
   3   0   4    0.50    0.30
   4   0   4   70.39    2.71
  -4   0  -4   76.90    2.38
   4   0   4   72.74    2.61
  -4   0  -4   68.14    2.80
   4   0   4   76.67    3.12
  -4   0  -4   75.52    3.17
  -4   0  -4   74.16    3.04
  -4   0  -4   72.18    2.83
  -5   0  -4   -0.42    0.44
  -5   0  -4    0.19    0.59
  -5   0  -4    0.09    0.70
   5   0   4   -0.04    0.51
   5   0   4    0.86    0.85
  -6   0  -4   94.83    4.04
  -6   0  -4  102.34    3.68
   6   0   4   95.59    3.72
  -6   0  -4   95.56    4.31
  -7   0  -4   -0.57    1.44
  -7   0  -4    0.27    1.16
  -7   0  -4   -0.81    1.26
   7   0   4    0.11    1.04
  -7  -1   4   11.14    1.96
  -7  -1   4   10.82    1.66
  -7  -1   4   13.45    1.47
   7  -1  -4    9.67    1.27
  -7   1   4   12.26    1.97
   7   1  -4   10.11    1.24
  -7   1   4   12.23    1.53
  -6  -1   4    5.96    1.07
   6  -1  -4    6.92    1.35
  -6  -1   4    2.59    2.10
  -6  -1   4    7.23    0.92
  -6   1   4    7.12    0.90
  -6   1   4    7.84    1.12
  -6   1   4    5.53    1.62
  -5  -1   4    6.72    1.10
   5  -1  -4    7.65    0.88
  -5  -1   4    5.96    0.92
  -5  -1   4    8.28    0.82
  -5   1   4    8.35    0.82
   5   1  -4    8.25    0.91
  -5   1   4    6.19    0.98
  -5   1   4    8.58    1.02
  -4  -1   4   26.77    1.40
  -4  -1   4   27.36    1.57
  -4  -1   4   24.06    1.56
  -4  -1   4   26.93    1.93
  -4  -1   4   26.93    1.18
   4  -1  -4   28.12    1.27
  -4   1   4   24.36    1.27
   4   1  -4   27.32    1.26
  -4   1   4   25.44    1.42
  -4   1   4   27.72    1.34
  -4   1   4   28.02    1.75
  -4   1   4   28.21    1.51
  -3  -1   4    1.16    0.45
  -3  -1   4    0.92    0.32
  -3  -1   4    0.75    0.26
  -3  -1   4    0.98    0.39
  -3  -1   4   -0.22    0.49
   3  -1  -4    0.78    0.16
   3  -1  -4    0.61    0.24
  -3   1   4    1.00    0.23
   3   1  -4    0.86    0.28
   3   1  -4    0.96    0.55
   3   1  -4    0.60    0.25
  -3   1   4    0.81    0.29
  -3   1   4    0.95    0.33
  -3   1   4    0.80    0.25
  -3   1   4    0.96    0.35
   2  -1  -4   78.45    2.58
   2  -1  -4   78.67    2.55
  -2  -1   4   81.94    2.69
  -2  -1   4   81.11    3.03
   2  -1  -4   80.36    2.44
   2  -1  -4   84.07    2.44
   2  -1  -4   79.26    2.61
  -2  -1   4   80.12    2.53
  -2  -1   4   80.34    2.78
  -2  -1   4   83.51    2.56
  -2  -1   4   75.46    2.65
  -2   1   4   80.32    2.56
  -2   1   4   87.44    2.42
   2   1  -4   81.68    2.55
  -2   1   4   78.43    2.67
   2   1  -4   85.19    2.53
  -2   1   4   76.35    2.58
  -2   1   4   81.36    2.52
  -2   1   4   84.19    2.92
   2   1  -4   79.76    2.90
   2   1  -4   83.41    2.77
   2   1  -4   78.91    2.66
  -1  -1   4   43.78    1.33
  -1  -1   4   44.31    1.63
  -1  -1   4   45.92    1.41
  -1  -1   4   43.26    1.44
  -1  -1   4   42.48    1.53
   1  -1  -4   44.51    1.50
   1  -1  -4   45.76    1.55
   1  -1  -4   44.56    1.40
   1  -1  -4   44.70    1.46
  -1   1   4   43.87    1.41
   1   1  -4   47.25    1.57
   1   1  -4   46.61    1.73
  -1   1   4   43.76    1.58
   1   1  -4   44.82    1.44
  -1   1   4   47.20    1.52
   1   1  -4   44.79    1.41
  -1   1   4   45.48    1.45
   1   1  -4   46.49    1.63
   0  -1  -4    0.72    0.13
   0  -1   4    0.45    0.20
   0  -1  -4    0.76    0.23
   0  -1   4    0.83    0.11
   0  -1   4    0.89    0.14
   0  -1   4    0.68    0.18
   0  -1  -4    0.88    0.17
   0  -1   4    1.28    0.29
   0   1   4    0.98    0.19
   0   1   4    0.69    0.20
   0   1  -4    1.14    0.24
   0   1   4    0.93    0.15
   0   1  -4    0.94    0.20
   0   1  -4    0.89    0.25
   0   1  -4    0.95    0.16
   1  -1   4  123.95    3.75
  -1  -1  -4  126.92    3.78
  -1  -1  -4  126.33    4.00
   1  -1   4  124.67    3.75
   1  -1   4  124.43    3.94
   1  -1   4  125.40    3.85
   1   1   4  121.80    3.88
  -1   1  -4  132.63    3.86
   1   1   4  127.40    4.02
  -1   1  -4  125.59    3.95
  -1   1  -4  138.71    3.81
  -1   1  -4  123.08    3.75
   1   1   4  125.09    3.78
   2  -1   4   45.79    1.49
   2  -1   4   44.27    1.54
  -2  -1  -4   44.00    1.55
  -2  -1  -4   47.52    1.72
  -2  -1  -4   49.27    1.89
   2  -1   4   48.12    1.63
  -2   1  -4   47.28    1.52
  -2   1  -4   44.27    1.76
   2   1   4   44.90    1.85
   2   1   4   43.51    1.67
   2   1   4   45.54    1.63
  -2   1  -4   47.95    1.63
   2   1   4   43.90    1.55
  -3  -1  -4   54.83    2.27
   3  -1   4   50.23    1.86
   3  -1   4   49.99    1.81
  -3  -1  -4   52.88    2.01
  -3  -1  -4   47.08    2.01
   3  -1   4   53.90    2.08
   3   1   4   48.95    1.76
  -3   1  -4   52.53    1.92
  -3   1  -4   51.42    2.13
   3   1   4   48.16    1.83
  -3   1  -4   48.81    1.97
   3   1   4   49.78    2.20
   3   1   4   48.46    1.96
   3   1   4   50.75    1.82
   4  -1   4   23.97    1.20
   4  -1   4   24.53    1.34
  -4  -1  -4   25.48    1.69
  -4  -1  -4   24.15    0.99
  -4  -1  -4   25.48    1.98
  -4  -1  -4   23.76    1.43
  -4   1  -4   25.89    1.51
  -4   1  -4   25.11    1.10
  -4   1  -4   25.52    1.39
   4   1   4   27.27    1.92
   4   1   4   25.16    1.26
  -4   1  -4   27.54    1.76
   4   1   4   22.24    1.41
   5  -1   4    5.29    0.75
  -5  -1  -4    6.15    0.94
   5  -1   4    6.79    1.04
  -5  -1  -4    4.95    0.98
  -5  -1  -4    5.33    0.72
   5   1   4    4.76    0.71
  -5   1  -4    4.68    0.97
  -5   1  -4    4.77    0.85
  -5   1  -4    6.11    0.72
  -6  -1  -4   10.58    1.64
   6  -1   4   12.98    1.43
  -6  -1  -4   11.28    1.22
  -6  -1  -4   13.53    1.67
  -6   1  -4   12.94    1.36
  -6   1  -4   11.29    1.56
   6   1   4   10.76    1.39
  -7  -1  -4    0.81    1.13
  -7  -1  -4   -1.25    1.48
   7  -1   4    1.31    1.06
  -7  -1  -4    1.41    1.40
  -7   1  -4    0.84    1.29
  -7   1  -4    4.27    1.61
   7   1   4    0.87    1.09
  -7  -2   4   -0.28    1.46
  -7  -2   4    0.36    1.24
  -7  -2   4    0.57    1.02
   7  -2  -4    1.83    0.88
   7   2  -4   -0.08    0.84
  -7   2   4    1.98    1.40
  -7   2   4   -0.33    1.12
  -6  -2   4    0.87    1.39
  -6  -2   4    2.38    0.75
   6  -2  -4    1.27    0.63
   6   2  -4    4.30    0.88
  -6   2   4    1.61    1.05
  -6   2   4    3.37    0.78
  -6   2   4    2.63    0.84
  -5  -2   4   25.07    1.95
  -5  -2   4   25.17    1.33
   5  -2  -4   27.61    1.45
  -5  -2   4   24.67    1.65
  -5   2   4   25.99    1.45
  -5   2   4   29.72    1.77
   5   2  -4   26.58    1.42
  -5   2   4   26.73    1.27
   4  -2  -4    7.81    0.70
  -4  -2   4    8.17    1.09
  -4  -2   4    6.53    0.82
  -4  -2   4    6.24    1.09
  -4  -2   4    7.31    0.63
  -4   2   4    7.35    0.85
   4   2  -4    8.24    0.72
  -4   2   4    7.77    0.59
  -4   2   4    7.45    0.70
  -4   2   4    7.89    0.87
  -4   2   4    8.87    1.14
   4   2  -4    7.24    1.05
   3  -2  -4  160.12    4.68
  -3  -2   4  147.32    5.18
   3  -2  -4  160.14    4.89
  -3  -2   4  160.91    5.38
  -3  -2   4  158.35    5.07
  -3  -2   4  158.93    5.06
   3   2  -4  155.76    4.82
  -3   2   4  153.70    4.72
   3   2  -4  154.69    5.36
  -3   2   4  154.53    4.98
  -3   2   4  161.17    4.87
   3   2  -4  160.35    4.87
  -3   2   4  166.92    4.73
   2  -2  -4   98.20    3.00
  -2  -2   4  102.79    3.60
  -2  -2   4   94.89    3.30
  -2  -2   4   95.54    3.20
  -2  -2   4   94.66    3.02
  -2  -2   4   94.50    3.18
   2  -2  -4   98.71    2.95
   2  -2  -4   97.82    3.06
   2  -2  -4   96.18    3.00
  -2   2   4   96.51    3.12
  -2   2   4   93.54    3.05
  -2   2   4   97.14    3.03
  -2   2   4   96.14    2.92
  -2   2   4  104.31    2.91
   2   2  -4   99.54    3.31
   2   2  -4   96.80    3.01
   2   2  -4   93.70    3.19
   2   2  -4  100.23    3.47
   2   2  -4   99.92    3.03
  -2   2   4  101.46    3.39
   1  -2  -4  140.28    4.02
   1  -2  -4  135.70    4.00
  -1  -2   4  134.42    4.10
   1  -2  -4  136.09    4.14
   1  -2  -4  136.28    4.09
   1  -2  -4  137.49    4.13
  -1  -2   4  148.65    4.54
   1  -2  -4  142.12    4.17
  -1  -2   4  133.65    4.31
  -1  -2   4  133.54    4.02
  -1  -2   4  139.39    4.24
  -1   2   4  144.98    4.14
   1   2  -4  136.09    4.04
   1   2  -4  142.13    4.24
  -1   2   4  137.91    3.99
  -1   2   4  135.36    4.14
  -1   2   4  134.41    4.04
   1   2  -4  138.55    4.32
   1   2  -4  140.03    4.46
  -1   2   4  132.59    4.21
   0  -2  -4  205.08    6.00
   0  -2  -4  205.21    5.87
   0  -2   4  210.57    6.05
   0  -2   4  191.04    5.76
   0  -2  -4  197.86    5.78
   0  -2   4  193.42    5.89
   0  -2   4  198.76    6.01
   0  -2   4  188.46    5.79
   0   2   4  187.53    5.78
   0   2   4  189.22    5.86
   0   2  -4  209.49    5.80
   0   2  -4  193.07    5.99
   0   2  -4  202.88    5.90
   0   2  -4  198.37    5.76
   0   2  -4  206.53    6.02
   0   2   4  193.65    5.98
   1  -2   4   18.05    0.65
   1  -2   4   18.36    0.75
  -1  -2  -4   18.76    0.82
   1  -2   4   17.95    0.62
  -1  -2  -4   18.18    0.72
   1   2   4   17.05    0.91
  -1   2  -4   18.59    0.87
  -1   2  -4   18.31    0.73
  -1   2  -4   18.25    0.78
  -1   2  -4   18.99    0.67
  -1   2  -4   17.99    0.70
   1   2   4   17.57    0.79
   2  -2   4   21.13    0.88
  -2  -2  -4   21.58    1.09
   2  -2   4   19.99    0.82
   2  -2   4   20.69    0.98
  -2  -2  -4   23.28    1.24
  -2  -2  -4   20.92    1.03
   2  -2   4   19.96    0.74
   2   2   4   21.21    1.19
   2   2   4   20.24    1.02
  -2   2  -4   22.50    0.92
  -2   2  -4   20.97    1.02
   2   2   4   20.14    0.99
  -2   2  -4   22.99    0.82
   2   2   4   20.86    0.89
   3  -2   4    6.52    0.57
   3  -2   4    6.12    0.58
   3  -2   4    6.87    0.83
  -3  -2  -4    6.53    0.92
  -3  -2  -4    5.63    0.70
  -3   2  -4    6.09    0.55
   3   2   4    5.45    0.67
  -3   2  -4    6.18    0.80
   3   2   4    6.20    0.54
   3   2   4    5.97    0.78
  -3   2  -4    6.23    0.65
   3   2   4    6.57    0.90
  -4  -2  -4    6.55    1.22
  -4  -2  -4    6.19    0.89
  -4  -2  -4    5.12    0.97
  -4  -2  -4    5.36    0.65
   4  -2   4    5.55    0.64
   4  -2   4    6.98    0.82
  -4  -2  -4    5.67    0.39
  -4   2  -4    5.87    0.94
   4   2   4    5.32    0.66
  -4   2  -4    4.84    0.75
   4   2   4    6.60    1.16
   4   2   4    6.76    0.82
  -4   2  -4    5.11    0.70
   5  -2   4   33.90    1.70
  -5  -2  -4   36.90    2.38
  -5  -2  -4   34.00    1.68
  -5  -2  -4   32.83    1.98
   5   2   4   34.98    1.76
  -5   2  -4   36.36    2.17
  -5   2  -4   35.98    1.88
   5   2   4   34.36    2.10
   6  -2   4   14.93    1.54
  -6  -2  -4   20.15    2.37
  -6  -2  -4   15.63    1.54
  -6  -2  -4   17.21    1.74
  -6   2  -4   17.32    1.52
   6   2   4   17.39    1.56
  -6   2  -4   15.91    1.97
  -6   2  -4   13.63    2.16
  -7  -2  -4   16.31    1.68
  -7  -2  -4   12.04    1.81
  -7  -2  -4   12.61    2.21
   7  -2   4   12.67    1.54
  -7   2  -4   10.90    1.88
  -7   2  -4   13.92    1.76
   7   2   4   11.88    1.50
  -7  -3   4   12.06    1.42
   7  -3  -4    9.90    1.28
  -7  -3   4    9.08    1.69
  -7  -3   4    8.19    2.01
   7   3  -4    7.91    1.17
  -7   3   4    8.92    1.63
  -7   3   4   13.06    1.49
   6  -3  -4  112.59    4.18
  -6  -3   4  118.25    4.12
  -6  -3   4  114.66    5.08
  -6  -3   4  113.51    4.57
  -6   3   4  111.24    4.09
  -6   3   4  116.27    3.94
  -6   3   4  111.75    4.49
   6   3  -4  118.29    4.20
  -5  -3   4    3.59    0.57
  -5  -3   4    3.02    0.76
   5  -3  -4    3.07    0.56
  -5  -3   4    4.59    1.07
  -5   3   4    3.32    0.56
  -5   3   4    2.78    0.63
   5   3  -4    3.78    0.66
  -5   3   4    3.00    0.72
   5   3  -4    1.99    1.11
  -4  -3   4   98.79    3.34
  -4  -3   4   99.33    3.91
   4  -3  -4   99.79    3.41
  -4  -3   4   98.88    3.64
  -4  -3   4   98.83    4.17
   4  -3  -4  100.97    3.10
  -4   3   4   99.84    3.50
  -4   3   4   99.92    3.33
   4   3  -4  102.54    4.00
  -4   3   4  108.79    3.36
  -4   3   4   99.51    3.61
   4   3  -4  100.51    3.38
  -4   3   4   96.34    3.16
   3  -3  -4    0.71    0.24
  -3  -3   4    0.95    0.45
  -3  -3   4    1.86    0.77
   3  -3  -4    0.29    0.33
  -3  -3   4    0.38    0.28
  -3  -3   4    0.91    0.25
   3  -3  -4    0.60    0.20
  -3   3   4    0.41    0.25
  -3   3   4    1.24    0.34
   3   3  -4    0.86    0.59
  -3   3   4    0.55    0.24
  -3   3   4    0.92    0.20
  -3   3   4    1.21    0.31
  -3   3   4    0.74    0.27
   3   3  -4    0.86    0.26
   2  -3  -4    5.62    0.37
  -2  -3   4    4.92    0.90
  -2  -3   4    5.23    0.66
   2  -3  -4    6.21    0.34
  -2  -3   4    5.91    0.43
  -2  -3   4    4.95    0.71
   2  -3  -4    5.73    0.40
   2  -3  -4    5.88    0.46
  -2  -3   4    6.64    0.57
  -2  -3   4    5.15    0.68
  -2   3   4    6.83    0.35
   2   3  -4    6.31    0.41
  -2   3   4    5.54    0.48
   2   3  -4    7.05    0.52
  -2   3   4    5.72    0.41
   2   3  -4    6.05    0.32
   2   3  -4    6.52    0.81
  -2   3   4    5.43    0.30
  -2   3   4    5.82    0.40
   2   3  -4    7.31    0.84
   2   3  -4    6.86    0.86
  -1  -3   4   21.03    0.74
  -1  -3   4   20.17    0.91
  -1  -3   4   20.92    0.80
   1  -3  -4   21.58    0.83
  -1  -3   4   23.07    1.30
   1  -3  -4   21.30    0.87
  -1  -3   4   21.20    1.02
   1  -3  -4   21.05    0.67
   1  -3  -4   21.33    0.80
   1  -3  -4   20.83    0.81
   1  -3  -4   21.27    0.73
   1   3  -4   22.26    0.83
  -1   3   4   20.85    0.81
   1   3  -4   22.03    1.21
  -1   3   4   21.53    0.81
  -1   3   4   21.58    0.86
   1   3  -4   21.59    0.95
  -1   3   4   21.67    0.72
   1   3  -4   20.93    0.73
  -1   3   4   20.89    0.74
  -1   3   4   19.42    0.89
   0  -3  -4  330.01    9.86
   0  -3  -4  329.21    9.90
   0  -3   4  336.81   10.10
   0  -3  -4  358.24    9.97
   0  -3   4  366.48   10.22
   0  -3   4  320.32    9.88
   0  -3   4  321.90    9.87
   0  -3   4  342.93   10.00
   0  -3  -4  368.40   10.10
   0   3   4  320.05    9.87
   0   3  -4  348.68    9.89
   0   3   4  335.60   10.09
   0   3  -4  347.42    9.88
   0   3  -4  341.30   10.18
   0   3   4  331.74    9.96
   0   3  -4  368.49   10.02
   1  -3   4   80.13    2.52
   1  -3   4   75.65    2.45
   1  -3   4   77.14    2.30
  -1  -3  -4   76.56    2.40
   1  -3   4   74.30    2.44
   1  -3   4   78.63    2.45
  -1  -3  -4   78.35    2.42
  -1  -3  -4   77.13    2.68
  -1  -3  -4   80.20    2.55
   1  -3   4   76.44    2.32
  -1   3  -4   75.42    2.48
  -1   3  -4   77.48    2.47
   1   3   4   73.95    2.42
   1   3   4   77.71    2.61
  -1   3  -4   80.85    2.44
   1   3   4   77.96    2.71
   1   3   4   76.21    2.55
  -1   3  -4   79.30    2.58
  -1   3  -4   77.44    2.36
   2  -3   4  427.41   13.06
  -2  -3  -4  479.34   13.34
  -2  -3  -4  438.92   13.41
   2  -3   4  486.31   13.16
  -2  -3  -4  429.55   13.04
   2  -3   4  453.45   13.11
   2  -3   4  444.19   12.93
  -2  -3  -4  471.94   13.57
  -2   3  -4  458.44   13.15
   2   3   4  432.88   13.17
   2   3   4  451.68   13.42
   2   3   4  431.64   13.33
  -2   3  -4  474.87   13.04
  -2   3  -4  459.25   13.15
   2   3   4  439.89   13.58
  -2   3  -4  454.23   13.27
  -3  -3  -4   19.64    1.57
  -3  -3  -4   19.77    0.77
   3  -3   4   19.87    0.94
   3  -3   4   20.81    0.91
  -3  -3  -4   19.51    1.20
   3  -3   4   20.19    1.03
  -3  -3  -4   18.79    1.34
  -3   3  -4   19.64    1.13
  -3   3  -4   20.75    1.00
   3   3   4   18.79    1.47
   3   3   4   17.45    1.33
   3   3   4   20.09    1.31
   3   3   4   19.32    0.94
  -4  -3  -4  226.02    7.71
  -4  -3  -4  194.40    5.86
  -4  -3  -4  203.02    6.27
   4  -3   4  206.46    6.15
  -4  -3  -4  191.30    6.80
  -4  -3  -4  190.41    6.61
   4  -3   4  198.69    6.21
   4   3   4  208.24    6.99
   4   3   4  191.32    6.49
   4   3   4  192.56    6.52
  -4   3  -4  210.89    6.26
  -4   3  -4  207.82    6.54
   4   3   4  198.34    6.33
  -4   3  -4  192.20    6.33
   5  -3   4    3.16    0.66
  -5  -3  -4    1.97    0.95
  -5  -3  -4    2.69    0.62
  -5  -3  -4    2.58    0.83
   5   3   4    2.22    0.62
  -5   3  -4    4.54    0.92
   5   3   4    4.36    1.02
  -5   3  -4    2.41    0.69
   5   3   4    3.80    1.04
  -6  -3  -4   22.19    2.37
  -6  -3  -4   20.33    2.06
   6  -3   4   21.18    1.62
  -6   3  -4   22.13    1.61
  -6   3  -4   17.08    2.00
  -6   3  -4   21.29    1.83
   6   3   4   19.50    1.67
  -7  -3  -4   -0.55    1.38
  -7  -3  -4    1.06    1.84
  -7  -3  -4   -0.16    1.12
   7  -3   4    1.63    1.06
  -7   3  -4    0.92    1.37
   7   3   4   -0.98    1.03
  -7   3  -4    1.20    1.46
  -7  -4   4    4.31    1.42
  -7  -4   4   -1.12    1.74
  -7  -4   4   -0.06    1.06
   7  -4  -4   -0.01    0.92
   7   4  -4    0.36    1.00
  -7   4   4   -1.15    1.33
  -7   4   4   -0.92    1.16
  -6  -4   4    9.66    1.39
  -6  -4   4   13.51    1.36
   6  -4  -4   12.31    1.43
  -6  -4   4   13.64    1.93
  -6   4   4   12.77    1.31
   6   4  -4   12.95    1.36
  -6   4   4   12.52    1.66
   5  -4  -4    3.97    0.63
  -5  -4   4    4.44    0.92
  -5  -4   4    3.73    0.65
  -5  -4   4    3.73    1.08
   5   4  -4    3.11    1.27
  -5   4   4    4.69    0.82
  -5   4   4    3.62    0.61
  -5   4   4    3.22    0.89
   5   4  -4    3.59    0.69
  -4  -4   4    4.60    0.85
  -4  -4   4    4.91    0.77
  -4  -4   4    5.57    0.64
   4  -4  -4    4.44    0.57
   4  -4  -4    5.73    0.54
   4   4  -4    5.62    1.18
   4   4  -4    6.07    0.69
  -4   4   4    5.89    0.69
  -4   4   4    5.25    0.57
  -4   4   4    4.85    0.48
  -4   4   4    5.72    0.76
  -4   4   4    5.93    0.59
  -3  -4   4    8.94    1.18
   3  -4  -4    8.82    0.55
  -3  -4   4    9.43    1.00
  -3  -4   4    9.24    0.63
   3  -4  -4    9.48    0.68
  -3  -4   4   10.43    0.85
   3   4  -4   10.44    0.64
  -3   4   4    9.11    0.64
  -3   4   4    8.68    0.58
  -3   4   4    8.77    0.46
  -3   4   4    9.33    0.66
  -3   4   4   10.41    0.58
   3   4  -4   13.03    1.31
  -3   4   4    9.76    0.61
   2  -4  -4    7.70    0.43
   2  -4  -4    7.85    0.47
  -2  -4   4    7.04    0.76
  -2  -4   4    8.12    0.58
  -2  -4   4    8.29    0.67
  -2  -4   4    8.71    0.97
   2  -4  -4    7.78    0.38
   2  -4  -4    7.02    0.63
  -2  -4   4    7.93    0.44
   2   4  -4    8.37    1.10
  -2   4   4    7.46    0.52
  -2   4   4    7.40    0.43
   2   4  -4    8.43    0.98
  -2   4   4    7.97    0.44
   2   4  -4    8.23    0.40
   2   4  -4    7.45    0.47
  -2   4   4    7.77    0.52
  -2   4   4    7.26    0.34
  -1  -4   4   44.22    1.65
   1  -4  -4   42.34    1.47
  -1  -4   4   44.08    1.62
  -1  -4   4   45.09    2.00
   1  -4  -4   43.62    1.45
  -1  -4   4   42.65    1.46
   1  -4  -4   43.96    1.41
   1  -4  -4   43.51    1.42
  -1  -4   4   41.51    1.70
  -1  -4   4   41.14    1.42
  -1   4   4   44.38    1.41
   1   4  -4   46.90    1.46
   1   4  -4   43.00    1.49
  -1   4   4   43.12    1.38
   1   4  -4   44.87    1.75
  -1   4   4   43.28    1.50
  -1   4   4   43.01    1.57
   1   4  -4   44.61    1.94
   1   4  -4   45.53    1.66
  -1   4   4   42.79    1.54
   1   4  -4   42.44    1.38
  -1   4   4   42.76    1.44
   0  -4   4   47.07    1.85
   0  -4   4   48.12    1.72
   0  -4  -4   48.08    1.47
   0  -4   4   45.71    1.49
   0  -4  -4   42.40    1.51
   0  -4  -4   46.46    1.70
   0  -4   4   45.54    1.51
   0  -4   4   45.21    1.60
   0  -4  -4   47.58    1.58
   0   4  -4   46.77    1.52
   0   4  -4   46.82    1.50
   0   4  -4   41.04    1.81
   0   4   4   44.75    1.57
   0   4   4   43.79    1.69
   0   4   4   45.86    1.48
   0   4  -4   42.85    1.84
   0   4  -4   46.28    1.35
   0   4  -4   49.27    1.63
  -1  -4  -4   17.62    0.88
  -1  -4  -4   17.53    1.03
   1  -4   4   18.00    0.86
   1  -4   4   17.93    0.77
  -1  -4  -4   17.90    0.73
   1  -4   4   17.92    0.63
   1  -4   4   18.59    0.78
  -1  -4  -4   19.54    0.95
  -1  -4  -4   17.28    0.75
   1  -4   4   17.50    0.61
   1   4   4   18.12    0.87
  -1   4  -4   19.15    0.80
  -1   4  -4   17.58    0.89
  -1   4  -4   18.01    0.92
  -1   4  -4   17.84    0.62
   1   4   4   16.78    1.01
   1   4   4   18.38    1.01
  -1   4  -4   17.71    0.80
  -1   4  -4   18.99    0.70
   1   4   4   18.09    0.77
  -2  -4  -4   46.95    1.52
  -2  -4  -4   46.90    1.65
   2  -4   4   47.16    1.55
  -2  -4  -4   49.41    2.09
   2  -4   4   47.15    1.53
  -2  -4  -4   44.93    1.98
   2  -4   4   46.77    1.48
   2   4   4   45.71    1.83
  -2   4  -4   41.52    1.71
  -2   4  -4   45.54    1.48
  -2   4  -4   44.12    1.53
  -2   4  -4   45.62    1.72
   2   4   4   44.29    1.97
   2   4   4   44.35    2.05
   2   4   4   45.42    1.65
   3  -4   4    1.01    0.31
  -3  -4  -4    1.69    0.51
  -3  -4  -4    1.12    0.30
  -3  -4  -4    2.01    0.59
  -3  -4  -4    1.33    0.22
  -3   4  -4    1.67    0.45
   3   4   4    1.38    0.36
   3   4   4    1.60    0.52
  -3   4  -4    1.60    0.39
   3   4   4    1.67    0.71
   3   4   4    2.01    0.71
  -4  -4  -4    8.37    1.07
   4  -4   4    8.15    0.79
  -4  -4  -4    7.16    1.04
  -4  -4  -4    8.06    0.45
  -4  -4  -4    9.66    0.80
   4  -4   4    9.44    1.02
  -4   4  -4    9.61    0.97
  -4   4  -4    7.82    1.07
   4   4   4    6.68    1.48
   4   4   4    8.75    1.28
   4   4   4    8.76    1.06
  -4   4  -4    7.79    0.85
  -5  -4  -4    4.33    0.75
   5  -4   4    4.21    0.71
  -5  -4  -4    2.42    0.84
  -5  -4  -4    4.27    1.21
  -5   4  -4    3.39    0.72
   5   4   4    4.04    1.25
  -5   4  -4    4.24    0.92
   5   4   4    2.25    1.02
   5   4   4    4.55    0.80
  -6  -4  -4    0.82    0.77
  -6  -4  -4    0.08    1.34
  -6  -4  -4    0.15    0.98
   6  -4   4    0.45    0.70
  -6   4  -4    0.03    0.85
  -6   4  -4    1.07    1.01
   6   4   4   -0.79    0.72
  -7  -4  -4    1.05    1.98
  -7  -4  -4    3.54    1.57
   7  -4   4    4.54    1.20
  -7  -4  -4    2.55    1.27
  -7   4  -4    4.58    1.50
  -7   4  -4    3.52    1.32
   7   4   4    2.25    1.22
  -7  -5   4   12.57    2.45
   7  -5  -4   12.86    1.51
  -7  -5   4   10.91    1.83
  -7  -5   4    8.95    1.40
  -7   5   4   13.29    1.74
   7   5  -4    6.90    1.24
  -6  -5   4   52.12    3.52
   6  -5  -4   53.06    2.47
  -6  -5   4   50.72    2.87
  -6  -5   4   51.53    2.39
  -6   5   4   45.67    2.57
   6   5  -4   53.98    2.44
  -6   5   4   48.35    2.11
   6   5  -4   48.40    3.78
  -5  -5   4    6.34    1.04
   5  -5  -4    6.76    0.83
  -5  -5   4    6.67    0.80
  -5  -5   4    6.12    1.29
  -5   5   4    5.89    0.62
  -5   5   4    5.95    1.02
   5   5  -4    6.70    0.82
  -5   5   4    5.54    0.64
   5   5  -4    7.86    1.56
  -5   5   4    6.12    0.86
   4  -5  -4   94.35    3.08
  -4  -5   4   95.82    3.27
  -4  -5   4   95.38    3.63
   4  -5  -4   96.21    3.32
  -4  -5   4   95.81    3.87
  -4   5   4   92.39    3.21
  -4   5   4   95.11    3.02
  -4   5   4   93.58    3.40
  -4   5   4   96.48    3.03
  -4   5   4   93.66    2.96
   4   5  -4   94.86    4.06
   4   5  -4   97.61    3.28
  -3  -5   4    3.90    0.69
  -3  -5   4    6.80    0.55
  -3  -5   4    4.10    0.63
   3  -5  -4    5.15    0.51
   3  -5  -4    4.73    0.59
  -3   5   4    5.65    0.43
   3   5  -4    5.34    0.32
  -3   5   4    5.93    0.46
   3   5  -4    5.63    1.09
   3   5  -4    5.03    0.53
  -3   5   4    5.27    0.35
  -3   5   4    5.33    0.52
  -2  -5   4    4.63    0.92
  -2  -5   4    4.40    0.38
   2  -5  -4    5.15    0.40
  -2  -5   4    4.09    0.43
  -2  -5   4    5.45    0.74
  -2  -5   4    3.50    0.75
   2  -5  -4    4.73    0.52
   2  -5  -4    5.13    0.44
   2   5  -4    5.47    0.81
  -2   5   4    4.45    0.46
  -2   5   4    4.79    0.34
   2   5  -4    5.17    0.90
  -2   5   4    4.70    0.42
   2   5  -4    5.17    0.37
  -2   5   4    4.80    0.27
  -1  -5   4   71.16    2.51
   1  -5  -4   70.39    2.37
  -1  -5   4   71.27    2.55
   1  -5  -4   72.24    2.31
  -1  -5   4   74.60    2.65
  -1  -5   4   76.10    2.78
   1  -5  -4   64.56    2.41
  -1  -5   4   76.97    2.97
   1  -5  -4   74.37    2.33
   1  -5  -4   72.92    2.24
   1  -5  -4   77.22    2.23
  -1  -5   4   75.17    2.33
  -1  -5   4   72.93    2.34
  -1   5   4   74.82    2.44
  -1   5   4   69.51    2.43
  -1   5   4   70.97    2.38
   1   5  -4   73.64    2.39
  -1   5   4   75.50    2.32
   1   5  -4   72.30    2.91
  -1   5   4   73.45    2.24
   1   5  -4   80.94    2.60
   1   5  -4   77.50    2.35
   1   5  -4   74.15    2.68
  -1   5   4   76.63    2.33
   0  -5  -4  122.49    3.89
   0  -5   4  125.79    3.86
   0  -5  -4  127.50    3.84
   0  -5   4  125.42    3.91
   0  -5  -4  133.21    3.98
   0  -5   4  123.42    4.13
   0  -5   4  129.53    4.00
   0  -5  -4  137.23    3.85
   0  -5  -4  128.23    4.01
   0  -5   4  126.55    3.99
   0  -5   4  130.11    4.30
   0  -5  -4  122.70    3.92
   0  -5  -4  126.53    4.08
   0  -5   4  131.73    4.12
   0   5  -4  129.04    4.16
   0   5   4  130.91    4.15
   0   5  -4  128.80    3.76
   0   5   4  130.79    3.94
   0   5   4  126.88    3.98
   0   5  -4  136.59    4.04
   0   5  -4  126.24    3.88
   0   5  -4  134.37    3.94
   0   5   4  131.89    3.88
   0   5  -4  130.35    3.95
   0   5  -4  126.86    4.34
   1  -5   4   67.59    2.05
  -1  -5  -4   69.96    2.47
   1  -5   4   69.68    2.05
   1  -5   4   69.01    2.13
   1  -5   4   73.93    2.28
  -1  -5  -4   69.50    2.54
  -1  -5  -4   68.53    2.56
  -1  -5  -4   71.03    2.24
  -1  -5  -4   69.38    2.24
   1  -5   4   65.44    2.27
   1  -5   4   71.13    2.27
  -1  -5  -4   70.49    2.26
   1  -5   4   68.00    2.29
   1  -5   4   72.48    2.42
  -1   5  -4   69.87    2.40
   1   5   4   68.80    2.62
   1   5   4   67.02    2.26
   1   5   4   69.49    2.42
   1   5   4   70.82    2.64
  -1   5  -4   71.14    2.10
  -1   5  -4   64.13    2.47
  -1   5  -4   72.02    2.29
  -1   5  -4   72.62    2.18
   2  -5   4  271.28    8.12
   2  -5   4  275.39    8.30
  -2  -5  -4  280.48    8.69
  -2  -5  -4  273.33    8.54
  -2  -5  -4  271.44    8.13
   2  -5   4  286.07    8.09
  -2  -5  -4  277.94    8.27
  -2   5  -4  296.08    8.40
  -2   5  -4  282.84    8.13
  -2   5  -4  281.65    8.07
  -2   5  -4  266.88    8.25
   2   5   4  276.18    8.73
   2   5   4  280.37    8.81
   2   5   4  274.71    8.49
  -2   5  -4  270.49    8.32
   2   5   4  276.38    8.29
  -3  -5  -4   30.54    1.10
  -3  -5  -4   28.64    1.32
   3  -5   4   31.30    1.08
  -3  -5  -4   30.89    1.63
   3  -5   4   30.79    1.24
  -3  -5  -4   32.43    1.85
   3   5   4   28.49    1.33
   3   5   4   32.19    2.05
  -3   5  -4   28.90    1.25
  -3   5  -4   30.52    1.39
   3   5   4   31.52    1.58
   3   5   4   28.01    1.94
  -4  -5  -4  139.76    5.20
  -4  -5  -4  140.92    4.07
  -4  -5  -4  132.21    4.48
  -4  -5  -4  135.81    4.90
   4  -5   4  137.62    4.39
  -4   5  -4  134.28    4.41
  -4   5  -4  130.19    4.55
   4   5   4  125.17    5.29
  -4   5  -4  145.28    4.38
   4   5   4  131.96    5.10
   4   5   4  143.02    4.90
  -5  -5  -4    4.34    0.72
  -5  -5  -4    2.72    1.23
   5  -5   4    4.70    0.73
  -5  -5  -4    4.33    1.01
   5   5   4    3.38    1.13
   5   5   4    2.95    0.73
  -5   5  -4    4.49    0.76
   5   5   4    6.62    1.48
  -5   5  -4    4.71    0.90
  -6  -5  -4    9.20    1.14
   6  -5   4    9.58    1.15
  -6  -5  -4   13.36    2.07
  -6  -5  -4    9.13    1.46
  -6   5  -4    7.99    1.28
   6   5   4    9.89    1.25
   6   5   4   13.84    2.12
  -6   5  -4   10.62    1.21
  -7  -5  -4    2.16    1.20
  -7  -5  -4    3.89    1.57
   7  -5   4   -0.23    1.25
  -7  -5  -4   -0.14    2.23
  -7   5  -4    0.75    1.41
   7   5   4    2.32    1.28
  -7  -6   4    1.82    1.52
   7  -6  -4    0.33    1.12
  -7  -6   4    2.38    2.33
  -7  -6   4    0.59    1.13
  -7   6   4   -0.28    1.26
   7   6  -4   -2.40    0.99
  -6  -6   4    0.01    0.70
  -6  -6   4    2.01    1.03
   6  -6  -4   -0.54    0.74
  -6  -6   4    0.37    1.55
  -6   6   4    0.01    0.83
   6   6  -4    0.61    0.77
   6   6  -4    1.64    1.89
   5  -6  -4   32.38    1.72
  -5  -6   4   32.69    2.05
  -5  -6   4   33.80    2.67
  -5  -6   4   30.70    1.62
   5   6  -4   33.57    2.96
  -5   6   4   29.87    1.25
  -5   6   4   31.04    1.65
   5   6  -4   32.28    1.69
  -5   6   4   27.23    1.87
   4  -6  -4   49.31    2.08
   4  -6  -4   51.37    1.90
  -4  -6   4   51.35    2.40
  -4  -6   4   48.78    2.68
  -4  -6   4   53.38    2.05
   4   6  -4   52.10    2.02
  -4   6   4   50.54    1.66
  -4   6   4   50.49    1.67
  -4   6   4   51.63    1.94
  -4   6   4   51.33    1.68
   4   6  -4   47.07    2.88
  -4   6   4   48.55    2.00
   3  -6  -4  125.47    4.10
  -3  -6   4  127.38    4.34
  -3  -6   4  126.55    4.57
   3  -6  -4  125.20    3.96
  -3  -6   4  122.79    4.03
  -3  -6   4  129.41    3.96
   3  -6  -4  122.73    3.94
  -3   6   4  128.76    3.73
  -3   6   4  124.37    3.71
   3   6  -4  122.31    3.98
   3   6  -4  128.87    3.73
   3   6  -4  126.68    4.90
  -3   6   4  124.34    3.73
  -3   6   4  120.05    3.87
  -2  -6   4  193.36    5.80
   2  -6  -4  195.83    5.91
   2  -6  -4  185.69    5.77
  -2  -6   4  191.79    6.22
   2  -6  -4  183.63    5.73
  -2  -6   4  190.08    6.05
   2   6  -4  192.52    6.29
   2   6  -4  194.25    6.58
  -2   6   4  190.52    5.55
  -2   6   4  192.38    5.60
  -2   6   4  185.04    5.70
  -2   6   4  187.77    5.73
   2   6  -4  198.10    5.67
  -1  -6   4   79.67    2.61
  -1  -6   4   86.13    2.68
   1  -6  -4   84.08    2.60
   1  -6  -4   81.39    2.62
  -1  -6   4   81.26    2.63
  -1  -6   4   83.27    2.83
  -1  -6   4   84.07    2.97
   1   6  -4   80.43    2.63
   1   6  -4   81.94    3.01
   1   6  -4   84.16    2.88
  -1   6   4   82.78    2.61
  -1   6   4   82.39    2.76
  -1   6   4   84.53    2.52
   0  -6   4  115.38    3.55
   0  -6  -4  116.51    3.63
   0  -6   4  119.14    3.72
   0  -6   4  119.90    3.56
   0  -6  -4  118.30    3.66
   0  -6  -4  123.32    3.54
   0  -6  -4  123.48    3.91
   0  -6   4  110.40    4.02
   0  -6  -4  120.32    3.74
   0  -6   4  111.72    3.63
   0  -6  -4  120.59    3.81
   0  -6  -4  113.70    3.53
   0   6   4  114.30    3.58
   0   6  -4  124.00    3.78
   0   6  -4  119.62    3.61
   0   6  -4  121.92    3.91
   0   6  -4  119.45    3.49
   0   6   4  114.71    3.90
   0   6  -4  116.47    4.15
   0   6   4  114.63    3.71
   1  -6   4    4.75    0.61
   1  -6   4    4.28    0.52
   1  -6   4    4.48    0.46
  -1  -6  -4    4.40    0.57
   1  -6   4    3.96    0.43
   1  -6   4    4.18    0.53
  -1  -6  -4    4.74    0.61
  -1  -6  -4    3.97    0.42
  -1  -6  -4    4.39    0.41
  -1  -6  -4    5.01    0.49
  -1   6  -4    4.04    0.39
   1   6   4    4.26    0.81
  -1   6  -4    4.58    0.31
   1   6   4    4.96    0.44
  -1   6  -4    3.69    0.61
   1   6   4    4.59    0.54
  -1   6  -4    4.47    0.50
  -1   6  -4    4.20    0.51
  -2  -6  -4    9.99    0.67
  -2  -6  -4   11.97    0.95
   2  -6   4   11.42    0.60
   2  -6   4   11.06    0.72
  -2  -6  -4   10.90    0.59
   2  -6   4   10.91    0.57
  -2  -6  -4   10.12    1.07
  -2   6  -4   10.55    0.57
  -2   6  -4   11.33    0.77
   2   6   4   11.12    0.86
   2   6   4   10.93    0.70
  -2   6  -4   10.48    0.85
   2   6   4   11.30    1.21
  -2   6  -4   10.02    0.59
  -2   6  -4   11.60    0.66
  -3  -6  -4    5.92    0.47
  -3  -6  -4    7.77    1.11
  -3  -6  -4    7.20    0.94
  -3  -6  -4    5.74    0.64
   3  -6   4    6.49    0.59
   3   6   4    7.09    0.90
   3   6   4    5.44    0.69
   3   6   4    6.30    1.13
   3   6   4    7.21    1.23
  -3   6  -4    5.19    0.61
  -3   6  -4    5.76    0.64
  -3   6  -4    5.70    0.75
  -4  -6  -4   27.21    1.01
  -4  -6  -4   25.34    2.15
   4  -6   4   27.87    1.33
  -4  -6  -4   23.09    1.68
  -4  -6  -4   27.02    1.40
   4   6   4   26.03    2.31
  -4   6  -4   25.85    1.28
   4   6   4   26.95    2.63
   4   6   4   24.96    1.77
  -4   6  -4   28.10    1.30
  -4   6  -4   26.75    1.54
   5  -6   4   19.19    1.35
  -5  -6  -4   17.62    1.34
  -5  -6  -4   18.10    1.84
  -5  -6  -4   18.53    2.47
  -5   6  -4   18.16    1.28
   5   6   4   21.35    1.52
  -5   6  -4   17.26    1.53
   5   6   4   20.21    2.71
   5   6   4   16.70    2.08
  -6  -6  -4   57.95    3.22
  -6  -6  -4   52.88    4.01
   6  -6   4   53.77    2.66
  -6  -6  -4   54.49    2.62
  -6   6  -4   55.78    2.36
   6   6   4   52.06    2.78
  -6   6  -4   50.82    2.81
   6   6   4   59.09    3.97
  -7  -6  -4   11.83    1.59
  -7  -6  -4    9.48    2.80
   7  -6   4   10.68    1.51
  -7   6  -4   10.43    1.75
   7   6   4    5.45    1.61
  -7  -7   4    1.25    1.67
  -7  -7   4   -3.27    2.36
  -7  -7   4    0.40    1.17
   7  -7  -4   -3.37    1.21
  -7   7   4    2.42    1.25
   7   7  -4    0.12    1.14
  -6  -7   4    3.78    1.81
  -6  -7   4    2.11    0.82
   6  -7  -4    1.84    0.89
  -6  -7   4    1.91    1.15
   6   7  -4    2.91    0.88
   6   7  -4    1.48    2.13
  -6   7   4    2.28    0.86
  -5  -7   4    1.03    0.54
  -5  -7   4    0.31    0.84
   5  -7  -4    1.54    0.64
  -5  -7   4    0.10    1.26
  -5   7   4    0.08    0.71
   5   7  -4    0.82    1.44
  -5   7   4   -0.09    0.53
   5   7  -4    1.04    0.59
   4  -7  -4   12.64    1.07
   4  -7  -4   12.87    0.92
  -4  -7   4   14.38    1.80
  -4  -7   4   12.65    0.88
  -4  -7   4   13.21    0.96
  -4  -7   4   11.62    1.28
   4   7  -4   14.12    1.04
  -4   7   4   12.83    0.64
  -4   7   4   12.57    0.82
   4   7  -4   12.49    1.70
  -3  -7   4    0.59    0.72
  -3  -7   4    0.67    0.33
  -3  -7   4    0.12    0.45
  -3  -7   4    1.00    0.29
   3  -7  -4    0.11    0.31
   3  -7  -4    0.93    0.44
   3  -7  -4    1.08    0.37
   3   7  -4    1.41    0.98
   3   7  -4    1.19    0.31
  -3   7   4    0.81    0.29
  -3   7   4    0.69    0.19
   3   7  -4    0.68    0.32
  -2  -7   4   18.89    0.89
  -2  -7   4   18.70    1.32
  -2  -7   4   18.69    0.85
   2  -7  -4   16.92    0.89
  -2  -7   4   18.06    1.13
   2  -7  -4   17.53    0.91
  -2   7   4   18.05    0.67
   2   7  -4   22.04    1.72
  -2   7   4   17.20    0.82
  -2   7   4   17.84    0.71
   2   7  -4   18.30    0.87
   1  -7  -4    0.62    0.33
   1  -7  -4    0.48    0.23
  -1  -7   4    0.81    0.35
  -1  -7   4    0.94    0.35
  -1  -7   4    0.07    0.18
  -1  -7   4    0.20    0.38
   1  -7  -4    0.96    0.28
  -1  -7   4    0.43    0.23
  -1   7   4    0.36    0.16
   1   7  -4   -0.09    0.53
  -1   7   4    0.72    0.25
  -1   7   4    0.46    0.28
   1   7  -4    0.97    0.52
   1   7  -4    0.61    0.51
   0  -7   4   15.11    0.82
   0  -7  -4   14.04    0.74
   0  -7  -4   15.45    0.92
   0  -7   4   15.38    1.00
   0  -7   4   13.77    0.72
   0  -7  -4   14.57    0.61
   0  -7  -4   13.17    0.80
   0  -7  -4   15.29    0.64
   0  -7   4   14.00    0.63
   0  -7  -4   14.68    0.83
   0  -7   4   16.05    0.67
   0   7  -4   14.38    1.01
   0   7   4   12.95    1.07
   0   7  -4   14.52    0.61
   0   7   4   13.74    0.95
   0   7   4   13.57    0.67
   0   7   4   14.76    0.82
   0   7  -4   15.63    0.92
   0   7  -4   15.27    1.34
   1  -7   4    3.88    0.67
   1  -7   4    3.20    0.40
  -1  -7  -4    2.48    0.51
  -1  -7  -4    3.48    0.42
   1  -7   4    4.64    0.55
   1  -7   4    3.62    0.46
  -1  -7  -4    3.06    0.58
  -1  -7  -4    3.28    0.42
  -1  -7  -4    4.15    0.44
  -1   7  -4    3.18    0.50
  -1   7  -4    2.19    0.61
   1   7   4    3.63    0.71
   1   7   4    2.91    0.41
  -1   7  -4    2.94    0.43
   1   7   4    2.64    0.58
  -1   7  -4    4.40    0.43
  -1   7  -4    3.23    0.31
   1   7   4    2.75    0.47
   2  -7   4    1.15    0.34
  -2  -7  -4    0.83    0.32
  -2  -7  -4    1.09    0.31
  -2  -7  -4    0.66    0.56
  -2  -7  -4    1.03    0.52
   2  -7   4    0.99    0.28
  -2   7  -4    0.92    0.29
  -2   7  -4    0.84    0.37
   2   7   4    1.10    0.32
  -2   7  -4    1.12    0.29
   2   7   4    0.09    0.44
   2   7   4    1.23    0.66
  -2   7  -4    0.87    0.31
   2   7   4    0.38    0.57
  -2   7  -4    0.73    0.49
  -3  -7  -4    0.20    0.32
  -3  -7  -4    0.66    0.27
  -3  -7  -4    0.08    0.50
  -3  -7  -4   -0.35    0.72
   3  -7   4    0.07    0.32
  -3   7  -4    0.36    0.49
   3   7   4   -0.47    0.44
  -3   7  -4   -0.22    0.41
  -3   7  -4    0.13    0.32
   3   7   4    0.14    0.87
   3   7   4    0.04    0.79
   3   7   4   -0.04    0.37
  -4  -7  -4    5.09    1.14
   4  -7   4    6.38    0.73
  -4  -7  -4    5.72    0.75
  -4  -7  -4    5.35    0.54
  -4  -7  -4    4.04    0.93
  -4   7  -4    5.41    0.80
   4   7   4    5.26    1.49
   4   7   4    2.21    1.32
  -4   7  -4    5.24    0.62
  -4   7  -4    5.79    0.70
   4   7   4    4.73    1.04
  -5  -7  -4    1.06    0.99
  -5  -7  -4    1.30    0.61
   5  -7   4    0.44    0.64
  -5  -7  -4    0.54    1.34
  -5   7  -4    0.80    1.02
   5   7   4    1.22    1.17
  -5   7  -4    1.19    0.72
   5   7   4    1.93    1.06
   5   7   4    0.10    1.77
  -6  -7  -4    6.52    1.14
   6  -7   4    5.43    1.15
  -6  -7  -4    7.87    2.15
  -6  -7  -4    2.62    1.41
   6   7   4    5.93    1.18
  -6   7  -4    3.99    1.08
   6   7   4    5.44    3.59
  -6  -8   4    2.30    0.93
  -6  -8   4    1.87    0.85
  -6  -8   4    2.75    2.06
  -6  -8   4    0.34    1.24
   6  -8  -4    0.80    0.93
   6   8  -4    2.52    2.42
   6   8  -4    2.80    0.95
  -5  -8   4   16.73    1.65
   5  -8  -4   16.08    1.51
  -5  -8   4   17.95    1.85
  -5  -8   4   19.72    1.25
  -5  -8   4   21.00    2.43
   5   8  -4   17.16    2.29
   5   8  -4   17.88    1.39
  -4  -8   4   75.79    3.24
   4  -8  -4   73.51    2.70
  -4  -8   4   74.98    2.80
   4  -8  -4   74.12    2.90
  -4  -8   4   73.59    3.68
  -4  -8   4   77.06    2.70
   4   8  -4   76.47    2.77
   4   8  -4   73.41    4.02
  -3  -8   4   17.55    1.67
   3  -8  -4   15.33    0.97
   3  -8  -4   14.71    0.93
  -3  -8   4   15.27    0.89
  -3  -8   4   15.85    1.27
   3  -8  -4   12.73    1.05
  -3  -8   4   14.03    0.91
   3   8  -4   14.77    0.81
  -3   8   4   14.47    0.61
   3   8  -4   16.47    0.95
   3   8  -4   15.09    1.86
  -2  -8   4  217.61    6.46
   2  -8  -4  213.99    6.51
   2  -8  -4  206.76    6.46
  -2  -8   4  220.19    6.98
  -2  -8   4  217.01    6.47
  -2  -8   4  205.74    6.76
  -2   8   4  206.83    6.23
   2   8  -4  211.10    7.49
  -2   8   4  211.73    6.19
  -2   8   4  212.23    6.39
   1  -8  -4    5.02    0.54
  -1  -8   4    5.44    0.66
  -1  -8   4    5.42    0.51
  -1  -8   4    5.26    0.44
   1  -8  -4    5.33    0.60
  -1  -8   4    6.82    0.90
   1  -8  -4    4.83    0.50
   1   8  -4    4.20    0.89
   1   8  -4    4.88    0.77
  -1   8   4    5.64    0.51
   1   8  -4    5.96    0.90
  -1   8   4    5.27    0.39
  -1   8   4    6.08    0.62
   0  -8   4  150.77    4.35
   0  -8  -4  142.02    4.54
   0  -8  -4  143.73    4.51
   0  -8   4  143.38    4.53
   0  -8  -4  147.98    4.33
   0  -8  -4  140.99    4.32
   0  -8   4  145.76    4.58
   0  -8   4  141.50    4.35
   0  -8   4  153.79    4.73
   0  -8  -4  150.79    4.61
   0   8  -4  155.18    4.70
   0   8  -4  147.23    4.35
   0   8   4  140.49    5.06
   0   8   4  139.11    4.82
   0   8   4  142.40    4.45
   0   8   4  144.37    4.61
   0   8  -4  140.64    5.16
   0   8  -4  147.79    5.01
   1  -8   4    0.18    0.23
  -1  -8  -4    0.42    0.22
  -1  -8  -4    0.12    0.47
  -1  -8  -4    0.19    0.41
  -1  -8  -4    0.36    0.23
   1  -8   4    0.23    0.31
  -1  -8  -4    0.63    0.28
   1   8   4    0.37    0.55
  -1   8  -4   -0.05    0.35
   1   8   4   -0.19    0.42
  -1   8  -4    0.52    0.22
   1   8   4    0.29    0.24
  -1   8  -4    0.38    0.39
   1   8   4    0.15    0.32
  -2  -8  -4    3.78    0.71
  -2  -8  -4    4.06    0.81
  -2  -8  -4    4.92    0.48
  -2  -8  -4    4.98    0.54
   2  -8   4    4.78    0.61
   2   8   4    4.02    0.54
   2   8   4    4.34    0.69
  -2   8  -4    5.12    0.85
  -2   8  -4    4.40    0.59
  -2   8  -4    4.48    0.55
  -2   8  -4    4.49    0.48
   2   8   4    3.52    0.86
   2   8   4    4.57    0.98
  -3  -8  -4    2.19    0.48
   3  -8   4    2.17    0.46
  -3  -8  -4    2.20    0.38
  -3  -8  -4    1.98    0.72
  -3  -8  -4    0.63    0.80
   3   8   4    1.56    1.01
   3   8   4    2.25    0.51
   3   8   4    2.44    0.75
   3   8   4    3.05    1.10
  -3   8  -4    3.39    0.57
  -3   8  -4    1.99    0.40
  -3   8  -4    0.49    0.62
  -4  -8  -4   33.67    1.28
  -4  -8  -4   29.76    2.15
   4  -8   4   33.47    1.62
  -4  -8  -4   31.08    2.65
  -4  -8  -4   33.62    1.63
   4   8   4   29.80    2.92
   4   8   4   33.86    3.09
  -4   8  -4   30.47    1.24
  -4   8  -4   30.29    1.68
   4   8   4   33.42    2.13
   5  -8   4    1.22    0.74
  -5  -8  -4    0.29    1.03
  -5  -8  -4    0.23    0.62
  -5  -8  -4    0.48    1.50
   5   8   4    1.46    1.24
   5   8   4   -0.58    0.70
  -5   8  -4    0.25    0.72
   5   8   4    0.97    2.10
  -6  -8  -4   62.32    5.00
  -6  -8  -4   53.92    2.75
   6  -8   4   61.28    2.96
  -6  -8  -4   48.35    3.46
  -6   8  -4   54.25    2.74
   6   8   4   53.78    2.96
   6   8   4   58.14    4.19
  -6  -9   4   17.05    1.79
   6  -9  -4   17.49    2.04
  -6  -9   4   18.16    2.44
  -6  -9   4   19.07    3.02
  -6  -9   4   18.28    1.73
   6   9  -4   19.32    3.19
   6   9  -4   20.27    1.96
  -5  -9   4   21.28    2.13
  -5  -9   4   24.84    1.57
  -5  -9   4   25.94    3.21
   5  -9  -4   20.81    2.04
  -5  -9   4   26.69    1.51
   5   9  -4   26.52    1.69
   5   9  -4   24.16    3.30
  -4  -9   4   29.24    1.42
  -4  -9   4   28.51    1.49
   4  -9  -4   28.51    1.50
  -4  -9   4   26.44    1.96
   4  -9  -4   27.34    1.71
  -4  -9   4   29.29    2.66
   4   9  -4   30.90    2.90
   4   9  -4   26.75    1.93
   3  -9  -4    0.31    0.37
  -3  -9   4   -0.01    0.60
  -3  -9   4    0.33    0.35
  -3  -9   4   -0.02    0.34
  -3  -9   4   -0.57    0.83
   3  -9  -4    0.14    0.40
  -3   9   4    0.11    0.20
   3   9  -4    0.17    1.18
   3   9  -4    0.14    0.39
  -2  -9   4   15.67    1.24
  -2  -9   4   17.76    1.50
  -2  -9   4   17.58    0.92
  -2  -9   4   16.81    0.95
   2  -9  -4   16.53    0.96
   2  -9  -4   15.80    0.96
  -2   9   4   15.59    0.90
  -2   9   4   14.07    0.96
  -2   9   4   16.85    0.68
   2   9  -4   19.14    1.93
   1  -9  -4   58.43    1.91
  -1  -9   4   54.55    2.24
   1  -9  -4   56.36    2.04
  -1  -9   4   55.62    2.03
  -1  -9   4   55.93    1.93
   1  -9  -4   54.88    2.07
  -1  -9   4   53.97    2.37
   1   9  -4   58.09    2.63
   1   9  -4   57.60    2.92
  -1   9   4   57.47    2.00
  -1   9   4   55.67    1.87
  -1   9   4   54.43    2.56
  -1   9   4   57.56    2.22
   0  -9   4   10.81    0.70
   0  -9   4   10.30    0.56
   0  -9  -4   11.32    0.85
   0  -9  -4   11.31    0.96
   0  -9  -4   10.57    0.71
   0  -9  -4   10.44    0.52
   0  -9   4   11.70    0.61
   0  -9  -4   11.81    0.60
   0  -9   4   12.36    1.14
   0  -9  -4   10.25    0.71
   0  -9   4   11.77    0.83
   0   9   4   10.09    0.68
   0   9   4   11.22    1.03
   0   9   4   11.47    1.23
   0   9  -4   10.97    1.07
   0   9   4   11.70    0.81
   0   9  -4   12.70    1.32
   0   9  -4   10.13    0.63
  -1  -9  -4   97.29    3.08
  -1  -9  -4   96.93    3.21
  -1  -9  -4   96.83    3.16
   1  -9   4   89.67    3.20
  -1  -9  -4   96.98    3.52
  -1  -9  -4   90.38    3.39
  -1   9  -4   94.27    3.79
  -1   9  -4   93.41    3.34
   1   9   4   97.24    3.19
   1   9   4   96.54    3.43
   1   9   4   98.48    3.97
   1   9   4  101.49    3.81
  -1   9  -4   97.95    3.24
  -1   9  -4   97.74    2.98
   2  -9   4   77.80    2.88
  -2  -9  -4   82.32    3.20
  -2  -9  -4   81.97    3.36
  -2  -9  -4   80.37    2.78
  -2  -9  -4   82.57    2.74
   2   9   4   83.06    2.90
   2   9   4   84.50    3.19
  -2   9  -4   84.91    2.73
   2   9   4   83.32    3.60
  -2   9  -4   76.17    3.29
   2   9   4   83.20    3.75
  -2   9  -4   79.03    2.86
  -3  -9  -4   71.37    2.40
  -3  -9  -4   62.71    3.23
   3  -9   4   72.18    2.52
  -3  -9  -4   71.90    3.08
   3  -9   4   71.03    2.69
  -3  -9  -4   69.20    2.57
   3   9   4   70.73    3.02
  -3   9  -4   67.45    2.89
  -3   9  -4   64.88    2.52
   3   9   4   74.99    3.68
  -3   9  -4   70.56    2.26
   3   9   4   68.96    2.67
   3   9   4   67.75    3.72
  -4  -9  -4   59.48    2.03
  -4  -9  -4   59.44    2.36
  -4  -9  -4   55.44    3.44
  -4  -9  -4   54.96    2.88
   4  -9   4   55.46    2.31
   4   9   4   57.25    4.02
   4   9   4   53.55    3.86
  -4   9  -4   54.68    2.43
   4   9   4   56.90    2.89
  -5  -9  -4   15.18    2.40
  -5  -9  -4   11.12    1.68
  -5  -9  -4   10.79    1.29
   5  -9   4   14.09    1.57
   5   9   4   15.87    1.61
   5   9   4   17.53    2.97
  -6  -9  -4   12.91    1.45
  -6  -9  -4    9.60    1.85
   6  -9   4   10.86    1.60
  -6  -9  -4   11.26    3.01
  -6   9  -4   10.99    1.26
   6   9   4   15.58    1.74
   6   9   4    8.93    2.33
  -6 -10   4    1.12    1.05
  -6 -10   4    3.43    2.66
  -6 -10   4    1.76    0.99
   6 -10  -4    2.03    1.27
  -6 -10   4    5.54    1.69
   6  10  -4    4.76    3.05
   6  10  -4    3.45    1.14
  -5 -10   4    1.25    1.86
  -5 -10   4    1.84    1.25
  -5 -10   4    1.57    0.75
  -5 -10   4    1.83    0.74
   5 -10  -4    3.19    1.04
   5  10  -4    4.01    2.04
   5  10  -4    3.49    0.88
  -5  10   4    4.44    1.58
  -4 -10   4    0.95    0.49
  -4 -10   4   -0.03    0.85
   4 -10  -4    1.46    0.62
  -4 -10   4    0.55    0.54
  -4 -10   4   -0.52    1.30
  -4  10   4    1.25    1.03
   4  10  -4    0.55    0.54
   4  10  -4    0.72    1.53
  -3 -10   4   17.63    2.09
   3 -10  -4   14.21    1.12
  -3 -10   4   15.38    1.03
  -3 -10   4   14.80    1.49
   3 -10  -4   12.95    1.05
  -3 -10   4   15.24    1.01
   3  10  -4   16.92    2.27
  -3  10   4   16.46    1.62
   2 -10  -4    6.24    0.76
  -2 -10   4    6.47    1.12
   2 -10  -4    6.10    0.73
  -2 -10   4    6.72    0.94
  -2 -10   4    7.29    0.72
  -2 -10   4    7.54    0.68
  -2  10   4    6.81    0.56
   2  10  -4    5.06    1.18
  -2  10   4    6.12    1.01
  -2  10   4    7.16    0.78
  -2  10   4    6.35    0.49
   1 -10  -4   25.27    1.26
   1 -10  -4   24.71    1.12
  -1 -10   4   25.95    1.20
  -1 -10   4   24.95    1.64
  -1 -10   4   24.10    1.45
   1 -10  -4   26.02    1.23
  -1 -10   4   25.83    1.08
  -1  10   4   24.70    1.80
  -1  10   4   24.04    1.04
   1  10  -4   24.18    1.99
  -1  10   4   23.01    1.40
  -1  10   4   24.07    1.17
   1  10  -4   27.78    2.17
   0 -10   4   34.88    1.56
   0 -10   4   33.80    1.23
   0 -10   4   35.36    1.49
   0 -10  -4   34.83    1.49
   0 -10  -4   36.44    1.24
   0 -10  -4   39.43    1.69
   0 -10  -4   35.16    1.54
   0 -10  -4   35.47    1.57
   0 -10   4   36.22    1.85
   0 -10   4   35.49    1.24
   0 -10  -4   33.66    1.17
   0  10   4   32.68    2.10
   0  10  -4   33.87    1.33
   0  10   4   35.91    1.59
   0  10   4   35.11    1.42
   0  10   4   36.63    1.89
   0  10  -4   36.86    1.88
   0  10  -4   33.19    2.22
  -1 -10  -4    3.17    0.73
  -1 -10  -4    3.14    0.81
  -1 -10  -4    2.34    0.39
  -1 -10  -4    2.48    0.44
   1 -10   4    2.16    0.45
  -1 -10  -4    2.80    0.48
  -1  10  -4    2.77    0.41
   1  10   4    2.20    0.94
  -1  10  -4    3.41    0.91
  -1  10  -4    3.28    0.66
  -1  10  -4    2.67    0.62
   1  10   4    3.18    0.81
   1  10   4    1.53    0.56
   1  10   4    2.02    0.41
  -2 -10  -4   10.60    0.86
  -2 -10  -4   13.55    1.62
  -2 -10  -4   11.48    1.28
  -2 -10  -4   10.29    0.81
  -2 -10  -4   12.28    0.83
   2 -10   4   11.58    0.92
  -2  10  -4   10.02    1.31
   2  10   4    9.44    1.46
   2  10   4   12.47    1.68
  -2  10  -4   11.02    0.91
   2  10   4   11.31    1.12
  -2  10  -4    8.67    1.01
   2  10   4   11.01    0.93
   3 -10   4    7.01    0.87
  -3 -10  -4   10.09    1.52
  -3 -10  -4    5.74    1.10
  -3 -10  -4    6.58    0.84
  -3 -10  -4    6.54    0.72
  -3  10  -4    7.55    1.32
  -3  10  -4    7.60    0.97
   3  10   4    6.25    1.53
   3  10   4    6.99    1.10
   3  10   4    4.62    1.52
  -4 -10  -4    0.04    0.54
   4 -10   4    1.09    0.71
  -4 -10  -4    1.51    0.51
  -4 -10  -4    2.68    1.61
  -4 -10  -4    0.82    1.03
   4  10   4    1.42    1.00
   4  10   4    0.81    1.85
   4  10   4    0.90    1.82
  -4  10  -4    1.42    0.68
  -5 -10  -4   12.38    1.82
  -5 -10  -4    8.54    2.39
   5 -10   4    8.38    1.28
  -5 -10  -4    5.38    0.96
   5  10   4    9.86    1.29
   5  10   4    6.44    1.71
   5  10   4    9.07    3.03
  -6 -10  -4   -1.45    1.58
  -6 -10  -4    0.80    3.43
  -6 -10  -4   -1.95    0.98
   6  10   4    2.03    1.30
   6  10   4   -0.85    2.04
  -6 -11   4   68.50    3.24
  -6 -11   4   70.50    4.20
  -6 -11   4   69.11    3.16
   6  11  -4   74.96    6.33
   6  11  -4   71.43    3.41
  -5 -11   4    2.36    0.78
  -5 -11   4   -0.92    1.21
  -5 -11   4    2.25    0.81
  -5 -11   4   -0.76    2.30
   5  11  -4    3.58    0.94
   5  11  -4   -3.93    1.99
   4 -11  -4   43.70    2.08
  -4 -11   4   43.14    2.70
  -4 -11   4   41.90    1.95
  -4 -11   4   40.49    2.70
  -4 -11   4   42.53    3.64
   4  11  -4   32.70    3.70
   4  11  -4   45.67    2.08
  -4  11   4   48.49    3.00
  -3 -11   4    0.98    0.48
  -3 -11   4    1.09    0.49
  -3 -11   4    2.39    1.35
  -3 -11   4    1.54    0.84
   3 -11  -4    1.65    0.55
   3 -11  -4    1.06    0.58
  -3  11   4    0.94    0.97
   3  11  -4   -0.08    1.37
  -2 -11   4   -0.02    0.67
  -2 -11   4    1.14    0.41
   2 -11  -4    1.51    0.53
  -2 -11   4    0.04    0.95
  -2 -11   4    1.21    0.42
   2 -11  -4    1.97    0.54
  -2  11   4    1.25    0.52
  -2  11   4    1.40    0.36
  -2  11   4    1.38    0.36
   2  11  -4    3.03    1.23
  -2  11   4    1.98    0.83
   1 -11  -4    0.12    0.36
  -1 -11   4    0.57    0.37
   1 -11  -4    0.37    0.37
  -1 -11   4    0.63    0.34
   1 -11  -4    0.11    0.45
  -1 -11   4    0.15    1.06
  -1 -11   4    0.23    0.61
   1  11  -4    1.36    1.06
  -1  11   4    0.35    0.39
  -1  11   4    0.34    0.51
  -1  11   4   -0.10    0.30
  -1  11   4    0.54    0.76
   0 -11   4  128.51    4.24
   0 -11  -4  124.93    4.26
   0 -11  -4  126.99    4.22
   0 -11  -4  127.98    4.25
   0 -11   4  135.29    4.29
   0 -11  -4  126.09    3.78
   0 -11  -4  125.56    4.26
   0 -11   4  128.17    3.84
   0 -11   4  133.03    4.44
   0  11  -4  133.92    4.80
   0  11  -4  123.58    5.17
   0  11  -4  133.02    4.55
   0  11   4  129.73    4.16
   0  11   4  130.45    4.36
   0  11   4  128.84    4.71
   0  11   4  130.23    5.11
  -1 -11  -4    1.33    0.37
  -1 -11  -4    1.72    0.48
   1 -11   4    1.34    0.47
   1 -11   4    1.85    0.59
  -1 -11  -4    1.66    0.43
  -1 -11  -4    0.97    0.74
  -1  11  -4    1.53    0.96
   1  11   4    1.71    1.01
   1  11   4    2.00    0.61
  -1  11  -4    0.94    0.74
   1  11   4    1.63    0.84
   1  11   4    0.98    0.40
  -1  11  -4    0.49    0.69
  -2 -11  -4  203.17    6.42
  -2 -11  -4  207.78    6.30
   2 -11   4  199.27    6.44
  -2 -11  -4  208.71    6.30
  -2 -11  -4  194.44    6.92
  -2 -11  -4  208.28    6.81
   2  11   4  205.27    6.81
  -2  11  -4  197.94    7.10
   2  11   4  206.25    7.37
   2  11   4  200.98    7.60
   2  11   4  207.89    6.48
  -2  11  -4  188.41    6.40
   3 -11   4    2.95    0.70
  -3 -11  -4    2.25    0.55
  -3 -11  -4    2.89    0.55
  -3 -11  -4    1.53    1.01
  -3 -11  -4    2.60    0.60
  -3 -11  -4    3.20    1.43
  -3  11  -4    1.98    1.20
   3  11   4    2.71    0.95
   3  11   4    5.90    1.74
   3  11   4    3.11    1.52
  -3  11  -4    2.37    0.74
  -4 -11  -4   84.48    4.77
  -4 -11  -4   83.65    3.94
  -4 -11  -4   78.84    3.19
   4  11   4   86.31    5.42
   4  11   4   92.21    5.30
  -5 -11  -4    1.91    1.47
  -5 -11  -4    2.58    0.89
   5  11   4    0.13    3.14
   5  11   4    1.08    1.60
  -5 -12   4   13.09    2.03
  -5 -12   4   15.41    1.64
  -5 -12   4   13.01    1.62
   5  12  -4    8.86    2.85
   5  12  -4   11.42    1.53
  -4 -12   4    1.51    0.67
  -4 -12   4   -0.55    1.11
  -4 -12   4    0.08    1.04
  -4  12   4    1.52    1.43
   4  12  -4    0.98    0.70
   4  12  -4    2.26    1.96
  -3 -12   4   41.45    1.87
  -3 -12   4   37.68    2.48
   3 -12  -4   39.26    1.94
   3 -12  -4   36.19    1.94
  -3 -12   4   43.23    1.91
   3  12  -4   41.23    3.52
  -3  12   4   40.65    2.80
   2 -12  -4    4.84    0.75
  -2 -12   4    5.70    0.66
  -2 -12   4    5.35    1.03
   2 -12  -4    5.38    0.76
  -2 -12   4    4.06    0.64
  -2  12   4    5.01    0.78
  -2  12   4    7.38    1.39
   2  12  -4    6.01    1.57
  -2  12   4    5.31    0.55
  -1 -12   4   62.43    2.37
   1 -12  -4   61.12    2.38
  -1 -12   4   61.88    2.13
   1 -12  -4   58.78    2.39
   1  12  -4   66.53    3.68
  -1  12   4   60.02    2.43
  -1  12   4   60.38    3.20
  -1  12   4   58.42    2.66
  -1  12   4   60.82    2.33
   0 -12  -4   24.55    1.50
   0 -12   4   28.90    1.42
   0 -12  -4   26.85    1.37
   0 -12  -4   25.29    1.37
   0 -12   4   28.29    1.56
   0  12   4   27.21    1.88
   0  12   4   26.82    2.28
   0  12  -4   25.67    2.39
   0  12   4   26.37    1.50
   0  12   4   26.70    1.30
  -1 -12  -4   17.32    0.96
   1 -12   4   18.00    1.19
  -1 -12  -4   18.49    1.12
  -1 -12  -4   19.14    1.16
   1  12   4   17.72    1.87
  -1  12  -4   21.08    2.15
  -1  12  -4   18.09    1.71
   1  12   4   15.26    2.04
   1  12   4   18.47    1.17
   1  12   4   19.73    1.41
  -2 -12  -4    8.98    1.28
  -2 -12  -4   10.18    0.92
  -2 -12  -4   10.54    1.00
   2 -12   4   10.70    1.03
  -2 -12  -4    8.98    0.91
  -2  12  -4   11.93    1.40
   2  12   4   12.51    1.73
   2  12   4   13.04    2.07
   2  12   4    8.88    1.16
   2  12   4   11.51    1.06
  -2  12  -4    9.65    1.66
  -3 -12  -4   -0.20    1.06
   3 -12   4    1.32    0.67
  -3 -12  -4    2.48    0.66
  -3 -12  -4    1.12    0.52
  -3 -12  -4    2.50    0.60
   3  12   4    1.62    0.91
   3  12   4    1.56    1.52
   3  12   4    1.93    1.88
  -3  12  -4    2.01    1.45
  -3  12  -4    2.24    0.77
  -4 -12  -4    0.86    0.70
  -4 -12  -4   -0.59    0.67
   4  12   4    0.96    2.22
   4  12   4    1.99    1.24
   4  12   4    1.93    2.19
  -5 -12  -4   12.50    2.11
  -5 -12  -4   13.18    1.63
  -5 -12  -4   12.11    1.42
   5  12   4   15.12    3.99
   5  12   4   10.02    2.11
  -5 -13   4    3.26    1.16
  -5 -13   4    2.12    1.03
  -5 -13   4   -2.67    1.69
   5  13  -4    7.24    2.85
   5  13  -4    2.00    1.20
  -4 -13   4   21.10    2.81
  -4 -13   4   18.40    1.58
   4 -13  -4   16.74    1.73
  -4 -13   4   23.31    1.68
   4  13  -4   21.44    3.08
   4  13  -4   22.74    2.50
  -4  13   4   21.60    2.62
  -3 -13   4    1.82    0.68
  -3 -13   4    1.28    0.64
  -3 -13   4    3.36    1.28
   3 -13  -4    1.24    0.98
   3 -13  -4    1.22    0.72
   3  13  -4    3.18    1.95
  -3  13   4    2.22    1.43
  -2 -13   4   10.28    1.06
   2 -13  -4   12.80    1.14
  -2 -13   4    9.83    1.36
  -2 -13   4    9.99    0.99
   2 -13  -4   11.03    1.19
  -2  13   4   13.54    1.75
  -2  13   4   11.82    1.27
   2  13  -4    9.26    1.95
   1 -13  -4   19.31    1.28
  -1 -13   4   17.67    1.17
   1 -13  -4   17.84    1.25
  -1 -13   4   15.28    0.97
  -1 -13   4   19.72    1.72
  -1  13   4   15.70    1.59
   1  13  -4   15.66    2.13
  -1  13   4   17.40    1.10
  -1  13   4   15.69    2.13
  -1  13   4   18.01    1.26
   0 -13  -4    5.17    0.72
   0 -13   4    5.85    0.79
   0 -13  -4    6.04    0.79
   0  13   4    5.01    0.82
   0  13  -4    7.88    2.65
   0  13   4    7.45    1.21
   0  13   4    5.98    0.76
   0  13   4    4.06    1.31
  -1 -13  -4   15.17    0.89
  -1 -13  -4   14.94    1.12
   1 -13   4   14.82    1.16
  -1 -13  -4   12.47    1.68
  -1 -13  -4   16.20    1.16
  -1  13  -4   14.01    1.90
   1  13   4   16.15    1.97
   1  13   4   15.29    1.17
   1  13   4   13.13    1.86
   1  13   4   15.03    1.41
  -2 -13  -4   36.49    1.62
  -2 -13  -4   35.04    1.67
  -2 -13  -4   36.99    1.79
  -2 -13  -4   30.69    2.25
   2 -13   4   31.77    1.77
   2  13   4   35.97    2.84
   2  13   4   29.23    3.21
   2  13   4   29.70    2.01
  -2  13  -4   40.42    3.01
  -3 -13  -4    7.18    0.91
  -3 -13  -4    8.84    1.52
  -3 -13  -4    8.70    1.09
  -3 -13  -4    8.10    1.01
   3 -13   4    6.77    1.01
  -3  13  -4    6.42    1.92
   3  13   4    6.57    1.95
   3  13   4    8.57    2.57
   3  13   4    6.06    1.30
  -4 -13  -4   22.10    2.43
  -4 -13  -4   17.88    1.67
  -4 -13  -4   21.28    1.69
   4  13   4   18.03    2.41
   4  13   4   24.53    3.58
   4  13   4   24.11    3.33
  -5 -13  -4    1.14    1.86
  -5 -13  -4    0.24    1.03
  -5 -13  -4    0.19    0.99
   5  13   4    1.40    1.74
   5  13   4   -3.17    3.98
  -5 -14   4    2.65    2.08
  -5 -14   4    3.64    1.26
  -5 -14   4    3.36    1.23
   5  14  -4    5.53    1.42
   5  14  -4    8.12    3.38
  -4 -14   4   45.85    2.31
  -4 -14   4   41.60    2.32
  -4 -14   4   44.92    3.46
   4  14  -4   34.96    3.97
   4  14  -4   45.46    2.43
  -4  14   4   34.54    4.22
   3 -14  -4   14.75    2.20
  -3 -14   4   17.16    1.42
  -3 -14   4   15.53    1.43
  -3 -14   4   17.66    2.01
   3 -14  -4   16.21    1.56
  -3  14   4   18.51    2.53
   3  14  -4   14.59    2.57
   2 -14  -4  102.25    3.74
  -2 -14   4  108.68    3.49
  -2 -14   4  100.90    4.26
  -2 -14   4   98.83    3.72
   2 -14  -4   95.37    4.37
  -2  14   4  101.22    3.84
  -2  14   4   98.73    4.85
   2  14  -4   92.52    6.53
   1 -14  -4   20.83    1.39
  -1 -14   4   20.61    1.14
   1 -14  -4   21.96    1.45
  -1 -14   4   21.62    1.36
  -1  14   4   16.79    2.19
   1  14  -4   17.44    2.52
  -1  14   4   20.36    1.40
  -1  14   4   20.85    1.85
  -1  14   4   21.66    1.32
   0 -14   4   50.17    2.28
   0 -14  -4   54.42    2.34
   0 -14  -4   53.61    2.31
   0  14   4   54.09    2.93
   0  14   4   50.00    3.54
   0  14   4   54.69    2.26
   0  14  -4   58.85    3.87
   0  14   4   53.25    2.46
  -1 -14  -4    1.01    0.47
  -1 -14  -4    2.78    0.70
   1 -14   4    1.35    0.56
  -1 -14  -4    2.68    0.67
   1  14   4    2.31    0.83
   1  14   4    2.17    0.68
   1  14   4    1.43    1.47
   1  14   4    0.55    1.03
  -1  14  -4    2.15    1.59
  -2 -14  -4   -0.53    1.31
  -2 -14  -4    0.06    0.63
  -2 -14  -4    1.22    0.59
  -2 -14  -4    2.21    0.69
   2 -14   4    0.47    0.63
  -2  14  -4    0.24    1.68
   2  14   4    0.31    0.88
   2  14   4    0.56    1.80
  -3 -14  -4    3.75    0.79
   3 -14   4    3.49    0.92
  -3 -14  -4    4.16    0.83
  -3 -14  -4    3.33    0.82
  -3 -14  -4    5.15    1.62
   3  14   4    5.59    2.08
   3  14   4    5.59    2.31
   3  14   4    3.60    1.23
  -4 -14  -4   25.10    1.89
  -4 -14  -4   23.29    1.84
  -4 -14  -4   23.34    3.13
   4  14   4   19.32    3.74
   4  14   4   26.51    2.87
  -4 -15   4    4.23    1.14
  -4 -15   4    6.47    2.28
  -4 -15   4    6.68    1.16
  -4  15   4   10.24    2.84
   4  15  -4    6.04    1.26
   4  15  -4    4.47    3.01
   3 -15  -4    0.86    0.96
  -3 -15   4    1.05    0.81
   3 -15  -4   -0.01    0.93
  -3 -15   4    0.11    0.82
  -3 -15   4    1.38    1.82
   3  15  -4   -0.38    2.32
  -3  15   4    1.11    2.23
   3  15  -4    1.41    0.94
  -2 -15   4    5.52    0.89
   2 -15  -4    3.23    0.87
  -2 -15   4    4.94    0.84
   2 -15  -4    5.49    0.93
   2  15  -4    4.86    2.15
  -2  15   4    2.51    1.84
  -1 -15   4    3.10    0.81
   1 -15  -4    1.99    1.09
   1 -15  -4    1.38    0.65
   1  15  -4    4.69    1.84
  -1  15   4    1.90    1.70
  -1  15   4    2.94    0.81
  -1  15   4    2.88    1.10
   0 -15   4    3.71    0.78
   0 -15  -4    2.99    0.79
   0 -15  -4    4.24    1.03
   0  15   4    3.44    1.60
   0  15   4    3.59    1.10
   0  15   4    1.85    0.91
   0  15  -4    4.67    1.93
   1 -15   4   15.71    1.40
  -1 -15  -4   18.07    1.41
   1  15   4   15.34    1.74
  -1  15  -4   22.42    2.83
   1  15   4   12.71    1.95
   1  15   4   15.73    2.53
   2 -15   4    0.35    0.72
  -2 -15  -4    0.13    0.71
  -2 -15  -4    0.85    0.68
   2  15   4    1.50    1.07
   2  15   4   -0.70    1.51
  -2  15  -4    0.56    2.07
   2  15   4    1.87    2.02
  -3 -15  -4   16.66    1.67
  -3 -15  -4   14.54    1.61
   3 -15   4   17.03    1.84
   3  15   4   13.37    1.92
   3  15   4   22.46    3.07
   3  15   4   14.07    2.96
  -4 -15  -4    2.11    1.06
  -4 -15  -4    3.24    1.10
   4  15   4    1.32    1.65
   4  15   4    3.39    3.60
  -4 -16   4    9.98    1.42
  -4 -16   4    9.15    1.45
   4  16  -4   10.58    3.57
  -3 -16   4   16.53    1.74
   3 -16  -4   12.03    1.52
  -3 -16   4   15.76    1.90
   3 -16  -4   17.48    1.73
  -3  16   4   16.15    3.04
   3  16  -4    7.79    3.15
   2 -16  -4   35.30    2.21
   2 -16  -4   34.60    2.11
  -2 -16   4   35.35    2.06
  -2  16   4   34.75    4.02
   2  16  -4   37.32    4.41
   1 -16  -4    9.14    1.12
  -1 -16   4    5.15    0.99
   1 -16  -4    5.61    0.97
  -1  16   4    5.20    2.06
   1  16  -4   11.67    2.62
  -1  16   4    6.80    1.36
   0 -16   4   24.32    1.69
   0 -16  -4   25.64    1.75
   0 -16  -4   23.10    1.71
   0  16   4   25.60    1.95
   0  16  -4   25.52    3.21
   0  16   4   24.69    2.60
   0  16   4   26.10    3.50
  -1 -16  -4    0.34    0.74
  -1 -16  -4    0.78    0.77
   1 -16   4   -0.14    0.76
  -1  16  -4    2.59    2.33
   1  16   4    1.94    1.93
   1  16   4    0.23    0.99
   1  16   4   -0.72    1.42
  -2 -16  -4    4.61    0.99
  -2 -16  -4    4.24    0.94
   2 -16   4    3.52    1.00
   2  16   4    6.38    2.50
  -2  16  -4    3.63    2.64
   2  16   4    3.58    1.91
   2  16   4    2.75    1.23
   3 -16   4    2.27    1.11
  -3 -16  -4    2.23    1.03
  -3 -16  -4    2.46    1.03
   3  16   4   -0.46    2.88
   3  16   4    4.73    1.54
   3 -17  -4    0.04    1.30
  -3 -17   4    1.43    1.12
   3  17  -4   -5.90    2.89
   2 -17  -4    0.35    0.96
   2 -17  -4   -0.79    1.03
  -2 -17   4    0.35    0.90
   2  17  -4    3.72    2.76
  -2  17   4    2.64    2.65
   1 -17  -4    9.34    1.23
   1 -17  -4   12.81    1.46
  -1 -17   4   15.07    1.64
  -1  17   4   10.57    2.85
   1  17  -4   16.87    3.45
   0 -17  -4   12.12    1.57
   0 -17   4   13.12    1.38
   0 -17  -4   14.90    1.62
   0  17   4   15.22    2.88
   0  17  -4   13.87    2.96
  -1 -17  -4   28.24    1.96
   1 -17   4   28.82    2.07
  -1 -17  -4   29.33    2.05
  -1  17  -4   34.06    3.89
   1  17   4   27.80    3.42
   1  17   4   29.74    3.40
  -2 -17  -4   36.36    2.24
  -2 -17  -4   33.31    2.23
   2 -17   4   35.30    2.36
   2  17   4   29.41    4.01
  -2  17  -4   49.47    5.46
   2  17   4   36.36    2.80
  -3 -17  -4   19.28    2.20
   3 -17   4   22.99    2.17
   3  17   4   25.94    4.44
   2 -18  -4   -1.45    1.08
   2 -18  -4    0.27    1.22
  -2 -18   4   -0.89    1.08
  -2  18   4    2.60    3.23
   2  18  -4   -1.48    3.18
  -1 -18   4    0.75    1.03
   1 -18  -4   -1.05    1.07
   1 -18  -4    1.27    1.03
  -1  18   4    2.09    2.90
   1  18  -4   -2.39    3.00
   0 -18  -4    1.83    1.01
   0 -18  -4    0.09    1.05
   0 -18   4    2.71    1.03
   0  18   4    2.16    2.65
   0  18  -4    2.12    3.11
  -1 -18  -4    0.73    1.02
  -1 -18  -4    0.05    1.14
   1 -18   4    0.58    1.09
   1  18   4   -3.32    2.66
  -1  18  -4    0.48    3.38
   2 -18   4    3.92    1.50
  -2 -18  -4    6.21    1.33
  -2 -18  -4    4.90    1.37
   2  18   4   -2.41    3.52
  -7   0   5    8.65    1.41
  -7   0   5    6.44    1.73
  -7   0   5    6.75    1.30
   7   0  -5    7.12    1.17
  -6   0   5    0.51    0.80
  -6   0   5    0.24    0.95
  -6   0   5    1.09    0.65
   6   0  -5   -0.38    0.62
  -5   0   5   10.90    1.10
   5   0  -5   10.85    1.00
  -5   0   5   12.47    0.92
  -5   0   5   12.92    1.48
  -4   0   5    0.02    0.33
  -4   0   5    0.41    0.61
  -4   0   5    0.50    0.29
  -4   0   5    0.30    0.41
   4   0  -5   -0.09    0.26
  -4   0   5   -0.57    0.77
  -4   0   5    0.43    0.50
  -3   0   5   11.08    0.82
  -3   0   5   11.00    0.60
   3   0  -5   10.02    0.65
   3   0  -5   11.05    0.45
   3   0  -5   10.98    0.60
  -3   0   5   10.26    0.88
  -3   0   5   10.53    0.88
  -2   0   5    0.17    0.20
  -2   0   5   -0.20    0.50
   2   0  -5   -0.32    0.27
   2   0  -5    0.25    0.12
  -2   0   5    0.36    0.26
   2   0  -5   -0.04    0.14
   2   0  -5    0.14    0.35
  -2   0   5   -0.04    0.12
  -2   0   5   -0.02    0.19
   2   0  -5   -0.19    0.16
  -1   0   5    5.80    0.49
  -1   0   5    6.13    0.33
   1   0  -5    5.29    0.33
   1   0  -5    5.34    0.31
  -1   0   5    5.07    0.40
   1   0  -5    5.26    0.52
   1   0  -5    5.02    0.46
  -1   0   5    4.77    0.31
  -1   0   5    5.46    0.67
   0   0  -5    0.00    0.11
   0   0  -5    0.20    0.17
   0   0   5   -0.15    0.15
   0   0  -5    0.22    0.27
   0   0   5   -0.10    0.10
   0   0   5   -0.15    0.22
   0   0   5    0.15    0.21
   1   0   5   37.44    1.51
  -1   0  -5   39.49    1.52
   1   0   5   35.79    1.37
  -1   0  -5   37.30    1.27
  -1   0  -5   39.02    1.39
   1   0   5   37.80    1.27
  -2   0  -5    0.76    0.30
   2   0   5    0.09    0.18
   2   0   5    0.33    0.17
   2   0   5   -0.48    0.29
   2   0   5    0.04    0.23
  -2   0  -5    0.13    0.35
  -2   0  -5    0.08    0.26
   3   0   5   37.59    1.59
   3   0   5   36.61    1.48
  -3   0  -5   37.66    1.70
  -3   0  -5   38.94    1.65
   3   0   5   39.16    1.85
  -3   0  -5   39.88    1.90
  -4   0  -5   -0.15    0.52
   4   0   5    0.38    0.33
   4   0   5    1.28    0.94
  -4   0  -5   -0.49    0.86
  -4   0  -5    0.14    0.38
   4   0   5    0.71    0.55
   5   0   5    5.97    1.06
  -5   0  -5    5.29    1.04
  -5   0  -5    5.87    0.72
   5   0   5    5.23    0.75
  -5   0  -5    5.58    0.96
  -6   0  -5   -0.28    0.72
  -6   0  -5    0.03    1.13
  -6   0  -5    0.55    0.95
   6   0   5    0.56    0.72
  -7   0  -5    1.33    1.50
   7   0   5    0.07    1.07
  -7   0  -5    0.07    1.25
  -7   0  -5   -1.06    1.32
  -7  -1   5    9.40    1.60
  -7  -1   5   11.06    1.93
   7  -1  -5    6.61    1.12
  -7  -1   5    9.59    1.40
   7   1  -5    7.89    1.13
  -7   1   5    8.19    1.79
  -7   1   5    9.90    1.52
  -6  -1   5    7.14    1.18
  -6  -1   5   10.03    1.06
  -6  -1   5    8.99    1.51
   6  -1  -5    6.88    0.92
   6   1  -5    7.76    1.06
  -6   1   5    9.84    1.02
  -6   1   5   10.47    1.45
  -6   1   5    8.95    1.19
   5  -1  -5  124.38    4.17
  -5  -1   5  120.08    4.03
  -5  -1   5  116.62    4.61
  -5  -1   5  122.41    4.39
  -5   1   5  117.25    3.96
  -5   1   5  122.03    4.25
   5   1  -5  124.78    4.16
  -5   1   5  121.84    4.55
  -4  -1   5   48.05    2.20
  -4  -1   5   42.58    2.48
   4  -1  -5   46.98    1.81
  -4  -1   5   41.95    1.93
   4  -1  -5   45.54    1.40
  -4  -1   5   44.72    1.70
  -4   1   5   44.65    1.86
  -4   1   5   46.33    2.31
  -4   1   5   44.60    1.94
  -4   1   5   42.31    1.65
   4   1  -5   45.09    1.79
  -4   1   5   43.28    2.05
  -4   1   5   43.41    1.62
  -3  -1   5  215.90    7.00
  -3  -1   5  228.41    7.19
  -3  -1   5  235.95    7.05
   3  -1  -5  226.21    6.87
  -3  -1   5  226.00    6.81
   3  -1  -5  220.98    6.63
  -3   1   5  244.83    6.97
  -3   1   5  221.36    6.74
  -3   1   5  244.48    6.67
  -3   1   5  222.66    6.93
  -3   1   5  226.70    7.07
   3   1  -5  230.09    6.76
   3   1  -5  225.33    7.33
   3   1  -5  222.46    6.84
   3   1  -5  223.79    6.56
  -2  -1   5   52.88    1.76
   2  -1  -5   51.91    1.66
  -2  -1   5   52.88    2.31
   2  -1  -5   51.25    1.82
  -2  -1   5   54.44    1.91
   2  -1  -5   55.41    1.66
   2  -1  -5   52.97    1.77
  -2  -1   5   50.29    1.73
  -2  -1   5   50.41    1.98
   2  -1  -5   53.24    1.89
  -2   1   5   48.41    1.91
  -2   1   5   56.51    1.58
   2   1  -5   50.64    1.91
  -2   1   5   55.19    2.20
   2   1  -5   52.20    2.14
  -2   1   5   51.31    1.69
  -2   1   5   51.68    1.82
   2   1  -5   53.35    1.73
   2   1  -5   53.10    1.74
  -2   1   5   51.56    1.78
   2   1  -5   51.67    2.01
  -1  -1   5   81.52    2.41
  -1  -1   5   77.72    2.32
  -1  -1   5   74.29    2.68
   1  -1  -5   80.10    2.56
   1  -1  -5   83.26    2.43
   1  -1  -5   79.98    2.63
  -1  -1   5   76.71    2.46
  -1  -1   5   82.29    2.85
   1  -1  -5   78.94    2.47
  -1  -1   5   78.27    2.59
   1   1  -5   77.27    2.41
  -1   1   5   81.08    2.56
  -1   1   5   83.26    2.48
   1   1  -5   81.08    2.77
   1   1  -5   80.78    2.60
   1   1  -5   86.63    2.48
  -1   1   5   75.43    2.43
   1   1  -5   81.03    2.69
  -1   1   5   76.73    2.65
   0  -1   5   38.46    1.52
   0  -1   5   36.25    1.18
   0  -1  -5   37.03    1.37
   0  -1   5   37.94    1.39
   0  -1  -5   40.41    1.29
   0  -1   5   36.97    1.28
   0  -1   5   40.11    1.50
   0   1  -5   39.89    1.29
   0   1  -5   37.99    1.39
   0   1   5   37.35    1.27
   0   1   5   37.97    1.37
   0   1  -5   37.64    1.50
   0   1   5   37.70    1.50
   0   1  -5   40.03    1.21
   1  -1   5   48.72    1.58
  -1  -1  -5   48.38    1.79
   1  -1   5   46.74    1.75
  -1  -1  -5   47.63    1.54
   1  -1   5   44.81    1.51
  -1  -1  -5   44.27    1.64
   1  -1   5   44.94    1.62
   1   1   5   45.37    1.55
  -1   1  -5   44.77    1.51
  -1   1  -5   50.07    1.79
  -1   1  -5   49.89    1.56
   1   1   5   47.46    1.66
  -1   1  -5   46.66    1.64
   1   1   5   46.41    1.80
   2  -1   5  119.14    3.84
   2  -1   5  125.18    4.02
   2  -1   5  118.11    3.73
  -2  -1  -5  122.09    4.10
   2  -1   5  116.55    3.70
  -2  -1  -5  132.36    3.94
   2   1   5  118.02    3.91
  -2   1  -5  131.36    3.89
   2   1   5  120.58    3.77
  -2   1  -5  125.01    4.04
   2   1   5  123.49    3.81
   2   1   5  120.84    4.11
  -2   1  -5  122.27    3.73
  -3  -1  -5  201.78    6.60
   3  -1   5  205.98    6.29
   3  -1   5  218.64    6.61
   3  -1   5  205.34    6.39
   3  -1   5  202.87    6.16
  -3  -1  -5  207.55    6.76
  -3  -1  -5  214.41    6.51
   3   1   5  203.30    6.48
  -3   1  -5  212.60    6.42
   3   1   5  203.43    6.24
   3   1   5  197.88    6.25
   3   1   5  211.36    6.76
  -3   1  -5  219.75    6.69
   4  -1   5   36.78    2.13
   4  -1   5   36.34    1.57
  -4  -1  -5   37.29    1.85
   4  -1   5   35.98    1.71
  -4  -1  -5   35.53    2.06
  -4  -1  -5   37.91    2.37
   4   1   5   36.26    1.61
  -4   1  -5   37.10    2.16
  -4   1  -5   38.14    1.83
   4   1   5   35.48    1.82
  -4   1  -5   38.74    1.85
   4   1   5   35.70    2.28
  -5  -1  -5   80.77    2.98
  -5  -1  -5   79.26    3.62
   5  -1   5   82.52    3.02
  -5  -1  -5   83.53    2.74
  -5  -1  -5   79.25    3.36
   5  -1   5   81.85    3.61
  -5   1  -5   77.84    3.27
   5   1   5   71.27    3.54
  -5   1  -5   77.66    3.51
   5   1   5   78.94    3.03
  -6  -1  -5    5.14    0.97
   6  -1   5    3.02    0.84
  -6  -1  -5    4.11    1.25
  -6  -1  -5    3.08    1.10
   6   1   5    4.94    0.97
  -6   1  -5    6.27    1.32
  -6   1  -5    2.79    0.87
  -6   1  -5    1.99    1.03
   7  -1   5    8.42    1.38
  -7  -1  -5    6.04    1.80
  -7  -1  -5    7.84    1.66
  -7  -1  -5    5.46    1.43
  -7   1  -5    7.71    1.55
  -7   1  -5    6.44    1.74
   7   1   5    8.66    1.43
  -7  -2   5   16.66    2.27
  -7  -2   5   16.69    1.99
  -7  -2   5   19.27    2.05
   7  -2  -5   16.46    1.80
  -7   2   5   16.88    2.10
   7   2  -5   17.40    1.81
  -7   2   5   17.25    2.07
  -6  -2   5   11.30    1.23
  -6  -2   5   10.80    1.76
   6  -2  -5   10.19    1.26
  -6  -2   5   10.21    1.60
  -6   2   5    9.77    1.37
  -6   2   5    9.32    1.15
   6   2  -5    9.87    1.23
  -6   2   5   10.24    1.22
  -5  -2   5    2.15    0.72
  -5  -2   5    3.67    0.98
   5  -2  -5    2.71    0.57
  -5  -2   5    3.14    0.57
  -5   2   5    3.13    0.52
   5   2  -5    3.06    0.59
  -5   2   5    2.33    0.77
  -5   2   5    3.46    0.65
  -4  -2   5    8.30    1.04
  -4  -2   5    8.00    0.90
   4  -2  -5    7.41    0.46
   4  -2  -5    8.05    0.73
  -4  -2   5    8.98    1.40
  -4  -2   5    6.38    0.63
   4   2  -5    7.28    0.69
  -4   2   5    6.91    0.58
  -4   2   5    7.53    0.73
  -4   2   5    6.08    0.75
   4   2  -5    6.97    1.08
  -4   2   5    7.14    1.02
  -4   2   5    6.94    0.93
  -3  -2   5   35.65    1.94
  -3  -2   5   32.45    1.35
  -3  -2   5   37.13    1.69
  -3  -2   5   36.30    1.74
   3  -2  -5   37.05    1.25
  -3  -2   5   35.50    1.57
   3   2  -5   36.85    1.43
   3   2  -5   36.90    1.10
   3   2  -5   37.30    1.41
  -3   2   5   38.63    1.25
   3   2  -5   34.47    1.87
  -3   2   5   38.45    1.50
  -3   2   5   35.93    1.29
  -3   2   5   35.04    1.54
  -3   2   5   36.17    1.43
   2  -2  -5  120.96    3.75
   2  -2  -5  121.18    3.74
  -2  -2   5  125.84    3.92
  -2  -2   5  114.74    3.71
  -2  -2   5  117.06    3.89
  -2  -2   5  124.80    4.35
   2  -2  -5  122.13    3.65
  -2  -2   5  116.87    4.00
   2  -2  -5  122.92    3.73
  -2   2   5  118.37    3.62
   2   2  -5  121.43    3.69
  -2   2   5  121.61    3.76
   2   2  -5  128.07    3.72
   2   2  -5  119.67    4.19
  -2   2   5  118.42    4.11
  -2   2   5  121.77    3.87
  -2   2   5  124.83    3.54
   2   2  -5  119.05    4.02
  -1  -2   5  235.97    6.59
  -1  -2   5  227.61    6.94
  -1  -2   5  228.79    6.81
  -1  -2   5  218.85    6.55
   1  -2  -5  237.42    6.75
   1  -2  -5  226.19    6.71
   1  -2  -5  233.34    6.60
  -1  -2   5  241.79    7.14
   1  -2  -5  220.53    6.65
   1  -2  -5  217.97    6.52
   1  -2  -5  233.28    6.80
  -1  -2   5  215.97    6.66
   1   2  -5  238.91    6.84
  -1   2   5  216.32    6.62
  -1   2   5  221.75    6.85
   1   2  -5  234.59    6.68
   1   2  -5  218.91    6.58
  -1   2   5  221.95    6.74
  -1   2   5  220.66    6.69
   1   2  -5  231.00    6.93
   1   2  -5  229.01    7.05
   0  -2  -5  209.04    6.10
   0  -2   5  193.46    6.10
   0  -2   5  217.65    6.39
   0  -2  -5  204.40    6.20
   0  -2   5  214.94    6.38
   0  -2   5  205.48    6.06
   0  -2   5  199.80    6.22
   0  -2  -5  217.46    6.36
   0   2   5  212.98    6.36
   0   2   5  195.42    6.09
   0   2  -5  214.36    6.11
   0   2  -5  210.07    6.05
   0   2  -5  196.91    6.30
   0   2  -5  214.12    6.37
   0   2  -5  210.80    6.23
   0   2   5  208.21    6.20
   1  -2   5  292.90    8.74
  -1  -2  -5  327.92    9.16
   1  -2   5  287.07    8.80
   1  -2   5  314.56    8.91
   1  -2   5  290.61    8.94
  -1  -2  -5  308.20    8.85
   1  -2   5  302.63    9.06
  -1  -2  -5  316.10    9.00
   1   2   5  287.44    8.86
  -1   2  -5  304.62    8.82
   1   2   5  300.40    9.18
  -1   2  -5  297.51    9.11
   1   2   5  296.62    8.99
  -1   2  -5  321.62    8.87
  -1   2  -5  308.63    8.96
   2  -2   5   33.05    1.28
   2  -2   5   30.72    1.17
  -2  -2  -5   35.27    1.64
   2  -2   5   32.51    1.13
   2  -2   5   34.85    1.43
  -2  -2  -5   31.66    1.41
  -2   2  -5   35.09    1.34
  -2   2  -5   35.76    1.21
   2   2   5   33.27    1.39
   2   2   5   33.00    1.60
  -2   2  -5   32.57    1.44
   2   2   5   32.36    1.39
   2   2   5   33.29    1.26
   3  -2   5   73.10    2.51
   3  -2   5   71.37    2.44
  -3  -2  -5   71.21    2.77
   3  -2   5   75.63    2.70
  -3  -2  -5   76.00    3.03
   3   2   5   70.94    2.46
   3   2   5   68.32    2.66
  -3   2  -5   75.43    2.78
  -3   2  -5   75.37    2.57
   3   2   5   73.92    3.04
   3   2   5   70.73    2.64
   4  -2   5   15.73    1.02
  -4  -2  -5   15.59    1.27
  -4  -2  -5   16.30    1.56
   4  -2   5   17.21    1.15
  -4  -2  -5   19.09    2.09
  -4   2  -5   17.07    1.55
   4   2   5   18.12    1.21
   4   2   5   18.11    1.11
   4   2   5   16.80    1.34
  -4   2  -5   17.87    1.34
   4   2   5   18.75    1.88
  -4   2  -5   16.70    1.16
  -5  -2  -5   -0.26    0.86
  -5  -2  -5    0.18    0.70
   5  -2   5    1.14    0.56
  -5  -2  -5    0.24    0.48
  -5   2  -5   -0.81    0.67
   5   2   5   -1.17    0.86
  -5   2  -5   -0.34    0.64
   5   2   5    0.33    0.55
  -6  -2  -5   22.52    2.16
  -6  -2  -5   20.29    2.03
   6  -2   5   21.16    1.71
  -6  -2  -5   25.04    2.54
  -6   2  -5   20.54    1.89
   6   2   5   22.92    1.78
  -6   2  -5   17.32    2.13
  -6   2  -5   21.04    1.68
   7  -2   5    8.00    1.37
  -7  -2  -5   10.78    1.74
  -7  -2  -5    9.09    1.45
  -7  -2  -5    8.32    2.04
  -7   2  -5    7.61    1.77
  -7   2  -5    9.30    1.64
   7   2   5    9.39    1.47
  -7  -3   5    0.40    1.07
   7  -3  -5   -1.05    0.89
  -7  -3   5   -2.33    1.20
  -7  -3   5    2.10    1.79
   7   3  -5    0.67    0.89
  -7   3   5   -1.79    1.34
  -7   3   5   -0.35    1.15
   6  -3  -5    4.37    0.84
  -6  -3   5    2.57    1.32
  -6  -3   5    2.18    0.95
  -6  -3   5    4.16    0.81
  -6   3   5    5.06    0.94
   6   3  -5    4.53    0.83
  -6   3   5    3.67    0.82
  -6   3   5    4.02    1.04
  -5  -3   5    1.17    0.66
  -5  -3   5    1.01    0.85
   5  -3  -5    0.47    0.49
  -5  -3   5    0.24    0.44
  -5   3   5    0.79    0.43
  -5   3   5   -0.32    0.62
   5   3  -5    0.65    0.46
  -5   3   5    0.19    0.51
  -4  -3   5    5.58    0.88
  -4  -3   5    5.98    0.64
   4  -3  -5    5.63    0.47
  -4  -3   5    9.24    1.48
  -4  -3   5    5.99    0.83
   4  -3  -5    5.20    0.67
  -4   3   5    5.97    0.66
  -4   3   5    5.81    0.52
  -4   3   5    5.08    0.82
   4   3  -5    4.72    0.98
  -4   3   5    5.26    0.72
  -4   3   5    5.70    0.68
   4   3  -5    6.72    0.68
   3  -3  -5   13.06    0.63
   3  -3  -5   12.90    0.77
  -3  -3   5   13.42    0.93
  -3  -3   5   13.19    0.72
  -3  -3   5   14.13    1.50
  -3  -3   5   13.87    1.09
   3   3  -5   13.18    1.30
  -3   3   5   12.94    0.73
  -3   3   5   13.17    0.84
  -3   3   5   11.58    0.79
  -3   3   5   12.38    0.60
   3   3  -5   13.22    0.50
   3   3  -5   12.23    0.71
  -3   3   5   13.56    0.63
  -2  -3   5    5.29    0.66
   2  -3  -5    4.79    0.46
   2  -3  -5    4.66    0.28
   2  -3  -5    4.11    0.44
  -2  -3   5    4.49    0.53
  -2  -3   5    3.82    0.55
  -2  -3   5    4.47    0.39
   2  -3  -5    3.95    0.35
   2  -3  -5    3.86    0.43
  -2  -3   5    4.44    0.29
   2   3  -5    4.32    0.36
  -2   3   5    4.17    0.51
   2   3  -5    4.30    0.62
  -2   3   5    4.24    0.28
   2   3  -5    4.55    0.74
   2   3  -5    4.31    0.51
  -2   3   5    4.19    0.40
  -2   3   5    4.38    0.29
  -1  -3   5   81.12    2.48
  -1  -3   5   79.63    2.56
   1  -3  -5   83.24    2.46
  -1  -3   5   87.54    3.13
   1  -3  -5   79.75    2.56
   1  -3  -5   82.37    2.64
   1  -3  -5   85.42    2.67
  -1  -3   5   79.39    2.71
   1  -3  -5   81.19    2.61
  -1  -3   5   79.43    2.82
   1  -3  -5   82.26    2.46
   1   3  -5   81.42    2.46
   1   3  -5   86.08    2.59
   1   3  -5   87.70    2.88
   1   3  -5   81.28    2.98
  -1   3   5   81.72    2.51
  -1   3   5   83.21    2.62
  -1   3   5   80.78    2.60
   1   3  -5   82.66    2.74
  -1   3   5   77.65    2.72
   0  -3   5   12.58    0.79
   0  -3   5   12.71    0.56
   0  -3  -5   13.31    0.57
   0  -3  -5   13.98    0.68
   0  -3   5   12.26    0.54
   0  -3  -5   12.10    0.79
   0  -3   5   12.49    0.66
   0  -3   5   13.16    0.92
   0   3  -5   13.70    0.56
   0   3  -5   12.45    0.68
   0   3  -5   12.07    0.82
   0   3   5   13.19    0.70
   0   3  -5   13.69    0.84
   0   3   5   12.17    0.75
   0   3  -5   12.04    0.58
   0   3   5   13.64    0.56
  -1  -3  -5   75.10    2.67
  -1  -3  -5   75.20    2.37
  -1  -3  -5   75.41    2.51
   1  -3   5   77.85    2.46
   1  -3   5   73.79    2.44
   1  -3   5   73.66    2.22
   1  -3   5   74.14    2.29
   1   3   5   72.15    2.38
  -1   3  -5   77.15    2.34
  -1   3  -5   71.98    2.42
  -1   3  -5   80.49    2.48
  -1   3  -5   78.39    2.39
  -1   3  -5   71.26    2.58
   1   3   5   71.34    2.50
  -2  -3  -5   13.08    1.16
   2  -3   5   12.99    0.69
   2  -3   5   13.07    0.60
   2  -3   5   12.98    0.52
   2  -3   5   13.65    0.82
  -2  -3  -5   10.71    1.02
   2   3   5   13.20    0.70
   2   3   5   13.72    0.94
   2   3   5   12.42    0.83
  -2   3  -5   12.86    0.87
  -2   3  -5   13.77    0.76
   2   3   5   12.84    1.04
  -2   3  -5   14.14    0.63
  -3  -3  -5    1.80    0.88
   3  -3   5    2.43    0.40
  -3  -3  -5    1.98    0.27
   3  -3   5    2.19    0.56
  -3  -3  -5    1.90    0.52
   3  -3   5    2.45    0.38
   3   3   5    1.81    0.52
  -3   3  -5    1.70    0.50
   3   3   5    2.26    0.61
   3   3   5    2.86    0.72
   3   3   5    2.32    0.40
  -3   3  -5    1.89    0.46
   4  -3   5    6.76    0.89
  -4  -3  -5    5.78    0.86
  -4  -3  -5    6.49    0.73
  -4  -3  -5    5.61    1.06
   4  -3   5    7.31    0.77
  -4  -3  -5    5.41    0.45
  -4   3  -5    6.48    0.86
  -4   3  -5    7.02    0.88
   4   3   5    6.18    0.97
   4   3   5    6.65    0.94
   4   3   5    7.43    1.25
   4   3   5    6.43    0.82
  -4   3  -5    5.92    0.95
  -5  -3  -5   10.77    1.29
   5  -3   5   12.00    1.14
  -5  -3  -5   12.74    1.11
  -5  -3  -5   10.53    1.57
   5   3   5   12.10    1.43
   5   3   5   12.33    1.18
  -5   3  -5   11.16    1.53
  -5   3  -5   11.70    1.30
  -6  -3  -5    3.88    0.94
  -6  -3  -5    2.52    1.42
  -6  -3  -5    2.70    1.15
   6  -3   5    2.51    0.82
  -6   3  -5    2.05    1.14
   6   3   5    4.38    0.93
  -6   3  -5    2.57    0.92
  -6   3  -5    2.28    1.06
  -7  -3  -5    7.66    2.17
   7  -3   5    9.92    1.45
  -7  -3  -5   10.17    1.53
  -7  -3  -5    9.48    1.84
  -7   3  -5    9.77    1.66
   7   3   5   11.24    1.53
  -7   3  -5    8.45    1.79
  -7  -4   5   22.35    2.80
   7  -4  -5   24.33    2.08
  -7  -4   5   22.35    2.64
  -7  -4   5   25.28    2.26
  -7   4   5   24.96    2.74
  -7   4   5   27.49    2.56
   7   4  -5   23.26    2.03
  -6  -4   5   -2.59    1.09
  -6  -4   5    0.89    0.89
  -6  -4   5    0.07    0.91
   6  -4  -5    0.89    0.70
  -6   4   5   -1.09    0.90
   6   4  -5   -0.13    0.67
  -6   4   5   -0.36    0.74
  -5  -4   5    6.11    0.77
  -5  -4   5    5.82    1.24
  -5  -4   5    5.69    0.95
   5  -4  -5    5.71    0.80
  -5   4   5    4.72    0.69
  -5   4   5    5.94    0.67
  -5   4   5    4.92    0.83
   5   4  -5    6.17    1.40
   5   4  -5    4.21    0.66
  -4  -4   5    0.39    0.62
  -4  -4   5    0.29    0.33
   4  -4  -5    0.52    0.36
  -4  -4   5    0.81    0.57
   4  -4  -5    0.35    0.30
  -4   4   5    0.47    0.26
   4   4  -5    1.15    0.92
   4   4  -5    0.59    0.35
  -4   4   5    0.43    0.43
  -4   4   5    0.05    0.44
  -4   4   5    1.05    0.39
  -3  -4   5  120.35    4.45
   3  -4  -5  116.55    3.59
  -3  -4   5  120.60    4.00
  -3  -4   5  118.62    3.72
   3  -4  -5  112.07    3.74
   3  -4  -5  110.08    3.47
  -3  -4   5  112.96    4.16
   3   4  -5  117.45    3.67
  -3   4   5  118.08    3.62
  -3   4   5  105.06    3.74
  -3   4   5  115.22    3.53
   3   4  -5  115.74    4.37
   3   4  -5  119.61    3.39
  -3   4   5  115.08    3.49
  -3   4   5  116.17    3.76
   2  -4  -5    5.13    0.34
   2  -4  -5    4.86    0.44
   2  -4  -5    5.06    0.41
  -2  -4   5    4.68    0.34
  -2  -4   5    5.86    0.90
  -2  -4   5    4.39    0.42
   2  -4  -5    5.32    0.51
  -2  -4   5    4.93    0.88
  -2  -4   5    4.63    0.63
   2   4  -5    4.09    0.81
  -2   4   5    5.05    0.35
  -2   4   5    5.20    0.47
   2   4  -5    5.38    0.81
   2   4  -5    5.63    0.37
  -2   4   5    4.74    0.41
   2   4  -5    4.43    0.39
  -2   4   5    4.71    0.30
   1  -4  -5  913.20   25.06
  -1  -4   5  854.25   24.94
   1  -4  -5  838.99   25.02
  -1  -4   5  824.76   25.00
  -1  -4   5  851.97   25.31
   1  -4  -5  849.26   24.92
  -1  -4   5  964.43   25.65
  -1  -4   5  847.85   25.18
   1   4  -5  957.21   25.39
  -1   4   5  851.74   25.02
  -1   4   5  833.77   25.07
   1   4  -5  884.47   25.57
   1   4  -5  898.61   25.03
  -1   4   5  787.91   25.15
   1   4  -5  908.45   25.22
   0  -4  -5   17.16    0.80
   0  -4  -5   16.69    0.96
   0  -4   5   16.05    0.68
   0  -4  -5   16.87    0.67
   0  -4  -5   17.15    0.72
   0  -4   5   16.78    0.94
   0  -4   5   15.86    0.68
   0  -4   5   15.07    0.78
   0  -4   5   17.13    1.13
   0   4  -5   17.50    0.71
   0   4  -5   17.08    0.84
   0   4  -5   15.86    0.99
   0   4  -5   17.03    0.93
   0   4   5   15.83    0.67
   0   4  -5   16.49    0.72
   0   4   5   16.05    0.77
   0   4   5   14.95    0.87
  -1  -4  -5  654.00   18.86
   1  -4   5  600.26   18.91
   1  -4   5  689.27   19.01
  -1  -4  -5  677.66   19.03
  -1  -4  -5  706.03   19.23
   1  -4   5  690.92   19.01
   1  -4   5  629.51   18.75
   1  -4   5  646.47   18.90
   1  -4   5  622.45   18.69
  -1  -4  -5  694.86   18.87
   1   4   5  656.61   19.27
   1   4   5  640.51   18.89
  -1   4  -5  634.45   19.08
  -1   4  -5  681.39   18.95
  -1   4  -5  641.73   18.88
   1   4   5  630.04   19.03
   1   4   5  629.84   19.14
  -1   4  -5  649.14   18.82
  -1   4  -5  661.48   19.03
   2  -4   5    0.06    0.16
   2  -4   5    0.40    0.24
   2  -4   5    0.34    0.30
  -2  -4  -5    0.75    0.38
  -2  -4  -5    0.17    0.59
  -2  -4  -5   -0.05    0.15
   2   4   5    0.60    0.44
  -2   4  -5    0.01    0.19
   2   4   5   -0.01    0.22
  -2   4  -5    0.06    0.27
  -2   4  -5    0.29    0.21
   2   4   5    0.01    0.36
   2   4   5   -0.04    0.42
  -2   4  -5   -0.03    0.31
  -3  -4  -5   69.39    2.50
   3  -4   5   69.08    2.37
   3  -4   5   71.48    2.41
  -3  -4  -5   71.87    2.30
  -3  -4  -5   71.58    2.84
  -3  -4  -5   75.46    3.03
  -3   4  -5   76.57    2.52
   3   4   5   72.90    3.14
   3   4   5   69.83    2.75
   3   4   5   70.87    2.97
  -3   4  -5   72.72    2.67
   3   4   5   71.24    2.52
  -4  -4  -5    2.81    0.32
  -4  -4  -5    2.80    0.74
   4  -4   5    2.51    0.50
  -4  -4  -5    1.91    0.48
  -4  -4  -5    2.57    0.84
   4   4   5    1.63    0.76
  -4   4  -5    2.26    0.59
  -4   4  -5    2.60    0.72
  -4   4  -5    3.44    0.73
   4   4   5    1.10    1.04
  -5  -4  -5    7.88    0.92
  -5  -4  -5    8.65    1.24
   5  -4   5    8.10    1.02
  -5  -4  -5   11.18    1.65
  -5   4  -5    6.88    1.06
  -5   4  -5    6.85    0.89
   5   4   5    6.92    1.46
   5   4   5    7.11    0.96
   5   4   5    5.95    1.26
   6  -4   5    3.32    0.89
  -6  -4  -5    1.70    1.54
  -6  -4  -5    2.28    1.08
  -6  -4  -5    1.32    0.80
  -6   4  -5    2.15    1.09
   6   4   5    2.38    0.93
  -7  -4  -5   29.52    3.29
  -7  -4  -5   35.22    2.55
  -7  -4  -5   26.56    3.13
   7  -4   5   32.16    2.46
   7   4   5   33.62    2.65
  -7   4  -5   33.26    2.65
  -7   4  -5   28.88    3.01
  -7  -5   5    0.43    1.46
  -7  -5   5    0.32    1.16
   7  -5  -5   -1.44    1.03
  -7  -5   5    2.12    1.99
  -7   5   5    0.82    1.38
   7   5  -5    1.59    1.00
  -6  -5   5   23.13    2.05
   6  -5  -5   20.81    1.69
  -6  -5   5   22.50    1.62
  -6  -5   5   22.50    2.89
  -6   5   5   21.85    1.49
   6   5  -5   23.81    1.66
  -6   5   5   18.76    1.96
  -5  -5   5    8.06    0.97
  -5  -5   5    8.86    1.13
  -5  -5   5   10.92    1.62
   5  -5  -5    9.24    1.07
   5   5  -5    8.29    1.03
  -5   5   5    8.98    0.89
   5   5  -5    9.48    1.66
  -5   5   5   10.34    0.85
  -5   5   5    8.93    1.02
  -4  -5   5   58.51    2.88
   4  -5  -5   58.87    2.30
  -4  -5   5   61.32    2.60
   4  -5  -5   58.56    2.06
  -4  -5   5   60.69    2.25
  -4   5   5   58.29    1.96
  -4   5   5   56.69    2.06
   4   5  -5   57.33    3.09
  -4   5   5   58.34    2.28
   4   5  -5   60.94    2.24
  -4   5   5   58.14    2.04
  -3  -5   5   46.75    2.03
  -3  -5   5   46.61    2.26
   3  -5  -5   47.41    1.70
  -3  -5   5   45.89    1.76
   3  -5  -5   46.67    1.84
  -3   5   5   44.81    1.62
  -3   5   5   44.94    1.52
   3   5  -5   47.68    1.73
   3   5  -5   49.59    2.51
   3   5  -5   47.81    1.48
  -3   5   5   46.83    1.76
  -2  -5   5   28.01    1.49
   2  -5  -5   27.53    1.04
   2  -5  -5   27.05    0.96
  -2  -5   5   27.30    1.04
  -2  -5   5   26.44    1.12
  -2  -5   5   27.52    1.35
   2  -5  -5   26.52    1.23
   2   5  -5   30.82    1.95
   2   5  -5   28.63    1.06
  -2   5   5   28.91    0.96
  -2   5   5   26.56    1.22
   2   5  -5   28.43    1.81
  -2   5   5   27.46    1.04
   2   5  -5   29.09    1.04
  -2   5   5   29.30    1.04
   1  -5  -5   38.73    1.20
  -1  -5   5   39.20    1.58
  -1  -5   5   39.19    1.37
  -1  -5   5   40.87    1.72
   1  -5  -5   38.95    1.45
   1  -5  -5   39.82    1.44
  -1  -5   5   37.23    1.40
   1  -5  -5   41.92    1.48
  -1  -5   5   44.45    2.13
   1  -5  -5   42.18    1.41
   1  -5  -5   39.19    1.36
  -1   5   5   39.98    1.57
   1   5  -5   41.62    1.79
   1   5  -5   37.90    1.98
   1   5  -5   43.03    1.43
  -1   5   5   39.00    1.33
   1   5  -5   40.38    1.29
   1   5  -5   42.01    1.67
  -1   5   5   40.34    1.43
   0  -5   5   11.92    0.57
   0  -5   5   11.60    0.84
   0  -5  -5   13.27    0.76
   0  -5  -5   12.19    0.56
   0  -5   5   12.97    1.10
   0  -5   5   12.52    0.61
   0  -5  -5   13.48    0.59
   0  -5  -5   12.31    0.59
   0  -5  -5   12.28    0.63
   0  -5   5   11.88    0.70
   0   5  -5   13.00    0.78
   0   5  -5   12.35    0.99
   0   5  -5   13.96    0.87
   0   5  -5   13.52    0.67
   0   5   5   12.03    0.68
   0   5  -5   13.95    0.65
   0   5   5   11.82    0.83
   0   5   5   12.52    0.59
   1  -5   5    2.36    0.35
  -1  -5  -5    1.89    0.27
  -1  -5  -5    3.14    0.39
   1  -5   5    2.21    0.46
   1  -5   5    2.30    0.35
   1  -5   5    2.13    0.21
   1  -5   5    2.27    0.41
  -1  -5  -5    2.32    0.43
  -1   5  -5    1.62    0.46
   1   5   5    2.32    0.32
  -1   5  -5    2.39    0.30
  -1   5  -5    2.12    0.41
   1   5   5    1.90    0.49
   1   5   5    2.07    0.53
  -1   5  -5    1.91    0.35
  -2  -5  -5   92.41    2.97
  -2  -5  -5   85.05    3.21
  -2  -5  -5   89.56    3.38
   2  -5   5   90.17    2.79
  -2  -5  -5   93.49    2.86
   2  -5   5   92.85    2.85
  -2   5  -5   89.07    2.92
   2   5   5   88.24    3.42
  -2   5  -5   98.44    2.97
   2   5   5   86.84    3.49
  -2   5  -5   86.44    2.79
  -2   5  -5   87.39    3.09
   2   5   5   91.55    2.99
   2   5   5   93.85    3.21
  -3  -5  -5    2.74    0.81
  -3  -5  -5    2.80    0.33
  -3  -5  -5    2.88    0.45
   3  -5   5    3.18    0.41
   3  -5   5    2.64    0.41
  -3  -5  -5    2.37    0.57
   3   5   5    2.13    0.44
  -3   5  -5    2.91    0.49
   3   5   5    2.90    0.88
   3   5   5    2.68    0.91
  -3   5  -5    2.82    0.59
   3   5   5    2.55    0.60
  -4  -5  -5   51.67    2.81
  -4  -5  -5   51.25    2.09
   4  -5   5   51.64    2.00
  -4  -5  -5   55.55    2.56
  -4  -5  -5   52.44    1.72
   4   5   5   50.13    2.46
  -4   5  -5   52.90    2.31
  -4   5  -5   50.43    2.08
   4   5   5   49.42    2.79
   4   5   5   48.53    3.11
  -5  -5  -5   19.44    2.45
  -5  -5  -5   18.91    1.39
  -5  -5  -5   19.60    1.87
   5  -5   5   19.59    1.34
   5   5   5   19.59    2.40
  -5   5  -5   17.28    1.39
   5   5   5   20.70    2.08
   5   5   5   19.17    1.51
   6  -5   5    7.49    1.09
  -6  -5  -5    6.03    1.79
  -6  -5  -5    6.76    1.49
  -6  -5  -5   10.33    1.27
  -6   5  -5    5.67    1.28
   6   5   5    7.90    1.18
   6   5   5    6.55    3.04
  -6   5  -5    6.92    1.31
  -7  -5  -5    9.23    2.58
   7  -5   5   13.27    1.66
  -7  -5  -5   11.71    1.57
  -7  -5  -5    9.28    1.84
  -7   5  -5    7.36    1.79
   7   5   5   12.75    1.63
  -7  -6   5    3.50    1.26
   7  -6  -5    2.28    1.19
  -7  -6   5    1.30    1.67
  -7  -6   5    6.80    2.42
  -7   6   5    1.49    1.33
   7   6  -5    4.33    1.17
  -6  -6   5    0.03    1.53
  -6  -6   5    3.09    1.17
  -6  -6   5    1.57    0.80
   6  -6  -5    3.61    0.94
   6   6  -5    4.95    2.54
  -6   6   5    1.31    0.92
   6   6  -5    2.36    0.85
   5  -6  -5    3.49    0.72
  -5  -6   5    3.01    0.89
  -5  -6   5    2.46    1.21
  -5  -6   5    3.84    0.69
   5   6  -5    4.51    0.76
   5   6  -5    2.02    1.45
  -5   6   5    3.46    0.51
  -5   6   5    2.57    0.91
  -5   6   5    4.40    0.74
  -4  -6   5    7.58    0.77
   4  -6  -5    7.15    0.91
  -4  -6   5    8.27    1.26
  -4  -6   5    6.35    0.93
   4  -6  -5    8.35    0.74
  -4   6   5    8.21    0.64
   4   6  -5    7.91    1.48
  -4   6   5    8.15    0.61
  -4   6   5    7.46    0.83
  -4   6   5    8.19    0.57
   4   6  -5    8.22    0.80
  -3  -6   5   -0.21    0.55
   3  -6  -5    0.27    0.33
   3  -6  -5    0.59    0.29
  -3  -6   5    0.33    0.24
  -3  -6   5    0.02    0.25
  -3  -6   5    0.69    0.41
  -3   6   5    0.24    0.18
   3   6  -5    0.31    0.24
  -3   6   5    0.10    0.27
   3   6  -5    0.25    0.29
   3   6  -5   -0.54    0.78
  -3   6   5    0.74    0.24
   2  -6  -5   60.00    2.12
   2  -6  -5   54.43    1.89
  -2  -6   5   54.08    1.96
  -2  -6   5   53.79    2.21
  -2  -6   5   56.95    1.93
   2  -6  -5   56.04    1.97
  -2  -6   5   56.64    2.39
  -2   6   5   56.55    2.01
  -2   6   5   57.29    1.84
   2   6  -5   57.09    2.73
  -2   6   5   56.68    1.78
   2   6  -5   56.20    1.89
  -2   6   5   56.08    1.88
   2   6  -5   55.79    1.87
  -1  -6   5   18.33    1.03
  -1  -6   5   18.29    0.94
  -1  -6   5   20.71    1.17
  -1  -6   5   20.20    0.86
   1  -6  -5   19.10    0.87
   1  -6  -5   20.55    0.84
   1  -6  -5   20.48    0.94
   1  -6  -5   20.12    0.84
   1   6  -5   20.80    0.98
   1   6  -5   21.14    1.18
   1   6  -5   21.54    1.32
  -1   6   5   20.19    0.87
  -1   6   5   19.81    0.76
   1   6  -5   19.29    1.48
  -1   6   5   19.50    1.00
   0  -6  -5   48.11    1.75
   0  -6   5   45.80    1.61
   0  -6  -5   47.18    1.53
   0  -6  -5   40.24    1.70
   0  -6  -5   43.00    1.58
   0  -6  -5   45.32    1.52
   0  -6   5   46.09    1.71
   0  -6   5   43.96    2.10
   0  -6   5   48.72    1.91
   0  -6   5   45.52    1.54
   0   6  -5   46.31    1.39
   0   6  -5   48.19    1.92
   0   6   5   45.32    1.57
   0   6   5   43.50    1.90
   0   6  -5   50.62    1.79
   0   6  -5   46.57    2.13
  -1  -6  -5   46.91    1.94
   1  -6   5   45.45    1.63
   1  -6   5   44.29    1.85
   1  -6   5   44.15    1.62
  -1  -6  -5   41.30    1.57
   1  -6   5   46.80    1.67
   1  -6   5   45.67    1.37
  -1  -6  -5   46.38    1.59
   1  -6   5   43.22    1.36
  -1  -6  -5   45.15    1.83
   1   6   5   43.76    1.76
  -1   6  -5   42.71    1.51
  -1   6  -5   44.03    1.65
   1   6   5   42.14    2.01
  -1   6  -5   42.46    1.91
  -1   6  -5   43.54    1.37
   1   6   5   43.30    2.03
  -1   6  -5   43.20    1.78
  -2  -6  -5    0.81    0.44
   2  -6   5    0.77    0.24
  -2  -6  -5    1.47    0.31
   2  -6   5    0.91    0.30
  -2  -6  -5    0.85    0.29
  -2  -6  -5    0.98    0.60
  -2   6  -5    0.81    0.40
   2   6   5    1.81    0.68
   2   6   5    0.26    0.26
  -2   6  -5    1.54    0.44
   2   6   5    0.40    0.37
  -2   6  -5    0.81    0.32
   2   6   5    0.47    0.61
  -3  -6  -5   38.22    1.96
  -3  -6  -5   40.64    2.24
  -3  -6  -5   38.32    1.41
   3  -6   5   39.27    1.49
  -3  -6  -5   38.07    1.61
   3   6   5   39.54    2.32
   3   6   5   41.07    1.95
  -3   6  -5   38.76    1.57
  -3   6  -5   36.38    1.74
   3   6   5   39.49    1.68
   3   6   5   36.68    2.43
  -4  -6  -5   10.64    0.95
   4  -6   5   10.99    0.91
  -4  -6  -5   10.66    0.65
  -4  -6  -5   10.22    1.40
  -4  -6  -5   11.11    1.32
   4   6   5    8.74    1.61
  -4   6  -5   11.17    0.97
   4   6   5    8.81    1.18
  -4   6  -5   10.40    1.27
   4   6   5    9.90    1.58
  -5  -6  -5    6.19    1.23
  -5  -6  -5    7.97    0.99
  -5  -6  -5    6.19    1.57
   5  -6   5    8.31    0.96
   5   6   5    8.87    1.46
  -5   6  -5    7.20    0.87
   5   6   5    7.77    1.96
   5   6   5   10.22    1.31
  -6  -6  -5    6.75    2.07
  -6  -6  -5    9.49    1.29
  -6  -6  -5    6.84    1.54
   6  -6   5    9.68    1.30
  -6   6  -5    7.27    1.37
   6   6   5    6.58    1.24
  -6   6  -5    9.76    1.17
   6   6   5    6.45    2.13
  -7  -7   5    2.00    1.75
  -7  -7   5    5.42    1.33
  -7  -7   5    5.55    2.62
   7  -7  -5    7.95    1.48
  -7   7   5    8.99    1.47
   7   7  -5    6.61    1.30
  -6  -7   5    0.77    1.66
   6  -7  -5    1.41    0.93
  -6  -7   5    2.22    0.79
  -6  -7   5    0.61    0.81
  -6  -7   5    3.27    1.22
   6   7  -5    2.23    0.86
  -6   7   5    1.77    0.88
   6   7  -5    4.58    2.19
  -5  -7   5  103.43    3.51
   5  -7  -5  103.13    3.85
  -5  -7   5  105.31    4.27
  -5  -7   5  106.75    4.81
  -5  -7   5  101.27    3.71
   5   7  -5   93.81    4.95
  -5   7   5  103.81    3.70
   5   7  -5  104.51    3.70
  -5   7   5   99.42    3.55
   4  -7  -5    3.43    0.54
   4  -7  -5    3.40    0.61
  -4  -7   5    3.14    0.56
  -4  -7   5    3.12    0.47
  -4  -7   5    2.57    0.98
  -4  -7   5    4.49    0.85
   4   7  -5    4.15    0.60
  -4   7   5    4.28    0.48
  -4   7   5    4.38    0.57
   4   7  -5    4.60    1.35
  -3  -7   5  240.67    7.31
  -3  -7   5  235.20    7.90
   3  -7  -5  235.88    7.20
   3  -7  -5  236.34    7.42
   3  -7  -5  239.81    7.25
  -3  -7   5  247.07    7.21
  -3  -7   5  237.73    7.67
   3   7  -5  241.32    7.03
   3   7  -5  245.47    7.24
   3   7  -5  237.66    8.34
  -3   7   5  242.30    6.96
  -3   7   5  229.18    7.17
  -3   7   5  235.02    6.94
  -2  -7   5    7.93    1.00
   2  -7  -5    7.14    0.59
  -2  -7   5    7.64    0.58
  -2  -7   5    7.41    0.53
  -2  -7   5    8.27    0.82
   2   7  -5    8.19    1.23
  -2   7   5    7.69    0.60
  -2   7   5    7.24    0.41
   2   7  -5    7.10    0.54
  -2   7   5    7.20    0.48
   1  -7  -5   62.73    2.20
  -1  -7   5   63.35    2.38
   1  -7  -5   65.69    2.16
  -1  -7   5   62.20    2.15
  -1  -7   5   61.26    2.48
   1  -7  -5   63.99    2.12
  -1  -7   5   64.36    2.14
   1   7  -5   63.95    2.47
   1   7  -5   64.31    2.90
  -1   7   5   64.86    2.33
   1   7  -5   64.80    2.62
  -1   7   5   67.20    2.06
   0  -7   5    0.41    0.24
   0  -7   5    0.10    0.17
   0  -7  -5    0.12    0.16
   0  -7  -5    0.42    0.30
   0  -7  -5    0.52    0.25
   0  -7  -5    0.32    0.19
   0  -7  -5    0.14    0.22
   0  -7  -5    0.33    0.39
   0  -7   5    0.22    0.29
   0  -7   5    0.30    0.23
   0   7   5    0.68    0.22
   0   7   5    0.11    0.34
   0   7  -5    0.26    0.44
   0   7  -5    0.54    0.44
   0   7   5    0.38    0.27
   0   7  -5    0.29    0.14
   0   7   5    0.72    0.44
   1  -7   5   82.64    3.13
   1  -7   5   91.30    2.87
   1  -7   5   84.94    2.87
  -1  -7  -5   83.97    2.81
  -1  -7  -5   87.76    3.18
  -1  -7  -5   85.74    2.80
   1  -7   5   89.70    2.85
  -1  -7  -5   84.62    3.06
   1   7   5   90.34    2.87
   1   7   5   85.96    3.04
  -1   7  -5   86.95    2.61
   1   7   5   84.46    3.36
  -1   7  -5   92.14    2.92
  -1   7  -5   84.10    3.03
  -1   7  -5   83.93    3.27
   1   7   5   87.89    3.32
  -2  -7  -5    4.15    0.83
  -2  -7  -5    4.95    0.53
   2  -7   5    4.37    0.45
  -2  -7  -5    3.80    0.45
   2  -7   5    4.48    0.49
   2  -7   5    5.18    0.59
  -2  -7  -5    4.33    0.68
   2   7   5    4.80    0.57
  -2   7  -5    4.53    0.61
  -2   7  -5    4.34    0.52
   2   7   5    4.94    1.01
  -2   7  -5    3.80    0.41
   2   7   5    4.50    0.88
   2   7   5    3.25    0.60
  -2   7  -5    4.24    0.70
   3  -7   5  203.61    6.04
  -3  -7  -5  197.01    6.63
  -3  -7  -5  193.59    6.82
  -3  -7  -5  199.60    6.23
  -3  -7  -5  199.09    5.99
  -3   7  -5  205.16    6.04
  -3   7  -5  184.58    6.24
   3   7   5  204.93    6.60
   3   7   5  197.43    7.05
  -3   7  -5  192.86    6.00
   3   7   5  204.11    7.12
   3   7   5  201.71    6.28
  -4  -7  -5    6.16    0.60
   4  -7   5    5.55    0.69
  -4  -7  -5    6.77    1.38
  -4  -7  -5    4.72    0.72
  -4  -7  -5    7.23    1.16
   4   7   5    5.76    1.58
  -4   7  -5    6.01    0.70
   4   7   5    4.67    1.02
  -4   7  -5    6.47    0.95
   4   7   5    5.68    1.50
  -5  -7  -5   75.52    5.35
  -5  -7  -5   90.22    4.48
  -5  -7  -5   78.67    3.77
   5  -7   5   84.23    3.13
  -5   7  -5   81.65    2.94
   5   7   5   82.38    4.69
   5   7   5   88.73    3.99
   5   7   5   80.99    3.42
  -6  -7  -5    5.95    2.15
   6  -7   5    4.82    1.18
  -6  -7  -5    4.59    1.04
  -6  -7  -5    3.06    1.53
  -6   7  -5    6.89    1.26
   6   7   5    2.76    2.10
   6   7   5    3.43    1.11
  -6  -8   5    0.06    0.82
  -6  -8   5    0.90    0.88
  -6  -8   5    4.03    2.08
   6  -8  -5    2.41    1.07
  -6  -8   5    1.34    1.31
   6   8  -5    3.92    2.32
   6   8  -5   -0.48    0.89
   5  -8  -5    9.62    1.26
  -5  -8   5    6.63    0.81
  -5  -8   5    5.17    1.43
  -5  -8   5    8.52    1.73
  -5   8   5    8.38    0.92
   5   8  -5    3.13    1.84
   5   8  -5    7.19    0.94
  -5   8   5    9.53    1.00
  -4  -8   5    1.27    0.48
  -4  -8   5    0.56    1.07
   4  -8  -5    1.01    0.53
  -4  -8   5    1.00    0.74
  -4  -8   5    1.46    0.44
   4  -8  -5    1.46    0.59
  -4   8   5    2.61    0.47
   4   8  -5    2.35    0.51
   4   8  -5    2.20    1.33
   3  -8  -5    3.29    0.61
  -3  -8   5    4.70    0.97
   3  -8  -5    3.99    0.55
  -3  -8   5    2.71    0.67
  -3  -8   5    3.99    0.55
  -3  -8   5    4.79    0.56
   3  -8  -5    3.04    0.51
  -3   8   5    3.97    0.40
   3   8  -5    4.03    0.53
  -3   8   5    3.96    0.48
   3   8  -5    4.49    0.60
   3   8  -5    2.55    1.16
   2  -8  -5   49.76    1.87
   2  -8  -5   47.46    1.81
  -2  -8   5   51.45    2.15
  -2  -8   5   48.24    1.82
  -2  -8   5   50.39    1.80
  -2  -8   5   49.23    2.35
  -2   8   5   48.67    1.82
  -2   8   5   48.20    1.58
  -2   8   5   46.04    1.66
   2   8  -5   52.04    2.79
  -1  -8   5    1.35    0.26
  -1  -8   5    1.05    0.30
   1  -8  -5    1.41    0.32
  -1  -8   5    0.76    0.42
   1  -8  -5    1.10    0.32
  -1  -8   5    1.81    0.56
  -1   8   5    1.05    0.35
   1   8  -5    1.27    0.63
  -1   8   5    1.44    0.29
  -1   8   5    1.38    0.25
   1   8  -5    0.67    0.67
   0  -8  -5   58.63    2.13
   0  -8  -5   62.30    2.27
   0  -8   5   61.72    2.25
   0  -8  -5   61.21    2.01
   0  -8  -5   59.90    1.98
   0  -8  -5   63.24    2.34
   0  -8   5   63.55    2.18
   0  -8   5   65.37    2.04
   0  -8   5   61.75    2.03
   0  -8   5   64.01    2.46
   0  -8  -5   61.12    2.18
   0   8  -5   62.52    2.82
   0   8  -5   66.33    2.42
   0   8   5   59.85    2.48
   0   8   5   63.97    2.28
   0   8  -5   64.01    2.52
   0   8   5   58.86    2.65
   0   8   5   60.97    2.11
   0   8  -5   63.00    1.94
   1  -8   5   21.09    1.03
  -1  -8  -5   19.17    1.24
   1  -8   5   19.85    1.01
  -1  -8  -5   19.93    0.93
  -1  -8  -5   20.46    0.95
  -1  -8  -5   21.53    1.37
  -1  -8  -5   20.32    0.99
   1  -8   5   19.35    1.06
  -1   8  -5   20.32    1.10
   1   8   5   20.48    0.97
  -1   8  -5   19.91    0.77
   1   8   5   20.96    1.16
   1   8   5   17.51    1.36
   1   8   5   20.74    1.53
  -1   8  -5   21.65    1.23
  -2  -8  -5    3.71    0.48
  -2  -8  -5    3.57    0.49
   2  -8   5    4.30    0.46
   2  -8   5    3.21    0.49
  -2  -8  -5    3.36    0.86
  -2  -8  -5    4.53    0.82
   2   8   5    2.42    0.46
   2   8   5    2.30    0.86
  -2   8  -5    4.23    0.63
   2   8   5    3.23    0.69
   2   8   5    4.12    0.98
  -2   8  -5    3.88    0.42
  -2   8  -5    3.86    0.53
  -2   8  -5    3.94    0.78
  -3  -8  -5   19.75    1.58
  -3  -8  -5   20.32    1.16
  -3  -8  -5   21.35    1.00
   3  -8   5   21.24    1.09
  -3  -8  -5   19.96    1.98
   3   8   5   22.71    1.59
   3   8   5   22.30    1.23
   3   8   5   23.45    2.23
  -3   8  -5   19.47    1.06
  -3   8  -5   19.29    1.35
   3   8   5   21.06    2.20
  -3   8  -5   19.68    1.30
  -4  -8  -5    1.04    1.23
  -4  -8  -5    0.79    0.87
  -4  -8  -5    0.76    0.51
   4  -8   5    0.74    0.55
  -4  -8  -5    0.44    0.40
   4   8   5   -1.12    1.43
  -4   8  -5    2.20    0.78
   4   8   5   -2.68    1.28
  -4   8  -5    0.67    0.49
   4   8   5    1.18    0.99
  -5  -8  -5    3.91    0.78
  -5  -8  -5    3.53    1.65
  -5  -8  -5    5.92    1.26
   5  -8   5    5.83    0.97
   5   8   5    6.13    1.09
   5   8   5    2.14    2.35
   5   8   5    4.59    1.41
  -6  -8  -5    3.96    1.05
  -6  -8  -5    3.48    2.46
  -6  -8  -5    5.33    1.63
   6  -8   5    5.19    1.32
   6   8   5   -0.21    2.11
   6   8   5    4.52    1.20
  -6   8  -5    5.21    1.23
  -6  -9   5   10.09    1.90
  -6  -9   5   10.82    1.29
  -6  -9   5   12.71    1.58
   6  -9  -5   10.51    1.53
  -6  -9   5   15.33    2.82
   6   9  -5   13.10    2.88
   6   9  -5   13.76    1.48
   5  -9  -5   30.78    2.09
  -5  -9   5   34.21    1.85
  -5  -9   5   36.39    1.76
  -5  -9   5   42.76    3.59
  -5  -9   5   30.93    2.51
   5   9  -5   37.20    1.93
  -4  -9   5   21.19    1.29
  -4  -9   5   22.02    1.21
  -4  -9   5   22.60    1.83
  -4  -9   5   19.82    2.43
   4  -9  -5   20.62    1.30
   4  -9  -5   20.63    1.52
   4   9  -5   21.03    2.49
   4   9  -5   20.89    1.31
  -3  -9   5   41.23    1.78
  -3  -9   5   46.81    2.28
   3  -9  -5   42.52    1.83
  -3  -9   5   43.31    1.75
   3  -9  -5   42.55    1.80
  -3  -9   5   45.53    2.62
  -3   9   5   43.91    1.63
   3   9  -5   44.76    1.77
  -3   9   5   43.49    1.44
   3   9  -5   44.65    3.03
   2  -9  -5    2.66    0.51
  -2  -9   5    3.06    0.44
  -2  -9   5    3.01    0.87
   2  -9  -5    2.72    0.47
  -2  -9   5    2.88    0.68
  -2  -9   5    2.98    0.44
  -2   9   5    3.01    0.48
   2   9  -5    3.21    1.07
  -2   9   5    3.24    0.37
  -2   9   5    3.17    0.39
  -1  -9   5   17.51    1.19
   1  -9  -5   18.15    0.98
   1  -9  -5   17.40    0.94
  -1  -9   5   18.79    1.40
  -1  -9   5   18.31    0.87
  -1  -9   5   17.88    0.92
   1   9  -5   16.69    1.73
   1   9  -5   18.64    1.70
  -1   9   5   17.36    0.92
  -1   9   5   18.64    1.14
  -1   9   5   17.89    0.80
   0  -9  -5   11.23    0.67
   0  -9  -5   12.24    0.59
   0  -9   5   12.23    0.65
   0  -9  -5   12.01    0.76
   0  -9   5   12.19    0.79
   0  -9   5   10.88    1.48
   0  -9  -5   11.69    0.77
   0  -9   5   12.84    0.70
   0  -9  -5   13.93    0.95
   0  -9   5   10.96    0.89
   0  -9  -5   11.77    1.10
   0   9   5   13.30    1.30
   0   9   5   12.94    0.86
   0   9  -5   12.66    0.60
   0   9  -5   14.30    1.20
   0   9   5   11.77    1.10
   0   9  -5   14.72    1.27
   0   9  -5   13.84    1.47
   0   9   5   10.14    0.87
   1  -9   5    0.40    0.28
  -1  -9  -5    0.47    0.30
   1  -9   5    0.19    0.40
  -1  -9  -5    0.61    0.27
  -1  -9  -5    0.33    0.26
  -1  -9  -5    0.49    0.52
  -1  -9  -5    1.33    0.64
  -1   9  -5    0.27    0.68
   1   9   5    0.66    0.32
   1   9   5    0.65    0.64
  -1   9  -5    0.21    0.26
  -1   9  -5    0.69    0.52
   1   9   5    0.95    0.57
   1   9   5    0.55    0.42
  -1   9  -5    0.66    0.55
  -2  -9  -5   55.39    2.04
  -2  -9  -5   53.88    2.63
   2  -9   5   54.70    2.14
  -2  -9  -5   54.21    1.99
  -2  -9  -5   59.85    2.49
  -2   9  -5   52.92    1.85
   2   9   5   58.20    2.16
   2   9   5   53.57    2.91
   2   9   5   56.39    2.44
  -2   9  -5   52.39    2.02
  -2   9  -5   48.14    2.85
  -2   9  -5   50.40    2.17
   2   9   5   55.63    2.85
  -3  -9  -5   21.79    2.16
  -3  -9  -5   24.36    1.14
  -3  -9  -5   25.24    1.31
   3  -9   5   23.85    1.25
  -3  -9  -5   24.28    1.81
  -3   9  -5   22.47    1.42
  -3   9  -5   24.71    1.18
   3   9   5   26.30    2.49
   3   9   5   24.87    2.45
   3   9   5   25.74    1.71
  -3   9  -5   23.95    1.72
   3   9   5   25.19    1.43
  -4  -9  -5   31.19    1.32
  -4  -9  -5   26.60    1.58
  -4  -9  -5   32.63    2.95
   4  -9   5   28.11    1.59
  -4  -9  -5   29.37    2.18
   4   9   5   34.32    3.26
   4   9   5   30.44    3.45
  -4   9  -5   27.15    2.21
   4   9   5   32.52    2.22
  -5  -9  -5   22.27    2.41
  -5  -9  -5   31.96    3.65
   5  -9   5   27.76    1.91
  -5  -9  -5   23.38    1.65
   5   9   5   27.50    3.44
   5   9   5   23.23    2.72
  -6  -9  -5    1.44    1.00
  -6  -9  -5    0.60    2.87
  -6  -9  -5    2.10    1.72
   6   9   5    4.55    2.35
  -6   9  -5    0.84    1.10
   6   9   5    0.28    1.20
  -6 -10   5    3.30    1.08
  -6 -10   5    3.87    2.76
   6 -10  -5    3.71    1.33
  -6 -10   5    2.25    0.99
  -6 -10   5    2.68    1.67
   6  10  -5    1.28    2.89
   6  10  -5    3.92    1.18
   5 -10  -5    5.09    1.08
  -5 -10   5    1.95    1.96
  -5 -10   5    3.86    0.81
  -5 -10   5    5.80    1.40
  -5 -10   5    3.81    0.79
  -5  10   5    4.60    1.54
   5  10  -5    1.92    1.94
   5  10  -5    3.42    0.99
  -4 -10   5    0.32    0.50
   4 -10  -5    0.74    0.60
  -4 -10   5    2.95    1.48
  -4 -10   5    1.40    0.59
  -4 -10   5    1.09    0.86
   4  10  -5    0.73    0.58
   4  10  -5    1.42    1.61
   3 -10  -5   54.85    2.24
  -3 -10   5   56.81    3.12
  -3 -10   5   55.65    2.69
   3 -10  -5   53.33    2.21
  -3 -10   5   56.99    2.17
  -3 -10   5   53.73    2.18
   3  10  -5   54.73    3.43
  -3  10   5   55.01    1.99
   3  10  -5   59.36    2.18
  -3  10   5   56.58    1.85
   2 -10  -5   45.53    1.85
   2 -10  -5   44.96    1.88
  -2 -10   5   45.04    1.80
  -2 -10   5   43.77    1.77
  -2 -10   5   44.27    2.47
  -2 -10   5   45.37    2.22
  -2  10   5   48.61    2.45
  -2  10   5   45.61    1.63
  -2  10   5   45.68    1.57
  -2  10   5   43.53    1.86
   2  10  -5   48.73    2.97
   1 -10  -5  250.95    7.85
  -1 -10   5  254.09    7.81
  -1 -10   5  253.97    7.66
  -1 -10   5  264.77    8.24
   1 -10  -5  261.93    7.63
  -1 -10   5  252.34    8.02
   1 -10  -5  254.15    7.80
   1  10  -5  257.04    8.94
  -1  10   5  253.62    8.05
  -1  10   5  261.03    7.79
   1  10  -5  263.30    8.46
  -1  10   5  249.90    7.62
  -1  10   5  257.70    8.55
   0 -10  -5   81.64    2.91
   0 -10  -5   86.18    2.65
   0 -10  -5   82.69    2.60
   0 -10   5   83.64    2.93
   0 -10   5   85.85    2.66
   0 -10   5   81.22    2.65
   0 -10  -5   85.98    3.07
   0 -10   5   81.74    2.99
   0 -10  -5   87.66    3.03
   0 -10   5   85.05    3.24
   0 -10  -5   83.77    2.91
   0  10  -5   85.09    2.66
   0  10   5   85.73    3.39
   0  10  -5   87.36    3.23
   0  10  -5   84.35    3.36
   0  10   5   89.95    3.08
   0  10  -5   83.53    3.80
   0  10   5   84.04    2.84
   0  10   5   86.33    3.68
  -1 -10  -5  248.00    7.66
   1 -10   5  250.59    7.32
  -1 -10  -5  236.66    7.39
  -1 -10  -5  241.89    7.76
   1 -10   5  233.01    7.42
  -1 -10  -5  243.39    7.23
  -1 -10  -5  237.89    7.36
   1  10   5  239.71    8.31
  -1  10  -5  240.74    8.15
   1  10   5  240.49    8.08
   1  10   5  241.45    7.39
  -1  10  -5  250.16    7.48
  -1  10  -5  238.74    7.08
  -1  10  -5  229.29    7.60
   1  10   5  242.95    7.66
  -2 -10  -5   17.09    1.80
  -2 -10  -5   20.53    1.14
  -2 -10  -5   20.44    1.56
   2 -10   5   18.67    1.15
  -2 -10  -5   18.50    1.07
  -2 -10  -5   18.64    1.03
   2  10   5   19.04    1.43
   2  10   5   18.25    1.93
   2  10   5   19.73    1.19
  -2  10  -5   20.43    1.84
   2  10   5   21.18    2.16
  -2  10  -5   18.54    1.31
  -2  10  -5   19.44    1.21
  -3 -10  -5   29.51    2.51
  -3 -10  -5   31.36    1.41
  -3 -10  -5   32.01    1.55
  -3 -10  -5   31.30    2.18
   3  10   5   28.19    2.83
   3  10   5   32.53    1.67
   3  10   5   30.58    1.99
   3  10   5   34.74    2.87
  -3  10  -5   30.32    1.66
  -4 -10  -5    1.55    0.53
  -4 -10  -5    1.27    0.93
  -4 -10  -5    1.00    1.09
  -4 -10  -5   -0.57    1.50
   4 -10   5   -0.21    0.74
   4  10   5   -0.09    1.82
   4  10   5    1.57    1.91
   4  10   5    0.56    1.00
   5 -10   5    5.54    1.21
  -5 -10  -5    4.71    1.50
  -5 -10  -5    4.63    0.96
  -5 -10  -5    3.88    2.39
  -5  10  -5    5.79    0.97
   5  10   5   10.60    3.38
   5  10   5    6.36    1.64
  -6 -10  -5    7.89    2.01
  -6 -10  -5    8.98    1.35
   6  10   5    8.10    1.51
   6  10   5    5.82    2.45
  -6 -11   5    2.21    1.15
  -6 -11   5    0.43    1.85
  -6 -11   5    2.06    1.13
   6  11  -5    0.54    1.20
   6  11  -5    2.02    3.08
  -5 -11   5   -0.03    2.28
  -5 -11   5    0.52    0.79
  -5 -11   5    0.79    0.78
  -5 -11   5    0.00    1.39
  -5  11   5    2.19    1.72
   5  11  -5   -1.39    2.11
   5  11  -5    0.12    0.86
  -4 -11   5    7.97    1.35
  -4 -11   5    9.11    2.03
  -4 -11   5    6.39    1.25
  -4 -11   5    8.02    0.92
   4 -11  -5    5.45    0.87
  -4  11   5    8.38    1.55
   4  11  -5    8.14    0.95
   3 -11  -5    3.62    0.66
  -3 -11   5    3.37    1.31
  -3 -11   5    4.26    1.03
   3 -11  -5    2.54    0.65
  -3 -11   5    2.10    0.54
  -3 -11   5    2.92    0.59
   3  11  -5    4.28    0.69
  -3  11   5    3.73    0.55
   3  11  -5    5.37    1.69
  -3  11   5    3.91    1.63
   2 -11  -5    4.91    0.68
  -2 -11   5    5.88    0.75
  -2 -11   5    5.19    0.67
  -2 -11   5    4.52    1.16
  -2 -11   5    3.46    0.89
   2 -11  -5    4.39    0.64
  -2  11   5    5.18    0.67
  -2  11   5    4.76    1.14
   2  11  -5    6.17    1.53
  -2  11   5    5.00    0.58
  -2  11   5    4.23    0.71
   1 -11  -5   25.76    1.35
  -1 -11   5   26.89    1.32
   1 -11  -5   26.65    1.39
  -1 -11   5   27.07    1.19
  -1 -11   5   29.63    2.04
   1  11  -5   29.99    2.47
  -1  11   5   28.08    1.35
  -1  11   5   27.15    2.08
  -1  11   5   23.46    1.57
  -1  11   5   27.55    1.20
   0 -11  -5   -0.01    0.19
   0 -11  -5   -0.22    0.55
   0 -11  -5    0.46    0.39
   0 -11   5    0.25    0.35
   0 -11  -5   -0.27    0.31
   0 -11   5    0.31    0.31
   0 -11   5    0.65    0.53
   0 -11   5    0.12    0.26
   0  11   5    0.28    0.60
   0  11   5    0.56    0.79
   0  11  -5   -1.02    0.85
   0  11   5    0.21    0.34
   0  11  -5    1.52    0.99
   0  11   5    0.17    0.45
  -1 -11  -5   32.69    1.51
   1 -11   5   31.81    1.53
  -1 -11  -5   33.61    1.35
  -1 -11  -5   32.04    1.49
   1  11   5   33.16    1.51
   1  11   5   31.41    1.75
   1  11   5   34.81    2.16
   1  11   5   32.30    2.42
  -1  11  -5   33.67    2.38
  -1  11  -5   32.27    1.88
  -2 -11  -5    3.86    0.57
  -2 -11  -5    4.87    0.69
  -2 -11  -5    4.09    0.59
   2 -11   5    4.52    0.69
  -2 -11  -5    6.64    1.37
  -2 -11  -5    3.79    1.00
  -2  11  -5    5.15    1.20
   2  11   5    4.42    0.84
   2  11   5    4.77    1.46
  -2  11  -5    4.69    0.87
   2  11   5    4.22    0.69
   2  11   5    6.64    1.27
  -3 -11  -5    1.83    1.04
  -3 -11  -5    0.60    1.37
  -3 -11  -5    1.26    0.48
  -3 -11  -5    0.98    0.55
  -3 -11  -5    1.27    0.54
   3 -11   5    1.47    0.63
   3  11   5   -0.12    0.75
   3  11   5    0.95    0.56
   3  11   5    1.85    1.58
   3  11   5   -0.10    1.33
  -3  11  -5    0.52    0.93
  -3  11  -5    1.21    1.17
  -4 -11  -5    3.19    1.31
  -4 -11  -5    4.62    2.02
  -4 -11  -5    3.09    0.81
   4  11   5    3.16    1.20
   4  11   5    3.95    2.29
   4  11   5    2.89    2.19
  -5 -11  -5    3.25    0.93
  -5 -11  -5    0.63    1.50
   5  11   5   -0.81    1.56
   5  11   5    1.60    3.51
  -5 -12   5    0.88    0.92
  -5 -12   5   -1.79    0.78
  -5 -12   5    2.57    1.61
   5  12  -5    0.58    2.45
   5  12  -5   -0.69    0.94
  -4 -12   5    1.19    1.24
   4 -12  -5   -0.19    1.35
  -4 -12   5    1.03    0.74
  -4 -12   5   -0.20    0.67
   4  12  -5    1.18    1.91
   4  12  -5    0.40    0.68
  -4  12   5   -0.08    1.41
   3 -12  -5   22.57    1.57
  -3 -12   5   27.43    1.48
   3 -12  -5   25.67    1.54
  -3 -12   5   28.25    1.48
  -3 -12   5   29.09    2.17
   3  12  -5   24.71    3.07
   3  12  -5   25.06    1.49
  -3  12   5   24.27    2.40
   2 -12  -5   10.02    1.04
  -2 -12   5   11.48    1.01
   2 -12  -5   13.05    1.12
  -2 -12   5   11.46    1.34
  -2 -12   5   11.58    0.95
  -2  12   5   14.68    1.85
   2  12  -5    9.06    1.80
  -2  12   5   11.04    0.82
  -2  12   5   12.36    0.90
  -2  12   5   13.16    1.22
   1 -12  -5   95.14    3.38
  -1 -12   5   97.33    3.37
  -1 -12   5   95.21    3.14
   1 -12  -5   94.61    3.42
  -1 -12   5   99.22    3.67
  -1  12   5   96.27    3.20
  -1  12   5   97.33    3.37
   1  12  -5   93.36    4.65
  -1  12   5   93.72    3.71
  -1  12   5   99.34    4.32
   0 -12  -5   17.14    1.37
   0 -12  -5   18.93    1.14
   0 -12   5   16.04    1.36
   0 -12  -5   16.83    1.13
   0 -12   5   18.17    1.14
   0  12   5   16.23    1.61
   0  12   5   18.15    2.01
   0  12   5   17.41    1.08
   0  12  -5   18.73    2.28
   0  12   5   15.74    1.23
   1 -12   5  121.38    4.20
  -1 -12  -5  121.84    4.14
  -1 -12  -5  123.25    4.18
  -1 -12  -5  123.99    3.90
  -1 -12  -5  120.27    4.52
   1  12   5  120.68    5.30
   1  12   5  127.07    4.48
  -1  12  -5  120.97    5.18
   1  12   5  127.27    4.98
   1  12   5  125.80    4.18
  -2 -12  -5   -0.44    0.40
  -2 -12  -5    0.00    0.91
   2 -12   5   -0.09    0.48
  -2 -12  -5    0.52    0.46
  -2 -12  -5   -0.12    0.51
  -2  12  -5    0.24    1.28
   2  12   5    1.74    0.73
   2  12   5    0.56    0.53
   2  12   5    0.50    1.09
   2  12   5    0.27    1.29
  -3 -12  -5   39.27    2.09
  -3 -12  -5   35.64    2.50
   3 -12   5   29.87    2.06
  -3 -12  -5   35.69    2.50
  -3 -12  -5   37.09    1.78
  -3  12  -5   35.14    2.98
   3  12   5   31.04    2.28
   3  12   5   36.19    3.34
   3  12   5   32.85    3.56
  -4 -12  -5    5.18    1.53
  -4 -12  -5    4.82    0.95
  -4 -12  -5    7.10    1.00
   4  12   5    6.91    2.50
   4  12   5    6.51    1.42
   4  12   5    7.15    2.56
  -5 -12  -5    0.11    0.98
  -5 -12  -5    0.98    1.74
  -5 -12  -5   -1.78    0.88
   5  12   5   -1.29    3.86
   5  12   5   -0.18    1.70
  -5 -13   5   19.54    2.03
  -5 -13   5   24.13    2.02
  -5 -13   5   26.36    2.83
   5  13  -5   24.87    2.21
   5  13  -5   19.66    3.43
  -4 -13   5   41.34    2.17
  -4 -13   5   45.25    3.34
  -4 -13   5   44.02    2.21
   4 -13  -5   40.94    2.31
   4  13  -5   42.47    4.27
   4  13  -5   43.46    2.24
  -3 -13   5   35.43    1.88
   3 -13  -5   34.66    1.99
  -3 -13   5   37.15    2.73
  -3 -13   5   39.45    1.88
   3  13  -5   41.30    1.95
   3  13  -5   36.73    3.62
  -3  13   5   39.86    3.13
   2 -13  -5   15.89    1.29
   2 -13  -5   17.28    1.34
  -2 -13   5   14.79    1.60
  -2 -13   5   16.43    1.13
  -2 -13   5   15.09    1.17
  -2  13   5   18.57    1.48
   2  13  -5   15.64    2.35
  -2  13   5   17.79    2.30
  -1 -13   5   11.81    0.91
  -1 -13   5   10.92    1.34
   1 -13  -5   12.67    1.12
  -1 -13   5   13.68    1.07
   1 -13  -5   12.84    1.11
   1  13  -5   14.22    2.21
  -1  13   5   10.44    0.98
  -1  13   5   11.42    1.08
  -1  13   5   12.45    1.48
  -1  13   5   15.28    2.02
   0 -13  -5    2.94    0.61
   0 -13  -5    3.00    0.62
   0 -13   5    3.32    0.64
   0  13   5    3.42    0.76
   0  13   5    3.13    0.63
   0  13  -5    2.95    1.40
   0  13   5    1.81    0.94
   0  13   5    3.52    1.42
  -1 -13  -5    3.07    1.05
  -1 -13  -5    3.13    0.61
  -1 -13  -5    3.53    0.52
  -1 -13  -5    3.07    0.63
   1 -13   5    3.69    0.65
  -1  13  -5    3.89    1.46
   1  13   5    1.48    1.26
   1  13   5    2.61    1.11
   1  13   5    2.37    0.81
   1  13   5    4.29    0.69
  -2 -13  -5   48.63    2.74
  -2 -13  -5   46.99    1.94
  -2 -13  -5   42.71    1.99
  -2 -13  -5   46.15    2.11
   2 -13   5   42.53    2.14
   2  13   5   49.45    2.50
   2  13   5   45.12    2.16
  -2  13  -5   47.35    3.38
   2  13   5   41.52    3.56
   2  13   5   49.71    3.29
   3 -13   5   23.34    1.73
  -3 -13  -5   27.12    1.53
  -3 -13  -5   22.64    1.56
  -3 -13  -5   26.56    2.49
   3  13   5   27.49    2.23
   3  13   5   21.64    2.99
   3  13   5   25.34    2.90
  -4 -13  -5   36.40    2.16
  -4 -13  -5   39.79    3.24
  -4 -13  -5   40.56    2.25
   4  13   5   36.96    2.92
   4  13   5   39.81    4.44
   4  13   5   52.20    5.28
  -5 -13  -5   19.56    2.08
  -5 -13  -5   20.32    2.62
  -5 -13  -5   13.11    1.51
   5  13   5   15.93    2.41
   5  13   5   12.55    4.54
  -5 -14   5    6.75    2.17
  -5 -14   5    2.74    1.17
  -5 -14   5    3.69    1.27
   5  14  -5    7.02    2.19
   5  14  -5    4.06    3.30
  -4 -14   5    2.94    1.84
  -4 -14   5    1.61    0.90
   4 -14  -5   -0.01    0.95
  -4 -14   5    1.25    0.94
   4  14  -5    3.56    2.69
   4  14  -5    2.23    0.96
  -4  14   5    1.15    2.27
  -3 -14   5    6.06    0.89
  -3 -14   5    6.12    1.01
   3 -14  -5    4.30    0.91
  -3 -14   5    3.43    1.53
   3  14  -5    5.08    0.97
  -3  14   5    4.65    1.81
   3  14  -5    3.80    2.12
  -2 -14   5    1.68    0.66
  -2 -14   5    1.47    0.75
  -2 -14   5    1.50    1.29
   2 -14  -5    1.03    0.73
   2 -14  -5    1.73    0.67
  -2  14   5   -1.53    1.39
   2  14  -5    1.99    1.79
  -2  14   5    1.46    0.82
  -1 -14   5   -0.08    0.53
   1 -14  -5    1.07    0.62
  -1 -14   5    1.61    0.59
   1 -14  -5   -0.12    0.48
  -1  14   5    1.37    0.66
  -1  14   5    1.44    0.63
   1  14  -5    3.05    1.67
  -1  14   5    1.33    0.93
  -1  14   5    2.01    1.44
   0 -14   5    0.94    0.57
   0 -14  -5    1.15    0.59
   0 -14  -5    0.63    0.57
   0  14  -5   -0.55    1.48
   0  14   5   -0.20    0.66
   0  14   5   -1.00    0.58
   0  14   5    2.20    1.40
   0  14   5    2.03    0.94
  -1 -14  -5    3.46    0.72
  -1 -14  -5    3.56    0.56
   1 -14   5    2.71    0.72
  -1 -14  -5    1.76    0.59
   1  14   5    3.83    0.98
   1  14   5    3.60    1.64
   1  14   5    3.90    1.19
   1  14   5    4.67    0.80
  -1  14  -5    4.52    1.78
  -2 -14  -5    3.32    0.74
   2 -14   5    2.67    0.80
  -2 -14  -5    3.09    0.68
  -2 -14  -5    3.66    1.47
  -2 -14  -5    2.37    0.72
   2  14   5    1.10    0.94
  -2  14  -5    1.07    1.86
   2  14   5    2.70    1.47
   2  14   5    2.60    1.87
  -3 -14  -5    8.96    1.09
   3 -14   5    7.92    1.13
  -3 -14  -5    9.16    1.85
  -3 -14  -5   11.78    1.35
  -3 -14  -5    8.99    1.06
   3  14   5   11.40    1.59
   3  14   5    5.96    2.16
   3  14   5    7.45    2.50
  -4 -14  -5   -0.84    0.93
  -4 -14  -5    1.55    1.97
   4  14   5    2.08    2.98
   4  14   5   -2.81    3.11
   4  14   5    2.39    1.59
  -4 -15   5    2.82    2.16
  -4 -15   5    0.25    1.04
   4 -15  -5    1.06    1.11
  -4 -15   5    3.03    1.05
  -4  15   5    2.17    2.74
   4  15  -5    1.16    2.77
  -3 -15   5   70.70    2.76
   3 -15  -5   63.21    2.97
  -3 -15   5   61.36    2.79
   3 -15  -5   59.37    2.95
   3  15  -5   57.23    5.04
  -3  15   5   69.69    4.72
   2 -15  -5    1.39    0.82
  -2 -15   5    0.24    0.72
  -2 -15   5    1.97    0.72
   2 -15  -5    0.20    0.70
   2  15  -5    0.14    1.91
  -2  15   5   -1.19    1.70
  -2  15   5    0.59    0.94
   1 -15  -5   13.85    1.37
   1 -15  -5   12.31    1.45
  -1 -15   5   10.16    1.24
  -1  15   5   13.55    1.40
   1  15  -5    8.99    2.23
  -1  15   5   11.19    2.07
  -1  15   5   10.52    1.38
  -1  15   5   12.24    1.49
   0 -15   5    6.03    0.89
   0 -15  -5    6.46    0.99
   0 -15  -5    7.41    1.00
   0  15   5    3.09    1.15
   0  15   5    5.49    1.06
   0  15  -5    6.18    2.10
   0  15   5    5.95    1.78
   0  15   5    7.61    1.01
  -1 -15  -5   19.07    1.47
   1 -15   5   17.89    1.50
  -1 -15  -5   22.76    1.55
   1  15   5   17.61    1.82
  -1  15  -5   21.70    2.85
   1  15   5   16.25    2.03
   1  15   5   21.36    1.60
   1  15   5   20.73    2.89
  -2 -15  -5    7.68    1.03
   2 -15   5    7.99    1.12
  -2 -15  -5    6.71    1.01
  -2 -15  -5    7.81    0.93
   2  15   5    6.89    2.22
   2  15   5    7.86    1.39
  -2  15  -5    5.83    2.40
   2  15   5    8.67    1.98
  -3 -15  -5   58.11    2.56
   3 -15   5   46.02    2.74
  -3 -15  -5   51.72    2.50
  -3 -15  -5   54.86    2.70
   3  15   5   61.15    4.88
   3  15   5   62.23    5.42
   3  15   5   56.80    3.33
  -4 -15  -5    0.79    1.03
  -4 -15  -5    0.99    1.08
   4  15   5    1.18    1.75
   4  15   5    0.58    3.67
   3 -16  -5    0.42    1.21
  -3 -16   5   -0.53    1.04
   3 -16  -5   -0.85    1.00
  -3 -16   5    2.13    0.97
  -3  16   5   -0.71    2.63
   3  16  -5    4.69    2.81
  -2 -16   5   31.69    1.98
   2 -16  -5   29.19    2.04
   2 -16  -5   27.22    2.10
  -2  16   5   27.68    3.40
   2  16  -5   31.52    3.62
   1 -16  -5   16.78    1.58
  -1 -16   5   14.02    1.50
   1 -16  -5   15.42    1.62
  -1  16   5   16.08    1.92
   1  16  -5   13.90    2.84
  -1  16   5   15.86    2.58
   0 -16  -5   41.32    2.23
   0 -16  -5   43.47    2.24
   0 -16   5   42.80    2.27
   0  16   5   41.14    3.05
   0  16  -5   35.43    4.19
   0  16   5   40.84    2.48
   0  16   5   45.65    4.14
  -1 -16  -5   13.48    1.52
   1 -16   5   15.25    1.59
  -1 -16  -5   20.07    1.63
   1  16   5   22.68    2.91
   1  16   5   15.78    1.80
  -1  16  -5   15.27    2.96
   1  16   5   16.16    2.85
   2 -16   5   14.37    1.52
  -2 -16  -5   13.60    1.66
  -2 -16  -5   11.74    1.29
   2  16   5   11.01    1.76
   2  16   5   11.27    2.81
  -2  16  -5   16.64    3.13
   2  16   5   12.50    2.44
   3 -16   5    3.85    1.22
  -3 -16  -5    8.74    1.19
  -3 -16  -5    5.47    1.18
   3  16   5    6.94    2.68
   3  16   5    6.80    3.32
   3  16   5    7.93    1.73
   3 -17  -5    2.56    1.26
  -3 -17   5    6.28    1.29
   3 -17  -5    4.78    1.44
  -3  17   5    5.67    3.15
   3  17  -5    3.34    3.35
   2 -17  -5    1.52    0.98
   2 -17  -5   -0.91    1.11
  -2 -17   5   -0.11    0.92
   2  17  -5    0.22    2.76
  -2  17   5    1.38    2.63
   1 -17  -5    4.77    1.05
   1 -17  -5    4.67    1.12
  -1 -17   5    6.41    1.16
  -1  17   5    5.16    1.57
   1  17  -5    2.48    2.66
  -1  17   5    5.19    2.63
   0 -17   5    2.15    0.89
   0 -17  -5    2.29    0.88
   0 -17  -5    2.31    0.96
   0  17   5    3.21    1.70
   0  17   5   -0.04    2.37
   0  17  -5   -0.84    2.60
  -1 -17  -5    0.76    0.89
  -1 -17  -5    0.98    0.93
   1 -17   5    2.03    0.95
   1  17   5    3.24    1.40
   1  17   5    1.46    2.42
   1  17   5    3.05    1.80
  -1  17  -5    2.60    3.00
  -2 -17  -5    4.75    1.17
  -2 -17  -5    5.10    1.14
   2 -17   5    5.01    1.29
   2  17   5    4.55    1.56
   2  17   5    4.03    2.28
   2  17   5    6.97    3.04
   2 -18  -5    2.72    1.25
  -2 -18   5    4.15    1.31
   2 -18  -5    2.86    1.34
   2  18  -5    2.19    3.54
  -2  18   5    1.78    3.21
   1 -18  -5   83.20    3.70
  -1 -18   5   82.80    3.66
   1 -18  -5   84.03    3.69
  -1  18   5   87.01    6.24
   1  18  -5   90.23    6.41
   0 -18   5    7.67    1.29
   0 -18  -5    7.24    1.32
   0 -18  -5    5.06    1.18
   0  18  -5   10.87    3.43
   0  18   5    7.81    2.89
   1 -18   5   59.03    3.12
  -1 -18  -5   66.11    3.07
  -1 -18  -5   63.13    3.24
  -1  18  -5   67.82    6.20
   1  18   5   67.97    6.10
  -7   0   6    1.72    1.09
   7   0  -6    1.06    0.90
  -7   0   6    1.85    1.22
  -7   0   6   -0.16    1.49
   6   0  -6   70.48    2.90
  -6   0   6   78.95    2.89
  -6   0   6   65.69    3.44
  -6   0   6   67.97    3.21
   5   0  -6   -0.12    0.41
  -5   0   6    0.71    0.42
  -5   0   6    0.33    0.57
  -5   0   6    0.24    0.67
   4   0  -6   44.50    1.76
  -4   0   6   42.68    1.54
  -4   0   6   43.08    1.91
  -4   0   6   40.81    1.64
  -4   0   6   42.93    2.10
  -4   0   6   42.78    2.47
  -4   0   6   45.16    2.03
  -3   0   6   -0.19    0.28
   3   0  -6   -0.04    0.21
   3   0  -6    0.33    0.28
  -3   0   6    0.35    0.49
  -3   0   6    0.03    0.17
  -3   0   6    0.19    0.22
   3   0  -6    0.07    0.13
  -3   0   6   -0.04    0.32
  -2   0   6   16.78    0.87
  -2   0   6   17.16    0.79
   2   0  -6   18.41    0.75
  -2   0   6   17.33    0.73
   2   0  -6   16.46    0.75
  -2   0   6   18.62    1.03
  -1   0   6    0.18    0.20
   1   0  -6    0.34    0.16
   1   0  -6   -0.03    0.27
   1   0  -6    0.56    0.27
  -1   0   6    0.20    0.13
  -1   0   6    0.23    0.13
  -1   0   6    0.13    0.17
   1   0  -6   -0.08    0.12
  -1   0   6    0.42    0.43
   0   0  -6  189.57    5.87
   0   0  -6  202.29    6.05
   0   0   6  196.30    5.69
   0   0   6  207.70    5.97
   0   0   6  176.34    5.73
   0   0   6  189.36    5.88
   0   0   6  197.11    6.07
   1   0   6   -0.16    0.17
  -1   0  -6    0.25    0.26
  -1   0  -6    0.46    0.19
   1   0   6    0.47    0.26
  -1   0  -6    0.42    0.32
  -2   0  -6  396.84   11.35
   2   0   6  360.08   11.15
   2   0   6  388.78   11.56
   2   0   6  375.29   11.33
   2   0   6  378.56   11.08
  -2   0  -6  398.27   11.55
   3   0   6    0.40    0.29
   3   0   6    0.02    0.22
   3   0   6   -0.14    0.36
  -3   0  -6    0.21    0.62
  -3   0  -6    0.47    0.50
   3   0   6    0.68    0.58
   4   0   6  160.51    5.65
   4   0   6  160.89    5.31
  -4   0  -6  163.83    5.78
   4   0   6  159.75    5.14
  -4   0  -6  160.34    5.48
   5   0   6    0.08    0.94
   5   0   6    0.07    0.52
  -5   0  -6    0.14    0.71
  -5   0  -6    0.65    0.80
  -6   0  -6    1.89    1.04
  -6   0  -6    1.69    1.19
  -6   0  -6    2.09    0.84
   6   0   6    2.31    0.88
  -7   0  -6    4.33    1.85
  -7   0  -6    3.32    1.37
  -7   0  -6   -2.45    1.40
   7   0   6    0.67    1.10
  -7  -1   6    0.43    1.08
   7  -1  -6    1.34    1.03
  -7  -1   6    0.90    1.58
  -7  -1   6   -0.27    1.25
  -7   1   6    2.73    1.47
   7   1  -6   -0.01    0.87
  -7   1   6    0.96    1.20
  -6  -1   6    5.88    0.89
   6  -1  -6    6.22    0.86
  -6  -1   6    6.43    1.39
   6   1  -6    4.17    0.78
  -6   1   6    6.51    1.23
  -6   1   6    6.85    0.94
  -6   1   6    4.84    1.01
  -5  -1   6   19.38    1.45
  -5  -1   6   18.16    1.70
  -5  -1   6   17.06    1.12
   5  -1  -6   20.61    1.26
   5   1  -6   18.75    1.21
  -5   1   6   17.26    1.62
  -5   1   6   18.23    1.36
  -5   1   6   19.22    1.12
  -4  -1   6    1.78    0.61
  -4  -1   6    1.43    0.51
  -4  -1   6    1.59    1.02
  -4  -1   6    1.36    0.34
   4  -1  -6    2.06    0.25
   4  -1  -6    1.83    0.39
  -4   1   6    2.10    0.57
   4   1  -6    1.82    0.41
  -4   1   6    1.68    0.47
  -4   1   6    1.92    0.37
  -4   1   6    2.10    0.38
  -4   1   6    2.78    0.86
  -4   1   6    2.42    0.71
  -3  -1   6   79.61    3.00
   3  -1  -6   80.05    2.71
  -3  -1   6   75.28    2.65
  -3  -1   6   82.96    2.93
   3  -1  -6   83.13    2.50
  -3  -1   6   80.18    2.88
   3  -1  -6   83.24    2.52
   3   1  -6   81.02    2.68
   3   1  -6   84.52    2.45
  -3   1   6   82.62    2.83
  -3   1   6   77.74    2.93
  -3   1   6   80.67    2.61
  -3   1   6   79.16    2.78
  -3   1   6   86.05    2.46
   3   1  -6   78.70    2.63
  -2  -1   6   42.31    1.49
  -2  -1   6   42.59    1.50
  -2  -1   6   43.13    1.81
  -2  -1   6   43.53    1.31
   2  -1  -6   46.26    1.44
   2  -1  -6   44.73    1.53
  -2  -1   6   43.32    1.67
   2  -1  -6   41.78    1.63
   2  -1  -6   42.61    1.43
   2   1  -6   43.86    1.49
  -2   1   6   41.65    1.61
  -2   1   6   43.74    1.54
   2   1  -6   43.77    1.96
   2   1  -6   44.61    1.51
  -2   1   6   41.93    1.73
  -2   1   6   42.71    1.46
  -1  -1   6   81.65    2.36
  -1  -1   6   82.17    2.95
   1  -1  -6   79.36    2.53
  -1  -1   6   84.60    2.46
   1  -1  -6   81.66    2.65
  -1  -1   6   76.10    2.65
   1  -1  -6   84.83    2.50
   1  -1  -6   79.29    2.74
  -1  -1   6   78.27    2.52
  -1  -1   6   80.27    2.80
   1   1  -6   82.36    2.53
  -1   1   6   81.79    2.65
   1   1  -6   79.95    2.68
   1   1  -6   77.41    2.84
  -1   1   6   81.33    2.87
  -1   1   6   78.58    2.51
   1   1  -6   78.66    2.36
  -1   1   6   83.30    2.52
   1   1  -6   78.93    2.45
  -1   1   6   79.89    2.77
   1   1  -6   82.70    2.80
   0  -1   6   38.66    1.37
   0  -1  -6   41.13    1.38
   0  -1   6   41.99    1.63
   0  -1   6   40.03    1.26
   0  -1  -6   38.80    1.49
   0  -1  -6   39.22    1.65
   0  -1   6   38.33    1.64
   0   1  -6   39.98    1.38
   0   1   6   40.03    1.64
   0   1   6   38.58    1.36
   0   1  -6   41.28    1.51
   0   1  -6   43.30    1.29
   0   1   6   39.14    1.48
   0   1  -6   42.29    1.67
  -1  -1  -6    0.44    0.35
  -1  -1  -6    0.76    0.28
  -1  -1  -6    0.27    0.19
   1  -1   6    0.60    0.17
   1  -1   6    0.53    0.28
   1  -1   6    0.35    0.30
   1  -1   6    0.61    0.23
  -1   1  -6    0.74    0.20
  -1   1  -6    0.86    0.31
   1   1   6    0.52    0.24
  -1   1  -6    0.62    0.19
  -1   1  -6    0.83    0.29
   1   1   6    0.41    0.16
   1   1   6    0.46    0.30
   2  -1   6   24.91    0.99
  -2  -1  -6   29.88    1.47
   2  -1   6   25.99    1.33
   2  -1   6   25.34    1.15
  -2  -1  -6   25.98    1.23
   2   1   6   26.35    1.09
   2   1   6   25.70    1.20
  -2   1  -6   28.95    1.37
  -2   1  -6   26.06    1.18
   2   1   6   22.77    1.13
   2   1   6   28.70    1.44
   3  -1   6   34.77    1.40
  -3  -1  -6   36.61    1.96
   3  -1   6   33.92    1.52
  -3  -1  -6   34.75    1.67
   3   1   6   37.95    1.92
   3   1   6   33.62    1.61
  -3   1  -6   35.20    1.60
   3   1   6   33.71    1.35
  -3   1  -6   37.55    1.84
   3   1   6   34.25    1.37
   4  -1   6   -0.07    0.51
  -4  -1  -6    0.39    0.52
  -4  -1  -6    0.90    1.14
   4  -1   6    0.01    0.37
   4  -1   6    0.13    0.95
   4   1   6    0.02    0.96
  -4   1  -6   -0.65    0.86
   4   1   6    0.73    0.39
  -4   1  -6   -0.26    0.48
  -5  -1  -6   34.08    2.49
  -5  -1  -6   39.12    2.22
   5  -1   6   35.80    1.83
  -5  -1  -6   36.02    1.78
  -5   1  -6   38.43    2.40
   5   1   6   40.58    2.27
   5   1   6   39.94    1.92
  -5   1  -6   33.61    2.24
   6  -1   6    7.98    1.09
  -6  -1  -6   11.48    1.74
  -6  -1  -6    7.96    1.37
  -6  -1  -6    7.15    1.24
   6   1   6    7.52    1.09
  -6   1  -6    8.81    1.11
  -6   1  -6    5.65    1.38
  -6   1  -6    7.77    1.30
   7  -1   6    4.20    1.24
  -7  -1  -6    7.70    1.49
  -7  -1  -6    6.11    1.66
  -7  -1  -6    3.99    1.90
   7   1   6    4.91    1.30
  -7   1  -6    1.13    1.72
  -7   1  -6    6.07    1.59
  -7  -2   6   15.89    1.99
  -7  -2   6   12.37    2.10
  -7  -2   6   10.15    1.76
   7  -2  -6   11.56    1.40
  -7   2   6   13.97    1.95
  -7   2   6   12.55    1.57
   7   2  -6   14.46    1.51
  -6  -2   6   39.46    1.94
  -6  -2   6   37.67    2.83
   6  -2  -6   31.51    1.90
  -6  -2   6   35.64    2.28
  -6   2   6   39.03    2.46
  -6   2   6   35.73    2.07
  -6   2   6   37.85    1.89
   6   2  -6   34.72    1.93
  -5  -2   6    0.88    0.48
  -5  -2   6    1.39    0.68
  -5  -2   6   -0.41    0.79
   5  -2  -6    0.02    0.45
   5   2  -6   -0.28    0.40
  -5   2   6    1.65    0.57
  -5   2   6    1.76    0.47
  -5   2   6    0.76    0.67
   4  -2  -6   63.66    2.38
  -4  -2   6   64.04    3.24
   4  -2  -6   62.34    2.03
  -4  -2   6   62.86    2.29
  -4  -2   6   62.87    2.82
  -4  -2   6   63.96    2.60
   4   2  -6   64.51    2.95
  -4   2   6   65.31    2.12
   4   2  -6   63.59    2.33
  -4   2   6   63.74    2.38
  -4   2   6   64.82    2.46
  -4   2   6   62.39    2.59
  -3  -2   6   19.02    1.10
  -3  -2   6   21.47    1.30
   3  -2  -6   20.16    0.98
   3  -2  -6   19.70    0.81
  -3  -2   6   20.65    0.94
  -3   2   6   20.50    0.75
  -3   2   6   19.98    0.98
  -3   2   6   19.81    1.15
   3   2  -6   19.47    0.92
   3   2  -6   21.16    0.72
   3   2  -6   21.04    1.45
  -3   2   6   20.29    0.85
  -2  -2   6    5.15    0.66
   2  -2  -6    4.69    0.57
   2  -2  -6    4.61    0.32
  -2  -2   6    4.85    0.26
  -2  -2   6    4.21    0.44
  -2  -2   6    4.66    0.56
   2  -2  -6    4.70    0.37
  -2  -2   6    4.57    0.39
   2  -2  -6    4.64    0.43
  -2   2   6    4.49    0.61
   2   2  -6    5.37    0.52
   2   2  -6    5.14    0.76
  -2   2   6    4.80    0.49
  -2   2   6    4.50    0.33
   2   2  -6    4.44    0.37
  -2   2   6    4.65    0.24
   1  -2  -6  136.93    4.27
   1  -2  -6  134.13    4.00
  -1  -2   6  136.79    4.04
   1  -2  -6  139.85    4.38
  -1  -2   6  146.38    4.07
   1  -2  -6  135.40    4.16
  -1  -2   6  133.83    4.32
   1  -2  -6  143.35    4.12
  -1  -2   6  131.27    4.46
  -1  -2   6  144.22    4.69
  -1  -2   6  132.75    4.17
   1  -2  -6  138.15    4.22
   1   2  -6  141.54    4.48
  -1   2   6  137.80    4.19
   1   2  -6  145.72    4.20
  -1   2   6  136.93    4.15
  -1   2   6  138.29    4.43
   1   2  -6  138.59    4.36
   1   2  -6  138.34    4.56
   1   2  -6  132.93    4.06
   1   2  -6  144.57    4.05
  -1   2   6  133.51    4.27
   0  -2   6   84.97    2.86
   0  -2  -6   83.04    2.53
   0  -2   6   78.77    2.46
   0  -2  -6   80.83    2.81
   0  -2   6   79.03    2.68
   0  -2   6   84.39    2.85
   0  -2   6   82.15    2.35
   0  -2  -6   82.23    2.66
   0  -2   6   77.96    2.53
   0   2  -6   84.90    2.47
   0   2  -6   88.21    2.87
   0   2   6   77.30    2.80
   0   2  -6   81.95    2.67
   0   2   6   79.88    2.65
   0   2  -6   75.36    2.72
   0   2   6   72.47    2.51
   0   2  -6   81.66    2.54
   1  -2   6  252.63    7.69
  -1  -2  -6  260.12    7.72
  -1  -2  -6  273.13    7.89
   1  -2   6  274.18    7.83
  -1  -2  -6  267.85    8.06
   1  -2   6  260.57    7.99
   1  -2   6  249.33    7.84
   1   2   6  262.06    8.10
  -1   2  -6  269.87    7.87
   1   2   6  254.40    7.74
  -1   2  -6  258.71    8.01
  -1   2  -6  258.56    7.70
   1   2   6  266.28    7.90
  -1   2  -6  271.79    7.73
  -2  -2  -6  125.00    4.18
   2  -2   6  117.42    3.65
   2  -2   6  118.81    3.64
   2  -2   6  123.71    3.83
  -2  -2  -6  129.18    4.14
   2   2   6  121.29    3.87
   2   2   6  115.38    4.16
   2   2   6  118.50    3.76
  -2   2  -6  114.57    4.20
   2   2   6  117.89    3.93
  -2   2  -6  121.04    3.85
   3  -2   6   56.26    2.29
   3  -2   6   54.58    1.95
  -3  -2  -6   53.68    2.30
   3  -2   6   53.04    1.80
   3  -2   6   56.72    2.07
  -3  -2  -6   56.80    2.58
   3   2   6   52.86    2.12
   3   2   6   54.45    1.98
  -3   2  -6   59.30    2.16
   3   2   6   53.04    2.52
  -4  -2  -6   37.58    2.01
   4  -2   6   39.37    1.67
  -4  -2  -6   42.16    2.33
   4  -2   6   38.91    1.78
   4   2   6   40.61    1.78
  -4   2  -6   39.20    1.91
   4   2   6   37.54    1.67
  -4   2  -6   40.45    2.24
   4   2   6   42.19    2.05
   4   2   6   38.31    2.63
  -5  -2  -6   -0.25    0.72
  -5  -2  -6    0.67    0.56
  -5  -2  -6   -0.10    0.99
   5  -2   6    0.94    0.55
  -5   2  -6    1.54    0.71
  -5   2  -6    0.50    0.81
   5   2   6    0.36    1.02
   5   2   6    0.71    0.61
  -6  -2  -6    3.28    1.42
   6  -2   6    3.06    0.89
  -6  -2  -6    0.79    1.09
  -6  -2  -6    1.80    0.94
   6   2   6    2.09    0.89
  -6   2  -6    2.24    0.91
  -6   2  -6    3.03    1.21
  -6   2  -6    0.75    1.01
  -7  -2  -6    2.18    1.30
  -7  -2  -6    4.38    2.05
   7  -2   6    3.36    1.22
  -7  -2  -6   -1.29    1.52
  -7   2  -6    4.01    1.47
   7   2   6    3.09    1.28
  -7   2  -6    2.93    1.65
  -7  -3   6    2.73    1.43
   7  -3  -6    2.43    1.07
  -7  -3   6    2.75    1.84
  -7  -3   6    2.41    1.14
  -7   3   6    3.36    1.23
  -7   3   6    3.00    1.56
   7   3  -6    0.85    0.95
  -6  -3   6   25.90    2.06
  -6  -3   6   26.59    1.71
   6  -3  -6   26.42    1.75
  -6  -3   6   28.31    2.72
  -6   3   6   25.81    1.63
  -6   3   6   29.27    2.22
  -6   3   6   26.68    1.74
   6   3  -6   27.09    1.68
  -5  -3   6    8.17    1.37
   5  -3  -6    7.77    0.96
  -5  -3   6    7.39    0.89
  -5  -3   6    9.21    1.15
  -5   3   6    8.47    1.08
  -5   3   6    8.15    0.82
  -5   3   6    8.67    0.99
   5   3  -6    7.35    0.86
   4  -3  -6  178.57    5.36
  -4  -3   6  188.70    5.64
  -4  -3   6  174.36    5.94
  -4  -3   6  175.91    6.50
  -4  -3   6  176.83    6.19
   4  -3  -6  180.48    5.68
  -4   3   6  185.04    5.64
   4   3  -6  179.99    5.61
  -4   3   6  175.49    5.37
   4   3  -6  180.18    6.32
  -4   3   6  175.64    5.43
  -4   3   6  176.78    5.83
  -4   3   6  175.86    5.61
  -3  -3   6   20.63    0.98
   3  -3  -6   20.15    1.01
  -3  -3   6   21.19    1.37
   3  -3  -6   20.03    0.86
  -3  -3   6   19.59    1.74
  -3  -3   6   20.10    1.17
  -3   3   6   21.15    1.15
  -3   3   6   21.07    0.86
   3   3  -6   21.87    0.76
  -3   3   6   19.27    0.96
  -3   3   6   22.37    0.80
   3   3  -6   20.78    0.95
  -2  -3   6  376.94   11.32
  -2  -3   6  364.75   10.76
  -2  -3   6  410.39   11.40
   2  -3  -6  376.91   10.74
   2  -3  -6  374.77   11.11
   2  -3  -6  366.93   10.86
   2  -3  -6  379.06   10.91
  -2   3   6  364.25   10.95
  -2   3   6  370.98   10.71
   2   3  -6  382.42   11.54
  -2   3   6  357.44   10.80
   2   3  -6  370.42   10.85
  -2   3   6  354.98   11.12
  -1  -3   6    3.94    0.78
   1  -3  -6    3.35    0.27
   1  -3  -6    2.53    0.30
   1  -3  -6    2.50    0.21
  -1  -3   6    3.18    0.50
   1  -3  -6    3.15    0.48
  -1  -3   6    2.88    0.41
  -1  -3   6    2.35    0.22
   1  -3  -6    3.10    0.41
  -1  -3   6    2.39    0.29
   1   3  -6    2.44    0.33
   1   3  -6    2.71    0.46
  -1   3   6    1.90    0.29
  -1   3   6    2.70    0.44
   1   3  -6    2.61    0.21
  -1   3   6    2.43    0.32
  -1   3   6    2.53    0.28
   1   3  -6    3.08    0.63
   1   3  -6    2.54    0.27
   1   3  -6    2.83    0.51
   0  -3   6  223.39    6.83
   0  -3   6  225.31    6.67
   0  -3   6  232.85    6.91
   0  -3  -6  220.82    6.79
   0  -3  -6  216.34    6.62
   0  -3   6  212.61    6.50
   0  -3  -6  226.18    6.49
   0  -3  -6  217.23    6.52
   0  -3   6  214.91    6.45
   0   3  -6  229.02    6.84
   0   3   6  215.07    6.62
   0   3   6  203.94    6.48
   0   3  -6  227.03    6.66
   0   3  -6  222.44    6.51
   0   3  -6  209.58    6.76
   0   3  -6  230.44    6.46
   0   3   6  214.20    6.78
   1  -3   6    1.99    0.40
   1  -3   6    1.94    0.24
   1  -3   6    1.56    0.31
  -1  -3  -6    2.35    0.33
   1  -3   6    1.55    0.16
   1  -3   6    2.14    0.42
  -1  -3  -6    1.94    0.43
  -1  -3  -6    2.29    0.51
   1   3   6    1.13    0.30
   1   3   6    1.95    0.46
  -1   3  -6    2.18    0.32
   1   3   6    1.67    0.28
  -1   3  -6    2.29    0.29
  -1   3  -6    1.94    0.34
  -1   3  -6    2.31    0.36
  -1   3  -6    3.02    0.74
   2  -3   6    4.51    0.51
  -2  -3  -6    5.41    0.83
   2  -3   6    4.53    0.37
   2  -3   6    5.66    0.63
   2  -3   6    4.48    0.34
  -2   3  -6    4.07    0.66
  -2   3  -6    4.97    0.55
   2   3   6    3.92    0.67
   2   3   6    5.87    0.70
   2   3   6    4.50    0.46
   2   3   6    3.73    0.55
   3  -3   6    1.57    0.34
   3  -3   6    1.42    0.40
  -3  -3  -6    1.77    0.58
   3  -3   6    1.44    0.63
  -3  -3  -6    2.31    0.98
   3   3   6    0.30    0.62
   3   3   6    1.27    0.47
   3   3   6    1.89    0.63
  -3   3  -6    1.12    0.49
   3   3   6    1.40    0.31
  -3   3  -6    1.08    0.59
  -4  -3  -6  118.61    3.98
  -4  -3  -6  113.63    4.33
   4  -3   6  122.93    3.96
  -4  -3  -6  116.00    3.65
   4  -3   6  118.55    3.90
  -4  -3  -6  121.96    4.66
   4   3   6  112.02    4.12
  -4   3  -6  121.89    4.37
   4   3   6  118.92    4.29
  -4   3  -6  121.01    4.17
   4   3   6  118.90    4.84
   4   3   6  118.55    4.03
  -5  -3  -6   17.84    1.67
  -5  -3  -6   19.81    2.16
  -5  -3  -6   18.11    1.31
   5  -3   6   18.46    1.32
   5   3   6   18.79    1.98
   5   3   6   18.86    1.43
  -5   3  -6   19.20    1.47
  -6  -3  -6  100.57    4.48
  -6  -3  -6  104.70    4.01
  -6  -3  -6  101.42    4.97
   6  -3   6  103.73    3.90
  -6   3  -6  103.21    4.12
  -6   3  -6   99.92    4.47
   6   3   6  102.48    4.03
  -6   3  -6  107.94    3.91
  -7  -3  -6    6.51    2.31
   7  -3   6    8.37    1.33
  -7  -3  -6    9.66    1.54
  -7  -3  -6    5.96    1.78
  -7   3  -6    6.37    1.65
   7   3   6    8.02    1.51
  -7   3  -6    6.06    1.76
  -7  -4   6    0.67    1.42
  -7  -4   6    2.65    1.19
  -7  -4   6    1.48    1.88
   7  -4  -6    2.41    1.12
  -7   4   6   -0.10    1.43
  -7   4   6    3.01    1.81
   7   4  -6    2.10    0.97
  -6  -4   6    6.53    1.52
   6  -4  -6    3.63    0.79
  -6  -4   6    4.99    1.13
  -6   4   6    3.74    1.10
  -6   4   6    5.45    0.87
   6   4  -6    4.84    0.84
  -5  -4   6    2.55    0.80
   5  -4  -6    1.80    0.59
  -5  -4   6    1.49    0.99
  -5  -4   6    2.82    0.58
  -5   4   6    2.91    0.84
   5   4  -6    0.58    1.17
  -5   4   6    2.82    0.54
   5   4  -6    2.35    0.56
  -5   4   6    1.52    0.57
  -4  -4   6   19.03    1.36
   4  -4  -6   19.29    1.13
  -4  -4   6   18.55    1.66
   4  -4  -6   17.86    0.93
  -4  -4   6   18.68    1.05
  -4   4   6   19.65    1.03
  -4   4   6   17.86    1.23
   4   4  -6   19.13    1.85
  -4   4   6   16.85    0.86
   4   4  -6   19.59    1.06
  -3  -4   6    1.77    1.71
  -3  -4   6    0.47    0.51
  -3  -4   6    1.39    0.33
   3  -4  -6    1.14    0.36
   3  -4  -6    1.14    0.34
  -3  -4   6    0.87    0.41
  -3  -4   6    1.46    0.27
   3   4  -6    0.95    0.22
  -3   4   6    1.38    0.27
  -3   4   6    1.19    0.38
  -3   4   6    0.85    0.27
  -3   4   6    1.40    0.24
   3   4  -6    1.21    0.28
   3   4  -6    1.04    0.72
  -2  -4   6   47.60    1.57
  -2  -4   6   49.40    2.10
  -2  -4   6   45.92    1.69
   2  -4  -6   47.97    1.78
  -2  -4   6   47.78    1.95
   2  -4  -6   48.28    1.67
   2  -4  -6   46.03    1.66
   2  -4  -6   48.24    1.54
   2   4  -6   48.73    2.31
  -2   4   6   48.51    1.85
  -2   4   6   47.77    1.57
  -2   4   6   49.17    1.54
  -2   4   6   48.70    1.71
   2   4  -6   48.98    1.62
  -1  -4   6   24.74    1.83
  -1  -4   6   21.42    0.83
  -1  -4   6   22.00    1.21
   1  -4  -6   23.09    1.03
   1  -4  -6   22.90    0.80
   1  -4  -6   25.79    1.33
   1  -4  -6   22.17    0.92
  -1  -4   6   21.85    1.06
   1  -4  -6   22.48    0.82
  -1   4   6   21.92    1.12
   1   4  -6   22.76    0.87
   1   4  -6   23.09    0.77
   1   4  -6   24.02    1.16
   1   4  -6   21.61    1.40
   1   4  -6   22.28    1.28
  -1   4   6   23.26    0.87
  -1   4   6   23.59    0.98
   0  -4  -6   21.04    0.88
   0  -4   6   21.38    0.99
   0  -4  -6   22.22    0.85
   0  -4   6   20.60    1.33
   0  -4  -6   19.67    1.17
   0  -4   6   19.33    0.84
   0  -4  -6   20.25    0.98
   0  -4   6   21.01    0.83
   0  -4   6   22.04    1.18
   0   4  -6   22.35    0.90
   0   4   6   21.33    0.96
   0   4  -6   21.23    0.85
   0   4   6   21.14    0.85
   0   4  -6   24.28    1.06
   0   4  -6   19.67    1.18
   0   4  -6   22.20    1.17
   0   4   6   20.56    1.12
   1  -4   6   20.02    0.95
   1  -4   6   21.87    1.49
  -1  -4  -6   19.09    1.25
   1  -4   6   21.56    1.07
  -1  -4  -6   19.79    0.88
  -1  -4  -6   21.15    0.87
   1  -4   6   19.18    0.77
   1  -4   6   20.16    0.65
   1  -4   6   18.99    0.87
   1   4   6   19.70    0.88
  -1   4  -6   18.70    1.01
  -1   4  -6   21.81    0.86
  -1   4  -6   20.99    0.97
  -1   4  -6   21.68    1.15
   1   4   6   19.84    1.02
  -2  -4  -6    0.02    0.18
   2  -4   6    0.64    0.30
   2  -4   6    0.33    0.17
   2  -4   6    0.22    0.14
  -2  -4  -6    0.54    0.41
   2  -4   6    0.55    0.41
   2   4   6    0.41    0.25
   2   4   6   -0.12    0.30
   2   4   6    0.25    0.50
  -2   4  -6   -0.05    0.37
   2   4   6   -0.35    0.39
  -2   4  -6   -0.14    0.32
  -3  -4  -6   15.74    1.41
   3  -4   6   14.36    1.08
   3  -4   6   15.01    0.82
  -3  -4  -6   14.26    0.73
   3  -4   6   15.05    0.89
  -3  -4  -6   13.18    1.12
  -3   4  -6   15.66    1.16
  -3   4  -6   15.65    1.04
   3   4   6   13.57    1.11
   3   4   6   12.64    1.39
   3   4   6   14.41    0.88
   3   4   6   15.20    1.58
  -4  -4  -6   11.01    1.39
   4  -4   6   11.01    1.04
  -4  -4  -6    8.75    0.62
   4  -4   6   10.64    0.88
  -4  -4  -6    9.80    1.21
  -4  -4  -6   12.12    0.93
  -4   4  -6    9.98    1.05
   4   4   6   12.57    1.47
   4   4   6   11.51    0.93
   4   4   6   13.53    1.76
   4   4   6   10.94    1.33
  -4   4  -6   11.22    1.39
  -5  -4  -6    1.45    0.59
   5  -4   6    2.21    0.66
  -5  -4  -6    2.17    1.19
  -5  -4  -6    0.98    0.88
   5   4   6    0.73    1.13
   5   4   6    2.07    0.78
  -5   4  -6    1.35    0.71
   6  -4   6   18.97    1.69
  -6  -4  -6   20.95    2.13
  -6  -4  -6   16.03    1.70
  -6  -4  -6   13.07    2.12
   6   4   6   17.52    1.84
  -6   4  -6   20.49    2.18
  -6   4  -6   18.33    1.96
  -7  -4  -6    2.63    2.25
  -7  -4  -6    5.48    1.39
   7  -4   6    0.49    1.19
  -7  -4  -6    0.39    1.70
   7   4   6    1.90    1.35
  -7   4  -6   -0.94    1.60
  -7   4  -6    1.12    1.47
   7  -5  -6    7.01    1.35
  -7  -5   6    4.79    2.24
  -7  -5   6    4.32    1.63
  -7  -5   6    3.07    1.20
  -7   5   6    3.67    1.46
   7   5  -6    4.96    1.11
  -6  -5   6   10.14    1.15
  -6  -5   6    7.36    1.74
   6  -5  -6    8.58    1.08
  -6  -5   6    6.96    1.37
  -6   5   6    8.34    1.23
  -6   5   6   10.69    1.29
   6   5  -6    5.40    0.97
  -5  -5   6   19.94    1.64
  -5  -5   6   22.51    1.36
   5  -5  -6   18.42    1.12
  -5  -5   6   23.34    2.28
   5  -5  -6   19.65    1.39
  -5   5   6   19.78    1.21
  -5   5   6   19.82    1.29
  -5   5   6   20.00    1.53
   5   5  -6   21.08    1.32
   5   5  -6   24.45    2.52
   4  -5  -6   81.60    3.05
  -4  -5   6   91.17    3.73
  -4  -5   6   83.33    3.34
  -4  -5   6   86.43    3.00
   4  -5  -6   83.80    2.80
  -4  -5   6   83.09    2.78
  -4   5   6   81.42    2.82
  -4   5   6   85.79    2.85
   4   5  -6   87.82    2.97
   4   5  -6   81.93    3.88
  -4   5   6   83.78    3.07
  -4   5   6   84.77    2.72
   3  -5  -6   22.10    1.02
   3  -5  -6   24.81    1.21
  -3  -5   6   24.00    1.61
  -3  -5   6   23.05    0.97
  -3  -5   6   22.47    1.08
  -3  -5   6   23.89    1.38
  -3   5   6   22.57    0.89
  -3   5   6   22.74    0.96
  -3   5   6   23.05    1.16
   3   5  -6   22.98    1.83
   3   5  -6   23.29    0.88
  -3   5   6   22.72    1.01
   3   5  -6   22.75    1.04
  -2  -5   6  205.58    6.81
   2  -5  -6  210.82    6.49
  -2  -5   6  209.92    6.38
   2  -5  -6  211.87    6.36
  -2  -5   6  213.26    6.26
  -2  -5   6  207.53    6.64
   2  -5  -6  216.24    6.25
   2  -5  -6  203.53    6.24
   2   5  -6  212.70    6.27
   2   5  -6  217.70    6.27
   2   5  -6  215.39    7.13
  -2   5   6  215.06    6.22
  -2   5   6  211.36    6.33
  -2   5   6  216.06    6.23
  -2   5   6  203.81    6.50
  -1  -5   6   12.06    0.93
   1  -5  -6   13.27    0.56
   1  -5  -6   13.27    0.51
  -1  -5   6   12.49    0.81
   1  -5  -6   13.14    0.59
   1  -5  -6   13.22    0.83
  -1  -5   6   12.62    0.60
   1   5  -6   13.47    0.72
   1   5  -6   14.24    0.96
  -1   5   6   12.85    0.87
  -1   5   6   13.45    0.70
   1   5  -6   12.02    1.05
  -1   5   6   12.99    0.59
   1   5  -6   13.63    0.51
   1   5  -6   13.12    0.68
   0  -5   6  131.32    4.02
   0  -5   6  131.81    4.04
   0  -5  -6  129.56    4.09
   0  -5  -6  132.04    4.00
   0  -5   6  132.32    4.36
   0  -5   6  135.02    4.56
   0  -5   6  133.65    4.20
   0   5  -6  130.67    4.04
   0   5  -6  130.84    4.50
   0   5   6  125.07    4.01
   0   5  -6  139.53    4.24
   0   5   6  130.23    4.38
   0   5   6  127.21    4.16
   0   5  -6  140.79    4.41
   1  -5   6    0.46    0.39
   1  -5   6    0.46    0.28
   1  -5   6    0.34    0.16
  -1  -5  -6    0.51    0.37
  -1  -5  -6    0.63    0.22
   1  -5   6    0.27    0.22
   1  -5   6    0.98    0.47
   1   5   6    0.85    0.44
  -1   5  -6    0.87    0.33
   1   5   6    0.57    0.33
  -1   5  -6    0.67    0.38
   1   5   6    1.12    0.45
  -1   5  -6    0.61    0.41
  -2  -5  -6    3.95    0.47
  -2  -5  -6    3.33    0.61
   2  -5   6    3.83    0.35
   2  -5   6    5.28    0.70
  -2  -5  -6    4.45    0.70
   2  -5   6    4.09    0.51
   2   5   6    3.98    0.84
  -2   5  -6    3.56    0.50
   2   5   6    3.27    0.43
   2   5   6    3.57    0.58
  -2   5  -6    3.80    0.46
  -2   5  -6    4.21    0.64
   3  -5   6   16.80    0.86
  -3  -5  -6   15.84    1.54
  -3  -5  -6   16.85    0.96
  -3  -5  -6   14.58    1.25
  -3   5  -6   15.40    1.20
  -3   5  -6   16.43    1.08
   3   5   6   15.28    1.21
   3   5   6   13.76    1.79
   3   5   6   16.50    0.95
   3   5   6   15.52    1.61
  -4  -5  -6   52.23    2.13
   4  -5   6   51.21    1.99
  -4  -5  -6   48.32    1.74
  -4  -5  -6   49.29    2.52
  -4  -5  -6   50.87    2.87
   4   5   6   49.62    2.81
   4   5   6   53.10    2.11
   4   5   6   54.43    2.53
  -4   5  -6   50.94    2.46
   4   5   6   49.40    3.31
  -4   5  -6   50.67    2.15
   5  -5   6   26.44    1.51
  -5  -5  -6   25.48    1.57
  -5  -5  -6   27.12    2.63
  -5  -5  -6   20.36    1.90
   5   5   6   20.84    2.82
   5   5   6   23.60    2.30
   5   5   6   22.07    1.67
  -5   5  -6   22.76    1.58
  -6  -5  -6   39.15    2.29
  -6  -5  -6   39.17    2.84
  -6  -5  -6   42.13    3.80
   6  -5   6   38.04    2.30
  -6   5  -6   37.89    2.30
   6   5   6   40.44    2.44
  -6   5  -6   39.06    2.72
   7  -6  -6    8.73    1.49
  -7  -6   6   10.48    1.48
  -7  -6   6    6.81    2.62
  -7  -6   6   13.62    2.09
  -7   6   6   13.56    1.74
   7   6  -6   10.58    1.46
   6  -6  -6   53.06    2.71
  -6  -6   6   56.04    3.93
  -6  -6   6   53.89    2.61
  -6  -6   6   54.01    3.12
  -6  -6   6   58.06    2.31
  -6   6   6   52.80    2.69
   6   6  -6   52.42    4.29
   6   6  -6   56.12    2.60
  -5  -6   6    4.22    0.72
  -5  -6   6    4.13    0.62
  -5  -6   6    3.11    0.95
   5  -6  -6    3.04    0.61
  -5  -6   6    3.12    1.27
   5  -6  -6    2.84    0.71
  -5   6   6    3.09    0.76
   5   6  -6    3.96    0.74
   5   6  -6    2.09    1.41
  -5   6   6    4.14    0.58
  -4  -6   6   35.54    1.45
  -4  -6   6   37.94    2.02
   4  -6  -6   36.40    1.51
  -4  -6   6   36.22    1.63
   4  -6  -6   36.12    1.74
  -4  -6   6   36.98    2.38
  -4   6   6   35.26    1.39
   4   6  -6   35.72    2.63
   4   6  -6   35.74    1.58
  -4   6   6   35.50    1.64
  -4   6   6   36.54    1.43
  -4   6   6   36.47    1.35
   3  -6  -6    7.10    0.75
   3  -6  -6    6.76    0.65
  -3  -6   6    6.15    0.96
  -3  -6   6    6.06    0.84
  -3  -6   6    7.59    0.65
  -3  -6   6    7.38    0.57
   3   6  -6    7.90    0.63
  -3   6   6    8.54    0.74
   3   6  -6    7.49    0.55
  -3   6   6    7.30    0.47
  -3   6   6    6.73    0.55
   3   6  -6    6.73    1.17
  -2  -6   6    0.60    0.39
   2  -6  -6    0.07    0.26
  -2  -6   6   -0.04    0.43
  -2  -6   6    0.32    0.22
   2  -6  -6    0.65    0.44
   2  -6  -6    0.02    0.21
  -2  -6   6   -0.26    0.20
   2  -6  -6    0.37    0.22
   2   6  -6   -0.16    0.27
   2   6  -6    0.63    0.61
  -2   6   6    0.12    0.26
   2   6  -6   -0.04    0.20
  -2   6   6    0.65    0.32
  -2   6   6    0.04    0.17
   1  -6  -6   78.68    2.39
  -1  -6   6   78.46    2.84
  -1  -6   6   81.66    2.62
   1  -6  -6   86.31    2.65
   1  -6  -6   83.78    2.39
  -1  -6   6   80.45    2.60
  -1  -6   6   80.46    3.02
   1  -6  -6   81.54    2.67
   1  -6  -6   79.86    2.58
   1   6  -6   79.76    3.30
   1   6  -6   82.09    2.96
   1   6  -6   84.84    3.12
   1   6  -6   79.27    2.45
  -1   6   6   81.26    2.84
  -1   6   6   78.31    2.54
   0  -6   6  137.76    4.42
   0  -6  -6  138.72    4.30
   0  -6  -6  139.24    4.49
   0  -6  -6  135.78    4.19
   0  -6  -6  136.23    4.24
   0  -6  -6  136.27    4.19
   0  -6   6  138.35    4.58
   0  -6   6  135.24    4.22
   0  -6  -6  142.85    4.45
   0   6  -6  145.41    4.64
   0   6   6  137.88    4.62
   0   6  -6  144.49    4.48
   0   6  -6  136.43    4.80
   0   6   6  138.78    4.39
   0   6   6  139.29    4.25
  -1  -6  -6  153.74    4.77
   1  -6   6  158.80    4.86
  -1  -6  -6  150.26    5.13
  -1  -6  -6  159.17    5.06
   1  -6   6  159.26    4.93
   1  -6   6  151.40    4.58
  -1  -6  -6  157.49    4.78
   1  -6   6  152.92    5.02
   1  -6   6  152.24    4.81
  -1   6  -6  148.87    5.09
   1   6   6  158.92    4.82
   1   6   6  157.73    5.27
   1   6   6  156.55    4.99
  -1   6  -6  162.94    4.88
  -1   6  -6  159.58    5.07
   1   6   6  147.89    5.24
   2  -6   6  204.04    5.94
   2  -6   6  209.15    6.06
  -2  -6  -6  206.78    6.53
  -2  -6  -6  202.19    6.06
  -2  -6  -6  194.97    6.16
  -2  -6  -6  200.81    6.66
   2   6   6  192.07    6.41
  -2   6  -6  194.88    6.34
   2   6   6  197.54    6.80
  -2   6  -6  208.62    6.17
  -2   6  -6  193.37    6.17
   2   6   6  201.21    6.72
   2   6   6  206.29    6.21
   3  -6   6   54.82    1.94
  -3  -6  -6   56.29    2.48
  -3  -6  -6   54.74    1.91
  -3  -6  -6   55.93    2.13
  -3  -6  -6   54.88    2.76
   3   6   6   53.79    2.94
   3   6   6   52.65    2.40
   3   6   6   56.13    2.16
  -3   6  -6   57.48    2.12
   3   6   6   54.45    2.83
  -3   6  -6   54.59    2.32
  -4  -6  -6   43.62    2.44
   4  -6   6   45.42    1.86
  -4  -6  -6   51.14    2.93
  -4  -6  -6   46.40    2.00
  -4   6  -6   43.66    1.97
   4   6   6   45.41    2.44
   4   6   6   47.00    3.21
   4   6   6   47.58    2.96
  -4   6  -6   44.00    2.26
  -5  -6  -6    5.32    1.51
  -5  -6  -6    2.06    0.79
   5  -6   6    2.54    0.71
  -5   6  -6    2.82    0.82
   5   6   6    1.72    1.88
   5   6   6    3.32    1.24
   6  -6   6    1.07    1.01
  -6  -6  -6   -0.14    0.87
  -6  -6  -6    1.99    2.02
  -6  -6  -6   -0.44    1.28
  -6   6  -6    1.94    1.15
  -6   6  -6    1.93    1.04
   6   6   6   -0.92    0.98
   6   6   6   -2.60    2.41
  -7  -7   6    2.96    2.15
   7  -7  -6   -0.13    1.28
  -7  -7   6   -1.16    1.19
  -7  -7   6    1.05    2.68
   7   7  -6   -2.99    1.10
  -6  -7   6    6.98    1.14
  -6  -7   6    6.91    0.95
   6  -7  -6    7.82    1.14
  -6  -7   6    7.28    1.52
  -6  -7   6    6.24    1.94
   6   7  -6    9.92    2.49
  -6   7   6    7.68    1.14
   6   7  -6    6.57    1.04
  -5  -7   6    0.32    0.60
  -5  -7   6    0.49    0.56
   5  -7  -6    0.63    0.62
   5  -7  -6    0.13    0.58
  -5  -7   6    1.62    1.26
  -5  -7   6   -0.11    0.88
   5   7  -6   -0.47    1.42
   5   7  -6    1.08    0.60
  -5   7   6    0.90    0.63
  -4  -7   6    3.93    0.87
  -4  -7   6    2.68    0.54
  -4  -7   6    4.21    1.09
   4  -7  -6    3.38    0.65
  -4  -7   6    3.94    0.53
   4  -7  -6    4.27    0.61
   4   7  -6    5.99    1.48
  -4   7   6    3.74    0.43
  -4   7   6    5.07    0.65
   4   7  -6    4.28    0.61
  -4   7   6    3.99    0.43
  -4   7   6    3.92    0.48
   3  -7  -6    2.26    0.44
   3  -7  -6    1.99    0.52
   3  -7  -6    2.79    0.45
  -3  -7   6    3.03    0.93
  -3  -7   6    1.73    0.57
  -3  -7   6    2.18    0.42
  -3  -7   6    2.77    0.38
   3   7  -6    3.20    1.16
   3   7  -6    3.33    0.42
  -3   7   6    3.05    0.48
   3   7  -6    2.55    0.40
  -3   7   6    2.29    0.31
  -3   7   6    2.18    0.32
   2  -7  -6    2.47    0.37
  -2  -7   6    2.50    0.63
  -2  -7   6    3.36    0.40
  -2  -7   6    4.29    0.49
   2  -7  -6    3.25    0.44
  -2  -7   6    3.46    0.59
  -2   7   6    3.62    0.52
  -2   7   6    3.40    0.36
   2   7  -6    3.36    0.41
  -2   7   6    2.86    0.38
   2   7  -6    4.24    1.06
   1  -7  -6    0.30    0.23
  -1  -7   6    0.01    0.19
  -1  -7   6    0.23    0.34
  -1  -7   6    0.82    0.47
   1  -7  -6    0.25    0.24
   1  -7  -6    0.37    0.30
  -1  -7   6    0.14    0.20
   1  -7  -6    0.39    0.37
  -1   7   6    0.17    0.24
  -1   7   6    0.47    0.34
   1   7  -6    0.32    0.15
   1   7  -6   -0.66    0.60
  -1   7   6    0.26    0.18
   1   7  -6    0.65    0.67
   0  -7  -6   33.48    1.25
   0  -7  -6   35.76    1.35
   0  -7   6   34.95    1.49
   0  -7   6   35.39    1.36
   0  -7   6   33.79    1.29
   0  -7  -6   37.21    1.30
   0  -7  -6   36.98    1.53
   0  -7  -6   35.43    1.39
   0   7   6   34.77    1.33
   0   7  -6   33.54    1.89
   0   7   6   34.21    1.66
   0   7   6   35.66    1.48
   0   7  -6   36.79    1.75
   0   7  -6   36.95    1.60
   1  -7   6    0.81    0.28
   1  -7   6    0.90    0.17
  -1  -7  -6    0.47    0.24
   1  -7   6    1.64    0.40
  -1  -7  -6    0.29    0.51
  -1  -7  -6    0.40    0.24
  -1  -7  -6    0.76    0.42
   1  -7   6    0.43    0.70
   1  -7   6    1.03    0.51
  -1   7  -6    0.74    0.43
   1   7   6    0.78    0.53
  -1   7  -6    0.72    0.65
  -1   7  -6    0.96    0.16
   1   7   6    1.00    0.51
   1   7   6    0.43    0.33
   1   7   6    0.82    0.28
  -1   7  -6    1.17    0.47
  -2  -7  -6   23.13    1.44
  -2  -7  -6   23.11    1.02
   2  -7   6   23.32    1.14
  -2  -7  -6   22.09    1.08
   2  -7   6   22.31    0.91
  -2  -7  -6   22.61    1.62
   2   7   6   23.67    1.75
  -2   7  -6   20.96    1.32
   2   7   6   22.54    1.73
   2   7   6   24.30    1.17
  -2   7  -6   21.34    1.28
  -2   7  -6   24.39    1.18
   2   7   6   21.93    1.33
  -3  -7  -6    0.90    0.38
  -3  -7  -6    1.20    0.32
  -3  -7  -6    2.24    0.83
  -3  -7  -6    0.16    0.82
   3  -7   6    0.76    0.36
   3   7   6    1.89    0.48
   3   7   6   -0.06    0.94
  -3   7  -6    1.02    0.60
   3   7   6    1.71    0.67
   3   7   6    0.95    0.95
  -3   7  -6    1.26    0.53
  -4  -7  -6    4.69    1.27
   4  -7   6    5.17    0.67
  -4  -7  -6    6.68    0.82
  -4  -7  -6    6.55    1.22
  -4  -7  -6    5.56    0.56
  -4   7  -6    4.92    1.13
   4   7   6    6.56    1.14
   4   7   6    6.81    1.62
   4   7   6    6.61    1.69
  -4   7  -6    6.41    0.77
  -5  -7  -6    2.80    0.77
  -5  -7  -6    3.30    1.20
   5  -7   6    2.29    0.74
  -5  -7  -6    1.94    1.54
   5   7   6    1.89    0.84
  -5   7  -6    1.89    0.77
   5   7   6    1.03    2.13
   5   7   6    2.27    1.28
  -6  -7  -6   -0.77    0.94
   6  -7   6   -1.44    1.06
  -6  -7  -6    0.79    2.21
  -6  -7  -6    2.48    1.47
  -6   7  -6    1.87    1.19
   6   7   6   -0.69    1.07
   6   7   6    0.85    2.09
  -6  -8   6   47.04    4.32
  -6  -8   6   45.25    3.16
   6  -8  -6   40.96    2.53
  -6  -8   6   45.58    2.42
  -6   8   6   42.37    2.41
   6   8  -6   46.74    4.54
   6   8  -6   41.76    2.36
  -5  -8   6   -0.60    0.54
  -5  -8   6    0.42    0.58
  -5  -8   6   -0.33    1.41
   5  -8  -6   -0.75    0.61
  -5  -8   6   -1.59    1.35
   5  -8  -6    0.39    0.96
   5   8  -6    2.61    1.78
  -5   8   6    0.33    0.99
   5   8  -6    0.49    0.62
  -5   8   6    0.16    0.60
  -4  -8   6   29.16    1.98
  -4  -8   6   29.36    1.49
   4  -8  -6   27.62    1.65
  -4  -8   6   29.21    2.56
  -4  -8   6   28.97    1.35
   4  -8  -6   28.82    1.60
   4   8  -6   29.90    2.71
  -4   8   6   28.72    1.38
   4   8  -6   30.49    1.47
   3  -8  -6    8.46    0.77
   3  -8  -6    9.39    0.82
  -3  -8   6    9.12    0.76
  -3  -8   6    9.51    1.13
  -3  -8   6    8.46    0.70
  -3  -8   6    8.82    1.35
   3   8  -6    6.35    1.50
  -3   8   6    8.11    0.54
  -3   8   6    7.87    0.55
  -3   8   6    7.60    0.78
   3   8  -6    9.38    0.73
   2  -8  -6    2.97    0.42
   2  -8  -6    3.89    0.48
  -2  -8   6    3.49    0.68
  -2  -8   6    3.78    0.48
  -2  -8   6    2.34    0.72
  -2  -8   6    3.98    0.50
   2   8  -6    3.92    0.43
   2   8  -6    4.21    1.13
  -2   8   6    3.97    0.40
  -2   8   6    3.83    0.53
  -2   8   6    3.34    0.42
   1  -8  -6   22.21    1.02
  -1  -8   6   22.56    1.44
   1  -8  -6   22.22    1.06
  -1  -8   6   22.05    1.00
   1  -8  -6   22.45    1.07
  -1  -8   6   21.19    1.27
  -1  -8   6   21.42    0.98
   1  -8  -6   20.19    0.96
   1   8  -6   25.22    1.84
   1   8  -6   22.75    1.68
  -1   8   6   23.49    1.26
  -1   8   6   22.40    1.03
  -1   8   6   22.48    0.92
   0  -8  -6  152.08    4.72
   0  -8   6  148.82    4.59
   0  -8  -6  148.47    4.62
   0  -8  -6  140.93    4.54
   0  -8  -6  148.11    4.43
   0  -8  -6  140.88    4.40
   0  -8   6  144.67    4.45
   0  -8   6  135.62    4.52
   0  -8   6  142.58    4.69
   0  -8   6  151.72    4.92
   0  -8  -6  147.51    4.76
   0   8  -6  137.40    5.23
   0   8   6  149.71    5.16
   0   8   6  143.82    4.97
   0   8  -6  156.54    4.82
   0   8  -6  154.32    5.00
   0   8   6  141.94    4.69
   0   8  -6  149.23    4.26
   1  -8   6   12.92    0.93
   1  -8   6   13.33    1.10
  -1  -8  -6   12.59    0.78
  -1  -8  -6   16.76    1.34
  -1  -8  -6   12.54    1.10
   1  -8   6   13.28    0.82
  -1  -8  -6   13.82    0.77
  -1   8  -6   14.15    0.55
  -1   8  -6   15.06    1.03
   1   8   6   13.90    1.01
  -1   8  -6   13.51    1.08
   1   8   6   15.48    1.28
   1   8   6   14.49    0.82
   1   8   6   13.97    1.34
  -1   8  -6   13.02    1.40
  -2  -8  -6  226.55    6.89
   2  -8   6  231.07    6.68
   2  -8   6  217.73    6.96
  -2  -8  -6  216.12    7.26
  -2  -8  -6  229.84    6.82
  -2  -8  -6  221.71    7.43
   2   8   6  230.47    6.97
  -2   8  -6  213.13    7.14
  -2   8  -6  232.05    6.88
  -2   8  -6  219.59    7.07
   2   8   6  219.25    7.23
   2   8   6  227.53    7.74
   2   8   6  234.71    7.75
  -3  -8  -6   11.46    1.41
  -3  -8  -6   11.70    0.77
  -3  -8  -6   11.17    1.49
   3  -8   6   11.53    0.85
  -3  -8  -6   11.84    0.92
   3   8   6   13.73    1.73
   3   8   6   11.30    0.98
  -3   8  -6   10.33    0.99
  -3   8  -6   10.59    0.97
   3   8   6   11.84    1.75
   3   8   6   11.77    1.29
  -3   8  -6   11.58    1.17
  -4  -8  -6   74.40    3.45
  -4  -8  -6   72.75    2.50
   4  -8   6   74.62    2.71
  -4  -8  -6   73.38    3.89
  -4  -8  -6   70.86    2.85
   4   8   6   76.97    4.36
   4   8   6   78.32    3.44
  -4   8  -6   74.10    2.68
   4   8   6   69.52    4.17
   5  -8   6    1.24    0.86
  -5  -8  -6    0.93    1.14
  -5  -8  -6    0.10    0.63
  -5  -8  -6   -0.80    1.68
   5   8   6   -0.32    2.31
   5   8   6    0.48    1.33
  -5   8  -6    0.69    0.69
  -6  -8  -6    6.18    2.66
  -6  -8  -6   -0.53    1.55
  -6  -8  -6    0.24    0.99
   6   8   6    1.51    2.17
  -6   8  -6    1.74    1.22
   6   8   6    1.52    1.20
   6  -9  -6    1.49    1.14
  -6  -9   6   -3.06    2.34
  -6  -9   6    2.89    1.48
  -6  -9   6    1.59    0.94
  -6  -9   6    0.09    0.90
   6   9  -6   -0.75    0.94
   6   9  -6   -0.93    2.56
   5  -9  -6   32.70    2.16
  -5  -9   6   33.95    1.71
  -5  -9   6   35.20    3.56
   5  -9  -6   34.19    1.88
  -5  -9   6   34.68    2.52
  -5  -9   6   34.28    1.86
   5   9  -6   28.99    3.22
   5   9  -6   34.11    1.89
  -4  -9   6   20.09    1.28
  -4  -9   6   21.06    1.86
   4  -9  -6   20.66    1.54
   4  -9  -6   20.71    1.30
  -4  -9   6   18.24    2.52
  -4  -9   6   20.86    1.18
   4   9  -6   21.13    2.65
   4   9  -6   18.87    1.28
  -4   9   6   18.81    1.07
  -3  -9   6   61.88    2.33
  -3  -9   6   62.79    2.81
  -3  -9   6   60.69    3.13
   3  -9  -6   62.49    2.35
   3  -9  -6   60.59    2.29
  -3  -9   6   61.40    2.25
  -3   9   6   60.15    2.22
  -3   9   6   60.14    1.98
   3   9  -6   62.49    2.23
   3   9  -6   58.77    3.44
  -2  -9   6   67.36    2.31
  -2  -9   6   66.00    2.31
  -2  -9   6   63.97    2.70
   2  -9  -6   64.78    2.32
   2  -9  -6   63.71    2.38
  -2  -9   6   66.04    2.94
  -2   9   6   63.11    2.40
  -2   9   6   64.94    2.18
   2   9  -6   61.67    2.33
  -2   9   6   62.01    2.12
   2   9  -6   60.66    3.37
  -1  -9   6   59.19    2.54
  -1  -9   6   54.59    2.03
  -1  -9   6   55.77    2.31
   1  -9  -6   55.22    2.11
   1  -9  -6   54.60    2.02
   1  -9  -6   55.75    2.01
  -1  -9   6   57.42    1.98
  -1   9   6   57.92    2.08
  -1   9   6   54.45    1.91
   1   9  -6   54.83    2.74
  -1   9   6   55.20    2.30
   1   9  -6   57.88    2.98
   0  -9   6   45.53    1.80
   0  -9  -6   44.36    1.57
   0  -9  -6   47.32    1.81
   0  -9   6   46.24    1.91
   0  -9  -6   48.18    1.63
   0  -9   6   46.83    1.65
   0  -9  -6   48.34    2.04
   0  -9  -6   48.77    1.95
   0  -9  -6   47.07    1.77
   0  -9   6   52.09    2.31
   0   9  -6   46.46    1.48
   0   9  -6   48.50    2.14
   0   9   6   45.48    2.40
   0   9   6   43.72    2.16
   0   9  -6   47.06    2.52
   0   9  -6   42.80    2.22
   0   9   6   44.10    1.72
   0   9   6   47.56    1.93
  -1  -9  -6    0.71    0.66
   1  -9   6    1.59    0.65
  -1  -9  -6    0.74    0.31
   1  -9   6    0.55    0.31
  -1  -9  -6    0.18    0.69
   1  -9   6    0.83    0.47
  -1  -9  -6    0.84    0.31
  -1  -9  -6    0.41    0.28
  -1   9  -6    0.66    0.61
   1   9   6    1.02    0.34
   1   9   6    1.04    0.46
  -1   9  -6    0.91    0.22
  -1   9  -6    1.17    0.64
   1   9   6   -0.40    0.57
  -1   9  -6    1.56    0.73
   1   9   6    0.82    0.63
   2  -9   6    2.90    0.56
  -2  -9  -6    3.44    0.79
  -2  -9  -6    4.10    0.55
  -2  -9  -6    3.88    0.49
  -2  -9  -6    3.25    0.96
   2  -9   6    4.06    0.48
   2   9   6    3.90    0.98
   2   9   6    6.27    1.28
  -2   9  -6    4.50    0.70
   2   9   6    2.96    0.67
  -2   9  -6    3.34    0.70
  -2   9  -6    3.51    0.46
   2   9   6    3.30    0.55
  -3  -9  -6   34.51    1.45
  -3  -9  -6   35.73    2.19
  -3  -9  -6   33.66    1.60
  -3  -9  -6   35.73    2.60
   3   9   6   34.52    2.05
  -3   9  -6   28.64    1.75
   3   9   6   34.52    1.69
  -3   9  -6   27.95    1.72
   3   9   6   33.38    2.84
   3   9   6   35.33    2.84
  -4  -9  -6   13.56    1.19
   4  -9   6   10.82    1.20
  -4  -9  -6   12.46    0.97
  -4  -9  -6   14.01    1.66
  -4  -9  -6   14.09    2.11
  -4   9  -6   12.65    1.08
   4   9   6   15.47    2.44
   4   9   6   12.98    2.28
   4   9   6   13.95    1.81
  -5  -9  -6   37.66    4.02
  -5  -9  -6   35.00    2.04
  -5  -9  -6   39.61    2.80
   5  -9   6   36.57    2.20
   5   9   6   38.63    3.02
   5   9   6   32.20    3.75
  -6  -9  -6   24.54    3.56
  -6  -9  -6   18.59    2.05
  -6  -9  -6   22.62    2.55
   6   9   6   26.41    2.44
   6   9   6   24.77    3.09
  -6   9  -6   18.68    2.27
   6 -10  -6    9.06    1.53
  -6 -10   6    7.06    2.99
  -6 -10   6    6.89    1.20
  -6 -10   6    7.12    1.83
   6  10  -6    8.79    1.31
   6  10  -6   10.41    3.02
  -5 -10   6   -0.76    0.66
   5 -10  -6    0.97    0.84
  -5 -10   6    0.18    0.65
  -5 -10   6   -1.82    1.18
  -5 -10   6    3.54    2.16
   5  10  -6   -0.48    1.06
   5  10  -6    2.93    2.00
  -4 -10   6   23.13    2.47
  -4 -10   6   24.07    1.43
   4 -10  -6   21.36    1.43
  -4 -10   6   20.15    1.28
  -4 -10   6   18.61    1.97
   4  10  -6   21.23    1.45
   4  10  -6   21.68    2.92
  -3 -10   6    6.75    1.07
   3 -10  -6    5.56    0.73
  -3 -10   6    6.80    0.84
   3 -10  -6    6.24    0.74
  -3 -10   6    6.63    0.79
  -3 -10   6    7.17    1.40
   3  10  -6    6.33    0.79
  -3  10   6    6.17    0.80
   3  10  -6    8.49    1.72
  -3  10   6    6.22    0.58
  -2 -10   6    7.19    1.14
  -2 -10   6    9.21    0.78
   2 -10  -6    8.32    0.86
   2 -10  -6    8.76    0.87
  -2 -10   6    9.06    0.78
  -2 -10   6    9.06    1.10
  -2  10   6    7.97    0.61
   2  10  -6    8.92    0.71
  -2  10   6    7.97    0.92
  -2  10   6    9.07    0.71
   2  10  -6    7.85    1.62
   1 -10  -6   32.25    1.49
   1 -10  -6   33.87    1.46
  -1 -10   6   34.11    1.44
  -1 -10   6   27.48    1.95
  -1 -10   6   32.39    2.05
  -1 -10   6   34.21    1.36
  -1  10   6   32.72    1.32
  -1  10   6   33.39    1.48
   1  10  -6   34.53    2.42
   1  10  -6   32.42    2.45
  -1  10   6   32.53    1.71
  -1  10   6   34.05    2.07
   0 -10  -6    0.56    0.34
   0 -10   6    0.02    0.35
   0 -10  -6    0.55    0.35
   0 -10   6   -0.09    0.51
   0 -10  -6    0.05    0.71
   0 -10  -6    0.28    0.30
   0 -10  -6    0.63    0.55
   0 -10  -6   -0.02    0.24
   0 -10   6    0.43    0.37
   0 -10   6   -0.20    0.50
   0 -10   6    1.02    0.89
   0  10   6    0.08    0.55
   0  10  -6    0.51    0.83
   0  10   6    0.06    0.31
   0  10  -6    0.50    0.25
   0  10   6   -0.11    0.69
   0  10   6    0.32    0.43
   0  10  -6   -0.06    0.82
   0  10  -6    0.12    0.85
  -1 -10  -6   25.66    1.85
  -1 -10  -6   26.15    1.16
   1 -10   6   26.76    1.39
  -1 -10  -6   24.92    1.24
   1 -10   6   24.06    1.27
  -1 -10  -6   27.65    1.30
   1  10   6   27.36    1.91
  -1  10  -6   24.29    0.96
   1  10   6   24.84    1.51
   1  10   6   23.23    2.05
  -1  10  -6   27.71    2.04
   1  10   6   27.04    1.30
  -1  10  -6   25.12    1.67
  -1  10  -6   26.35    1.63
  -2 -10  -6    7.13    1.27
  -2 -10  -6    4.41    0.62
   2 -10   6    4.63    0.63
  -2 -10  -6    7.62    1.09
  -2 -10  -6    5.55    0.66
  -2 -10  -6    5.56    0.68
  -2  10  -6    5.25    0.85
  -2  10  -6    5.18    1.11
   2  10   6    4.36    1.29
   2  10   6    6.07    0.91
   2  10   6    4.75    0.65
   2  10   6    4.39    1.28
  -3 -10  -6    4.23    1.32
  -3 -10  -6    5.36    0.71
  -3 -10  -6    3.47    0.56
  -3 -10  -6    3.45    1.08
  -3  10  -6    4.13    1.11
   3  10   6    4.19    1.51
   3  10   6    2.66    0.89
   3  10   6    0.63    1.32
  -3  10  -6    4.79    0.84
   3  10   6    4.14    0.79
  -4 -10  -6   15.83    1.12
  -4 -10  -6   16.96    1.36
  -4 -10  -6   13.36    1.70
  -4 -10  -6   17.20    2.38
   4  10   6   14.45    1.94
   4  10   6   17.37    2.71
   4  10   6   16.36    2.64
  -5 -10  -6   -2.01    1.35
  -5 -10  -6    4.27    2.43
  -5 -10  -6    1.58    0.81
   5  10   6   -0.13    1.46
  -6 -10  -6    3.79    1.33
  -6 -10  -6    5.53    2.16
   6  10   6    7.85    2.59
  -6  10  -6    6.09    1.27
   6  10   6    5.89    1.66
  -6 -11   6    8.48    2.21
  -6 -11   6   15.04    1.60
   6  11  -6    6.50    3.14
   6  11  -6   14.14    1.56
  -5 -11   6   -1.00    0.75
  -5 -11   6    1.28    0.87
  -5 -11   6    1.44    1.43
   5 -11  -6    0.13    0.93
  -5 -11   6   -3.30    2.30
   5  11  -6   -0.64    0.82
  -5  11   6    2.36    1.82
   5  11  -6   -1.06    2.05
  -4 -11   6  107.67    3.89
  -4 -11   6  103.82    5.29
  -4 -11   6  109.92    3.80
  -4 -11   6  115.27    4.61
   4 -11  -6  103.27    3.88
  -4  11   6  107.52    4.69
   4  11  -6  107.08    5.59
   4  11  -6  109.19    3.81
  -3 -11   6    1.58    0.53
  -3 -11   6    1.49    0.90
   3 -11  -6    1.27    0.57
   3 -11  -6    2.31    0.66
  -3 -11   6    0.00    1.23
  -3 -11   6    1.66    0.53
   3  11  -6    2.54    0.57
  -3  11   6    2.34    1.04
  -3  11   6    1.19    0.56
   3  11  -6    2.81    1.44
  -2 -11   6  171.45    5.36
   2 -11  -6  172.95    5.52
  -2 -11   6  174.54    5.84
   2 -11  -6  168.29    5.42
  -2 -11   6  168.94    5.40
  -2 -11   6  165.18    6.11
   2  11  -6  172.40    5.22
  -2  11   6  167.89    5.54
  -2  11   6  163.79    5.13
   2  11  -6  161.12    6.75
  -2  11   6  173.71    6.25
  -2  11   6  168.92    5.22
   1 -11  -6    4.18    0.60
  -1 -11   6    4.77    0.56
  -1 -11   6    3.86    0.84
   1 -11  -6    4.67    0.62
   1 -11  -6    5.13    0.93
  -1 -11   6    5.81    1.21
  -1 -11   6    4.34    0.56
  -1  11   6    5.68    0.85
  -1  11   6    4.38    0.54
  -1  11   6    4.65    1.08
  -1  11   6    5.30    0.68
   1  11  -6    2.43    1.14
   0 -11  -6   57.99    2.33
   0 -11  -6   55.35    2.16
   0 -11   6   56.85    2.19
   0 -11  -6   53.65    1.75
   0 -11   6   51.65    2.29
   0 -11  -6   53.02    2.15
   0  11  -6   54.04    3.17
   0  11   6   57.38    2.09
   0  11   6   52.45    2.93
   0  11   6   57.65    2.67
   0  11   6   57.45    2.35
  -1 -11  -6    1.94    0.43
   1 -11   6    0.88    0.45
  -1 -11  -6    1.99    1.24
  -1 -11  -6    1.88    0.83
  -1 -11  -6    1.01    0.41
   1 -11   6    0.89    0.65
  -1 -11  -6    1.89    0.47
   1  11   6    1.33    1.02
   1  11   6    1.35    0.47
  -1  11  -6    1.59    1.05
  -1  11  -6    0.07    0.78
   1  11   6    1.43    0.62
   1  11   6    1.47    0.82
   2 -11   6    1.63    0.57
  -2 -11  -6    0.83    0.89
  -2 -11  -6    3.11    1.22
  -2 -11  -6    2.48    0.56
  -2 -11  -6    2.43    0.54
  -2 -11  -6    2.72    0.55
   2  11   6    1.36    0.71
  -2  11  -6    4.20    1.20
   2  11   6    3.46    0.67
   2  11   6    2.19    1.39
   2  11   6    2.70    1.17
  -2  11  -6    1.61    0.84
  -3 -11  -6    0.80    0.58
  -3 -11  -6    1.12    1.45
  -3 -11  -6   -0.32    0.45
  -3 -11  -6   -0.56    0.47
  -3 -11  -6    0.20    1.02
   3  11   6    0.71    0.60
   3  11   6   -0.74    0.81
  -3  11  -6    0.76    1.27
   3  11   6    1.12    1.55
   3  11   6   -1.17    1.32
  -4 -11  -6   74.37    6.23
  -4 -11  -6   67.41    2.86
   4  11   6   72.05    5.16
   4  11   6   79.53    5.15
   4  11   6   67.03    3.61
  -5 -11  -6    1.81    1.67
  -5 -11  -6    2.07    0.92
   5  11   6    4.14    1.72
   5  11   6    3.16    3.54
  -5 -12   6    5.59    1.78
  -5 -12   6    4.91    1.05
  -5 -12   6    6.08    1.17
   5  12  -6    6.50    1.18
  -5  12   6    5.81    2.25
   5  12  -6    7.34    2.79
  -4 -12   6   18.60    1.50
  -4 -12   6   17.74    1.62
   4 -12  -6   18.75    1.60
   4  12  -6   20.35    1.54
  -4  12   6   19.59    2.38
   4  12  -6   21.23    3.08
   3 -12  -6    1.57    0.74
   3 -12  -6    1.13    0.62
  -3 -12   6    2.33    0.63
  -3 -12   6    0.28    1.07
  -3 -12   6    2.11    0.62
   3  12  -6    2.05    1.68
  -3  12   6    2.57    0.63
   3  12  -6    2.75    0.63
  -2 -12   6    6.86    0.86
   2 -12  -6    5.69    0.76
   2 -12  -6    8.03    0.91
  -2 -12   6    9.41    0.90
  -2 -12   6    6.47    1.17
  -2  12   6    8.65    0.88
  -2  12   6    8.15    0.79
   2  12  -6    6.20    1.70
  -2  12   6    6.04    1.36
  -2  12   6    7.94    0.98
   2  12  -6    7.89    0.88
   1 -12  -6   37.09    1.73
   1 -12  -6   34.37    1.66
  -1 -12   6   33.09    1.62
  -1 -12   6   34.20    1.48
  -1 -12   6   35.53    2.06
  -1  12   6   33.58    2.01
  -1  12   6   36.03    1.51
   1  12  -6   38.86    2.98
  -1  12   6   36.81    2.58
  -1  12   6   34.88    1.67
   0 -12   6    0.18    0.40
   0 -12  -6    0.28    0.73
   0 -12   6    0.43    0.75
   0 -12  -6    0.26    0.43
   0 -12   6    0.53    0.28
   0 -12  -6    0.03    0.43
   0  12   6    0.65    1.04
   0  12  -6   -0.29    1.13
   0  12   6    0.02    0.52
   0  12   6    0.60    0.47
   0  12   6   -0.67    0.69
  -1 -12  -6   62.68    2.47
   1 -12   6   62.18    2.50
  -1 -12  -6   62.47    2.44
  -1 -12  -6   60.79    2.20
  -1 -12  -6   65.58    2.94
   1  12   6   61.71    3.23
  -1  12  -6   65.34    3.56
   1  12   6   60.18    2.74
   1  12   6   64.40    2.48
   1  12   6   62.26    3.59
  -2 -12  -6    6.41    0.84
  -2 -12  -6    5.27    0.72
   2 -12   6    6.25    0.87
  -2 -12  -6    5.39    1.20
  -2 -12  -6    6.16    0.75
   2  12   6    7.27    1.53
   2  12   6    6.28    0.81
  -2  12  -6    5.19    1.51
   2  12   6    7.88    1.09
   2  12   6    6.07    1.77
  -3 -12  -6   41.10    2.15
  -3 -12  -6   43.49    1.88
  -3 -12  -6   41.92    2.80
  -3 -12  -6   42.67    1.99
   3  12   6   42.06    3.54
   3  12   6   51.22    3.99
   3  12   6   38.48    3.18
  -4 -12  -6   12.29    1.91
  -4 -12  -6   10.34    1.29
  -4 -12  -6   11.68    1.25
   4  12   6   12.15    1.80
   4  12   6   13.33    3.24
   4  12   6   10.81    3.25
  -5 -12  -6    3.75    1.09
  -5 -12  -6    3.76    1.99
  -5 -12  -6    5.20    1.14
   5  12   6    1.21    1.81
   5  12   6   12.20    4.02
  -5 -13   6    5.38    1.13
  -5 -13   6    6.25    2.08
  -5 -13   6    7.59    1.28
   5  13  -6    8.10    1.35
   5  13  -6    8.11    2.95
  -4 -13   6   10.08    1.16
   4 -13  -6   10.77    1.25
  -4 -13   6    6.83    1.76
  -4 -13   6    7.58    1.07
   4  13  -6   10.31    1.20
  -4  13   6   13.14    2.36
   4  13  -6    3.38    2.25
   3 -13  -6   10.43    1.25
  -3 -13   6    8.14    1.18
  -3 -13   6    8.10    0.97
   3 -13  -6    9.55    1.18
  -3 -13   6   10.21    1.66
   3  13  -6    8.07    2.26
  -3  13   6    8.59    0.99
  -3  13   6    9.68    1.83
   3  13  -6    7.95    0.94
  -2 -13   6   33.41    1.66
  -2 -13   6   30.38    2.24
  -2 -13   6   31.53    1.55
   2 -13  -6   29.50    1.72
   2 -13  -6   30.38    1.75
   2  13  -6   32.92    1.55
  -2  13   6   29.68    1.92
   2  13  -6   28.04    3.22
  -2  13   6   32.64    2.79
  -2  13   6   29.75    1.47
  -1 -13   6    7.03    0.86
  -1 -13   6    6.63    1.18
   1 -13  -6    8.43    1.04
  -1 -13   6    7.64    0.93
   1 -13  -6    7.22    0.87
  -1  13   6    8.95    1.10
  -1  13   6    6.17    1.53
   1  13  -6    5.74    1.71
  -1  13   6    6.96    1.12
  -1  13   6    7.76    0.92
   0 -13  -6   17.75    1.24
   0 -13   6   19.42    1.27
   0 -13  -6   17.44    1.27
   0  13   6   17.16    2.26
   0  13  -6   15.52    2.20
   0  13   6   18.25    1.21
   0  13   6   16.20    1.81
   0  13   6   17.37    1.37
  -1 -13  -6    1.17    0.58
  -1 -13  -6    1.47    0.54
  -1 -13  -6   -0.58    0.98
   1 -13   6    1.26    0.59
  -1 -13  -6    1.46    0.51
  -1  13  -6    1.25    1.45
   1  13   6    0.37    0.73
   1  13   6   -0.76    1.27
   1  13   6    2.11    1.05
   1  13   6    2.71    0.65
  -2 -13  -6    0.82    0.53
  -2 -13  -6    0.02    1.21
  -2 -13  -6    0.30    0.59
   2 -13   6    1.29    0.76
  -2 -13  -6    2.22    0.62
   2  13   6   -0.01    0.62
   2  13   6    0.28    1.35
  -2  13  -6   -1.12    1.50
   2  13   6    0.59    0.88
   2  13   6   -2.29    1.54
   3 -13   6   14.06    1.49
  -3 -13  -6   15.65    1.39
  -3 -13  -6   15.02    1.37
  -3 -13  -6   19.96    2.57
  -3 -13  -6   17.14    1.51
   3  13   6   13.13    2.52
   3  13   6   14.95    1.93
   3  13   6   15.22    4.14
  -4 -13  -6    2.44    0.91
  -4 -13  -6    3.88    1.06
  -4 -13  -6    5.56    1.77
   4  13   6    2.50    1.45
   4  13   6    7.61    2.99
   4  13   6    4.80    2.98
  -5 -13  -6    7.96    1.39
  -5 -13  -6   10.08    1.49
  -5 -13  -6    7.25    2.22
   5  13   6    7.07    2.28
   5  13   6    8.09    4.34
  -4 -14   6   10.29    2.19
   4 -14  -6    9.95    1.39
  -4 -14   6    9.23    1.23
  -4 -14   6   14.01    1.66
   4  14  -6    9.70    2.80
  -4  14   6   11.47    2.58
  -3 -14   6    0.58    0.67
  -3 -14   6   -0.09    1.52
   3 -14  -6    1.42    0.79
  -3 -14   6   -1.08    0.69
  -3  14   6    1.73    1.66
  -3  14   6    0.81    0.79
   3  14  -6   -0.19    0.79
   3  14  -6   -2.16    2.00
   2 -14  -6    4.43    0.90
  -2 -14   6    3.09    0.78
  -2 -14   6    5.19    1.56
   2 -14  -6    3.53    0.81
   2  14  -6    5.19    0.92
   2  14  -6    5.99    2.06
  -1 -14   6   12.12    1.20
   1 -14  -6   11.35    1.28
  -1 -14   6   14.09    1.07
  -1  14   6   13.27    1.75
  -1  14   6   15.52    2.31
  -1  14   6   15.85    1.35
   1  14  -6   11.64    2.21
  -1  14   6   12.26    1.19
   0 -14   6   59.59    2.56
   0 -14  -6   61.25    2.57
   0 -14  -6   62.09    2.57
   0  14   6   60.52    2.72
   0  14   6   64.43    3.23
   0  14   6   57.55    3.21
   0  14  -6   59.85    4.05
   0  14   6   61.62    3.95
  -1 -14  -6   16.55    1.04
  -1 -14  -6   17.07    1.60
  -1 -14  -6   15.96    1.31
  -1  14  -6   15.72    2.48
   1  14   6   17.12    4.02
   1  14   6   16.45    1.86
   1  14   6   17.79    1.41
  -2 -14  -6   87.35    3.01
   2 -14   6   82.92    3.32
  -2 -14  -6   85.28    4.08
  -2 -14  -6   78.18    3.22
  -2 -14  -6   83.56    3.15
   2  14   6   80.77    5.04
  -2  14  -6   84.60    4.78
   2  14   6   78.18    4.49
   2  14   6   78.60    3.72
  -3 -14  -6   11.41    1.16
  -3 -14  -6   10.06    1.23
  -3 -14  -6   11.99    2.09
   3 -14   6   12.19    1.40
  -3 -14  -6    9.90    1.13
   3  14   6   11.89    2.50
   3  14   6    7.16    1.52
   3  14   6    8.32    2.59
  -4 -14  -6   26.94    2.07
  -4 -14  -6   24.67    2.87
  -4 -14  -6   25.91    2.08
   4  14   6   32.08    3.14
   4  14   6   40.22    4.76
   4  14   6   34.82    4.14
  -4 -15   6   -0.24    1.01
  -4 -15   6    0.05    2.19
   4 -15  -6    4.08    1.20
  -4 -15   6    2.12    1.04
   4  15  -6   -1.25    2.77
  -4  15   6   -2.30    2.68
  -3 -15   6   17.53    1.65
   3 -15  -6   14.80    1.71
  -3 -15   6   17.36    1.72
   3 -15  -6   14.70    1.90
   3  15  -6   11.95    2.93
  -3  15   6   22.15    2.97
  -2 -15   6    1.03    0.81
   2 -15  -6    0.82    0.67
  -2 -15   6    0.33    0.76
   2 -15  -6    2.57    0.93
  -2  15   6    2.85    1.05
   2  15  -6    4.54    2.24
  -2  15   6    1.95    1.84
   1 -15  -6   10.99    1.35
  -1 -15   6   12.08    1.28
   1 -15  -6   11.55    1.40
  -1  15   6   10.85    1.54
  -1  15   6    9.11    1.44
  -1  15   6   12.43    1.41
   1  15  -6   11.49    2.46
  -1  15   6    8.77    2.24
   0 -15   6    8.98    1.13
   0 -15  -6    6.30    0.96
   0 -15  -6    8.53    1.05
   0  15   6    7.19    1.47
   0  15  -6   10.07    3.88
   0  15   6    9.70    2.29
   0  15   6   10.63    1.36
  -1 -15  -6   -0.22    0.67
   1 -15   6   -0.83    0.65
  -1 -15  -6    0.63    0.68
   1  15   6    1.07    1.87
   1  15   6    0.56    1.35
  -1  15  -6   -1.14    1.91
   1  15   6    2.11    1.00
   1  15   6   -0.33    0.77
  -2 -15  -6    7.25    0.94
   2 -15   6    4.42    0.93
  -2 -15  -6    6.95    1.05
  -2 -15  -6    6.12    0.98
   2  15   6    9.33    2.53
  -2  15  -6    5.91    2.37
   2  15   6    5.28    1.32
   2  15   6    9.56    2.02
  -3 -15  -6    2.68    0.96
  -3 -15  -6    4.47    1.02
  -3 -15  -6    5.32    1.03
   3 -15   6    1.32    1.04
   3  15   6    1.74    2.83
   3  15   6    4.31    2.37
   3  15   6    2.84    1.42
  -4 -15  -6    4.05    1.23
  -4 -15  -6   -1.46    1.10
   4  15   6    4.77    3.86
   4  15   6    0.23    1.78
   4  15   6    1.37    3.40
   3 -16  -6    5.52    1.17
   3 -16  -6    4.70    1.39
  -3 -16   6    5.41    1.09
  -3 -16   6    6.83    1.25
  -3  16   6    2.12    2.76
   3  16  -6    3.79    2.95
   2 -16  -6    0.93    0.88
   2 -16  -6    2.10    1.03
  -2 -16   6    0.47    0.83
   2  16  -6    1.12    2.65
  -2  16   6   -0.81    2.16
  -2  16   6    1.52    1.20
  -1 -16   6   15.56    1.58
   1 -16  -6   13.66    1.66
   1 -16  -6   14.41    1.53
  -1  16   6   12.61    1.68
  -1  16   6   12.33    1.80
  -1  16   6   14.20    2.62
   1  16  -6   10.85    2.67
   0 -16  -6   25.13    1.85
   0 -16   6   27.27    1.90
   0 -16  -6   25.63    1.87
   0  16   6   22.48    2.89
   0  16   6   33.47    3.63
   0  16   6   23.46    2.08
   0  16  -6   28.71    3.40
   0  16   6   31.46    2.00
  -1 -16  -6   15.30    1.59
  -1 -16  -6   14.12    1.59
   1 -16   6   14.04    1.57
   1  16   6   18.64    3.02
  -1  16  -6   11.35    2.79
   1  16   6   16.81    2.02
   1  16   6   12.28    2.17
   2 -16   6   41.39    2.46
  -2 -16  -6   43.20    2.33
  -2 -16  -6   41.78    2.42
   2  16   6   41.59    4.83
   2  16   6   42.20    4.31
  -2  16  -6   48.13    5.27
   2  16   6   44.44    3.02
  -3 -16  -6    5.16    1.28
  -3 -16  -6    2.69    1.12
   3 -16   6    4.37    1.25
   3  16   6    8.91    3.33
   3  16   6    5.20    2.79
   3  16   6    4.67    1.68
   3 -17  -6   15.64    1.75
   3 -17  -6   15.75    1.83
  -3 -17   6   18.42    2.07
   3  17  -6   12.97    3.93
  -3  17   6   23.37    3.83
   2 -17  -6   28.21    2.22
  -2 -17   6   30.97    2.21
   2 -17  -6   33.14    2.39
   2  17  -6   35.16    4.24
  -2  17   6   29.39    3.89
   1 -17  -6   13.51    1.66
   1 -17  -6   12.49    1.51
  -1 -17   6   12.09    1.41
   1  17  -6   16.70    3.23
  -1  17   6   13.82    1.98
  -1  17   6   10.26    2.70
   0 -17  -6   23.69    2.02
   0 -17   6   21.67    1.93
   0 -17  -6   21.26    1.90
   0  17   6   27.42    2.29
   0  17  -6   19.74    3.32
   0  17   6   20.91    3.28
   0  17   6   22.35    2.94
  -1 -17  -6   -0.45    0.96
   1 -17   6   -0.09    1.00
  -1 -17  -6    1.83    0.99
   1  17   6    0.18    1.33
   1  17   6    0.63    1.77
  -1  17  -6    7.40    2.94
   1  17   6    3.13    2.67
  -2 -17  -6    2.29    1.06
  -2 -17  -6    0.19    1.01
   2 -17   6   -1.11    1.02
   2  17   6    0.63    1.49
   2  17   6    1.19    2.31
   2  17   6    4.97    3.07
   1 -18  -6    0.19    1.02
   1 -18  -6    1.63    1.22
  -1 -18   6   -0.80    1.08
  -1  18   6   -0.96    2.96
   1  18  -6   -4.79    3.14
   0 -18  -6    4.66    1.14
   0 -18  -6    3.69    1.20
   0 -18   6    1.79    1.22
   0  18   6    0.87    1.88
   0  18   6    2.60    2.93
   0  18  -6    0.26    3.13
  -1 -18  -6    4.12    1.18
   1 -18   6    1.68    1.10
  -1 -18  -6    1.51    1.25
   1  18   6    0.49    2.95
  -1  18  -6    3.09    3.53
   1  18   6    0.87    2.27
   1  18   6    0.26    1.45
  -7   0   7    3.52    1.18
  -7   0   7    4.83    1.44
  -7   0   7    1.94    1.62
   7   0  -7    1.21    0.99
   6   0  -7    0.39    0.61
  -6   0   7   -0.38    0.70
  -6   0   7    0.96    1.03
  -5   0   7   -0.66    0.67
  -5   0   7    0.65    0.45
  -5   0   7   -0.20    0.57
   5   0  -7   -0.02    0.41
  -4   0   7    0.56    0.53
   4   0  -7    0.05    0.31
  -4   0   7   -0.07    0.79
   4   0  -7    0.00    0.17
  -4   0   7    0.29    0.43
  -4   0   7    0.58    0.92
  -4   0   7   -0.37    0.29
  -4   0   7    0.40    0.29
  -3   0   7   67.54    2.52
   3   0  -7   66.13    2.20
  -3   0   7   63.77    2.43
   3   0  -7   65.92    2.29
   3   0  -7   67.67    2.10
  -3   0   7   71.50    2.01
  -3   0   7   67.36    2.64
  -3   0   7   61.39    2.43
   2   0  -7    0.12    0.23
  -2   0   7   -0.22    0.38
  -2   0   7   -0.05    0.25
  -2   0   7    0.13    0.16
   2   0  -7   -0.29    0.16
  -2   0   7    0.19    0.39
  -1   0   7  199.93    6.13
  -1   0   7  203.24    6.30
  -1   0   7  205.61    6.55
   1   0  -7  202.32    6.10
  -1   0   7  214.18    6.09
  -1   0   7  199.45    6.45
   1   0  -7  215.36    6.14
   1   0  -7  204.11    6.30
   1   0  -7  214.31    6.46
   0   0  -7    0.35    0.27
   0   0   7   -0.10    0.18
   0   0   7    0.73    0.34
   0   0  -7    0.21    0.39
   0   0  -7   -0.09    0.19
   0   0   7    0.18    0.16
   0   0   7   -0.14    0.13
   0   0   7    0.52    0.38
  -1   0  -7   85.62    3.00
  -1   0  -7   79.43    2.78
   1   0   7   89.38    2.76
   1   0   7   84.49    3.00
  -1   0  -7   79.83    2.62
   1   0   7   78.61    2.63
   1   0   7   82.41    2.79
  -2   0  -7   -0.42    0.48
   2   0   7    0.10    0.22
   2   0   7   -0.63    0.40
   2   0   7   -0.17    0.22
   2   0   7    0.08    0.29
   2   0   7    0.55    0.27
  -2   0  -7    0.08    0.40
   3   0   7    3.03    0.57
   3   0   7    3.75    0.77
  -3   0  -7    2.88    0.81
   3   0   7    2.99    0.41
   3   0   7    3.83    0.49
  -4   0  -7   -0.11    0.57
   4   0   7    0.53    0.63
   4   0   7    0.37    0.43
   5   0   7   15.00    1.26
  -5   0  -7    9.38    1.42
  -5   0  -7   15.17    1.49
   5   0   7   11.87    1.52
  -6   0  -7    0.15    1.02
   6   0   7    0.49    0.83
  -6   0  -7   -1.53    1.22
  -7   0  -7    9.63    1.88
  -7   0  -7   10.50    2.19
   7   0   7   12.33    1.63
  -7   0  -7   18.44    1.88
  -7  -1   7   15.13    1.60
   7  -1  -7   13.92    1.81
  -7  -1   7   16.08    1.89
  -7  -1   7   17.19    2.20
  -7   1   7   14.65    2.14
  -7   1   7   13.67    1.76
   7   1  -7   11.92    1.43
  -6  -1   7    1.43    1.14
  -6  -1   7    0.83    0.72
   6  -1  -7    0.56    0.59
  -6  -1   7    0.15    0.84
   6   1  -7    0.96    0.63
  -6   1   7   -0.40    0.71
  -6   1   7    0.69    1.08
  -6   1   7    0.60    0.88
  -5  -1   7    2.91    0.81
  -5  -1   7    1.17    0.64
  -5  -1   7    1.20    0.53
   5  -1  -7    0.74    0.50
   5   1  -7    1.54    0.49
  -5   1   7    1.33    0.47
  -5   1   7    0.51    0.70
  -5   1   7    0.91    0.55
   4  -1  -7   31.81    1.13
   4  -1  -7   31.14    1.45
  -4  -1   7   33.05    1.68
  -4  -1   7   32.56    1.39
  -4  -1   7   32.93    1.23
  -4  -1   7   32.13    1.87
  -4   1   7   33.02    1.58
  -4   1   7   33.90    1.21
  -4   1   7   30.56    1.76
   4   1  -7   32.22    1.44
  -4   1   7   33.26    1.35
  -4   1   7   33.26    1.80
  -3  -1   7  134.65    4.55
  -3  -1   7  134.07    4.31
   3  -1  -7  143.38    4.19
  -3  -1   7  144.31    4.78
   3  -1  -7  138.73    4.38
  -3  -1   7  137.77    4.61
   3  -1  -7  132.06    4.16
   3   1  -7  140.35    4.34
  -3   1   7  146.90    4.05
   3   1  -7  140.54    4.13
  -3   1   7  141.02    4.69
   3   1  -7  133.85    4.28
  -3   1   7  141.83    4.49
  -3   1   7  133.90    4.27
  -2  -1   7  103.32    3.57
  -2  -1   7  107.25    3.37
   2  -1  -7  116.17    3.33
   2  -1  -7  108.62    3.41
  -2  -1   7  108.27    3.76
   2  -1  -7  108.85    3.33
  -2  -1   7  106.91    3.38
  -2   1   7  106.85    3.35
   2   1  -7  110.21    3.39
   2   1  -7  110.47    3.36
  -2   1   7  105.57    3.74
   1  -1  -7  476.40   14.23
  -1  -1   7  471.80   14.22
  -1  -1   7  498.84   14.13
   1  -1  -7  491.36   14.38
  -1  -1   7  479.58   14.40
  -1  -1   7  493.24   14.58
  -1  -1   7  515.16   14.72
   1  -1  -7  510.98   14.20
   1  -1  -7  497.71   14.52
  -1   1   7  502.88   14.21
   1   1  -7  481.65   14.14
   1   1  -7  530.31   14.61
  -1   1   7  481.46   14.56
   1   1  -7  520.88   14.25
  -1   1   7  459.93   14.37
  -1   1   7  481.71   14.60
  -1   1   7  462.10   14.21
   1   1  -7  484.29   14.41
   0  -1  -7   64.50    2.22
   0  -1   7   60.38    2.05
   0  -1  -7   63.16    2.40
   0  -1   7   64.72    2.36
   0  -1   7   64.26    1.93
   0  -1   7   60.59    2.38
   0   1  -7   65.13    2.23
   0   1  -7   63.33    2.06
   0   1  -7   65.77    1.95
   0   1   7   63.49    2.40
   0   1   7   57.23    2.17
   0   1   7   60.82    2.05
   0   1  -7   63.56    2.39
  -1  -1  -7  230.91    6.77
  -1  -1  -7  217.21    6.66
   1  -1   7  237.14    6.72
   1  -1   7  219.94    6.76
  -1  -1  -7  215.65    6.94
   1  -1   7  218.12    6.59
   1  -1   7  218.69    6.93
  -1   1  -7  224.58    6.96
   1   1   7  221.13    6.98
   1   1   7  221.11    6.77
  -1   1  -7  235.27    6.58
   1   1   7  210.15    6.60
  -1   1  -7  231.28    6.77
  -1   1  -7  206.15    6.57
   2  -1   7   -0.12    0.42
  -2  -1  -7    0.18    0.47
   2  -1   7    0.52    0.23
  -2  -1  -7    0.44    0.52
   2  -1   7    0.40    0.30
   2   1   7    0.47    0.30
   2   1   7    0.24    0.20
  -2   1  -7    0.35    0.47
   2   1   7    0.03    0.31
  -2   1  -7   -0.04    0.39
   2   1   7    0.55    0.49
   3  -1   7    7.96    0.60
   3  -1   7    8.49    0.82
   3  -1   7    8.58    0.66
  -3  -1  -7   10.50    1.25
  -3   1  -7    9.10    1.10
   3   1   7    9.20    1.08
  -3   1  -7    9.25    1.07
   3   1   7    9.24    0.68
   3   1   7   10.52    0.95
   3   1   7    8.41    0.79
  -4  -1  -7   30.34    1.75
   4  -1   7   28.53    1.64
   4  -1   7   30.26    2.76
   4  -1   7   30.88    1.46
   4   1   7   31.99    2.46
   4   1   7   32.45    1.76
   4   1   7   29.35    1.48
  -4   1  -7   28.74    1.73
  -5  -1  -7   11.45    1.64
   5  -1   7   11.75    1.17
  -5  -1  -7   10.24    1.09
  -5  -1  -7   11.56    1.47
  -5   1  -7   10.64    1.46
  -5   1  -7   10.29    1.26
   5   1   7   11.51    1.22
   5   1   7   10.28    1.40
  -6  -1  -7   16.11    2.02
  -6  -1  -7   23.68    2.66
   6  -1   7   19.61    1.70
  -6  -1  -7   21.37    1.86
   6   1   7   22.85    1.85
  -6   1  -7   21.29    1.87
  -6   1  -7   17.74    2.09
  -6   1  -7   17.79    2.01
  -7  -1  -7   29.17    2.67
  -7  -1  -7   33.21    3.78
   7  -1   7   28.13    2.52
  -7  -1  -7   22.23    2.41
  -7   1  -7   27.94    3.42
   7   1   7   24.03    2.41
  -7   1  -7   21.20    2.81
  -7  -2   7   14.35    1.54
  -7  -2   7   10.88    1.82
  -7  -2   7    9.86    2.07
   7  -2  -7   10.83    1.37
  -7   2   7   10.96    1.51
  -7   2   7   11.88    1.99
   7   2  -7   13.80    1.78
   6  -2  -7   37.07    2.01
  -6  -2   7   37.73    2.39
  -6  -2   7   38.08    1.95
  -6  -2   7   33.81    2.82
   6   2  -7   34.41    1.93
  -6   2   7   35.81    2.09
  -6   2   7   34.97    2.51
  -6   2   7   36.34    1.89
  -5  -2   7   45.54    2.63
  -5  -2   7   45.56    2.30
   5  -2  -7   44.10    2.02
  -5  -2   7   46.33    1.94
   5   2  -7   44.03    1.97
  -5   2   7   45.90    2.39
  -5   2   7   43.28    2.04
  -5   2   7   45.52    1.84
   4  -2  -7   36.55    1.59
  -4  -2   7   35.02    2.71
  -4  -2   7   36.63    1.82
  -4  -2   7   36.67    2.04
   4  -2  -7   36.16    1.30
  -4  -2   7   35.96    1.52
  -4   2   7   39.27    1.91
  -4   2   7   37.36    1.31
  -4   2   7   34.84    1.44
   4   2  -7   36.53    1.55
  -4   2   7   36.49    1.63
  -4   2   7   37.32    1.83
  -3  -2   7   54.58    2.24
  -3  -2   7   57.07    2.00
   3  -2  -7   56.58    2.05
  -3  -2   7   55.89    1.78
   3  -2  -7   55.77    1.88
  -3  -2   7   56.09    2.43
   3  -2  -7   58.95    1.79
  -3   2   7   54.04    1.91
  -3   2   7   57.22    2.28
   3   2  -7   56.31    2.61
   3   2  -7   57.87    2.00
  -3   2   7   59.65    1.74
  -3   2   7   58.39    2.11
  -2  -2   7    2.04    0.18
  -2  -2   7    1.89    0.33
   2  -2  -7    2.42    0.30
  -2  -2   7    1.23    0.35
  -2  -2   7    2.21    0.49
   2  -2  -7    1.96    0.26
   2   2  -7    0.86    0.58
  -2   2   7    1.53    0.41
  -2   2   7    1.91    0.27
   2   2  -7    1.94    0.27
   1  -2  -7    0.28    0.09
  -1  -2   7    0.55    0.59
  -1  -2   7    0.15    0.25
  -1  -2   7    0.33    0.13
   1  -2  -7    0.21    0.19
   1  -2  -7    0.65    0.33
   1  -2  -7    0.71    0.45
  -1  -2   7    0.19    0.10
  -1  -2   7    0.18    0.27
  -1  -2   7    0.15    0.16
   1   2  -7    0.42    0.36
   1   2  -7    0.31    0.12
   1   2  -7    0.30    0.11
  -1   2   7    0.50    0.17
  -1   2   7    0.44    0.22
   1   2  -7    0.58    0.42
  -1   2   7    0.10    0.30
   1   2  -7    0.28    0.34
  -1   2   7    0.08    0.19
   1   2  -7   -0.02    0.24
   0  -2  -7  215.24    6.33
   0  -2  -7  213.40    6.66
   0  -2   7  208.58    6.51
   0  -2  -7  213.45    6.48
   0  -2   7  221.72    6.71
   0  -2   7  207.72    6.34
   0  -2   7  222.30    6.73
   0  -2   7  211.98    6.14
   0   2  -7  226.22    6.25
   0   2   7  203.31    6.32
   0   2  -7  220.24    6.51
   0   2   7  206.89    6.68
   0   2  -7  213.25    6.57
   0   2   7  205.22    6.47
   0   2  -7  206.83    6.33
   1  -2   7   72.76    2.68
   1  -2   7   77.64    2.53
   1  -2   7   68.98    2.32
  -1  -2  -7   69.81    2.52
  -1  -2  -7   72.71    2.73
   1  -2   7   72.27    2.51
   1   2   7   73.71    2.54
  -1   2  -7   72.89    2.69
  -1   2  -7   73.42    2.52
  -1   2  -7   74.17    2.35
   1   2   7   71.23    2.74
   1   2   7   71.18    2.37
   2  -2   7  120.40    3.97
   2  -2   7  118.08    3.75
  -2  -2  -7  121.58    4.30
   2  -2   7  128.08    4.19
   2  -2   7  122.44    3.78
   2   2   7  123.17    3.99
   2   2   7  121.42    3.88
   2   2   7  123.17    4.36
   2   2   7  124.68    4.10
  -2   2  -7  125.84    4.02
  -2   2  -7  129.37    4.24
   3  -2   7   87.72    3.01
   3  -2   7   94.49    3.46
   3  -2   7   92.80    3.21
  -3  -2  -7   93.75    3.76
  -3  -2  -7   95.13    3.52
   3  -2   7   92.09    3.04
   3   2   7   90.82    3.38
   3   2   7   98.08    3.76
  -3   2  -7   91.95    3.53
  -3   2  -7   97.96    3.31
   3   2   7   91.90    3.23
   3   2   7   97.94    3.13
   4  -2   7   18.13    1.30
   4  -2   7   16.66    1.06
  -4  -2  -7   17.74    1.43
   4   2   7   15.69    1.04
   4   2   7   19.85    1.48
  -4   2  -7   17.52    1.33
   4   2   7   15.95    1.13
   4   2   7   16.08    1.83
   4   2   7   16.33    1.05
   5  -2   7   50.09    2.16
  -5  -2  -7   49.51    2.18
  -5  -2  -7   46.80    2.96
  -5  -2  -7   45.58    2.57
   5   2   7   47.40    2.22
   5   2   7   51.28    2.74
  -5   2  -7   45.72    2.39
  -6  -2  -7   -0.97    1.25
   6  -2   7    0.38    0.86
  -6  -2  -7    0.89    0.85
  -6  -2  -7   -0.83    1.13
  -6   2  -7   -0.34    1.03
  -6   2  -7    1.05    0.91
  -6   2  -7    0.29    1.22
   6   2   7    0.54    0.83
  -7  -2  -7    6.34    1.47
   7  -2   7    6.12    1.37
  -7  -2  -7    5.63    1.89
  -7  -2  -7    2.17    2.13
   7   2   7    9.12    1.52
  -7   2  -7    6.70    1.85
  -7   2  -7    8.39    1.69
  -7  -3   7    7.96    1.77
  -7  -3   7   10.49    1.45
   7  -3  -7    6.64    1.21
  -7  -3   7    8.48    2.18
  -7   3   7    9.92    1.80
  -7   3   7    8.01    1.43
   7   3  -7   15.14    1.78
   6  -3  -7    0.69    0.68
  -6  -3   7    1.41    0.96
  -6  -3   7    0.84    1.29
  -6  -3   7    2.11    0.79
  -6   3   7    2.56    0.79
   6   3  -7    1.27    0.68
  -6   3   7    2.13    0.89
  -6   3   7    2.18    1.03
  -5  -3   7   20.79    1.31
  -5  -3   7   21.61    1.61
   5  -3  -7   21.79    1.37
  -5  -3   7   24.89    2.16
  -5   3   7   23.18    1.42
  -5   3   7   24.73    1.24
  -5   3   7   21.87    1.71
   5   3  -7   21.84    1.35
   4  -3  -7   22.50    1.22
   4  -3  -7   22.23    0.98
  -4  -3   7   20.62    1.67
  -4  -3   7   25.90    3.37
  -4  -3   7   22.67    1.43
  -4  -3   7   24.23    1.16
  -4   3   7   22.06    1.43
   4   3  -7   21.36    1.13
  -4   3   7   22.69    1.43
  -4   3   7   20.82    1.20
  -4   3   7   21.80    0.95
   4   3  -7   21.65    1.82
  -3  -3   7   13.45    0.98
  -3  -3   7   12.79    0.58
   3  -3  -7   13.17    0.82
  -3  -3   7   12.99    0.75
  -3  -3   7   13.73    1.19
   3  -3  -7   12.82    0.70
  -3   3   7   13.70    0.82
   3   3  -7   10.15    1.32
  -3   3   7   13.78    0.99
   3   3  -7   13.16    0.73
  -3   3   7   11.92    0.65
  -3   3   7   13.37    0.55
   2  -3  -7   26.59    1.13
   2  -3  -7   26.42    1.02
  -2  -3   7   26.43    1.27
  -2  -3   7   24.82    0.88
  -2  -3   7   24.88    1.04
   2  -3  -7   27.82    0.89
  -2  -3   7   25.86    1.44
  -2   3   7   24.46    0.96
  -2   3   7   21.47    1.21
  -2   3   7   24.56    1.24
   2   3  -7   25.43    0.97
  -1  -3   7    8.53    0.66
   1  -3  -7    7.70    0.47
  -1  -3   7    8.76    1.26
   1  -3  -7    8.40    0.52
  -1  -3   7    8.57    0.79
  -1  -3   7    7.92    0.52
   1  -3  -7    7.73    0.73
   1  -3  -7    8.43    0.38
  -1  -3   7    8.48    0.41
  -1   3   7    8.70    0.50
   1   3  -7    9.23    0.44
   1   3  -7    8.02    0.37
  -1   3   7    8.87    0.75
   1   3  -7   10.74    0.82
  -1   3   7    9.19    0.62
   1   3  -7    9.63    0.95
   1   3  -7    9.11    0.97
  -1   3   7    8.88    0.63
   0  -3  -7    4.59    0.61
   0  -3   7    4.87    0.51
   0  -3   7    6.22    0.82
   0  -3  -7    4.86    0.44
   0  -3   7    4.46    0.34
   0  -3  -7    4.16    0.60
   0  -3   7    4.48    0.39
   0  -3   7    5.45    0.70
   0   3  -7    4.44    0.37
   0   3  -7    4.49    0.56
   0   3  -7    4.05    0.57
   0   3  -7    4.75    0.47
   0   3   7    4.95    0.65
   0   3  -7    4.91    0.67
   0   3   7    4.85    0.49
   0   3   7    4.65    0.39
   1  -3   7   97.29    3.15
   1  -3   7  103.70    3.36
   1  -3   7  100.54    3.49
  -1  -3  -7  100.10    3.60
   1  -3   7  107.59    3.42
   1  -3   7  103.44    3.00
   1   3   7  103.21    3.65
  -1   3  -7  101.26    3.29
   1   3   7   96.76    3.37
  -1   3  -7  101.96    3.55
   1   3   7  103.88    3.42
  -1   3  -7  107.86    3.39
   2  -3   7    0.36    0.19
   2  -3   7    0.65    0.48
   2  -3   7    0.25    0.17
  -2  -3  -7    0.02    0.61
   2  -3   7    0.15    0.29
  -2   3  -7   -0.07    0.46
   2   3   7    0.16    0.35
   2   3   7    0.04    0.22
   2   3   7    0.51    0.40
   2   3   7   -0.47    0.43
  -2   3  -7    0.24    0.38
   3  -3   7   75.72    2.77
  -3  -3  -7   68.67    2.83
   3  -3   7   68.62    2.36
   3  -3   7   71.68    2.54
   3  -3   7   67.31    2.19
  -3   3  -7   72.65    2.90
  -3   3  -7   66.04    2.61
   3   3   7   67.35    2.74
   3   3   7   71.13    2.49
   3   3   7   68.76    3.11
   3   3   7   73.09    2.78
   4  -3   7   12.76    0.93
  -4  -3  -7   12.70    1.53
  -4  -3  -7   12.08    0.90
   4  -3   7   10.96    1.16
  -4  -3  -7   11.52    1.30
   4   3   7   13.00    1.41
   4   3   7   11.53    1.39
  -4   3  -7   11.32    1.15
   4   3   7   13.08    1.79
   4   3   7   11.81    0.97
  -5  -3  -7    9.36    1.18
  -5  -3  -7   13.12    1.78
   5  -3   7   11.78    1.19
  -5  -3  -7   12.81    1.52
   5   3   7   12.06    1.31
  -5   3  -7   10.77    1.23
   5   3   7   12.69    1.59
  -6  -3  -7    5.76    1.12
  -6  -3  -7    5.78    1.78
   6  -3   7    6.10    1.05
  -6  -3  -7    7.54    1.44
  -6   3  -7    5.90    1.09
  -6   3  -7    5.68    1.40
  -6   3  -7    6.29    1.28
   6   3   7    4.42    1.10
  -7  -4   7   22.64    2.72
  -7  -4   7   23.37    2.98
  -7  -4   7   25.69    2.29
   7  -4  -7   25.72    2.17
   7   4  -7   23.36    2.11
  -7   4   7   21.68    2.84
  -6  -4   7    4.84    1.27
  -6  -4   7    3.04    0.86
   6  -4  -7    5.43    0.93
  -6  -4   7    5.49    1.58
   6   4  -7    4.38    0.86
  -6   4   7    3.75    1.11
  -6   4   7    5.10    0.93
  -5  -4   7  123.50    4.08
   5  -4  -7  112.79    3.71
  -5  -4   7  118.08    4.89
  -5  -4   7  117.57    4.50
   5  -4  -7  117.26    4.14
   5   4  -7  118.51    4.05
   5   4  -7  115.31    5.03
  -5   4   7  114.44    3.99
  -5   4   7  116.97    4.35
  -5   4   7  117.00    3.82
  -4  -4   7    3.50    0.74
  -4  -4   7    4.26    0.98
  -4  -4   7    3.93    0.53
   4  -4  -7    3.92    0.47
  -4  -4   7    4.41    0.55
   4  -4  -7    4.22    0.65
   4   4  -7    4.64    0.58
  -4   4   7    3.97    0.57
  -4   4   7    3.80    0.47
   4   4  -7    3.62    1.07
  -4   4   7    4.73    0.73
  -4   4   7    4.46    0.72
   3  -4  -7   81.27    2.78
  -3  -4   7   81.01    3.23
  -3  -4   7   77.69    2.69
   3  -4  -7   76.14    2.58
  -3  -4   7   77.75    2.49
  -3  -4   7   80.25    3.00
   3   4  -7   82.43    3.49
  -3   4   7   79.18    2.43
   3   4  -7   82.48    2.46
  -3   4   7   76.66    2.85
  -3   4   7   78.63    2.68
   3   4  -7   78.96    2.63
  -3   4   7   76.01    2.52
   2  -4  -7    2.53    0.26
  -2  -4   7    3.35    0.39
  -2  -4   7    3.81    0.72
  -2  -4   7    2.59    0.29
   2  -4  -7    2.43    0.41
   2  -4  -7    3.20    0.45
  -2  -4   7    1.97    0.44
  -2   4   7    2.18    0.36
  -2   4   7    2.85    0.34
   2   4  -7    2.57    0.33
   2   4  -7    3.14    0.81
  -2   4   7    2.68    0.46
   1  -4  -7   21.26    0.80
  -1  -4   7   21.59    0.83
   1  -4  -7   20.41    1.03
  -1  -4   7   23.44    1.27
  -1  -4   7   20.81    1.09
   1  -4  -7   23.04    0.84
   1   4  -7   22.71    0.88
  -1   4   7   21.72    1.01
  -1   4   7   19.80    1.34
  -1   4   7   22.84    0.89
   1   4  -7   21.57    1.35
   1   4  -7   24.33    1.25
   1   4  -7   22.47    1.47
   1   4  -7   21.72    0.74
   0  -4   7   15.40    1.07
   0  -4   7   15.97    1.34
   0  -4   7   15.45    0.74
   0  -4   7   15.00    0.87
   0  -4   7   16.09    0.70
   0  -4  -7   16.28    0.78
   0  -4  -7   15.90    0.74
   0   4  -7   15.07    0.95
   0   4  -7   15.47    1.07
   0   4  -7   15.61    0.73
   0   4   7   15.96    0.87
   0   4   7   15.58    0.73
   0   4  -7   15.95    1.11
   0   4   7   16.67    1.06
   1  -4   7  351.10   10.10
   1  -4   7  315.15    9.79
   1  -4   7  332.95   10.02
  -1  -4  -7  314.44   10.00
   1   4   7  344.10   10.10
  -1   4  -7  335.70   10.03
  -1   4  -7  344.15   10.02
  -1   4  -7  339.32   10.22
   1   4   7  345.60   10.39
   1   4   7  339.36    9.92
  -2  -4  -7   10.17    0.74
   2  -4   7   11.38    1.03
   2  -4   7   11.03    0.54
   2  -4   7   10.69    0.78
   2  -4   7   10.92    0.53
  -2  -4  -7   11.66    0.95
   2   4   7   12.12    0.91
  -2   4  -7   10.58    1.05
   2   4   7   11.07    0.72
   2   4   7   10.94    1.05
   2   4   7   10.38    1.18
  -2   4  -7   12.62    0.88
   3  -4   7  353.36   10.51
  -3  -4  -7  352.03   11.11
   3  -4   7  362.31   10.67
  -3  -4  -7  349.52   10.50
   3  -4   7  363.50   10.63
   3   4   7  362.41   10.72
   3   4   7  344.85   11.07
   3   4   7  356.99   11.00
  -3   4  -7  364.84   10.76
  -3   4  -7  364.89   11.02
   3   4   7  357.69   11.42
   4  -4   7    0.15    0.60
  -4  -4  -7    0.32    0.41
  -4  -4  -7    0.14    0.32
  -4  -4  -7   -0.40    0.81
  -4  -4  -7   -0.03    0.63
   4  -4   7    0.08    0.41
  -4   4  -7    0.16    0.56
   4   4   7   -0.77    0.69
   4   4   7   -0.39    0.44
   4   4   7    1.68    1.01
   4   4   7    1.08    1.31
   5  -4   7   88.39    3.18
  -5  -4  -7   83.47    4.24
  -5  -4  -7   84.32    3.77
  -5  -4  -7   85.58    3.29
  -5   4  -7   82.01    3.38
   5   4   7   84.58    3.38
   5   4   7   87.89    3.91
  -6  -4  -7    3.06    1.35
  -6  -4  -7    1.04    1.67
  -6  -4  -7    2.52    1.01
   6  -4   7    1.92    0.98
  -6   4  -7    4.61    1.28
  -6   4  -7    1.65    1.09
   6   4   7    1.97    1.06
  -7  -5   7    7.19    2.48
  -7  -5   7    8.83    1.88
   7  -5  -7    7.97    1.41
  -7  -5   7   10.93    1.48
  -7   5   7    7.94    1.64
   7   5  -7   10.55    1.40
  -6  -5   7    4.10    1.64
  -6  -5   7    3.62    1.21
   6  -5  -7    2.54    0.92
  -6  -5   7    3.79    0.89
   6   5  -7    1.59    0.80
  -6   5   7    1.83    1.05
  -6   5   7    2.02    0.82
  -5  -5   7   10.88    1.56
   5  -5  -7   10.30    1.17
  -5  -5   7    9.91    0.86
  -5  -5   7   10.34    1.26
  -5  -5   7   10.16    1.04
   5  -5  -7   10.20    0.94
  -5   5   7    8.91    1.09
   5   5  -7    9.61    1.83
   5   5  -7   10.62    1.07
  -5   5   7   10.70    1.03
  -5   5   7    8.31    0.92
  -4  -5   7   50.04    2.05
  -4  -5   7   55.36    2.78
  -4  -5   7   48.56    2.38
   4  -5  -7   50.93    1.90
  -4  -5   7   51.09    1.84
   4  -5  -7   52.12    2.16
  -4   5   7   54.53    2.05
  -4   5   7   49.97    2.20
   4   5  -7   51.23    2.97
  -4   5   7   50.87    1.96
  -4   5   7   51.55    1.83
   4   5  -7   55.02    2.04
  -3  -5   7    0.22    0.22
   3  -5  -7    0.18    0.25
  -3  -5   7    0.09    0.27
  -3  -5   7    0.20    0.43
   3  -5  -7    0.14    0.34
  -3  -5   7    0.06    0.52
  -3   5   7    0.41    0.30
   3   5  -7   -0.09    0.24
  -3   5   7    0.20    0.21
   3   5  -7    0.38    0.28
  -3   5   7   -0.29    0.27
   3   5  -7    0.56    0.75
  -3   5   7    0.11    0.36
   2  -5  -7  157.44    4.93
   2  -5  -7  153.29    4.77
  -2  -5   7  156.53    4.65
  -2  -5   7  150.51    4.79
  -2  -5   7  157.05    5.07
  -2  -5   7  159.03    5.29
   2  -5  -7  151.92    4.61
  -2   5   7  159.03    4.67
  -2   5   7  147.40    4.97
   2   5  -7  153.98    5.52
   2   5  -7  157.05    4.70
   2   5  -7  155.42    4.65
  -2   5   7  154.15    4.78
   1  -5  -7   30.27    1.12
  -1  -5   7   30.87    1.15
   1  -5  -7   30.88    1.24
  -1  -5   7   30.50    1.58
  -1  -5   7   30.39    1.41
   1  -5  -7   33.78    1.09
  -1  -5   7   32.39    1.22
   1   5  -7   31.55    1.02
   1   5  -7   32.77    1.83
  -1   5   7   31.00    1.32
  -1   5   7   30.45    1.15
   1   5  -7   33.92    1.76
   1   5  -7   32.09    1.21
  -1   5   7   32.48    1.49
   0  -5   7   74.07    3.09
   0  -5   7   74.75    2.49
   0  -5   7   76.31    2.88
   0  -5  -7   75.25    2.54
   0  -5   7   74.48    2.50
   0  -5   7   75.99    2.68
   0  -5  -7   77.53    2.49
   0   5   7   75.25    2.87
   0   5  -7   76.79    2.91
   0   5  -7   88.61    2.77
   0   5  -7   80.05    2.74
   0   5   7   78.10    2.67
   0   5  -7   78.54    2.99
   0   5   7   76.78    2.51
  -1  -5  -7  165.77    5.02
   1  -5   7  166.93    5.05
   1  -5   7  167.98    5.27
   1  -5   7  167.46    5.15
   1  -5   7  168.85    5.28
   1  -5   7  159.52    4.89
   1   5   7  159.00    5.58
   1   5   7  158.65    5.22
  -1   5  -7  160.54    5.24
   1   5   7  160.61    5.04
  -1   5  -7  169.61    5.17
  -2  -5  -7    0.76    0.44
   2  -5   7    0.29    0.15
   2  -5   7    0.49    0.35
   2  -5   7    0.90    0.20
   2  -5   7    0.99    0.55
  -2  -5  -7    0.42    0.23
  -2   5  -7   -0.25    0.41
  -2   5  -7    0.41    0.28
   2   5   7    0.57    0.43
   2   5   7   -0.38    0.60
  -2   5  -7    0.25    0.49
   2   5   7    0.70    0.81
   2   5   7    1.38    0.35
  -3  -5  -7   63.42    2.32
  -3  -5  -7   62.38    2.70
  -3  -5  -7   60.39    2.10
  -3  -5  -7   63.83    2.94
   3  -5   7   62.61    2.21
   3  -5   7   57.48    2.21
   3   5   7   59.47    2.57
   3   5   7   64.40    2.35
   3   5   7   58.47    3.64
   3   5   7   63.48    2.92
  -3   5  -7   60.93    2.62
  -3   5  -7   59.55    2.38
   4  -5   7   23.24    1.24
  -4  -5  -7   22.81    1.32
  -4  -5  -7   23.11    1.72
  -4  -5  -7   23.51    1.05
  -4  -5  -7   24.30    2.24
   4   5   7   22.44    1.35
   4   5   7   20.53    2.16
   4   5   7   22.52    1.75
   5  -5   7   -0.62    0.57
  -5  -5  -7    0.18    0.64
  -5  -5  -7   -1.10    1.19
   5   5   7    0.50    0.79
  -5   5  -7    1.07    0.75
   5   5   7   -0.33    1.18
  -6  -5  -7   22.04    2.44
   6  -5   7   18.95    1.88
  -6  -5  -7   18.68    1.93
  -6  -5  -7   21.30    2.69
  -6   5  -7   18.68    2.03
  -6   5  -7   18.26    1.98
   6   5   7   23.15    2.07
  -7  -6   7   -3.80    2.36
   7  -6  -7   -0.12    1.14
  -7  -6   7    1.64    1.22
  -7  -6   7    0.30    1.63
   7   6  -7    2.37    1.10
  -7   6   7    0.89    1.49
  -6  -6   7   11.77    1.64
  -6  -6   7   12.16    1.48
  -6  -6   7    7.92    2.11
   6  -6  -7   13.37    1.59
  -6   6   7   14.07    1.80
   6   6  -7   12.84    1.54
  -5  -6   7   15.04    1.99
  -5  -6   7   11.77    1.12
   5  -6  -7   10.29    1.25
   5  -6  -7   11.85    1.08
  -5  -6   7   13.18    1.00
  -5  -6   7   14.65    1.69
   5   6  -7   12.13    1.16
   5   6  -7   10.72    1.91
  -5   6   7   12.22    1.30
  -5   6   7   12.36    1.02
   4  -6  -7    6.54    0.79
  -4  -6   7    4.03    1.07
  -4  -6   7    4.85    0.64
   4  -6  -7    5.63    0.63
  -4  -6   7    5.43    0.62
  -4  -6   7    6.05    0.98
   4   6  -7    5.96    0.74
  -4   6   7    5.62    0.75
  -4   6   7    5.23    0.69
  -4   6   7    6.39    0.72
  -4   6   7    5.80    0.61
   4   6  -7    3.61    1.14
  -3  -6   7   26.01    1.10
   3  -6  -7   27.07    1.20
   3  -6  -7   26.52    1.37
  -3  -6   7   27.57    1.87
  -3  -6   7   27.21    1.57
  -3  -6   7   25.94    1.22
   3   6  -7   26.97    1.15
   3   6  -7   26.43    1.07
  -3   6   7   26.12    1.04
   3   6  -7   25.33    2.04
  -3   6   7   25.80    1.12
  -3   6   7   26.17    1.36
  -3   6   7   25.85    1.11
   2  -6  -7    3.59    0.42
  -2  -6   7    3.68    0.42
   2  -6  -7    3.04    0.44
  -2  -6   7    2.51    0.64
  -2  -6   7    3.23    0.42
  -2  -6   7    3.39    0.58
   2   6  -7    3.34    0.38
  -2   6   7    3.24    0.40
   2   6  -7    2.93    0.84
  -2   6   7    3.31    0.51
  -2   6   7    4.17    0.40
  -1  -6   7   41.05    1.93
  -1  -6   7   41.69    1.52
  -1  -6   7   41.01    1.48
   1  -6  -7   41.69    1.57
   1  -6  -7   40.87    1.33
  -1  -6   7   40.65    1.75
   1  -6  -7   43.07    1.34
   1  -6  -7   40.48    1.45
   1   6  -7   40.86    2.16
   1   6  -7   42.00    1.31
  -1   6   7   42.14    1.59
  -1   6   7   41.93    1.46
   1   6  -7   42.99    2.10
  -1   6   7   41.82    1.78
   0  -6   7   46.76    1.84
   0  -6   7   40.97    1.79
   0  -6   7   49.07    2.07
   0  -6  -7   45.52    1.70
   0  -6  -7   45.28    1.64
   0  -6  -7   47.57    1.61
   0  -6  -7   49.78    1.66
   0  -6   7   47.30    1.67
   0   6   7   45.94    1.81
   0   6  -7   50.39    1.96
   0   6   7   48.87    2.05
   0   6  -7   42.56    2.20
   0   6   7   47.33    1.67
   0   6  -7   46.87    2.06
  -1  -6  -7    7.40    0.56
   1  -6   7    7.56    0.89
   1  -6   7    7.49    1.08
   1  -6   7    6.77    0.69
   1  -6   7    6.77    0.44
  -1  -6  -7    7.51    0.87
   1  -6   7    7.32    0.60
   1   6   7    8.63    0.94
   1   6   7    7.85    0.97
  -1   6  -7    7.46    0.82
   1   6   7    8.25    0.76
  -1   6  -7    7.31    0.93
  -1   6  -7    8.12    0.95
   1   6   7    7.41    0.59
  -2  -6  -7   35.97    2.06
   2  -6   7   38.18    1.54
   2  -6   7   37.00    1.30
   2  -6   7   39.59    1.63
  -2  -6  -7   40.75    1.91
  -2  -6  -7   40.28    1.48
  -2  -6  -7   40.99    1.57
   2   6   7   37.39    1.80
   2   6   7   38.25    1.59
   2   6   7   38.59    2.20
  -2   6  -7   39.04    1.84
  -2   6  -7   36.27    1.64
  -2   6  -7   35.01    1.54
   2   6   7   41.31    2.13
  -3  -6  -7   15.11    1.38
  -3  -6  -7   15.83    1.02
  -3  -6  -7   15.51    0.85
  -3  -6  -7   16.19    1.75
   3   6   7   16.22    1.93
   3   6   7   15.98    1.31
  -3   6  -7   15.73    1.40
   3   6   7   15.77    1.06
   3   6   7   16.08    1.82
  -3   6  -7   15.54    1.22
  -4  -6  -7   12.65    1.50
  -4  -6  -7   10.50    0.98
  -4  -6  -7    7.41    1.44
  -4  -6  -7    9.08    0.71
   4  -6   7    8.82    1.07
   4   6   7    9.68    1.26
   4   6   7    8.24    1.00
   4   6   7   10.26    1.99
   4   6   7    7.86    1.58
   5  -6   7   16.40    1.41
  -5  -6  -7   19.90    1.58
  -5  -6  -7   19.23    2.00
  -5  -6  -7   22.57    2.85
   5   6   7   21.10    2.44
   5   6   7   20.55    1.69
  -5   6  -7   20.00    1.57
  -6  -6  -7   -0.85    0.93
  -6  -6  -7   -1.11    1.36
  -6  -6  -7    2.01    2.11
   6  -6   7   -0.17    1.06
   6   6   7   -0.34    1.03
  -6   6  -7    1.77    1.30
  -6   6  -7    0.28    1.07
  -6  -7   7    2.72    2.05
  -6  -7   7   -0.12    1.23
   6  -7  -7    1.65    0.93
  -6  -7   7    0.80    0.84
   6   7  -7    2.23    0.89
  -6   7   7    0.53    0.97
   6   7  -7    2.47    2.25
   5  -7  -7    5.94    1.24
  -5  -7   7    6.37    0.91
  -5  -7   7    4.85    0.71
   5  -7  -7    5.24    0.80
  -5  -7   7    7.22    1.34
  -5  -7   7    5.36    1.60
   5   7  -7    4.55    0.75
   5   7  -7    4.37    1.67
  -5   7   7    5.83    0.90
   4  -7  -7    2.19    0.64
   4  -7  -7    2.59    0.53
  -4  -7   7    1.89    0.51
  -4  -7   7    2.43    0.78
  -4  -7   7    1.42    1.08
  -4  -7   7    2.56    0.48
  -4   7   7    2.01    0.41
   4   7  -7    2.44    0.53
  -4   7   7    3.10    0.64
   4   7  -7    2.94    1.28
  -4   7   7    2.41    0.42
  -3  -7   7  211.21    6.22
   3  -7  -7  200.01    6.21
  -3  -7   7  206.33    6.76
  -3  -7   7  209.92    7.05
  -3  -7   7  203.50    6.37
   3  -7  -7  209.08    6.34
   3  -7  -7  200.83    6.53
   3   7  -7  201.21    7.40
  -3   7   7  207.01    6.10
  -3   7   7  197.52    6.41
  -3   7   7  200.80    6.14
   3   7  -7  204.44    6.23
   3   7  -7  210.90    6.22
   2  -7  -7    7.49    0.63
  -2  -7   7    9.36    0.96
  -2  -7   7    8.54    0.60
  -2  -7   7    9.40    1.15
   2  -7  -7    8.02    0.99
   2  -7  -7    8.34    0.63
  -2  -7   7    9.92    0.66
  -2   7   7    9.58    0.63
   2   7  -7    8.23    0.54
  -2   7   7    7.88    0.53
   2   7  -7    8.01    1.32
  -2   7   7    8.81    0.82
  -1  -7   7  404.20   11.73
   1  -7  -7  424.50   11.82
   1  -7  -7  408.06   11.81
  -1  -7   7  389.35   11.70
  -1  -7   7  409.31   12.23
   1  -7  -7  416.14   11.74
   1  -7  -7  422.82   11.48
   1  -7  -7  376.94   11.68
  -1  -7   7  388.53   11.99
   1  -7  -7  379.09   11.44
  -1   7   7  374.82   11.64
   1   7  -7  406.67   12.60
   1   7  -7  411.06   12.31
  -1   7   7  400.20   11.80
   1   7  -7  388.26   11.48
  -1   7   7  393.34   12.03
   0  -7  -7   14.11    1.00
   0  -7  -7   14.99    0.81
   0  -7   7   13.86    0.78
   0  -7  -7   15.12    0.83
   0  -7  -7   14.45    0.79
   0  -7   7   14.73    0.95
   0  -7   7   15.01    0.78
   0  -7   7   16.73    1.28
   0   7  -7   16.63    1.16
   0   7   7   13.94    1.12
   0   7   7   16.42    0.92
   0   7  -7   15.06    1.28
   0   7  -7   16.13    1.35
   1  -7   7  150.28    4.54
  -1  -7  -7  159.26    4.79
  -1  -7  -7  158.03    4.76
   1  -7   7  154.85    4.97
   1  -7   7  156.12    4.82
  -1  -7  -7  147.30    5.09
   1  -7   7  156.30    4.88
  -1  -7  -7  155.77    5.22
   1   7   7  154.21    5.37
   1   7   7  149.58    5.34
   1   7   7  153.54    5.02
  -1   7  -7  146.97    5.08
  -1   7  -7  148.49    5.18
  -1   7  -7  158.77    4.93
   1   7   7  148.69    4.80
  -2  -7  -7    6.31    0.58
  -2  -7  -7    7.39    0.99
  -2  -7  -7    7.19    1.05
   2  -7   7    6.70    0.76
   2  -7   7    4.49    0.56
  -2  -7  -7    6.21    0.63
   2   7   7    8.51    1.25
   2   7   7    6.68    1.17
  -2   7  -7    7.05    0.89
   2   7   7    5.63    0.64
   2   7   7    6.32    0.85
  -2   7  -7    5.74    0.80
  -2   7  -7    6.12    0.74
  -3  -7  -7    0.22    0.89
  -3  -7  -7   -0.18    0.69
  -3  -7  -7    0.48    0.32
  -3  -7  -7    0.25    0.35
  -3   7  -7    0.97    0.82
  -3   7  -7    0.45    0.69
   3   7   7    0.63    1.03
   3   7   7    0.05    0.37
   3   7   7    1.15    0.99
   3   7   7    1.34    0.68
   4  -7   7    1.95    0.54
  -4  -7  -7    1.04    0.43
  -4  -7  -7    1.77    1.32
  -4  -7  -7    1.51    0.89
  -4  -7  -7    0.73    0.52
   4   7   7    1.40    0.58
   4   7   7    3.42    1.06
   4   7   7    1.63    1.69
   4   7   7   -0.35    1.41
   5  -7   7   30.64    1.76
  -5  -7  -7   26.13    1.79
  -5  -7  -7   28.46    2.35
  -5  -7  -7   27.71    3.27
   5   7   7   29.08    1.99
  -5   7  -7   27.61    1.75
   5   7   7   29.17    2.66
  -6  -7  -7    4.32    2.36
  -6  -7  -7    5.27    1.64
   6  -7   7    2.97    1.47
  -6  -7  -7    1.64    1.02
   6   7   7    4.14    2.42
   6   7   7    2.78    1.25
  -6   7  -7    2.30    1.30
   6  -8  -7    9.55    1.36
  -6  -8   7   10.07    1.28
  -6  -8   7    7.43    1.68
  -6  -8   7    9.37    2.57
   6   8  -7   12.46    1.41
  -6   8   7   10.45    1.25
   6   8  -7   13.46    2.80
   5  -8  -7    3.19    0.85
   5  -8  -7    2.05    0.75
  -5  -8   7    3.94    1.12
  -5  -8   7    3.28    0.68
  -5  -8   7    3.97    0.80
  -5  -8   7    5.66    1.73
  -5   8   7    2.03    0.77
   5   8  -7    2.36    0.68
  -4  -8   7   13.47    1.60
   4  -8  -7   10.48    1.01
   4  -8  -7   11.24    1.23
  -4  -8   7   12.28    0.90
  -4  -8   7   13.31    1.04
  -4  -8   7   14.15    1.79
   4   8  -7   12.66    1.88
  -4   8   7   12.48    1.06
   4   8  -7   11.13    0.99
   3  -8  -7   32.01    1.50
  -3  -8   7   33.00    1.48
   3  -8  -7   31.39    1.37
  -3  -8   7   33.81    1.90
  -3  -8   7   31.98    2.21
  -3  -8   7   31.34    1.36
  -3   8   7   30.67    1.22
   3   8  -7   31.09    1.35
  -3   8   7   32.82    1.51
   3   8  -7   31.37    2.45
  -3   8   7   33.12    1.24
   2  -8  -7    0.20    0.33
  -2  -8   7    0.68    0.31
   2  -8  -7    0.45    0.32
   2  -8  -7    0.84    0.37
  -2  -8   7    0.20    0.27
  -2  -8   7    0.05    0.49
  -2  -8   7    0.17    0.68
   2   8  -7    0.08    0.25
   2   8  -7   -0.10    0.89
  -2   8   7   -0.08    0.29
  -2   8   7    0.47    0.25
  -2   8   7    0.54    0.41
   1  -8  -7   60.26    2.16
  -1  -8   7   64.45    2.19
   1  -8  -7   62.80    2.21
   1  -8  -7   62.30    2.26
  -1  -8   7   63.14    2.17
  -1  -8   7   66.98    2.73
   1  -8  -7   62.00    2.26
  -1   8   7   63.31    2.12
   1   8  -7   60.94    3.04
   1   8  -7   60.11    2.88
  -1   8   7   64.48    2.52
   1   8  -7   62.49    1.94
  -1   8   7   64.12    2.27
   0  -8   7    6.95    0.78
   0  -8  -7    6.10    0.61
   0  -8  -7    6.63    0.82
   0  -8   7    6.26    0.69
   0  -8  -7    6.09    0.56
   0  -8   7    7.43    0.56
   0  -8  -7    6.33    0.64
   0  -8  -7    6.43    0.81
   0  -8   7    6.49    0.57
   0  -8  -7    5.57    0.59
   0   8   7    5.58    0.88
   0   8  -7    6.81    1.02
   0   8  -7    4.95    0.86
   0   8   7    7.15    0.93
   0   8  -7    7.18    0.88
   0   8   7    5.30    0.55
   0   8   7    6.59    0.72
   1  -8   7   21.95    1.11
  -1  -8  -7   24.45    1.61
   1  -8   7   25.84    1.47
   1  -8   7   21.87    0.79
  -1  -8  -7   21.98    1.03
   1  -8   7   23.28    1.23
  -1  -8  -7   22.69    1.08
   1   8   7   21.38    1.64
  -1   8  -7   19.54    1.63
   1   8   7   21.75    1.29
   1   8   7   22.79    1.11
  -1   8  -7   21.88    1.37
   1   8   7   23.60    1.63
  -1   8  -7   20.10    1.44
  -2  -8  -7   38.29    1.98
  -2  -8  -7   36.98    1.50
  -2  -8  -7   37.57    1.58
  -2  -8  -7   36.81    2.23
   2  -8   7   37.42    1.64
  -2   8  -7   36.05    1.72
   2   8   7   41.19    2.46
   2   8   7   36.45    1.88
  -2   8  -7   33.29    1.86
  -2   8  -7   35.51    1.87
   2   8   7   40.23    2.41
   2   8   7   37.49    1.65
  -3  -8  -7    0.61    1.01
  -3  -8  -7    1.15    0.79
  -3  -8  -7    1.45    0.47
  -3  -8  -7    0.42    0.38
   3   8   7   -0.07    1.12
   3   8   7    1.31    0.55
  -3   8  -7    0.87    0.72
   3   8   7    1.44    0.75
   3   8   7    1.76    1.24
  -4  -8  -7   26.09    1.56
  -4  -8  -7   28.11    2.87
  -4  -8  -7   25.66    2.11
   4  -8   7   24.46    1.43
  -4  -8  -7   25.05    1.25
   4   8   7   27.70    3.41
   4   8   7   25.98    1.63
   4   8   7   24.23    3.13
   4   8   7   24.95    2.12
  -5  -8  -7    9.11    2.17
  -5  -8  -7   10.72    1.36
   5  -8   7   13.29    1.28
  -5  -8  -7   12.91    1.73
  -5   8  -7   10.20    1.38
   5   8   7   16.28    3.76
  -6  -8  -7   -3.04    2.67
  -6  -8  -7    1.27    1.07
  -6  -8  -7   -0.76    1.57
   6   8   7    4.38    1.30
   6   8   7    0.29    2.21
  -6   8  -7    1.78    1.25
   6  -9  -7    5.32    1.37
  -6  -9   7    1.80    0.95
  -6  -9   7    4.73    1.69
  -6  -9   7   -0.78    2.58
   6   9  -7    5.08    2.71
   6   9  -7    2.58    1.09
  -5  -9   7    0.74    0.66
   5  -9  -7   -1.82    0.78
   5  -9  -7    0.22    0.78
  -5  -9   7   -1.38    1.73
  -5  -9   7    1.55    1.07
  -5  -9   7    0.42    0.66
   5   9  -7    0.32    0.69
   5   9  -7    1.13    2.01
  -5   9   7    1.17    0.64
  -4  -9   7   24.15    2.68
  -4  -9   7   29.08    2.05
  -4  -9   7   25.92    1.32
   4  -9  -7   23.04    1.43
  -4  -9   7   22.09    1.42
   4   9  -7   23.50    2.71
  -4   9   7   23.51    1.31
   4   9  -7   26.81    1.44
   3  -9  -7    8.63    0.87
  -3  -9   7   10.09    1.35
  -3  -9   7    7.21    1.34
  -3  -9   7    9.20    0.79
  -3  -9   7    8.01    0.84
   3  -9  -7   11.10    0.99
   3   9  -7    8.20    1.51
   3   9  -7    9.61    0.81
  -3   9   7   11.12    0.93
  -3   9   7    8.55    0.64
  -3   9   7    9.63    0.63
   2  -9  -7   62.07    2.31
  -2  -9   7   66.96    2.35
   2  -9  -7   64.14    2.40
  -2  -9   7   63.44    2.98
  -2  -9   7   63.01    2.28
  -2  -9   7   64.88    2.72
  -2   9   7   63.30    2.24
  -2   9   7   67.65    2.52
   2   9  -7   67.58    3.49
  -2   9   7   63.69    2.14
   2   9  -7   62.92    2.14
  -1  -9   7   64.63    2.90
   1  -9  -7   65.64    2.38
   1  -9  -7   67.18    2.44
  -1  -9   7   66.30    2.34
   1  -9  -7   67.14    2.34
  -1  -9   7   65.56    2.64
  -1  -9   7   67.08    2.31
  -1   9   7   65.45    2.67
  -1   9   7   67.91    2.41
   1   9  -7   69.14    3.34
   1   9  -7   64.92    3.12
   1   9  -7   64.15    2.07
  -1   9   7   68.61    2.26
   0  -9   7   21.28    1.73
   0  -9  -7   21.66    1.00
   0  -9  -7   19.49    0.88
   0  -9   7   21.13    1.03
   0  -9  -7   21.10    1.26
   0  -9   7   19.77    0.92
   0  -9  -7   20.26    1.07
   0  -9   7   20.71    1.06
   0  -9   7   19.64    1.21
   0  -9  -7   21.66    1.05
   0   9  -7   21.54    1.80
   0   9   7   19.23    1.00
   0   9   7   20.01    1.45
   0   9   7   22.58    1.68
   0   9  -7   21.98    1.60
   0   9   7   21.16    1.21
   0   9  -7   20.35    1.69
  -1  -9  -7   79.18    2.81
  -1  -9  -7   84.04    3.33
  -1  -9  -7   80.10    2.81
   1  -9   7   77.96    2.84
  -1  -9  -7   83.86    2.75
   1  -9   7   82.40    2.89
  -1  -9  -7   81.31    3.15
   1  -9   7   80.79    2.94
   1   9   7   82.01    3.59
  -1   9  -7   75.34    3.37
  -1   9  -7   80.84    3.02
   1   9   7   84.45    2.86
   1   9   7   78.20    3.45
   1   9   7   83.56    3.09
  -1   9  -7   84.48    3.22
  -2  -9  -7    6.89    0.72
  -2  -9  -7    8.04    0.79
  -2  -9  -7    8.21    1.14
   2  -9   7    7.35    0.81
   2  -9   7    7.90    0.92
  -2  -9  -7    6.73    1.19
   2   9   7    7.66    1.42
  -2   9  -7    7.43    1.18
   2   9   7    7.45    0.85
  -2   9  -7    6.64    0.93
   2   9   7    7.84    1.36
   2   9   7    8.70    1.07
  -3  -9  -7   27.87    2.00
  -3  -9  -7   26.27    2.51
  -3  -9  -7   26.36    1.29
  -3  -9  -7   28.42    1.46
   3   9   7   27.15    1.55
   3   9   7   29.68    2.82
  -3   9  -7   24.01    1.72
  -3   9  -7   25.02    1.46
   3   9   7   27.25    3.61
   3   9   7   27.92    1.94
  -4  -9  -7   21.05    2.51
  -4  -9  -7   23.18    1.26
  -4  -9  -7   20.98    2.17
   4  -9   7   23.98    1.50
  -4  -9  -7   21.99    1.82
   4   9   7   26.19    2.20
   4   9   7   22.34    2.77
  -4   9  -7   22.26    1.42
   4   9   7   26.15    2.93
  -5  -9  -7   -0.19    2.08
  -5  -9  -7   -2.65    1.28
  -5  -9  -7   -1.15    1.15
   5   9   7    0.68    1.48
   5   9   7   -2.07    3.21
  -6  -9  -7   22.29    3.48
  -6  -9  -7   16.64    2.45
  -6  -9  -7   13.30    1.58
   6   9   7    8.34    2.59
  -6   9  -7   13.45    1.71
   6   9   7   11.17    1.68
  -6 -10   7   20.22    2.08
  -6 -10   7   42.87    5.53
  -6 -10   7   23.42    2.97
   6  10  -7   20.02    3.55
   6  10  -7   28.54    2.28
  -5 -10   7   53.88    4.62
  -5 -10   7   51.87    3.27
   5 -10  -7   54.29    2.58
  -5 -10   7   55.16    2.53
  -5 -10   7   55.66    2.42
   5  10  -7   55.69    4.45
   5  10  -7   49.54    3.13
   4 -10  -7   16.73    1.36
  -4 -10   7   18.22    2.02
  -4 -10   7   15.58    1.38
  -4 -10   7   16.91    1.38
  -4 -10   7   23.49    2.57
   4  10  -7   13.41    2.19
  -4  10   7   18.90    1.16
   4  10  -7   21.71    1.32
  -3 -10   7   39.25    1.74
  -3 -10   7   40.16    2.29
   3 -10  -7   36.59    1.75
  -3 -10   7   37.28    2.74
  -3 -10   7   38.30    1.65
   3 -10  -7   35.03    1.70
   3  10  -7   38.75    1.61
  -3  10   7   35.96    1.68
   3  10  -7   36.78    2.94
  -3  10   7   38.60    1.42
  -2 -10   7    2.53    0.50
  -2 -10   7    1.97    0.77
   2 -10  -7    2.80    0.52
  -2 -10   7    2.32    0.45
  -2 -10   7    1.55    0.95
   2 -10  -7    2.65    0.57
  -2  10   7    2.32    0.41
   2  10  -7    2.24    1.23
  -2  10   7    2.53    0.47
   2  10  -7    2.36    0.47
  -2  10   7    2.54    0.57
  -1 -10   7    7.55    0.96
   1 -10  -7    8.23    0.78
  -1 -10   7    8.31    0.73
   1 -10  -7    9.15    0.80
   1 -10  -7    6.96    0.95
  -1 -10   7    9.67    1.31
  -1 -10   7    9.27    0.74
   1  10  -7   10.03    1.56
  -1  10   7    9.06    0.71
  -1  10   7    9.30    0.84
  -1  10   7    7.98    1.04
   1  10  -7    7.88    0.51
  -1  10   7    7.66    1.09
   0 -10  -7   42.34    1.77
   0 -10  -7   41.18    1.71
   0 -10   7   42.97    1.54
   0 -10   7   41.66    1.60
   0 -10   7   41.10    1.91
   0 -10  -7   42.56    1.97
   0 -10  -7   45.77    2.13
   0 -10   7   44.28    2.42
   0 -10  -7   43.82    1.56
   0 -10  -7   40.35    1.65
   0 -10   7   43.25    1.76
   0  10   7   42.50    1.89
   0  10  -7   39.44    2.57
   0  10  -7   40.20    2.44
   0  10   7   42.78    2.50
   0  10   7   44.48    2.26
   0  10   7   43.99    1.70
  -1 -10  -7  121.05    3.97
  -1 -10  -7  121.01    4.48
  -1 -10  -7  118.37    3.98
  -1 -10  -7  122.09    4.34
   1 -10   7  123.13    4.02
   1 -10   7  116.96    4.00
  -1 -10  -7  117.90    3.83
  -1  10  -7  116.64    4.37
  -1  10  -7  117.16    4.67
   1  10   7  123.30    4.00
   1  10   7  120.42    4.27
   1  10   7  118.75    4.69
   1  10   7  119.68    4.88
  -2 -10  -7   38.14    2.29
  -2 -10  -7   39.20    2.69
  -2 -10  -7   42.11    1.74
   2 -10   7   39.29    1.84
  -2 -10  -7   41.43    1.70
  -2  10  -7   38.01    2.39
  -2  10  -7   36.58    2.10
   2  10   7   41.64    2.80
   2  10   7   41.83    2.96
   2  10   7   41.60    2.13
   2  10   7   39.71    1.84
  -3 -10  -7  108.24    4.37
  -3 -10  -7  104.89    3.61
  -3 -10  -7  108.64    3.78
  -3 -10  -7  100.26    4.79
   3  10   7  109.41    4.33
   3  10   7  114.33    5.16
   3  10   7  107.74    3.90
   3  10   7  109.61    5.27
  -4 -10  -7    9.87    1.60
  -4 -10  -7    9.55    1.12
  -4 -10  -7    9.88    2.15
  -4 -10  -7    9.58    1.08
   4  10   7    9.07    2.60
  -4  10  -7    8.80    0.90
   4  10   7   11.15    3.05
   4  10   7    9.77    2.48
  -5 -10  -7   40.74    2.28
  -5 -10  -7   37.71    3.06
   5  10   7   40.54    3.29
  -6 -11   7   -2.45    1.89
  -6 -11   7   -2.61    1.16
   6  11  -7    1.62    1.25
   6  11  -7    2.20    3.13
  -5 -11   7   23.61    4.50
  -5 -11   7   16.61    1.65
   5 -11  -7   14.68    1.45
  -5 -11   7   15.82    1.62
  -5 -11   7   15.54    2.05
   5  11  -7   17.60    3.11
   5  11  -7   14.02    1.70
  -5  11   7   15.88    2.30
  -4 -11   7   -0.02    2.03
  -4 -11   7    2.19    0.64
  -4 -11   7    0.94    0.62
  -4 -11   7    0.20    1.13
   4 -11  -7    1.33    0.73
   4  11  -7    2.32    1.77
   4  11  -7   -0.36    0.60
  -3 -11   7    8.27    1.31
   3 -11  -7    8.79    0.95
   3 -11  -7    8.85    1.03
  -3 -11   7   10.75    0.97
  -3 -11   7    7.36    1.50
  -3 -11   7   10.88    1.01
  -3  11   7    9.55    1.03
   3  11  -7    8.61    1.69
   3  11  -7    9.76    0.94
   2 -11  -7    8.54    0.98
  -2 -11   7    6.96    0.74
  -2 -11   7    6.48    1.35
   2 -11  -7    7.38    0.85
  -2 -11   7    7.53    0.81
  -2 -11   7    6.28    1.08
  -2  11   7    8.36    0.84
   2  11  -7    8.16    0.72
  -2  11   7    8.56    1.10
   2  11  -7    7.07    1.63
  -2  11   7    8.19    1.30
  -2  11   7    8.08    0.75
  -1 -11   7    4.10    1.28
   1 -11  -7    3.93    0.64
  -1 -11   7    1.28    0.44
  -1 -11   7    2.67    0.49
   1 -11  -7    2.73    0.54
  -1 -11   7    2.26    0.79
  -1  11   7    2.42    0.55
   1  11  -7    3.46    0.39
  -1  11   7    2.32    0.48
  -1  11   7    2.05    0.73
   1  11  -7    3.55    1.33
  -1  11   7    1.90    0.90
   0 -11   7    9.72    0.85
   0 -11  -7    9.21    0.81
   0 -11   7    7.77    0.62
   0 -11  -7    7.77    0.99
   0 -11  -7    7.57    0.82
   0 -11  -7    8.26    0.70
   0 -11   7    9.70    1.21
   0  11   7    7.81    0.97
   0  11   7    7.55    0.80
   0  11   7    7.40    1.31
   0  11   7    7.89    1.12
   0  11  -7    7.63    1.36
  -1 -11  -7   20.40    1.65
  -1 -11  -7   19.62    1.04
  -1 -11  -7   18.78    1.15
   1 -11   7   18.47    1.18
   1 -11   7   21.22    2.29
  -1 -11  -7   20.40    1.22
   1  11   7   19.05    2.11
   1  11   7   18.99    1.18
  -1  11  -7   17.29    2.01
   1  11   7   19.49    1.44
   1  11   7   18.73    1.91
  -2 -11  -7    1.40    0.53
  -2 -11  -7    1.30    0.45
  -2 -11  -7    0.54    1.35
   2 -11   7    2.08    0.54
  -2 -11  -7    1.22    0.97
  -2 -11  -7    2.13    0.58
   2  11   7    2.05    0.74
  -2  11  -7    2.49    1.21
   2  11   7    2.11    1.41
   2  11   7    1.04    0.54
   2  11   7    2.67    1.28
  -3 -11  -7   31.89    3.39
  -3 -11  -7   23.42    1.38
  -3 -11  -7   21.89    2.18
  -3 -11  -7   26.21    1.51
   3  11   7   23.02    1.61
   3  11   7   27.21    3.26
   3  11   7   26.00    2.00
   3  11   7   33.14    3.22
  -4 -11  -7    0.42    1.24
  -4 -11  -7   -1.07    0.66
   4  11   7   -0.11    2.45
   4  11   7   -0.39    1.19
   4  11   7    1.13    2.32
  -5 -11  -7   13.82    1.71
  -5 -11  -7   12.62    2.19
   5  11   7    9.18    2.05
   5  11   7   21.95    5.66
  -5 -12   7   33.31    2.07
   5 -12  -7   30.12    2.37
  -5 -12   7   28.00    2.00
  -5 -12   7   28.86    3.18
   5  12  -7   29.97    3.63
   5  12  -7   31.07    2.14
  -5  12   7   30.70    3.14
   4 -12  -7    3.78    0.95
  -4 -12   7    5.92    1.59
  -4 -12   7    6.34    0.94
  -4 -12   7    4.79    0.96
   4  12  -7    6.36    0.93
   4  12  -7    8.74    2.40
  -3 -12   7   28.85    1.62
  -3 -12   7   28.54    1.55
   3 -12  -7   27.63    1.68
   3 -12  -7   29.51    1.73
  -3 -12   7   29.28    2.37
   3  12  -7   30.99    1.52
  -3  12   7   28.56    1.61
  -3  12   7   31.07    2.67
   2 -12  -7    3.33    0.65
  -2 -12   7    4.95    1.13
  -2 -12   7    5.49    0.69
   2 -12  -7    4.64    0.77
  -2 -12   7    4.11    0.65
  -2  12   7    3.76    0.63
  -2  12   7    4.58    1.27
  -2  12   7    5.06    0.88
  -2  12   7    4.50    1.07
   2  12  -7    4.90    0.59
   2  12  -7    2.85    1.44
  -1 -12   7    0.73    0.45
   1 -12  -7    0.63    0.51
  -1 -12   7    0.09    0.45
   1 -12  -7    0.58    0.51
  -1 -12   7    0.60    0.87
  -1  12   7   -0.59    0.51
  -1  12   7   -0.03    0.44
  -1  12   7   -1.39    0.59
   1  12  -7   -0.32    0.34
  -1  12   7    0.07    0.98
   1  12  -7    0.37    1.24
   0 -12  -7   28.52    1.84
   0 -12  -7   26.60    1.47
   0 -12  -7   26.18    1.43
   0 -12   7   26.94    1.44
   0 -12   7   28.08    1.81
   0  12   7   27.23    1.62
   0  12  -7   28.79    2.58
   0  12   7   26.78    2.39
   0  12   7   24.15    1.93
   0  12   7   25.38    1.38
  -1 -12  -7   50.59    2.64
  -1 -12  -7   52.17    1.94
   1 -12   7   49.28    2.16
  -1 -12  -7   53.18    2.17
  -1 -12  -7   53.09    2.18
   1  12   7   53.90    3.02
   1  12   7   50.58    2.44
   1  12   7   52.39    3.41
   1  12   7   48.91    2.15
  -1  12  -7   52.89    3.21
   2 -12   7   18.58    1.35
  -2 -12  -7   18.52    2.10
  -2 -12  -7   19.58    1.34
  -2 -12  -7   19.19    1.28
  -2 -12  -7   21.86    1.27
  -2  12  -7   17.87    2.46
   2  12   7   20.00    1.44
   2  12   7   20.74    2.46
   2  12   7   20.74    1.70
   2  12   7   20.19    2.53
  -3 -12  -7   73.61    2.97
  -3 -12  -7   76.60    2.81
  -3 -12  -7   74.68    3.67
   3  12   7   74.76    4.74
   3  12   7   71.53    3.09
   3  12   7   70.24    3.50
   3  12   7   68.91    4.38
  -4 -12  -7    1.10    1.54
  -4 -12  -7   -0.86    0.76
  -4 -12  -7    3.00    0.91
   4  12   7    3.04    2.69
   4  12   7    1.35    1.34
   4  12   7   -2.40    2.67
  -5 -12  -7   31.10    3.34
  -5 -12  -7   28.70    2.24
  -5 -12  -7   33.72    2.44
   5  12   7   36.28    3.73
  -5 -13   7   -0.20    1.10
  -5 -13   7    3.18    2.04
   5  13  -7    4.22    2.79
   4 -13  -7   20.51    1.84
  -4 -13   7   26.07    1.82
  -4 -13   7   22.75    2.44
  -4 -13   7   24.68    1.77
   4  13  -7   30.32    3.61
  -4  13   7   26.75    2.90
   4  13  -7   24.75    1.73
  -3 -13   7   11.26    1.36
   3 -13  -7   10.63    1.29
  -3 -13   7   10.57    1.15
   3 -13  -7   11.33    1.44
  -3 -13   7   10.15    1.71
  -3  13   7   10.59    1.15
   3  13  -7   11.39    2.52
   3  13  -7    9.54    1.18
   2 -13  -7   78.34    3.04
  -2 -13   7   78.43    2.86
  -2 -13   7   79.24    2.95
   2 -13  -7   76.22    3.07
  -2 -13   7   80.05    3.65
  -2  13   7   74.32    3.21
   2  13  -7   77.03    4.64
   2  13  -7   80.52    2.69
  -2  13   7   80.68    3.51
  -2  13   7   70.96    4.06
  -1 -13   7   65.15    3.02
   1 -13  -7   65.83    2.60
   1 -13  -7   63.75    2.64
  -1 -13   7   64.95    2.34
  -1 -13   7   62.36    2.54
   1  13  -7   66.42    4.06
  -1  13   7   63.36    3.05
  -1  13   7   60.47    3.63
  -1  13   7   65.45    2.60
  -1  13   7   64.34    2.44
   0 -13   7   40.12    1.93
   0 -13  -7   45.44    1.98
   0 -13  -7   43.14    2.00
   0  13   7   44.17    1.92
   0  13  -7   43.42    3.18
   0  13   7   39.42    2.57
   0  13   7   42.96    2.17
   0  13   7   42.09    3.13
  -1 -13  -7   64.83    2.60
  -1 -13  -7   65.95    2.59
  -1 -13  -7   62.63    2.26
   1 -13   7   60.06    2.57
  -1 -13  -7   66.38    3.13
  -1  13  -7   64.84    3.86
   1  13   7   60.79    3.46
   1  13   7   62.96    2.91
   1  13   7   64.94    4.00
   1  13   7   63.55    2.59
  -2 -13  -7   -0.30    0.58
   2 -13   7    0.48    0.64
  -2 -13  -7   -1.87    1.26
  -2 -13  -7   -0.12    0.54
   2  13   7    0.05    0.61
  -2  13  -7    0.38    1.56
   2  13   7    0.50    0.89
   2  13   7   -0.07    1.36
   2  13   7    4.66    2.39
  -3 -13  -7   10.66    1.27
  -3 -13  -7   10.71    1.93
  -3 -13  -7   11.48    1.25
  -3 -13  -7   10.30    1.11
   3  13   7    9.22    1.47
   3  13   7   10.62    1.24
   3  13   7   13.17    2.71
   3  13   7   11.67    2.22
  -4 -13  -7    7.52    1.19
  -4 -13  -7    7.46    1.18
  -4 -13  -7    9.18    2.12
   4  13   7    7.99    3.36
   4  13   7    6.43    1.71
   4  13   7    5.87    3.41
  -4 -14   7    0.99    1.98
  -4 -14   7    1.06    0.98
  -4 -14   7    1.79    0.92
   4 -14  -7   -0.02    1.01
   4  14  -7    3.66    2.56
  -4  14   7    3.30    2.38
  -3 -14   7   13.19    2.04
  -3 -14   7   11.02    1.37
  -3 -14   7   11.43    1.44
   3 -14  -7   12.63    1.47
   3  14  -7   10.47    2.68
  -3  14   7   11.68    2.35
  -3  14   7   13.03    1.58
   2 -14  -7    4.12    0.95
  -2 -14   7    2.46    1.32
   2 -14  -7    2.49    0.76
  -2 -14   7    3.71    1.82
  -2 -14   7    2.21    0.76
  -2  14   7    3.24    1.01
   2  14  -7    4.75    2.20
  -2  14   7    2.15    1.57
  -2  14   7    3.60    0.79
  -1 -14   7   28.45    1.49
   1 -14  -7   31.10    1.76
  -1 -14   7   32.12    1.75
   1 -14  -7   32.62    1.80
  -1  14   7   32.57    1.69
  -1  14   7   26.34    2.60
   1  14  -7   30.03    3.41
  -1  14   7   31.29    1.82
  -1  14   7   34.48    4.42
   0 -14  -7    1.71    0.66
   0 -14  -7    1.14    0.80
   0 -14   7    0.32    0.69
   0  14  -7    0.48    1.62
   0  14   7    3.48    2.76
   0  14   7    0.87    1.45
   0  14   7    0.59    0.80
   0  14   7    0.88    0.65
   1 -14   7   13.75    1.26
  -1 -14  -7   12.41    1.10
  -1 -14  -7   13.14    1.27
  -1  14  -7   16.60    2.33
   1  14   7   13.43    1.61
   1  14   7   11.61    1.80
   1  14   7   10.27    2.06
   1  14   7   12.88    1.37
  -2 -14  -7    0.35    0.66
  -2 -14  -7   -0.69    0.76
   2 -14   7    0.07    0.71
  -2 -14  -7    1.14    0.68
   2  14   7    0.65    1.42
  -2  14  -7   -0.94    1.90
   2  14   7   -0.78    0.73
   2  14   7    1.86    1.99
   2  14   7    0.22    0.96
  -3 -14  -7    0.55    1.87
  -3 -14  -7   -0.24    0.77
  -3 -14  -7    1.51    0.87
  -3 -14  -7   -1.23    1.02
   3  14   7   -2.45    2.00
   3  14   7    1.03    2.53
   3  14   7    0.61    1.24
  -4 -14  -7   -0.36    0.99
  -4 -14  -7    1.54    0.97
  -4 -14  -7    3.29    2.20
   4  14   7   -1.05    3.32
   4  14   7    2.23    1.63
   4  14   7   -0.01    3.47
   4 -15  -7    4.48    1.65
  -4 -15   7    0.82    3.42
  -4 -15   7    4.83    1.19
  -4 -15   7    5.31    1.18
   4  15  -7    5.94    3.12
  -4  15   7    3.08    2.81
  -3 -15   7   56.84    2.69
   3 -15  -7   58.50    2.92
  -3 -15   7   61.44    2.72
   3 -15  -7   57.33    2.84
   3  15  -7   50.84    5.14
  -3  15   7   56.93    2.74
  -3  15   7   62.48    4.71
  -2 -15   7    3.34    0.91
   2 -15  -7    2.41    0.84
   2 -15  -7    4.01    1.04
  -2 -15   7    2.23    0.81
  -2  15   7    1.68    1.08
   2  15  -7    4.49    2.32
  -2  15   7    0.17    1.70
   1 -15  -7   89.96    3.50
   1 -15  -7   85.59    3.41
  -1 -15   7   88.16    3.43
  -1  15   7   92.40    4.99
  -1  15   7   88.62    3.45
   1  15  -7   86.77    5.41
  -1  15   7   82.20    4.04
   0 -15  -7    1.28    0.70
   0 -15   7    0.37    0.73
   0 -15  -7   -0.26    0.76
   0  15  -7    0.47    2.51
   0  15   7    1.45    0.82
   0  15   7    4.06    1.44
   0  15   7    1.19    0.90
   0  15   7   -0.06    1.71
  -1 -15  -7   43.36    2.18
   1 -15   7   37.62    2.13
  -1 -15  -7   42.98    2.14
   1  15   7   39.87    2.70
  -1  15  -7   32.75    3.85
   1  15   7   40.08    3.82
   1  15   7   39.18    3.19
   1  15   7   44.06    2.63
  -2 -15  -7    5.59    1.02
  -2 -15  -7    6.10    0.97
  -2 -15  -7    5.46    0.98
   2 -15   7    3.24    0.95
  -2  15  -7   11.38    2.56
   2  15   7    5.12    1.05
   2  15   7    8.28    2.55
   2  15   7    4.55    1.37
   2  15   7    4.40    1.96
  -3 -15  -7    1.47    0.99
  -3 -15  -7   -0.63    0.95
  -3 -15  -7   -0.07    0.99
   3  15   7    1.17    2.60
   3  15   7    0.15    1.36
   3  15   7    2.40    2.94
   3 -16  -7   10.80    1.61
  -3 -16   7    9.37    1.35
   3 -16  -7    8.11    1.22
  -3 -16   7    4.71    1.23
   3  16  -7    9.67    3.12
  -3  16   7    8.28    2.86
   2 -16  -7    2.44    1.12
   2 -16  -7    0.11    0.91
  -2 -16   7    1.21    0.87
   2  16  -7    1.34    2.49
  -2  16   7    1.23    1.24
  -2  16   7   -2.87    2.17
   1 -16  -7    6.47    1.19
  -1 -16   7    3.83    0.93
   1 -16  -7    3.70    0.91
  -1  16   7    7.65    2.39
  -1  16   7    3.54    1.36
   1  16  -7    3.15    2.49
  -1  16   7    4.00    1.13
   0 -16  -7   15.58    1.68
   0 -16   7   13.37    1.61
   0 -16  -7   11.20    1.26
   0  16   7   13.35    1.55
   0  16  -7   11.19    2.76
   0  16   7   13.39    2.59
   0  16   7   11.44    1.90
   0  16   7   15.88    1.79
  -1 -16  -7    1.44    0.91
   1 -16   7    1.77    0.89
  -1 -16  -7   -0.73    0.80
   1  16   7    1.59    1.20
   1  16   7    3.57    2.41
   1  16   7    0.99    1.04
  -1  16  -7   -0.19    2.45
   1  16   7   -1.32    1.50
   2 -16   7   30.91    2.27
  -2 -16  -7   34.23    2.20
  -2 -16  -7   36.83    2.27
   2  16   7   35.00    3.69
   2  16   7   26.01    3.80
   2  16   7   31.48    2.79
  -3 -16  -7    8.27    1.41
   3  16   7    3.90    3.61
   3  16   7   10.15    2.00
   3  16   7   12.81    3.15
  -2 -17   7    7.20    1.24
   2 -17  -7    5.46    1.14
   2 -17  -7    4.95    1.39
   2  17  -7   14.40    3.31
  -2  17   7    6.50    1.57
  -2  17   7    3.95    2.82
   1 -17  -7    2.35    1.22
  -1 -17   7    4.04    1.14
   1 -17  -7    0.17    0.89
  -1  17   7    3.26    2.55
  -1  17   7    3.37    1.53
   1  17  -7    3.28    2.79
   0 -17   7    0.85    0.99
   0 -17  -7    1.82    1.08
   0 -17  -7   -0.54    0.95
   0  17   7    0.51    2.42
   0  17   7   -1.81    1.52
   0  17   7    1.08    1.32
   0  17  -7    0.88    2.83
  -1 -17  -7   15.86    1.95
  -1 -17  -7   13.34    1.47
   1 -17   7   14.16    1.81
   1  17   7   15.27    3.26
   1  17   7   14.81    1.86
  -1  17  -7   15.28    3.67
   1  17   7   14.04    2.28
  -2 -17  -7    3.17    1.19
   2 -17   7    2.11    1.32
  -2 -17  -7    2.21    1.17
   2  17   7    2.89    1.69
   2  17   7    5.75    2.52
   2  17   7    3.12    3.22
   1 -18  -7    6.39    1.30
   1 -18  -7    6.76    1.51
  -1 -18   7    5.66    1.37
  -1  18   7   10.01    2.02
  -1  18   7    2.44    3.19
   1  18  -7    4.47    3.33
   0 -18  -7    0.33    1.20
   0 -18   7    2.30    1.23
   0 -18  -7    0.51    1.11
   0  18   7    0.47    2.89
   0  18  -7    3.41    3.34
   0  18   7    0.65    1.97
   7   0  -8   -0.01    0.95
  -7   0   8    0.07    1.70
  -7   0   8    0.28    1.12
  -7   0   8   -1.59    1.25
  -6   0   8   33.73    1.91
   6   0  -8   34.47    1.95
  -6   0   8   31.87    2.64
  -6   0   8   35.15    2.26
  -5   0   8    0.10    0.45
  -5   0   8   -0.90    0.73
  -5   0   8    0.69    0.60
   5   0  -8    0.38    0.48
  -4   0   8  217.47    6.06
  -4   0   8  198.21    6.35
   4   0  -8  208.55    6.08
  -4   0   8  208.52    6.96
  -4   0   8  204.31    6.66
   4   0  -8  206.08    6.46
   3   0  -8   -0.55    0.34
  -3   0   8   -0.08    0.33
  -3   0   8    0.33    0.20
  -3   0   8   -0.13    0.42
   3   0  -8    0.19    0.18
   3   0  -8    0.25    0.24
  -2   0   8  411.73   12.36
  -2   0   8  414.56   12.57
   2   0  -8  440.59   12.13
   2   0  -8  402.94   12.13
  -2   0   8  408.38   12.13
  -1   0   8   -0.06    0.29
  -1   0   8    0.04    0.25
  -1   0   8    0.00    0.19
  -1   0   8    0.01    0.17
   1   0  -8    0.24    0.18
   1   0  -8    0.16    0.26
   1   0  -8    0.27    0.47
   0   0   8  151.96    4.80
   0   0   8  154.52    4.98
   0   0  -8  158.02    5.19
   0   0  -8  151.65    4.80
   0   0  -8  160.23    4.98
   0   0  -8  166.18    4.67
   0   0   8  155.13    5.21
   0   0   8  163.96    4.73
   0   0   8  161.58    5.11
   1   0   8    0.19    0.25
   1   0   8   -0.52    0.36
   1   0   8    0.18    0.26
  -1   0  -8   -0.18    0.47
   1   0   8    0.07    0.37
  -1   0  -8    0.66    0.40
   2   0   8   86.91    3.10
   2   0   8   94.04    2.89
   2   0   8   91.00    2.84
  -2   0  -8   88.23    3.37
   2   0   8   88.26    3.36
   2   0   8   86.78    2.90
   3   0   8    0.53    0.73
   3   0   8    0.55    0.53
   3   0   8    0.18    0.28
   3   0   8   -0.01    0.28
  -3   0  -8    0.46    0.80
  -4   0  -8  179.29    6.09
   4   0   8  175.96    5.96
   4   0   8  176.19    5.64
   4   0   8  177.27    5.50
  -5   0  -8    0.38    0.85
  -5   0  -8   -0.77    0.96
   5   0   8    0.47    0.62
   5   0   8    2.11    1.60
  -6   0  -8   56.96    3.74
   6   0   8   58.93    2.75
  -6   0  -8   56.07    3.18
  -6   0  -8   53.63    2.80
   7  -1  -8    4.83    1.14
  -7  -1   8    9.96    2.05
  -7  -1   8    2.48    1.38
  -7  -1   8    5.52    1.31
  -7   1   8    5.20    1.40
  -7   1   8    5.25    1.78
   7   1  -8    5.90    1.24
  -6  -1   8   19.38    1.51
  -6  -1   8   21.21    1.90
  -6  -1   8   19.20    2.43
   6  -1  -8   19.77    1.57
   6   1  -8   20.50    1.55
  -6   1   8   18.05    2.26
  -6   1   8   21.08    1.52
  -6   1   8   16.34    1.96
  -5  -1   8   -0.22    0.83
   5  -1  -8    0.08    0.42
  -5  -1   8   -0.07    0.67
  -5  -1   8    0.37    0.50
  -5   1   8   -0.04    0.44
  -5   1   8    1.52    0.76
  -5   1   8   -0.07    0.57
   5   1  -8    0.70    0.45
   4  -1  -8   35.89    1.59
  -4  -1   8   35.92    1.26
  -4  -1   8   34.03    2.06
  -4  -1   8   35.14    1.78
   4  -1  -8   36.36    1.27
  -4  -1   8   36.35    1.51
  -4   1   8   36.31    2.05
  -4   1   8   36.87    1.20
  -4   1   8   36.36    1.47
   4   1  -8   34.87    1.17
   4   1  -8   35.65    1.56
  -4   1   8   35.94    1.72
  -4   1   8   33.98    1.97
   3  -1  -8   32.22    1.33
   3  -1  -8   32.39    1.22
   3  -1  -8   30.90    1.17
  -3  -1   8   32.17    0.98
  -3  -1   8   30.07    1.68
  -3  -1   8   34.41    1.54
  -3  -1   8   34.75    1.02
  -3  -1   8   28.91    1.26
  -3   1   8   30.01    1.61
   3   1  -8   32.26    1.30
   3   1  -8   32.15    1.14
  -3   1   8   29.62    1.32
  -3   1   8   31.67    1.47
  -2  -1   8   27.53    1.47
   2  -1  -8   22.11    1.21
  -2  -1   8   23.10    1.13
  -2  -1   8   25.01    1.05
   2  -1  -8   25.76    1.01
  -2  -1   8   27.19    1.26
   2  -1  -8   27.04    1.04
   2   1  -8   25.66    1.01
   2   1  -8   27.73    1.22
  -2   1   8   25.27    1.03
  -2   1   8   25.67    1.37
  -2   1   8   25.27    1.21
  -1  -1   8   85.38    2.70
   1  -1  -8   83.13    2.67
  -1  -1   8   82.66    2.87
  -1  -1   8   80.78    3.04
  -1  -1   8   87.77    2.58
  -1   1   8   83.77    2.86
   1   1  -8   80.71    2.59
  -1   1   8   83.03    2.65
   1   1  -8   82.21    2.70
  -1   1   8   83.69    3.05
  -1   1   8   81.94    2.68
   1   1  -8   85.73    2.46
   0  -1  -8    8.05    0.75
   0  -1   8    9.53    0.45
   0  -1  -8    8.80    0.61
   0  -1   8    9.84    1.01
   0  -1  -8   10.74    1.06
   0  -1   8    8.87    0.68
   0  -1   8    9.24    0.56
   0   1   8    8.22    0.54
   0   1   8    9.11    0.86
   0   1  -8   10.04    0.47
   0   1   8   10.12    0.60
   0   1   8    8.84    0.68
   0   1  -8    8.52    0.72
   0   1  -8    9.79    0.99
   1  -1   8   41.96    1.91
   1  -1   8   41.60    1.71
   1  -1   8   41.31    1.54
  -1  -1  -8   43.81    1.98
   1  -1   8   46.72    1.77
  -1   1  -8   42.88    1.76
   1   1   8   45.15    1.97
   1   1   8   40.47    1.71
  -1   1  -8   47.13    1.56
  -1   1  -8   40.96    1.92
   2  -1   8   55.87    1.94
   2  -1   8   54.59    1.87
   2  -1   8   54.36    2.35
   2  -1   8   55.69    2.13
  -2  -1  -8   59.89    2.52
   2   1   8   55.20    2.47
  -2   1  -8   57.17    2.42
   2   1   8   54.23    2.18
   2   1   8   54.41    1.97
   2   1   8   56.48    2.01
  -2   1  -8   58.99    2.22
   3  -1   8   -0.25    0.45
   3  -1   8    0.34    0.30
   3  -1   8    0.11    0.28
  -3  -1  -8    0.74    0.86
   3  -1   8    1.00    0.69
  -3   1  -8   -0.92    0.78
   3   1   8   -0.05    0.29
   3   1   8   -0.50    0.52
   3   1   8    0.23    0.40
   3   1   8    0.90    0.77
  -4  -1  -8   31.55    1.87
   4  -1   8   24.97    1.61
   4  -1   8   25.53    1.35
   4   1   8   24.99    1.40
  -4   1  -8   26.23    1.73
   4   1   8   24.70    1.72
   4   1   8   26.50    1.32
   4   1   8   30.86    2.61
   5  -1   8    5.13    0.78
  -5  -1  -8    5.62    1.37
  -5  -1  -8    5.63    1.07
  -5   1  -8    4.16    0.99
   5   1   8    3.99    0.79
   5   1   8    4.97    1.35
  -6  -1  -8    7.52    1.51
   6  -1   8    6.80    1.12
  -6  -1  -8    6.26    1.72
  -6  -1  -8    8.31    1.23
  -6   1  -8    6.63    1.63
  -6   1  -8    6.25    1.21
  -6   1  -8    4.85    1.30
   6   1   8    6.62    1.09
  -7  -2   8    4.67    1.53
  -7  -2   8    6.40    1.97
   7  -2  -8    6.01    1.19
  -7  -2   8    6.86    1.36
  -7   2   8    2.85    1.63
   7   2  -8    4.76    1.16
  -7   2   8    4.17    1.35
  -6  -2   8    4.91    1.22
  -6  -2   8    6.29    0.96
  -6  -2   8    8.85    1.56
   6  -2  -8    5.75    0.94
  -6   2   8    6.18    1.31
  -6   2   8    8.16    1.01
   6   2  -8    7.40    1.02
   5  -2  -8   24.63    1.44
  -5  -2   8   22.40    2.11
  -5  -2   8   23.50    1.64
  -5  -2   8   24.30    1.45
  -5   2   8   23.00    1.86
   5   2  -8   24.31    1.42
  -5   2   8   22.99    1.51
  -5   2   8   24.55    1.29
  -4  -2   8   43.92    1.76
   4  -2  -8   42.17    1.53
  -4  -2   8   44.44    2.05
   4  -2  -8   42.21    1.81
  -4  -2   8   44.90    2.35
  -4  -2   8   40.28    3.00
  -4  -2   8   42.68    1.45
   4   2  -8   43.82    1.35
  -4   2   8   44.62    1.42
  -4   2   8   44.38    1.70
  -4   2   8   45.50    2.17
  -4   2   8   42.24    2.88
   4   2  -8   43.72    1.77
  -4   2   8   41.56    1.88
  -3  -2   8   30.26    1.00
   3  -2  -8   30.96    1.10
  -3  -2   8   31.94    1.28
   3  -2  -8   29.79    1.17
  -3  -2   8   32.00    1.54
   3  -2  -8   31.98    1.34
  -3  -2   8   28.76    1.70
   3   2  -8   26.71    1.86
   3   2  -8   31.08    1.25
  -3   2   8   30.79    1.23
  -3   2   8   30.61    1.40
  -3   2   8   31.03    1.59
  -2  -2   8   89.20    2.92
   2  -2  -8   88.40    2.93
   2  -2  -8   94.59    3.04
  -2  -2   8   93.33    3.22
   2  -2  -8   99.85    2.89
  -2  -2   8   95.42    2.72
  -2  -2   8   92.61    2.99
  -2   2   8   91.72    3.14
   2   2  -8   91.38    3.52
  -2   2   8   92.67    2.93
   2   2  -8   94.29    2.91
  -2   2   8   87.51    3.28
   1  -2  -8    5.64    0.49
   1  -2  -8    5.07    0.24
  -1  -2   8    4.90    0.29
  -1  -2   8    5.00    0.33
  -1  -2   8    5.16    0.46
  -1  -2   8    4.15    0.53
  -1  -2   8    3.67    0.59
  -1   2   8    5.71    0.76
   1   2  -8    5.29    0.74
  -1   2   8    6.34    0.46
   1   2  -8    3.33    0.60
  -1   2   8    4.55    0.55
   1   2  -8    5.68    0.32
   1   2  -8    4.55    0.32
  -1   2   8    5.10    0.52
   0  -2  -8   56.83    2.01
   0  -2   8   63.33    1.81
   0  -2   8   58.35    2.20
   0  -2   8   59.13    2.41
   0  -2   8   58.01    2.01
   0  -2  -8   59.15    2.44
   0  -2   8   59.24    2.45
   0   2  -8   59.62    2.21
   0   2  -8   64.34    1.93
   0   2  -8   61.60    2.43
   0   2   8   60.22    2.18
   0   2   8   58.18    2.38
   0   2   8   60.04    2.03
   1  -2   8   70.07    2.79
   1  -2   8   71.67    2.42
   1  -2   8   78.31    2.68
  -1  -2  -8   76.74    2.90
   1  -2   8   70.94    2.61
  -1   2  -8   77.97    2.86
  -1   2  -8   77.67    2.65
   1   2   8   75.91    2.48
   1   2   8   72.44    2.88
   1   2   8   71.67    2.64
  -2  -2  -8    1.13    0.69
   2  -2   8    1.70    0.32
   2  -2   8    2.01    0.29
   2  -2   8    1.76    0.55
   2  -2   8    1.81    0.45
  -2   2  -8    2.24    0.54
   2   2   8    1.59    0.46
   2   2   8    1.20    0.45
  -2   2  -8    1.18    0.57
   2   2   8    1.49    0.34
   2   2   8    1.98    0.65
  -3  -2  -8   63.54    2.73
   3  -2   8   65.09    2.19
   3  -2   8   69.97    2.82
   3  -2   8   65.16    2.49
   3  -2   8   64.99    2.26
  -3   2  -8   65.66    2.90
   3   2   8   66.28    2.65
   3   2   8   66.80    3.05
   3   2   8   62.06    2.45
  -3   2  -8   66.95    2.60
   3   2   8   64.74    2.36
  -4  -2  -8    9.11    1.18
   4  -2   8    9.57    1.20
   4  -2   8    9.98    0.89
   4   2   8    7.88    1.08
   4   2   8    9.40    1.01
  -4   2  -8   10.32    1.19
   4   2   8    7.57    1.60
   4   2   8   10.43    0.93
   5  -2   8   28.00    1.62
  -5  -2  -8   28.03    2.60
  -5  -2  -8   29.45    1.63
  -5  -2  -8   25.66    2.02
  -5  -2  -8   28.25    1.47
   5   2   8   29.28    1.73
  -5   2  -8   23.35    1.89
   5   2   8   28.90    2.39
  -6  -2  -8   18.22    2.28
  -6  -2  -8   14.99    1.91
  -6  -2  -8   20.32    1.88
   6  -2   8   18.64    1.78
   6   2   8   19.02    1.82
  -6   2  -8   18.44    2.24
  -6   2  -8   16.87    1.85
  -7  -3   8    3.53    1.49
   7  -3  -8    1.00    1.06
  -7  -3   8    2.06    1.22
  -7  -3   8    1.91    1.94
  -7   3   8    3.04    1.37
   7   3  -8    1.01    1.00
  -7   3   8    1.06    1.51
  -6  -3   8   27.45    2.21
  -6  -3   8   22.63    2.75
   6  -3  -8   23.99    1.74
  -6   3   8   25.11    1.85
  -6   3   8   21.99    2.29
  -6   3   8   26.94    1.66
   6   3  -8   22.94    1.68
  -5  -3   8    0.40    0.45
  -5  -3   8    0.39    0.75
  -5  -3   8    1.40    1.04
   5  -3  -8    0.59    0.40
   5  -3  -8    0.68    0.50
  -5  -3   8    1.60    0.55
   5   3  -8    0.33    0.44
  -5   3   8    1.39    0.71
  -5   3   8    0.60    0.60
  -5   3   8    1.18    0.51
   4  -3  -8    1.01    0.42
   4  -3  -8    0.89    0.33
  -4  -3   8    0.87    0.75
  -4  -3   8    0.86    0.58
  -4  -3   8    0.51    0.36
  -4  -3   8    0.43    0.26
  -4   3   8    0.45    0.53
  -4   3   8    0.82    0.46
   4   3  -8    0.44    0.34
  -4   3   8   -0.18    0.90
   4   3  -8   -0.05    0.87
  -4   3   8    0.80    0.36
  -3  -3   8    0.68    0.41
  -3  -3   8    0.60    0.48
   3  -3  -8    0.84    0.30
  -3  -3   8    0.91    0.28
  -3  -3   8    0.78    0.19
   3  -3  -8    0.61    0.34
   3   3  -8    0.53    0.27
  -3   3   8    0.73    0.27
  -3   3   8    0.24    0.37
   3   3  -8    0.82    0.75
  -3   3   8    0.96    0.34
  -2  -3   8   88.52    3.13
   2  -3  -8   90.85    2.97
   2  -3  -8   96.11    2.73
  -2  -3   8   92.69    2.91
  -2  -3   8   85.36    3.64
  -2  -3   8   83.16    2.66
   2   3  -8   88.51    2.77
  -2   3   8   87.73    2.82
   2   3  -8   90.52    3.51
  -2   3   8   83.95    3.16
  -2   3   8   87.50    3.00
  -1  -3   8   28.90    1.38
  -1  -3   8   30.41    1.04
  -1  -3   8   32.55    1.02
   1  -3  -8   30.78    0.99
  -1  -3   8   29.89    1.55
   1  -3  -8   30.88    1.15
  -1   3   8   26.68    1.49
   1   3  -8   32.03    1.06
  -1   3   8   29.46    1.16
  -1   3   8   28.53    1.39
   1   3  -8   27.75    1.87
   1   3  -8   31.68    1.02
   0  -3   8  310.37    9.32
   0  -3   8  309.30    9.07
   0  -3   8  301.53    9.27
   0  -3   8  292.78    8.75
   0  -3   8  284.21    8.83
   0  -3  -8  305.10    8.83
   0   3  -8  307.90    9.27
   0   3  -8  301.99    8.75
   0   3   8  283.48    8.82
   0   3  -8  309.58    9.05
   0   3   8  299.90    9.24
   0   3  -8  287.91    9.12
   1  -3   8   87.22    2.56
   1  -3   8   83.57    3.13
   1  -3   8   85.91    2.97
   1  -3   8   90.38    3.07
   1  -3   8   79.12    2.74
   1   3   8   85.29    2.83
   1   3   8   88.94    3.41
  -1   3  -8   87.10    3.19
  -1   3  -8   90.75    3.00
   1   3   8   87.12    3.30
   2  -3   8  192.57    5.80
   2  -3   8  193.15    6.06
   2  -3   8  192.38    5.73
   2   3   8  184.67    6.49
   2   3   8  186.47    6.17
   2   3   8  191.68    6.16
  -2   3  -8  200.85    6.11
  -2   3  -8  197.20    6.34
   2   3   8  204.13    5.98
  -3  -3  -8    6.05    0.87
   3  -3   8    4.69    0.93
   3  -3   8    4.59    0.68
   3  -3   8    5.20    0.50
   3  -3   8    5.23    0.58
   3   3   8    5.43    0.89
  -3   3  -8    5.52    0.85
   3   3   8    5.76    0.68
  -3   3  -8    4.46    0.94
   3   3   8    4.98    0.76
   3   3   8    5.39    1.08
  -4  -3  -8   18.69    0.99
   4  -3   8   19.54    1.14
  -4  -3  -8   17.35    1.96
   4  -3   8   20.11    1.44
  -4  -3  -8   18.94    1.57
   4   3   8   21.46    2.58
   4   3   8   18.99    1.61
   4   3   8   20.63    1.24
   4   3   8   19.65    1.58
   5  -3   8    5.63    0.86
  -5  -3  -8    3.85    1.39
  -5  -3  -8    4.52    0.80
  -5  -3  -8    4.41    1.35
   5   3   8    5.65    0.96
  -5   3  -8    5.89    1.07
   5   3   8    6.57    1.44
  -6  -3  -8    5.46    1.42
  -6  -3  -8    6.29    1.78
   6  -3   8    8.17    1.22
  -6  -3  -8    9.07    1.28
   6   3   8    8.34    1.33
  -6   3  -8    5.84    1.27
  -6   3  -8    5.43    1.53
  -7  -4   8    0.93    1.18
   7  -4  -8    0.68    1.13
  -7  -4   8   -1.34    1.43
  -7  -4   8   -2.62    2.03
  -7   4   8    0.83    1.47
   7   4  -8    2.28    1.06
  -6  -4   8    6.95    1.04
  -6  -4   8    5.41    1.22
  -6  -4   8    7.02    1.77
   6  -4  -8    5.83    1.01
  -6   4   8    6.46    1.05
  -6   4   8    7.15    1.27
   6   4  -8    6.31    0.97
  -5  -4   8    6.20    0.78
  -5  -4   8    5.78    1.05
   5  -4  -8    6.25    0.65
  -5  -4   8    5.84    0.72
   5  -4  -8    5.94    0.80
  -5  -4   8    6.03    1.38
  -5   4   8    6.62    0.84
  -5   4   8    7.32    0.88
   5   4  -8    8.02    0.97
  -5   4   8    7.63    1.10
   4  -4  -8    1.09    0.45
  -4  -4   8    1.36    0.91
  -4  -4   8    1.02    0.32
  -4  -4   8    0.83    0.39
  -4  -4   8    0.92    0.61
   4  -4  -8    0.92    0.36
   4   4  -8    1.91    1.03
   4   4  -8    1.24    0.38
  -4   4   8    0.07    0.52
  -4   4   8    0.28    0.42
  -4   4   8    1.00    0.45
  -3  -4   8    8.52    0.50
  -3  -4   8    8.13    0.90
  -3  -4   8    8.15    0.67
   3  -4  -8   10.38    0.79
  -3  -4   8    8.96    1.22
   3  -4  -8    8.93    0.64
  -3   4   8    8.04    0.58
   3   4  -8    7.59    0.60
   3   4  -8   11.06    1.41
  -3   4   8   10.19    0.89
   3   4  -8    8.37    0.63
  -3   4   8    9.18    0.72
  -2  -4   8   53.23    1.87
  -2  -4   8   52.76    1.67
   2  -4  -8   53.63    1.97
  -2  -4   8   49.89    2.32
  -2  -4   8   47.51    2.05
   2  -4  -8   52.44    1.84
   2  -4  -8   51.34    1.68
   2  -4  -8   53.20    1.61
  -2   4   8   50.63    1.77
   2   4  -8   51.20    1.72
  -2   4   8   51.49    1.92
  -2   4   8   52.22    2.14
   1  -4  -8    2.90    0.28
  -1  -4   8    3.04    0.31
   1  -4  -8    3.45    0.42
  -1  -4   8    3.46    0.66
  -1  -4   8    3.23    0.53
   1  -4  -8    3.83    0.43
  -1  -4   8    3.13    0.39
  -1   4   8    3.82    0.48
   1   4  -8    3.31    0.24
   1   4  -8    3.75    0.75
  -1   4   8    2.63    0.52
  -1   4   8    3.67    0.40
   1   4  -8    3.22    0.40
   1   4  -8    3.43    0.75
   0  -4   8  114.51    4.28
   0  -4   8  122.55    3.94
   0  -4  -8  116.83    3.74
   0  -4  -8  120.40    3.71
   0  -4   8  119.50    3.66
   0  -4   8  117.59    4.13
   0   4  -8  128.32    4.20
   0   4   8  105.13    4.28
   0   4  -8  126.58    3.97
   0   4  -8  119.70    3.67
   0   4   8  119.41    3.73
   0   4  -8  115.71    4.09
   0   4   8  118.76    3.89
   1  -4   8   10.20    0.77
  -1  -4  -8    9.93    0.63
   1  -4   8   10.08    1.05
   1  -4   8    9.66    0.58
   1  -4   8    8.76    0.96
  -1   4  -8    9.77    0.79
  -1   4  -8    8.97    0.86
   1   4   8   10.01    0.78
  -1   4  -8    8.77    1.03
   1   4   8    8.90    0.62
   1   4   8    9.49    1.08
   2  -4   8   63.75    2.14
   2  -4   8   66.35    2.42
   2  -4   8   64.61    2.09
   2  -4   8   72.12    2.65
  -2  -4  -8   67.45    2.28
   2   4   8   63.53    2.67
  -2   4  -8   67.42    2.51
  -2   4  -8   68.17    2.74
   2   4   8   66.73    2.97
   2   4   8   66.63    2.59
   2   4   8   67.54    2.37
  -3  -4  -8   19.53    1.44
   3  -4   8   19.44    1.18
   3  -4   8   20.10    1.58
   3  -4   8   19.00    0.93
  -3  -4  -8   18.05    0.94
   3  -4   8   18.73    0.74
   3   4   8   19.44    1.39
   3   4   8   19.90    2.00
  -3   4  -8   19.14    1.37
  -3   4  -8   18.22    1.60
   3   4   8   19.07    1.12
   3   4   8   16.48    1.64
  -4  -4  -8   -0.20    0.33
  -4  -4  -8   -0.11    0.88
   4  -4   8   -0.32    0.40
  -4  -4  -8    0.09    0.66
  -4  -4  -8    0.84    0.48
   4   4   8    1.62    0.85
   4   4   8   -2.32    1.35
   4   4   8    0.36    0.50
   4   4   8    0.62    1.03
  -5  -4  -8    2.23    1.36
   5  -4   8    2.09    0.69
  -5  -4  -8    3.10    1.86
  -5  -4  -8    3.84    0.81
   5   4   8    2.63    1.31
  -5   4  -8    3.19    0.90
   5   4   8    3.88    0.90
  -6  -4  -8   16.14    2.35
   6  -4   8   17.28    1.82
  -6  -4  -8   16.37    1.87
  -6  -4  -8   16.41    2.05
  -6   4  -8   13.81    1.80
  -6   4  -8   14.83    1.65
   6   4   8   22.18    2.03
  -7  -5   8    0.03    2.24
  -7  -5   8    1.27    1.14
   7  -5  -8   -0.39    1.18
  -7  -5   8    4.65    1.73
   7   5  -8    1.46    1.16
  -7   5   8    0.14    1.48
  -6  -5   8   25.81    3.25
  -6  -5   8   24.26    2.35
  -6  -5   8   24.09    1.79
   6  -5  -8   23.49    1.88
   6   5  -8   28.17    1.81
  -6   5   8   26.76    1.75
  -6   5   8   24.45    2.18
  -5  -5   8    0.32    1.19
  -5  -5   8   -0.07    0.44
   5  -5  -8    1.02    0.59
   5  -5  -8   -0.07    0.54
  -5  -5   8    0.57    0.78
  -5  -5   8    1.09    0.59
  -5   5   8    0.27    0.71
  -5   5   8   -0.38    0.50
   5   5  -8   -0.58    0.48
  -5   5   8    0.72    0.58
   5   5  -8    0.50    1.35
  -4  -5   8    6.81    1.14
  -4  -5   8    8.19    0.63
   4  -5  -8    7.36    0.74
  -4  -5   8    7.74    1.03
   4  -5  -8   10.20    0.98
  -4  -5   8    8.44    0.80
   4   5  -8   11.03    1.54
  -4   5   8    7.02    0.70
   4   5  -8    9.12    0.81
  -4   5   8    8.40    0.83
  -4   5   8    8.66    0.98
  -3  -5   8   16.02    1.53
   3  -5  -8   14.34    0.83
  -3  -5   8   13.97    0.87
   3  -5  -8   13.79    0.95
  -3  -5   8   15.45    1.18
  -3  -5   8   14.22    0.71
   3   5  -8   13.29    0.79
   3   5  -8   13.25    1.62
  -3   5   8   15.02    1.09
   3   5  -8   14.42    0.79
  -3   5   8   14.77    0.88
  -3   5   8   14.28    0.74
   2  -5  -8   38.74    1.31
  -2  -5   8   39.96    1.52
  -2  -5   8   41.54    1.79
   2  -5  -8   38.17    1.50
  -2  -5   8   37.14    2.01
  -2  -5   8   39.14    1.36
   2   5  -8   38.09    2.19
  -2   5   8   40.16    1.77
  -2   5   8   39.06    1.54
   2   5  -8   38.27    1.35
  -2   5   8   38.74    1.42
  -1  -5   8   82.19    3.19
   1  -5  -8   86.46    2.62
  -1  -5   8   84.36    2.75
   1  -5  -8   82.12    2.76
   1  -5  -8   82.17    2.61
  -1  -5   8   82.91    3.04
  -1  -5   8   84.25    2.65
   1   5  -8   88.59    3.31
   1   5  -8   84.07    2.49
   1   5  -8   84.67    3.34
   1   5  -8   82.48    2.69
  -1   5   8   83.61    2.69
  -1   5   8   84.84    2.84
  -1   5   8   81.26    3.05
   0  -5   8  143.38    4.58
   0  -5   8  151.55    4.83
   0  -5   8  147.33    4.57
   0  -5  -8  147.90    4.63
   0  -5  -8  147.00    4.57
   0  -5   8  152.96    5.06
   0   5   8  142.67    5.00
   0   5  -8  158.70    5.09
   0   5  -8  156.36    4.87
   0   5   8  152.27    4.78
   0   5  -8  145.63    5.04
   1  -5   8   67.28    2.69
   1  -5   8   65.41    2.25
  -1  -5  -8   71.45    2.37
   1  -5   8   72.00    2.53
   1  -5   8   67.93    2.36
  -1   5  -8   69.35    2.59
   1   5   8   69.85    2.57
  -1   5  -8   72.75    2.77
   1   5   8   67.65    2.86
   1   5   8   66.54    2.38
  -1   5  -8   73.55    2.57
   2  -5   8  106.64    3.33
  -2  -5  -8  109.19    4.00
   2  -5   8  111.95    3.69
  -2  -5  -8  110.27    3.55
   2  -5   8  116.29    3.83
   2  -5   8  109.74    3.35
  -2   5  -8  108.75    3.99
   2   5   8  110.09    4.08
   2   5   8  108.58    3.89
   2   5   8  113.32    3.68
  -2   5  -8  117.04    3.78
   2   5   8  109.77    4.30
   3  -5   8    3.11    0.61
  -3  -5  -8    1.80    0.84
   3  -5   8    2.04    0.90
  -3  -5  -8    2.63    0.42
  -3  -5  -8    2.55    0.68
   3   5   8    1.68    0.90
   3   5   8    4.20    1.18
   3   5   8    2.16    0.49
   3   5   8    1.92    0.66
  -3   5  -8    1.90    0.71
  -3   5  -8    3.26    0.83
  -4  -5  -8   24.71    2.33
   4  -5   8   23.97    1.45
  -4  -5  -8   23.35    1.78
  -4  -5  -8   22.86    1.41
  -4  -5  -8   24.59    1.13
   4   5   8   22.27    2.27
   4   5   8   22.71    1.92
   4   5   8   26.88    3.12
   4   5   8   22.67    1.41
  -5  -5  -8    7.84    1.36
  -5  -5  -8    9.19    1.47
   5  -5   8   10.43    1.23
  -5  -5  -8   11.33    1.95
   5   5   8    9.36    1.19
   5   5   8   11.49    1.72
  -5   5  -8   10.66    1.25
  -6  -5  -8    1.98    1.07
  -6  -5  -8    0.95    1.89
   6  -5   8    2.88    1.08
  -6  -5  -8    0.60    1.40
  -6   5  -8    3.08    1.22
  -6   5  -8    1.07    1.31
   6   5   8    1.27    1.12
  -7  -6   8    7.00    2.66
  -7  -6   8    5.69    1.35
   7  -6  -8    4.91    1.44
  -7  -6   8    2.77    1.99
  -7   6   8    6.79    1.64
   7   6  -8    4.41    1.31
  -6  -6   8   19.42    1.70
  -6  -6   8   22.18    2.60
  -6  -6   8   21.10    2.25
   6  -6  -8   16.14    1.77
  -6   6   8   23.26    2.02
  -6   6   8   17.83    2.04
   6   6  -8   16.24    1.66
   5  -6  -8   20.02    1.30
  -5  -6   8   21.30    1.16
  -5  -6   8   20.27    1.85
  -5  -6   8   20.56    2.49
   5  -6  -8   20.82    1.52
  -5  -6   8   19.47    1.40
  -5   6   8   19.73    1.50
   5   6  -8   20.56    1.37
  -5   6   8   17.58    1.57
   5   6  -8   21.48    2.80
  -4  -6   8  109.64    3.70
  -4  -6   8  111.10    4.56
   4  -6  -8  104.62    3.82
  -4  -6   8  109.05    4.15
  -4  -6   8  108.51    3.42
   4  -6  -8  108.14    3.55
   4   6  -8  104.55    4.73
  -4   6   8  103.72    3.83
  -4   6   8  105.12    3.41
  -4   6   8  103.47    3.51
   4   6  -8  109.07    3.60
  -3  -6   8   21.34    0.97
  -3  -6   8   22.28    1.12
  -3  -6   8   23.42    1.84
   3  -6  -8   22.23    1.28
   3  -6  -8   21.84    1.09
  -3  -6   8   22.46    1.47
  -3   6   8   22.03    1.06
   3   6  -8   21.85    1.01
   3   6  -8   22.76    1.99
   3   6  -8   19.48    1.03
  -3   6   8   20.88    0.96
  -3   6   8   21.77    1.33
  -2  -6   8  133.99    4.78
   2  -6  -8  126.85    4.01
   2  -6  -8  133.14    4.19
  -2  -6   8  132.63    4.05
  -2  -6   8  131.08    4.19
  -2  -6   8  131.88    4.50
   2   6  -8  130.01    5.00
  -2   6   8  132.72    4.18
  -2   6   8  131.46    4.06
   2   6  -8  132.57    3.99
  -2   6   8  133.25    4.45
  -1  -6   8    0.48    0.24
   1  -6  -8    0.45    0.23
  -1  -6   8    0.89    0.26
   1  -6  -8    0.38    0.19
   1  -6  -8    0.45    0.22
   1  -6  -8    0.58    0.27
  -1  -6   8    1.18    0.55
  -1   6   8    0.52    0.35
  -1   6   8    0.44    0.27
   1   6  -8    0.37    0.12
   1   6  -8    0.78    0.73
  -1   6   8    0.47    0.29
   1   6  -8    0.12    0.59
   0  -6  -8   23.45    1.04
   0  -6   8   23.01    0.98
   0  -6  -8   22.28    1.04
   0  -6   8   22.40    1.21
   0  -6   8   22.77    0.99
   0  -6   8   21.73    1.48
   0  -6  -8   20.37    1.06
   0   6   8   24.05    1.19
   0   6   8   23.07    1.01
   0   6  -8   21.91    1.33
   0   6  -8   19.98    1.50
   0   6  -8   20.91    1.45
   0   6   8   24.44    1.39
   1  -6   8   16.10    0.88
   1  -6   8   16.44    1.02
   1  -6   8   16.22    0.77
   1  -6   8   16.76    1.50
   1  -6   8   20.61    1.36
  -1  -6  -8   16.50    1.23
  -1  -6  -8   16.24    0.88
   1   6   8   17.63    0.91
  -1   6  -8   19.02    1.15
  -1   6  -8   17.35    1.25
  -1   6  -8   17.59    1.31
   1   6   8   17.57    1.09
   1   6   8   17.47    1.27
   1   6   8   17.45    1.37
   2  -6   8    4.45    0.81
   2  -6   8    4.47    0.61
   2  -6   8    4.09    0.37
  -2  -6  -8    3.47    0.45
   2  -6   8    3.73    0.30
  -2  -6  -8    3.28    0.73
  -2   6  -8    4.63    0.57
   2   6   8    4.17    0.90
   2   6   8    2.97    0.48
   2   6   8    4.04    0.68
   2   6   8    3.70    0.84
  -2   6  -8    3.75    0.80
  -2   6  -8    4.75    0.73
  -3  -6  -8   39.49    1.74
   3  -6   8   40.65    1.70
  -3  -6  -8   39.65    1.55
  -3  -6  -8   40.17    2.49
   3  -6   8   37.80    1.50
  -3  -6  -8   39.95    2.18
   3   6   8   42.62    2.11
   3   6   8   38.07    1.75
   3   6   8   38.53    2.69
   3   6   8   37.45    2.51
  -3   6  -8   38.21    2.17
  -4  -6  -8   36.04    2.76
  -4  -6  -8   35.67    1.78
  -4  -6  -8   36.81    1.49
  -4  -6  -8   38.59    2.32
   4  -6   8   36.64    1.62
   4   6   8   40.42    3.47
   4   6   8   33.77    2.80
   4   6   8   36.86    1.85
   4   6   8   36.38    2.27
  -5  -6  -8   32.38    2.40
   5  -6   8   29.17    1.71
  -5  -6  -8   25.71    1.78
  -5  -6  -8   28.62    3.22
   5   6   8   29.96    1.99
  -5   6  -8   29.36    1.96
   5   6   8   28.43    2.79
  -6  -6  -8   34.02    3.12
   6  -6   8   31.20    2.54
  -6  -6  -8   33.38    4.26
  -6  -6  -8   31.82    2.29
  -6   6  -8   30.56    2.37
  -6   6  -8   29.12    2.74
   6   6   8   32.05    2.48
  -6  -7   8    8.30    1.14
  -6  -7   8    8.51    2.30
   6  -7  -8    9.80    1.32
  -6  -7   8    9.88    1.66
   6   7  -8    4.52    2.42
  -6   7   8    7.01    1.24
   6   7  -8    7.28    1.15
  -5  -7   8    2.23    0.62
  -5  -7   8    1.06    0.91
   5  -7  -8    1.81    0.68
  -5  -7   8    3.86    1.42
  -5  -7   8    1.09    1.20
   5  -7  -8    1.12    0.68
   5   7  -8    2.12    1.63
  -5   7   8    1.11    0.78
   5   7  -8    1.18    0.62
  -5   7   8    2.15    0.56
  -4  -7   8   33.79    1.62
  -4  -7   8   34.56    1.42
   4  -7  -8   34.12    1.56
  -4  -7   8   31.79    2.89
   4  -7  -8   35.31    1.78
  -4  -7   8   34.23    2.07
  -4   7   8   32.76    1.76
  -4   7   8   33.36    1.40
  -4   7   8   33.25    1.38
   4   7  -8   30.19    2.72
   4   7  -8   34.54    1.56
  -3  -7   8    1.03    0.33
   3  -7  -8    2.69    0.47
  -3  -7   8    2.19    0.94
   3  -7  -8    1.04    0.38
  -3  -7   8    1.78    0.71
  -3  -7   8    1.09    0.39
  -3   7   8    2.00    0.57
   3   7  -8    1.20    0.36
  -3   7   8    1.93    0.40
   3   7  -8    0.11    0.96
  -3   7   8    0.91    0.34
   2  -7  -8   38.20    1.47
  -2  -7   8   41.90    1.61
   2  -7  -8   39.82    1.62
  -2  -7   8   40.67    1.93
  -2  -7   8   38.00    2.18
  -2  -7   8   37.82    1.48
  -2   7   8   42.52    1.59
  -2   7   8   40.27    1.46
   2   7  -8   44.94    2.53
  -2   7   8   39.38    1.79
   2   7  -8   39.04    1.39
   1  -7  -8    1.18    0.20
  -1  -7   8    0.90    0.31
  -1  -7   8    1.16    0.66
   1  -7  -8    1.51    0.33
   1  -7  -8    1.11    0.34
   1  -7  -8    0.49    0.51
  -1  -7   8    0.74    0.26
  -1  -7   8    0.69    0.46
   1  -7  -8    0.96    0.24
  -1   7   8    1.16    0.30
   1   7  -8    0.99    0.15
   1   7  -8    0.05    0.81
  -1   7   8    1.53    0.37
   1   7  -8    1.45    0.81
  -1   7   8    0.55    0.45
   0  -7   8   10.85    0.93
   0  -7  -8    9.52    0.76
   0  -7  -8    9.29    0.62
   0  -7  -8   10.54    0.66
   0  -7   8    9.32    0.63
   0  -7   8   10.77    1.24
   0  -7  -8    9.27    1.04
   0  -7   8    9.46    0.63
   0  -7  -8    9.22    0.92
   0   7  -8   10.03    1.28
   0   7  -8    9.23    1.20
   0   7  -8    9.71    1.08
   0   7   8    8.96    1.03
   0   7   8    9.21    0.64
   0   7   8    8.78    0.78
  -1  -7  -8    0.46    0.27
   1  -7   8    0.82    0.25
   1  -7   8    2.17    0.75
  -1  -7  -8    1.16    0.57
  -1  -7  -8    0.99    0.30
   1  -7   8    0.99    0.32
  -1  -7  -8    1.28    0.61
   1  -7   8    0.18    0.42
   1   7   8    1.09    0.35
  -1   7  -8    0.29    0.57
  -1   7  -8    0.72    0.62
   1   7   8    1.09    0.45
   1   7   8   -0.38    0.54
  -1   7  -8    0.79    0.62
   1   7   8    1.55    0.68
  -2  -7  -8   14.39    0.84
  -2  -7  -8   14.40    1.32
  -2  -7  -8   12.39    1.59
   2  -7   8   12.10    1.18
  -2  -7  -8   11.78    0.87
   2  -7   8   13.30    1.02
   2   7   8   15.87    1.67
   2   7   8   11.67    1.11
   2   7   8   13.08    1.59
   2   7   8   13.18    0.94
  -2   7  -8   14.51    1.18
  -2   7  -8   12.61    1.30
  -2   7  -8   11.02    1.04
  -3  -7  -8    1.82    0.42
  -3  -7  -8    2.58    1.05
  -3  -7  -8    1.46    0.46
   3  -7   8    2.38    0.46
  -3  -7  -8    0.94    0.79
   3   7   8    1.52    1.17
   3   7   8    1.47    1.13
   3   7   8    1.31    0.47
   3   7   8    0.42    0.73
  -3   7  -8    1.69    0.83
  -4  -7  -8   42.92    2.01
   4  -7   8   44.41    1.81
  -4  -7  -8   41.02    2.62
  -4  -7  -8   37.78    3.15
  -4  -7  -8   42.41    1.71
   4   7   8   42.99    2.56
   4   7   8   44.97    2.11
   4   7   8   49.50    3.97
   4   7   8   41.50    3.46
  -5  -7  -8    0.83    1.24
  -5  -7  -8    0.89    1.72
   5  -7   8    3.32    0.88
  -5  -7  -8    2.32    0.82
  -5   7  -8    0.78    0.90
   5   7   8    1.75    1.54
  -6  -7  -8   19.04    3.22
  -6  -7  -8   12.81    1.51
  -6  -7  -8   13.90    2.16
   6   7   8   13.23    1.62
  -6   7  -8   12.53    1.83
  -6  -8   8   18.84    1.82
  -6  -8   8   17.01    2.12
  -6  -8   8   25.07    3.28
   6  -8  -8   15.28    2.01
   6   8  -8   15.66    1.86
   6   8  -8   21.66    3.11
  -6   8   8   16.78    1.96
  -5  -8   8    0.34    1.64
  -5  -8   8    1.40    1.08
   5  -8  -8    1.56    0.86
   5  -8  -8    2.08    0.77
  -5  -8   8    0.87    0.62
  -5  -8   8    1.76    0.68
   5   8  -8    2.04    0.71
   5   8  -8    0.74    1.74
   4  -8  -8  116.98    4.00
  -4  -8   8  118.27    3.86
  -4  -8   8  119.97    4.10
   4  -8  -8  118.92    4.31
  -4  -8   8  124.30    4.66
  -4  -8   8  114.71    5.07
  -4   8   8  119.17    4.05
   4   8  -8  120.80    5.38
   4   8  -8  118.91    3.96
  -4   8   8  116.03    3.66
  -4   8   8  114.96    4.09
   3  -8  -8    0.07    0.36
  -3  -8   8    0.50    0.88
  -3  -8   8    0.05    0.35
  -3  -8   8   -0.64    0.62
  -3  -8   8    0.26    0.38
   3  -8  -8    0.54    0.40
  -3   8   8    0.72    0.49
  -3   8   8    0.41    0.35
  -3   8   8    0.37    0.33
   3   8  -8   -0.44    0.32
   3   8  -8    0.75    1.02
  -2  -8   8  185.20    5.74
   2  -8  -8  187.85    5.79
  -2  -8   8  185.29    5.65
   2  -8  -8  179.54    5.63
  -2  -8   8  180.40    6.09
  -2  -8   8  187.88    6.41
  -2   8   8  176.24    5.54
  -2   8   8  186.47    5.96
   2   8  -8  181.25    5.49
  -2   8   8  191.53    5.70
   2   8  -8  184.40    6.80
  -1  -8   8    3.47    0.85
   1  -8  -8    4.01    0.68
  -1  -8   8    2.65    0.40
  -1  -8   8    2.43    0.39
   1  -8  -8    2.44    0.39
   1  -8  -8    3.36    0.56
  -1  -8   8    3.08    0.71
   1  -8  -8    1.68    0.35
  -1   8   8    2.59    0.48
   1   8  -8    0.85    0.97
  -1   8   8    2.49    0.62
   1   8  -8    3.14    0.90
  -1   8   8    2.91    0.50
   1   8  -8    2.59    0.24
   0  -8  -8   38.08    1.40
   0  -8  -8   37.64    1.49
   0  -8   8   37.27    1.44
   0  -8   8   36.54    1.51
   0  -8  -8   37.83    1.49
   0  -8   8   37.71    1.74
   0  -8  -8   39.06    1.57
   0  -8   8   39.65    2.13
   0  -8  -8   39.47    1.79
   0   8   8   37.55    1.94
   0   8   8   35.46    1.48
   0   8  -8   35.73    2.13
   0   8   8   39.15    1.70
   0   8  -8   39.45    2.21
   1  -8   8   15.61    0.74
  -1  -8  -8   16.36    0.92
   1  -8   8   14.96    0.67
   1  -8   8   19.35    1.49
   1  -8   8   14.60    0.93
   1  -8   8   15.01    1.12
  -1  -8  -8   14.83    0.86
  -1  -8  -8   15.37    1.53
  -1  -8  -8   15.24    1.34
   1   8   8   15.91    1.48
  -1   8  -8   14.31    1.49
   1   8   8   13.89    1.48
  -1   8  -8   14.02    1.30
   1   8   8   15.27    0.92
   1   8   8   14.92    1.11
   2  -8   8   32.41    1.51
  -2  -8  -8   31.68    1.88
  -2  -8  -8   31.19    1.39
  -2  -8  -8   32.13    1.45
  -2  -8  -8   33.24    2.25
   2  -8   8   30.74    1.49
  -2   8  -8   30.84    1.68
  -2   8  -8   29.61    1.69
  -2   8  -8   30.96    1.86
   2   8   8   30.93    2.33
   2   8   8   32.89    1.53
   2   8   8   32.43    1.76
   2   8   8   30.23    2.29
  -3  -8  -8   17.39    1.03
  -3  -8  -8   17.27    1.15
  -3  -8  -8   15.47    1.68
   3  -8   8   16.49    0.99
  -3  -8  -8   17.65    2.27
   3   8   8   19.24    2.50
   3   8   8   18.12    2.34
   3   8   8   18.48    1.60
   3   8   8   19.83    1.27
   4  -8   8   91.08    3.22
  -4  -8  -8   91.70    4.71
  -4  -8  -8   92.07    3.49
  -4  -8  -8   94.76    4.15
  -4  -8  -8   94.43    3.15
   4   8   8   92.68    4.95
   4   8   8   93.84    5.33
   4   8   8   94.53    3.58
   4   8   8   92.25    4.06
  -5  -8  -8    0.15    1.33
  -5  -8  -8    0.02    0.76
  -5  -8  -8    0.28    2.45
  -5   8  -8    2.93    0.91
   5   8   8    2.19    1.61
  -6  -8  -8   30.42    3.23
  -6  -8  -8   41.32    4.10
  -6  -8  -8   36.02    2.55
  -6   8  -8   30.06    2.81
   6   8   8   32.21    2.73
   6   8   8   41.11    5.24
  -6  -9   8   22.37    1.96
  -6  -9   8   23.45    3.28
   6  -9  -8   18.03    1.92
  -6  -9   8   20.77    2.35
   6   9  -8   23.61    3.41
   6   9  -8   20.87    2.06
  -5  -9   8    1.73    1.25
  -5  -9   8   -0.95    1.71
  -5  -9   8    1.34    0.70
  -5  -9   8    0.04    0.70
   5  -9  -8    0.96    0.84
   5   9  -8   -0.69    1.87
  -5   9   8    0.92    0.73
   5   9  -8    1.29    0.73
  -4  -9   8   11.76    1.94
  -4  -9   8   14.21    1.70
  -4  -9   8   13.83    1.16
  -4  -9   8   12.50    1.05
   4  -9  -8   11.56    1.14
   4   9  -8   12.97    1.09
   4   9  -8   13.79    2.17
  -4   9   8   15.37    1.19
   3  -9  -8   18.15    1.12
  -3  -9   8   20.66    1.20
  -3  -9   8   19.20    1.08
  -3  -9   8   22.16    2.14
  -3  -9   8   18.34    1.63
   3  -9  -8   19.67    1.25
   3   9  -8   19.88    2.39
  -3   9   8   19.79    1.00
   3   9  -8   20.75    1.06
  -3   9   8   21.70    1.31
  -3   9   8   19.36    0.97
  -2  -9   8    2.70    0.98
   2  -9  -8    2.91    0.51
  -2  -9   8    2.47    0.71
   2  -9  -8    1.74    0.42
  -2  -9   8    2.84    0.47
  -2  -9   8    2.65    0.47
  -2   9   8    1.91    0.57
  -2   9   8    2.55    0.43
  -2   9   8    1.85    0.45
   2   9  -8    2.45    0.36
   2   9  -8    3.04    1.14
   1  -9  -8   83.24    2.99
  -1  -9   8   87.89    3.26
   1  -9  -8   85.74    2.90
  -1  -9   8   88.11    3.61
   1  -9  -8   80.90    2.90
   1  -9  -8   83.91    2.99
  -1  -9   8   87.14    2.92
  -1  -9   8   88.35    2.90
   1   9  -8   90.77    3.97
  -1   9   8   84.68    2.84
   1   9  -8   83.38    2.56
   1   9  -8   89.16    3.81
  -1   9   8   88.41    3.03
  -1   9   8   83.71    3.30
   0  -9   8   61.15    2.78
   0  -9  -8   58.44    2.13
   0  -9  -8   58.23    2.56
   0  -9   8   60.08    2.40
   0  -9   8   54.13    2.07
   0  -9  -8   57.98    2.40
   0  -9  -8   60.57    2.06
   0  -9   8   57.05    2.15
   0  -9  -8   57.82    1.96
   0  -9   8   59.99    2.03
   0  -9  -8   58.69    2.21
   0   9  -8   59.51    2.97
   0   9   8   60.52    2.14
   0   9  -8   59.60    2.84
   0   9   8   56.68    2.33
   0   9   8   61.05    2.86
   0   9   8   53.06    2.62
  -1  -9  -8   56.84    2.17
   1  -9   8   58.21    2.20
   1  -9   8   60.85    2.50
  -1  -9  -8   57.62    2.52
  -1  -9  -8   55.38    2.15
  -1  -9  -8   58.16    2.10
  -1  -9  -8   57.46    2.76
   1  -9   8   56.08    2.31
   1  -9   8   60.77    1.98
   1  -9   8   55.28    1.75
   1   9   8   59.13    2.90
   1   9   8   58.09    2.20
   1   9   8   53.89    2.42
  -1   9  -8   56.03    2.75
   1   9   8   58.35    2.96
  -1   9  -8   55.53    2.76
  -1   9  -8   56.75    2.49
  -2  -9  -8   50.95    1.98
  -2  -9  -8   50.30    2.90
  -2  -9  -8   49.45    2.49
   2  -9   8   50.30    2.10
  -2  -9  -8   54.73    2.06
   2   9   8   50.17    2.40
   2   9   8   52.34    2.15
  -2   9  -8   46.88    2.40
   2   9   8   51.46    3.02
   2   9   8   49.88    3.03
  -3  -9  -8   10.44    1.72
  -3  -9  -8    8.35    0.90
  -3  -9  -8    9.12    0.90
  -3  -9  -8    9.99    1.47
   3   9   8    8.06    1.18
   3   9   8    7.66    1.65
   3   9   8    8.97    1.13
   3   9   8    9.37    1.84
  -4  -9  -8    6.69    0.78
  -4  -9  -8    7.13    1.53
  -4  -9  -8    8.98    1.94
  -4  -9  -8    4.80    0.84
   4   9   8    5.25    1.33
   4   9   8    5.18    2.19
   4   9   8    4.89    0.92
   4   9   8    6.73    2.35
  -5  -9  -8    2.32    0.87
  -5  -9  -8    2.15    1.52
  -5  -9  -8    1.93    2.52
   5   9   8    5.21    1.74
  -6 -10   8    0.39    1.75
  -6 -10   8    3.88    1.13
  -6 -10   8   -0.19    3.08
   6  10  -8   -0.08    1.17
   6  10  -8    0.43    3.06
  -5 -10   8    5.36    2.39
  -5 -10   8    7.64    1.60
  -5 -10   8    4.72    0.91
  -5 -10   8    4.50    0.90
   5  10  -8    8.35    2.31
   5  10  -8    4.74    1.28
  -4 -10   8    0.75    0.60
   4 -10  -8    1.64    0.65
  -4 -10   8    2.21    1.16
  -4 -10   8    0.29    0.73
  -4 -10   8   -0.88    1.59
  -4  10   8    1.66    0.61
   4  10  -8   -4.39    2.43
   4  10  -8    1.01    0.60
  -3 -10   8    3.43    1.32
  -3 -10   8    2.14    0.51
  -3 -10   8    1.92    0.87
   3 -10  -8    2.88    0.63
  -3 -10   8    1.78    0.52
   3 -10  -8    2.03    0.60
  -3  10   8    2.22    0.47
   3  10  -8    1.63    0.50
  -3  10   8    2.39    0.60
  -3  10   8    2.86    0.48
   3  10  -8    2.83    1.44
  -2 -10   8   25.41    2.28
  -2 -10   8   24.27    1.26
  -2 -10   8   23.85    1.18
   2 -10  -8   23.70    1.26
   2 -10  -8   22.39    1.29
  -2 -10   8   20.69    1.66
  -2  10   8   19.77    1.43
   2  10  -8   18.85    2.32
  -2  10   8   25.27    1.22
   2  10  -8   23.95    1.02
  -2  10   8   24.70    1.12
  -1 -10   8    3.42    1.12
  -1 -10   8    0.64    0.67
  -1 -10   8    1.81    0.43
   1 -10  -8    1.38    0.46
  -1 -10   8    1.17    0.41
   1 -10  -8    1.45    0.66
   1 -10  -8    1.37    0.40
   1  10  -8    1.28    0.21
  -1  10   8    1.17    0.46
   1  10  -8    1.05    1.01
  -1  10   8    1.31    0.38
  -1  10   8    1.54    0.64
   0 -10  -8   52.98    2.81
   0 -10  -8   52.00    2.30
   0 -10   8   51.80    2.27
   0 -10   8   51.35    3.79
   0 -10  -8   52.41    1.79
   0 -10   8   51.55    2.05
   0 -10  -8   53.04    2.08
   0 -10  -8   52.24    2.02
   0 -10   8   51.75    1.83
   0  10  -8   50.37    2.92
   0  10   8   53.49    2.84
   0  10   8   52.85    2.25
   0  10   8   53.74    2.60
   0  10   8   54.77    2.04
  -1 -10  -8   19.42    1.16
  -1 -10  -8   19.03    1.12
  -1 -10  -8   19.55    1.06
   1 -10   8   20.82    1.42
  -1 -10  -8   16.99    1.63
  -1 -10  -8   19.69    2.00
   1 -10   8   20.39    1.18
  -1  10  -8   20.97    1.90
   1  10   8   22.64    1.85
   1  10   8   21.62    1.99
   1  10   8   19.79    1.17
   1  10   8   18.93    1.38
   2 -10   8   12.45    1.08
  -2 -10  -8   14.67    1.79
  -2 -10  -8   11.50    1.00
  -2 -10  -8   12.50    1.66
  -2 -10  -8   13.72    0.96
   2  10   8   11.89    1.64
  -2  10  -8   13.21    1.47
   2  10   8   15.48    2.11
   2  10   8   10.58    1.29
   2  10   8   13.35    1.09
  -3 -10  -8   21.92    1.26
  -3 -10  -8   22.95    2.37
  -3 -10  -8   20.21    2.17
  -3 -10  -8   22.66    1.41
   3  10   8   21.24    1.86
   3  10   8   22.94    1.56
   3  10   8   21.82    2.55
   3  10   8   23.52    3.08
  -4 -10  -8    2.44    1.53
  -4 -10  -8    1.33    0.66
  -4 -10  -8    0.28    0.65
  -4 -10  -8    0.77    2.04
   4  10   8    1.72    2.30
   4  10   8    2.67    2.35
   4  10   8    0.56    1.14
  -5 -10  -8    3.99    0.98
  -5 -10  -8    3.86    1.70
   5  10   8    0.27    1.71
  -5 -11   8    1.91    0.88
  -5 -11   8    2.09    0.93
  -5 -11   8    1.53    1.62
   5 -11  -8    1.97    1.09
   5  11  -8    2.40    2.32
   5  11  -8    3.07    0.92
  -4 -11   8    0.43    1.67
  -4 -11   8    0.59    1.92
   4 -11  -8    0.81    0.74
  -4 -11   8    0.03    0.61
  -4 -11   8    0.13    0.66
   4  11  -8   -0.75    1.66
   4  11  -8   -0.20    0.68
  -4  11   8    0.03    0.63
  -3 -11   8    1.32    0.52
  -3 -11   8   -0.15    1.43
   3 -11  -8    0.93    0.61
   3 -11  -8    1.66    0.69
  -3 -11   8   -0.62    0.98
  -3 -11   8    0.57    0.53
  -3  11   8    0.67    0.45
   3  11  -8   -1.05    1.38
  -3  11   8    1.13    0.64
   3  11  -8    0.92    0.52
  -2 -11   8   34.92    2.79
  -2 -11   8   35.00    1.59
  -2 -11   8   35.22    2.17
   2 -11  -8   34.31    1.73
   2 -11  -8   33.84    1.68
  -2 -11   8   35.46    1.62
  -2  11   8   34.83    1.89
  -2  11   8   35.40    1.50
   2  11  -8   39.23    3.07
  -2  11   8   35.98    1.59
  -1 -11   8    0.41    0.42
   1 -11  -8    0.87    0.49
   1 -11  -8    1.50    0.49
  -1 -11   8    1.10    0.78
  -1 -11   8    0.42    0.42
  -1  11   8    1.50    0.95
  -1  11   8    0.72    0.51
   1  11  -8    1.18    1.17
   1  11  -8    0.95    0.24
  -1  11   8    1.30    0.43
  -1  11   8    1.48    0.72
   0 -11   8  138.85    4.19
   0 -11  -8  137.65    4.72
   0 -11  -8  140.01    4.51
   0 -11   8  136.03    4.52
   0 -11  -8  133.58    4.13
   0 -11  -8  137.43    4.57
   0 -11   8  131.47    4.72
   0  11   8  137.99    5.14
   0  11   8  139.79    4.48
   0  11  -8  132.93    5.52
   0  11   8  139.01    4.73
   0  11   8  137.55    5.47
  -1 -11  -8    4.33    0.66
  -1 -11  -8    4.72    0.69
  -1 -11  -8    4.95    0.61
   1 -11   8    3.67    0.63
  -1 -11  -8    3.77    0.99
   1  11   8    4.50    0.85
   1  11   8    4.94    0.73
  -1  11  -8    3.20    1.23
   1  11   8    5.85    1.20
   1  11   8    4.59    1.29
  -2 -11  -8  101.28    3.59
  -2 -11  -8  106.41    3.63
  -2 -11  -8  106.68    3.73
  -2 -11  -8  108.88    4.26
   2 -11   8  104.03    3.76
  -2  11  -8   96.35    4.30
   2  11   8  110.14    5.17
   2  11   8  107.01    3.80
   2  11   8  101.66    4.09
   2  11   8  103.98    4.80
  -3 -11  -8    2.27    0.60
  -3 -11  -8    2.59    1.31
  -3 -11  -8    1.42    0.65
   3  11   8    1.08    1.70
   3  11   8    4.76    1.95
   3  11   8   -0.69    1.42
  -4 -11  -8    8.09    1.73
  -4 -11  -8    7.87    1.01
   4  11   8    8.32    1.66
   4  11   8    3.73    2.57
  -5 -11  -8    0.33    1.01
  -5 -11  -8    2.65    1.87
   5  11   8    1.41    1.76
  -5 -12   8   17.48    1.80
   5 -12  -8   14.83    1.60
  -5 -12   8   17.68    2.39
  -5 -12   8   16.52    1.79
  -5  12   8   20.95    2.82
   5  12  -8   17.98    3.20
  -4 -12   8    8.02    1.14
  -4 -12   8    7.36    1.73
   4 -12  -8    7.74    1.07
  -4 -12   8    6.89    0.99
  -4  12   8    7.89    1.96
   4  12  -8    7.55    2.32
   4  12  -8    7.80    1.01
  -3 -12   8   31.40    2.51
  -3 -12   8   29.36    1.67
   3 -12  -8   27.47    1.90
  -3 -12   8   30.93    1.61
   3 -12  -8   27.42    1.72
   3  12  -8   29.44    1.44
   3  12  -8   32.03    3.22
  -3  12   8   27.33    2.68
  -3  12   8   25.82    1.80
  -2 -12   8   22.40    1.32
   2 -12  -8   20.67    1.46
  -2 -12   8   24.10    1.37
   2 -12  -8   21.46    1.47
  -2 -12   8   25.87    2.07
  -2  12   8   25.57    1.29
  -2  12   8   23.98    1.71
   2  12  -8   24.24    2.88
   2  12  -8   22.28    1.43
  -2  12   8   21.74    1.34
  -2  12   8   22.89    2.26
   1 -12  -8    8.31    1.00
  -1 -12   8    8.45    0.95
   1 -12  -8    8.25    0.90
  -1 -12   8    7.95    0.90
  -1 -12   8    8.60    1.20
   1  12  -8    8.61    1.71
  -1  12   8    8.84    1.04
  -1  12   8    7.77    0.91
  -1  12   8    8.36    1.18
  -1  12   8    7.39    1.49
   0 -12  -8   26.61    1.00
   0 -12  -8   27.89    1.51
   0 -12   8   27.83    1.96
   0 -12  -8   28.18    2.27
   0 -12   8   28.03    1.12
   0 -12   8   28.16    1.50
   0 -12  -8   30.66    1.52
   0  12   8   28.52    2.48
   0  12   8   29.08    1.49
   0  12  -8   27.61    3.11
   0  12   8   27.05    1.68
   0  12   8   27.81    2.15
   1 -12   8   15.66    1.20
  -1 -12  -8   15.07    1.15
  -1 -12  -8   17.49    1.22
  -1 -12  -8   14.78    1.02
  -1 -12  -8   17.53    1.94
   1  12   8   16.81    1.23
   1  12   8   13.74    2.10
   1  12   8   13.48    1.39
   1  12   8   16.96    2.13
  -1  12  -8   19.12    2.47
  -2 -12  -8    6.99    0.95
  -2 -12  -8    7.16    1.39
  -2 -12  -8    8.83    1.02
   2 -12   8    7.63    0.99
  -2 -12  -8    6.67    0.81
   2  12   8    6.68    0.91
  -2  12  -8    5.80    1.62
   2  12   8    7.10    1.17
   2  12   8    6.31    1.58
   2  12   8    6.05    1.80
  -3 -12  -8   50.77    2.16
  -3 -12  -8   46.13    2.29
  -3 -12  -8   51.05    3.18
  -3 -12  -8   47.83    2.23
   3  12   8   42.80    2.40
   3  12   8   47.76    2.81
   3  12   8   52.74    4.15
  -4 -12  -8   -3.75    1.52
  -4 -12  -8    0.15    0.82
  -4 -12  -8   -1.51    0.86
   4  12   8    4.02    2.94
   4  12   8   -1.39    3.07
   4  12   8    1.39    1.41
  -5 -12  -8   14.78    2.47
  -5 -12  -8   15.79    1.62
   5  12   8   10.75    2.34
  -5 -13   8   -2.03    1.92
   5 -13  -8    1.56    1.34
  -5 -13   8    2.46    1.13
  -5  13   8   -1.39    2.80
   5  13  -8    0.38    2.93
  -4 -13   8    8.14    2.00
  -4 -13   8    7.62    1.04
   4 -13  -8    7.75    1.21
  -4 -13   8   10.35    1.15
  -4  13   8   11.66    2.57
   4  13  -8    7.96    2.59
   3 -13  -8   12.59    1.40
  -3 -13   8   12.10    1.35
  -3 -13   8   14.25    1.39
   3 -13  -8   11.61    1.23
  -3 -13   8   14.08    1.85
  -3  13   8   10.00    1.95
  -3  13   8   12.64    1.57
   3  13  -8   12.92    2.37
   2 -13  -8   -0.36    0.84
  -2 -13   8   -2.11    1.15
  -2 -13   8    0.01    0.60
  -2 -13   8    0.30    0.56
   2 -13  -8    1.30    0.76
  -2  13   8    0.54    1.35
  -2  13   8    0.00    0.61
  -2  13   8   -0.25    0.84
  -1 -13   8   32.34    1.51
  -1 -13   8   31.98    2.36
   1 -13  -8   29.38    1.72
   1 -13  -8   30.59    1.69
  -1 -13   8   33.88    1.69
  -1  13   8   29.06    2.74
  -1  13   8   31.13    1.74
   1  13  -8   27.08    3.10
  -1  13   8   31.87    2.20
  -1  13   8   31.11    1.60
   0 -13  -8   12.18    1.16
   0 -13  -8   12.59    1.20
   0 -13   8   10.98    1.14
   0  13   8   10.86    1.35
   0  13   8   10.60    1.14
   0  13   8    9.36    1.74
   0  13  -8   13.03    2.14
   0  13   8   12.02    1.62
   1 -13   8    8.58    1.00
  -1 -13  -8    9.53    0.93
  -1 -13  -8    9.27    1.85
  -1 -13  -8    9.12    1.13
  -1 -13  -8    7.12    0.92
   1  13   8   10.02    1.15
   1  13   8    7.37    1.13
   1  13   8    8.16    1.98
  -1  13  -8    7.76    1.84
   1  13   8    7.22    1.44
  -2 -13  -8   25.57    1.58
  -2 -13  -8   27.43    1.57
   2 -13   8   25.13    1.67
  -2 -13  -8   25.05    1.66
  -2 -13  -8   23.51    2.60
   2  13   8   27.22    3.24
   2  13   8   25.47    2.03
  -2  13  -8   24.04    3.08
  -3 -13  -8    0.20    0.72
  -3 -13  -8    0.21    1.60
  -3 -13  -8   -0.74    0.71
  -3 -13  -8   -1.03    0.68
   3  13   8   -0.14    0.81
   3  13   8    1.93    2.18
   3  13   8   -2.72    1.85
   3  13   8   -1.37    1.16
  -4 -13  -8   11.72    1.31
  -4 -13  -8   10.19    2.35
  -4 -13  -8   11.07    1.40
   4  13   8   13.48    3.91
   4  13   8   14.18    2.02
   4  13   8   13.41    3.58
  -4 -14   8   56.19    2.65
  -4 -14   8   51.82    2.66
   4 -14  -8   47.87    2.76
  -4 -14   8   52.91    4.17
  -4  14   8   61.76    4.85
   4  14  -8   49.90    5.20
   3 -14  -8    4.09    0.95
  -3 -14   8    3.74    0.91
  -3 -14   8    2.18    1.75
  -3 -14   8    4.34    0.96
  -3  14   8    4.52    1.94
  -3  14   8    4.33    1.04
   3  14  -8   -1.55    2.13
   2 -14  -8   63.55    2.81
   2 -14  -8   66.30    2.83
  -2 -14   8   61.21    2.68
  -2 -14   8   68.74    2.65
  -2 -14   8   67.47    3.67
  -2  14   8   60.18    3.06
   2  14  -8   57.33    4.51
  -2  14   8   65.26    2.56
  -2  14   8   67.45    4.08
   1 -14  -8    4.97    0.85
  -1 -14   8    4.93    0.80
   1 -14  -8    4.95    0.91
  -1  14   8    5.52    0.92
  -1  14   8    3.74    1.60
  -1  14   8    4.13    1.20
  -1  14   8    4.59    0.85
   0 -14  -8   11.33    1.26
   0 -14  -8   12.91    1.32
   0 -14   8    9.85    1.47
   0  14   8    9.93    1.47
   0  14   8   11.19    1.42
   0  14  -8   12.29    2.27
   0  14   8   10.74    1.25
   0  14   8   12.50    2.03
  -1 -14  -8   -0.05    0.69
  -1 -14  -8    0.32    0.67
   1 -14   8   -1.01    0.66
  -1  14  -8    0.48    1.86
   1  14   8    1.30    1.86
   1  14   8    0.41    1.26
   1  14   8    1.11    0.95
   1  14   8    0.47    0.72
  -2 -14  -8   11.03    1.31
   2 -14   8    8.07    1.12
  -2 -14  -8    9.34    1.13
  -2 -14  -8    9.98    1.14
   2  14   8   12.25    2.47
   2  14   8    8.91    2.10
  -2  14  -8    5.82    2.18
   2  14   8    8.38    1.36
   2  14   8    9.17    1.17
  -3 -14  -8    4.84    1.05
  -3 -14  -8    3.05    0.97
  -3 -14  -8    4.57    0.96
  -3 -14  -8    2.91    2.54
   3  14   8    7.01    1.63
   3  14   8    1.63    2.61
   3  14   8    6.28    2.45
  -4 -14  -8   29.39    2.32
  -4 -14  -8   40.68    4.05
  -4 -14  -8   35.16    2.44
   4  14   8   39.70    5.21
   4  14   8   44.89    4.95
   4  14   8   40.85    3.45
  -4 -15   8    8.17    1.33
  -4 -15   8    8.47    1.34
   4 -15  -8    7.29    1.42
  -4  15   8    4.94    2.88
   4  15  -8   10.79    3.34
  -3 -15   8    1.35    1.06
  -3 -15   8    2.49    0.94
   3 -15  -8    1.23    0.94
   3 -15  -8    2.34    1.21
   3  15  -8   -0.65    2.53
  -3  15   8   -0.13    2.17
  -3  15   8    2.52    1.13
  -2 -15   8    8.72    1.09
   2 -15  -8    9.06    1.23
  -2 -15   8   11.17    1.18
   2 -15  -8    9.61    1.31
   2  15  -8    7.54    2.54
  -2  15   8    7.51    2.19
  -2  15   8    9.88    1.08
  -2  15   8    8.58    1.48
  -1 -15   8    9.90    1.17
   1 -15  -8   11.03    1.21
   1 -15  -8   12.81    1.44
  -1  15   8   11.61    1.65
  -1  15   8   11.40    2.35
   1  15  -8   11.91    2.61
  -1  15   8    9.78    1.44
   0 -15   8    3.51    0.90
   0 -15  -8    3.34    0.92
   0 -15  -8    3.85    0.88
   0  15   8    2.76    1.31
   0  15   8    2.90    1.95
   0  15   8    5.00    0.97
   0  15  -8    2.77    2.03
   0  15   8    4.41    1.08
   1 -15   8    7.80    1.18
  -1 -15  -8    8.11    1.09
  -1 -15  -8   11.62    1.43
   1  15   8   10.77    1.27
   1  15   8    8.74    1.45
  -1  15  -8    8.14    2.42
   1  15   8    7.72    1.67
   1  15   8   12.94    2.70
  -2 -15  -8    0.26    0.81
  -2 -15  -8    0.34    0.83
   2 -15   8    1.30    0.86
   2  15   8    2.20    2.51
   2  15   8    1.58    1.02
   2  15   8   -0.72    1.17
   2  15   8    2.29    1.93
  -3 -15  -8    0.65    1.05
  -3 -15  -8    3.08    1.07
  -3 -15  -8    0.65    1.05
   3  15   8    1.36    2.60
   3  15   8    9.24    3.27
   3  15   8   -0.29    1.40
  -3 -16   8   -0.48    1.07
   3 -16  -8   -2.78    1.02
  -3 -16   8    0.26    1.21
   3 -16  -8    0.14    1.40
  -3  16   8   -0.01    1.24
  -3  16   8    1.79    2.74
   3  16  -8   -1.41    2.97
  -2 -16   8   24.19    2.04
   2 -16  -8   32.83    2.18
   2 -16  -8   31.24    2.26
  -2  16   8   32.86    2.68
  -2  16   8   32.62    4.27
   2  16  -8   30.90    3.92
  -1 -16   8    1.74    0.95
   1 -16  -8    1.57    1.09
   1 -16  -8    2.19    0.93
  -1  16   8    2.57    1.41
   1  16  -8   -0.07    2.39
  -1  16   8    0.53    2.22
  -1  16   8    3.86    1.16
   0 -16  -8    5.88    1.12
   0 -16  -8    3.28    0.95
   0 -16   8    5.47    1.03
   0  16   8    4.11    2.33
   0  16  -8    7.10    2.57
   0  16   8    3.90    1.56
   0  16   8    5.12    2.10
   0  16   8    5.34    1.29
  -1 -16  -8   11.15    1.29
  -1 -16  -8   15.90    1.75
   1 -16   8   15.86    1.76
  -1  16  -8   11.45    2.98
   1  16   8   14.13    1.67
   1  16   8   14.31    1.79
   1  16   8   10.71    2.72
   1  16   8   12.00    2.16
   2 -16   8   -0.53    0.99
  -2 -16  -8    1.60    1.02
  -2 -16  -8    0.14    1.01
   2  16   8    2.14    2.77
   2  16   8    2.00    1.38
   2  16   8    1.13    2.13
  -3 -16  -8   14.96    1.71
   3  16   8    7.35    3.27
   3  16   8    9.11    3.94
   3  16   8   14.46    2.27
   2 -17  -8    8.75    1.40
  -2 -17   8   10.06    1.43
   2 -17  -8   11.91    1.60
   2  17  -8    6.31    3.39
  -2  17   8    9.87    3.23
  -2  17   8   10.71    1.82
  -1 -17   8   16.08    1.97
   1 -17  -8   19.13    2.19
   1 -17  -8   19.54    1.94
   1  17  -8   10.79    3.38
  -1  17   8   12.61    2.12
  -1  17   8   11.03    2.76
  -1  17   8   19.91    2.23
   0 -17  -8   42.83    2.50
   0 -17  -8   43.47    2.57
   0 -17   8   36.44    2.44
   0  17  -8   38.58    4.41
   0  17   8   37.36    4.71
   0  17   8   37.68    3.60
   0  17   8   45.81    2.91
   1 -17   8   22.53    2.15
  -1 -17  -8   24.57    2.12
  -1 -17  -8   27.48    2.08
   1  17   8   24.78    2.67
  -1  17  -8   21.34    3.86
   1  17   8   22.65    3.72
   1  17   8   20.13    2.81
   2 -17   8   19.86    2.29
  -2 -17  -8   20.17    2.25
  -2 -17  -8   25.41    2.21
   2  17   8   18.07    2.38
   2  17   8   22.60    3.50
   2  17   8   16.86    4.07
  -7   0   9   21.60    2.21
   7   0  -9   26.33    2.15
  -7   0   9   23.90    2.49
  -7   0   9   23.93    2.66
  -6   0   9    0.50    0.70
  -6   0   9    1.15    0.91
  -6   0   9    0.12    1.15
   6   0  -9    0.45    0.70
  -5   0   9   16.49    1.87
  -5   0   9   14.70    1.39
  -5   0   9   16.06    1.12
   5   0  -9   14.25    1.18
  -4   0   9   -0.01    0.47
  -4   0   9   -0.37    0.58
   4   0  -9    0.09    0.24
   4   0  -9    0.19    0.36
  -4   0   9   -0.10    0.31
  -3   0   9    0.00    0.38
   3   0  -9    0.35    0.45
   3   0  -9    0.70    0.28
  -3   0   9    0.39    0.24
   3   0  -9    0.38    0.23
  -3   0   9    0.00    0.42
   2   0  -9    0.08    0.24
  -2   0   9    0.07    0.39
   2   0  -9    0.32    0.38
  -2   0   9   -0.03    0.20
  -2   0   9    0.07    0.30
  -1   0   9   13.43    0.66
  -1   0   9   11.72    1.08
  -1   0   9   12.32    0.85
   0   0   9    0.33    0.22
   0   0   9    0.25    0.35
   0   0   9    0.40    0.26
   0   0   9   -0.76    0.58
   0   0   9   -0.12    0.35
   0   0  -9    0.37    0.19
   0   0  -9   -0.86    0.51
   1   0   9   69.55    2.59
   1   0   9   65.41    2.38
   1   0   9   70.27    2.85
   1   0   9   76.49    2.65
  -1   0  -9   75.35    2.89
   2   0   9   -0.37    0.37
   2   0   9   -0.16    0.48
   2   0   9    0.16    0.23
   2   0   9   -0.17    0.53
  -2   0  -9    0.26    0.66
   3   0   9   55.14    2.68
   3   0   9   51.32    2.28
   3   0   9   52.89    1.98
  -3   0  -9   53.95    2.79
  -4   0  -9   -1.29    0.61
   4   0   9    0.90    0.76
   4   0   9   -0.03    0.46
   4   0   9    0.11    0.43
   5   0   9   11.50    1.27
  -5   0  -9   10.93    1.48
  -6   0  -9   -0.16    0.96
  -6   0  -9    0.02    1.54
   6   0   9    2.43    0.97
  -6   0  -9    1.89    1.34
  -7  -1   9   28.68    2.81
  -7  -1   9   43.09    3.85
   7  -1  -9   29.41    2.34
  -7  -1   9   32.00    2.48
   7   1  -9   37.59    2.42
  -7   1   9   34.30    2.76
  -7   1   9   34.91    3.52
  -6  -1   9   15.75    1.42
   6  -1  -9   12.53    1.41
  -6  -1   9   14.64    1.93
  -6  -1   9   12.41    1.50
   6   1  -9   12.39    1.40
  -6   1   9    9.92    1.33
  -6   1   9   12.68    1.74
  -6   1   9   13.29    1.41
  -5  -1   9   74.41    3.11
  -5  -1   9   73.90    3.53
   5  -1  -9   69.63    2.81
  -5  -1   9   70.98    2.70
  -5   1   9   70.55    2.98
  -5   1   9   70.72    3.34
  -5   1   9   72.30    2.68
   5   1  -9   73.20    2.80
   4  -1  -9    0.63    0.38
  -4  -1   9    0.02    0.34
  -4  -1   9    0.99    0.71
  -4  -1   9    0.81    0.52
   4  -1  -9    0.99    0.30
  -4   1   9    0.15    0.60
  -4   1   9    0.63    0.34
   4   1  -9    0.88    0.24
   4   1  -9    0.39    0.36
  -4   1   9    1.48    0.55
   3  -1  -9   23.63    1.01
   3  -1  -9   24.67    1.13
  -3  -1   9   25.21    1.10
  -3  -1   9   23.67    1.53
  -3  -1   9   23.23    1.31
   3  -1  -9   24.81    1.08
  -3   1   9   23.21    1.06
  -3   1   9   22.71    1.26
   3   1  -9   22.41    1.06
  -3   1   9   25.09    1.50
   2  -1  -9   37.90    1.40
  -2  -1   9   35.51    1.39
   2  -1  -9   37.22    1.42
  -2  -1   9   36.41    1.62
  -2  -1   9   35.30    1.77
  -2   1   9   37.00    1.75
   2   1  -9   37.08    1.36
  -2   1   9   33.91    1.55
  -1  -1   9   14.79    0.94
  -1  -1   9   15.41    1.14
  -1  -1   9   15.50    0.68
   1  -1  -9   13.08    0.79
   1   1  -9   15.59    0.54
  -1   1   9   15.13    0.78
  -1   1   9   14.85    0.91
  -1   1   9   15.08    1.19
  -1   1   9   14.28    0.76
   0  -1   9  125.03    4.14
   0  -1   9  140.04    4.00
   0  -1   9  129.15    4.61
   0  -1   9  136.30    4.58
   0  -1   9  129.68    4.36
   0   1   9  135.07    4.12
   0   1  -9  137.37    4.63
   0   1   9  135.62    4.56
   0   1   9  129.76    4.59
   0   1  -9  137.85    4.01
   1  -1   9  167.86    5.31
  -1  -1  -9  179.27    5.83
   1  -1   9  181.30    5.55
   1  -1   9  168.90    5.76
   1  -1   9  173.27    5.54
   1   1   9  173.84    5.83
   1   1   9  168.77    5.37
  -1   1  -9  181.00    5.82
  -2  -1  -9   43.42    2.25
   2  -1   9   42.34    2.10
   2  -1   9   42.75    1.63
   2  -1   9   40.34    1.80
   2  -1   9   40.48    1.55
  -2   1  -9   41.37    2.16
   2   1   9   38.69    1.85
   2   1   9   42.41    2.68
   2   1   9   44.04    1.63
   3  -1   9  230.81    6.87
   3  -1   9  219.45    6.87
  -3  -1  -9  219.31    7.70
   3  -1   9  230.62    7.21
   3  -1   9  231.81    7.50
  -3   1  -9  230.22    7.58
   3   1   9  223.96    7.25
   3   1   9  226.64    7.63
   3   1   9  222.33    6.77
   3   1   9  228.27    6.71
   3   1   9  230.88    6.96
   4  -1   9    0.27    0.47
  -4  -1  -9    0.71    0.74
   4  -1   9    1.24    0.48
   4   1   9   -0.06    0.46
   4   1   9    0.22    0.80
  -4   1  -9    0.37    0.68
   4   1   9    0.42    0.46
   4   1   9    3.10    1.62
   5  -1   9   62.86    2.56
  -5  -1  -9   56.11    3.47
   5   1   9   60.82    3.27
   5   1   9   60.61    2.61
  -5   1  -9   57.82    2.97
   6  -1   9    2.08    0.95
  -6  -1  -9    1.81    1.67
  -6  -1  -9    2.32    1.08
  -6  -1  -9   -0.03    1.25
  -6   1  -9    2.97    1.33
  -6   1  -9    2.37    1.52
  -6   1  -9    3.18    1.06
   6   1   9    2.33    1.00
   7  -2  -9    6.34    1.26
  -7  -2   9    6.17    2.03
  -7  -2   9    6.22    1.58
  -7  -2   9    5.10    1.32
  -7   2   9    5.69    1.55
  -7   2   9    4.48    1.73
   7   2  -9    5.65    1.18
  -6  -2   9   15.73    2.05
  -6  -2   9   15.82    1.90
   6  -2  -9   16.51    1.62
  -6   2   9   14.64    1.69
   6   2  -9   16.65    1.56
  -6   2   9   18.94    1.49
  -6   2   9   18.80    2.24
  -5  -2   9    0.19    0.49
  -5  -2   9   -0.20    0.70
  -5  -2   9    0.63    0.92
   5  -2  -9   -0.45    0.48
  -5   2   9   -0.17    0.44
  -5   2   9    0.73    0.76
   5   2  -9   -0.30    0.42
  -5   2   9   -0.06    0.63
  -4  -2   9   67.50    2.11
  -4  -2   9   66.21    2.50
  -4  -2   9   72.83    2.86
   4  -2  -9   70.18    2.60
  -4  -2   9   67.51    3.15
  -4   2   9   71.28    2.71
  -4   2   9   68.00    2.99
   4   2  -9   69.04    2.51
   4   2  -9   68.94    2.14
  -4   2   9   67.93    2.42
   3  -2  -9   20.14    0.94
  -3  -2   9   19.75    1.25
  -3  -2   9   20.17    1.42
   3  -2  -9   19.41    0.87
   3  -2  -9   19.11    1.05
  -3  -2   9   19.92    0.97
   3   2  -9   19.70    0.96
  -3   2   9   19.43    1.15
  -3   2   9   21.09    1.37
  -3   2   9   18.83    0.94
  -2  -2   9   64.17    2.43
   2  -2  -9   63.74    2.22
  -2  -2   9   65.32    2.67
   2  -2  -9   64.65    2.10
  -2  -2   9   63.81    2.19
   2  -2  -9   64.73    2.16
  -2  -2   9   60.89    2.10
   2   2  -9   62.17    2.74
  -2   2   9   61.39    2.33
  -2   2   9   63.39    2.55
   2   2  -9   63.53    2.09
  -2   2   9   62.03    2.15
   1  -2  -9  107.62    3.52
  -1  -2   9  111.32    4.01
   1  -2  -9  113.60    3.29
  -1  -2   9  113.15    3.57
  -1  -2   9  116.67    3.40
  -1  -2   9  113.52    3.80
  -1   2   9  108.34    3.54
  -1   2   9  115.45    4.38
   1   2  -9  117.56    3.35
  -1   2   9  106.83    3.72
   0  -2   9   24.42    1.23
   0  -2   9   24.02    1.63
   0  -2   9   25.53    1.46
   0  -2   9   26.15    0.84
   0  -2   9   23.58    1.04
   0   2   9   24.73    1.12
   0   2  -9   25.99    1.54
   0   2   9   22.36    1.12
   0   2   9   25.49    1.47
   0   2  -9   25.21    0.95
   0   2   9   21.98    1.18
   1  -2   9  135.72    4.44
   1  -2   9  132.57    4.39
   1  -2   9  123.28    4.14
   1  -2   9  133.29    4.61
   1   2   9  126.16    4.38
  -1   2  -9  147.03    4.72
   1   2   9  136.63    4.22
   1   2   9  136.02    4.72
  -1   2  -9  135.08    4.41
   2  -2   9    0.42    0.25
   2  -2   9   -0.02    0.39
   2  -2   9    0.13    0.22
   2  -2   9    0.36    0.42
   2  -2   9    0.59    0.58
   2   2   9    0.77    0.68
  -2   2  -9    1.34    0.70
  -2   2  -9    0.78    0.63
   2   2   9    0.36    0.39
   2   2   9   -0.24    0.27
   2   2   9    0.28    0.38
   3  -2   9    9.84    0.70
   3  -2   9   10.16    0.74
   3  -2   9    9.21    1.03
   3   2   9    9.03    1.11
  -3   2  -9   12.25    1.42
   3   2   9    9.75    0.80
   3   2   9   10.88    1.11
   3   2   9    9.19    1.30
  -4  -2  -9   25.53    1.85
   4  -2   9   24.49    1.30
   4  -2   9   24.03    1.66
   4   2   9   25.71    1.83
   4   2   9   24.07    2.76
   4   2   9   25.40    1.39
   4   2   9   23.22    1.42
  -5  -2  -9   16.33    1.65
  -5  -2  -9   17.03    2.64
  -5  -2  -9   17.16    2.06
   5  -2   9   15.30    1.38
   5   2   9   16.20    1.51
  -5   2  -9   16.86    1.78
   5   2   9   18.20    2.36
  -6  -2  -9   25.59    3.31
  -6  -2  -9   25.17    2.57
  -6  -2  -9   25.01    2.18
   6  -2   9   22.19    2.00
   6   2   9   20.54    1.98
  -6   2  -9   22.02    2.40
  -6   2  -9   21.88    2.41
   7  -3  -9    0.93    1.09
  -7  -3   9    0.06    1.41
  -7  -3   9    1.69    2.06
  -7  -3   9    2.28    1.14
  -7   3   9    2.78    1.73
   7   3  -9    0.29    1.03
  -7   3   9    2.63    1.37
  -6  -3   9    0.78    0.70
   6  -3  -9    0.18    0.75
  -6  -3   9    1.40    1.05
  -6  -3   9    1.85    1.47
  -6   3   9    1.55    0.95
   6   3  -9   -0.90    0.66
  -6   3   9   -0.20    1.13
  -6   3   9   -1.10    0.75
  -5  -3   9   19.01    1.04
  -5  -3   9   17.30    2.14
  -5  -3   9   16.91    1.16
  -5  -3   9   16.50    1.52
   5  -3  -9   14.48    1.26
   5   3  -9   15.67    1.19
  -5   3   9   16.16    1.14
  -5   3   9   14.24    1.32
  -5   3   9   17.39    1.70
  -4  -3   9    1.42    0.83
   4  -3  -9    0.05    0.30
   4  -3  -9   -0.39    0.36
  -4  -3   9   -0.09    0.55
  -4  -3   9    0.07    0.24
  -4  -3   9    0.61    0.39
  -4   3   9    0.48    0.56
  -4   3   9    0.71    0.50
   4   3  -9   -0.24    0.35
   4   3  -9   -0.06    0.22
  -4   3   9    0.22    0.34
  -3  -3   9   59.39    2.72
   3  -3  -9   60.33    2.09
  -3  -3   9   62.16    2.20
  -3  -3   9   59.26    2.46
   3  -3  -9   63.12    2.29
  -3  -3   9   59.88    1.87
   3   3  -9   62.22    2.90
   3   3  -9   62.71    2.12
  -3   3   9   56.87    2.29
  -3   3   9   60.75    2.31
  -3   3   9   58.74    2.52
   2  -3  -9    0.67    0.27
  -2  -3   9    0.85    0.27
  -2  -3   9    0.69    0.16
   2  -3  -9    0.55    0.25
  -2  -3   9    0.57    0.53
  -2  -3   9    0.81    0.40
   2  -3  -9    1.41    0.37
   2   3  -9    0.31    0.56
   2   3  -9    1.16    0.25
  -2   3   9    0.87    0.34
  -2   3   9    1.14    0.44
  -2   3   9    0.41    0.26
  -1  -3   9   50.22    1.60
  -1  -3   9   52.62    1.58
   1  -3  -9   47.56    1.77
   1  -3  -9   48.29    1.74
  -1  -3   9   48.55    2.20
   1  -3  -9   51.09    1.55
  -1  -3   9   48.13    1.77
   1   3  -9   49.24    2.23
   1   3  -9   51.79    1.62
  -1   3   9   48.28    2.15
  -1   3   9   48.25    1.90
  -1   3   9   49.45    1.77
   1   3  -9   50.31    1.59
   0  -3   9   20.59    1.70
   0  -3   9   20.14    1.34
   0  -3   9   20.24    0.93
   0  -3   9   20.79    1.15
   0   3  -9   19.54    1.43
   0   3  -9   19.38    1.26
   0   3  -9   20.55    0.86
   0   3   9   21.26    1.15
   0   3   9   18.86    1.06
   1  -3   9    2.70    0.50
   1  -3   9    3.27    0.76
   1  -3   9    2.61    0.38
   1  -3   9    2.91    0.23
   1  -3   9    4.85    0.78
   1   3   9    2.76    0.66
  -1   3  -9    1.97    0.68
   1   3   9    2.36    0.48
  -1   3  -9    2.81    0.61
   1   3   9    2.03    0.32
   2  -3   9   15.51    0.80
   2  -3   9   14.61    1.04
   2  -3   9   14.56    0.68
   2  -3   9   18.35    1.40
   2  -3   9   15.24    0.80
   2   3   9   17.32    0.93
   2   3   9   16.56    1.56
   2   3   9   15.82    1.12
  -2   3  -9   17.21    1.45
  -2   3  -9   13.78    1.15
   2   3   9   14.05    1.17
   3  -3   9    7.33    0.61
   3  -3   9    6.58    0.81
   3  -3   9    9.51    1.20
   3  -3   9    7.50    0.65
  -3  -3  -9    9.47    1.16
   3   3   9    6.77    0.77
   3   3   9    8.99    1.04
   3   3   9    5.84    1.18
   3   3   9    6.83    0.91
  -3   3  -9    6.46    1.17
  -3   3  -9    6.81    1.20
  -4  -3  -9    3.67    0.51
   4  -3   9    2.92    0.56
  -4  -3  -9    2.68    0.81
   4  -3   9    3.31    0.85
   4   3   9    2.66    0.96
   4   3   9    0.61    1.50
   4   3   9    2.02    0.90
   4   3   9    3.82    0.69
  -5  -3  -9   18.10    1.48
   5  -3   9   19.71    1.44
  -5  -3  -9   18.90    1.96
  -5  -3  -9   19.98    2.65
   5   3   9   18.56    1.60
  -5   3  -9   18.64    1.81
   5   3   9   21.68    2.37
  -6  -3  -9   -0.42    1.66
  -6  -3  -9   -1.00    1.32
  -6  -3  -9   -2.29    0.95
   6  -3   9   -0.51    1.00
  -6   3  -9    1.06    1.24
   6   3   9    0.83    1.08
  -6   3  -9   -0.50    1.40
  -7  -4   9    4.13    1.36
  -7  -4   9    1.19    1.62
   7  -4  -9    3.13    1.29
  -7  -4   9    6.16    2.48
   7   4  -9    3.70    1.23
  -7   4   9    3.16    1.62
  -6  -4   9    2.38    1.18
   6  -4  -9    3.93    0.94
  -6  -4   9    2.95    0.91
  -6  -4   9    3.44    1.65
   6   4  -9    2.32    0.82
  -6   4   9    3.69    1.19
  -5  -4   9   22.43    1.85
  -5  -4   9   27.06    2.51
  -5  -4   9   21.96    1.21
  -5  -4   9   24.01    1.44
   5  -4  -9   25.11    1.27
   5  -4  -9   26.08    1.59
  -5   4   9   24.97    1.89
  -5   4   9   24.76    1.37
  -5   4   9   25.66    1.56
   5   4  -9   26.36    1.49
   4  -4  -9    2.83    0.48
  -4  -4   9    3.40    0.37
   4  -4  -9    2.17    0.55
  -4  -4   9    3.85    1.00
  -4  -4   9    3.22    0.52
  -4  -4   9    2.09    0.65
  -4   4   9    3.66    0.52
  -4   4   9    2.67    0.55
   4   4  -9    4.40    1.19
   4   4  -9    2.79    0.49
   4   4  -9    3.29    0.32
  -4   4   9    2.05    0.65
  -3  -4   9  199.76    6.67
  -3  -4   9  188.77    5.70
   3  -4  -9  202.19    6.14
  -3  -4   9  192.81    6.02
  -3  -4   9  200.12    6.37
   3  -4  -9  198.76    5.92
   3   4  -9  196.20    6.85
  -3   4   9  189.15    6.33
   3   4  -9  194.90    5.90
  -3   4   9  186.94    6.07
  -3   4   9  182.88    5.88
   2  -4  -9    3.94    0.47
  -2  -4   9    4.09    0.66
   2  -4  -9    3.85    0.26
  -2  -4   9    4.49    0.49
  -2  -4   9    3.47    0.33
   2  -4  -9    3.55    0.41
  -2  -4   9    2.91    0.79
  -2   4   9    3.84    0.46
  -2   4   9    1.98    0.54
   2   4  -9    5.06    0.92
  -2   4   9    3.67    0.51
   2   4  -9    3.79    0.37
   1  -4  -9  263.67    7.92
  -1  -4   9  266.87    8.42
   1  -4  -9  259.82    7.70
  -1  -4   9  271.04    7.76
  -1  -4   9  264.47    7.92
   1  -4  -9  267.92    7.82
  -1  -4   9  263.19    8.17
  -1   4   9  264.46    8.06
   1   4  -9  261.17    7.66
   1   4  -9  267.38    8.45
   1   4  -9  275.03    7.78
   1   4  -9  265.46    8.48
  -1   4   9  266.34    7.88
  -1   4   9  249.67    8.30
   0  -4   9    0.19    0.21
   0  -4   9    0.66    0.26
   0  -4   9    0.45    0.37
   0  -4   9   -0.59    0.46
   0  -4  -9    0.48    0.24
   0   4  -9   -0.56    0.57
   0   4  -9    0.25    0.50
   0   4   9    0.42    0.32
   0   4  -9    0.29    0.31
   0   4   9    0.46    0.25
   0   4   9    0.60    0.42
   1  -4   9   26.67    1.38
   1  -4   9   26.49    1.13
   1  -4   9   26.98    1.65
   1  -4   9   27.30    1.59
  -1   4  -9   28.27    1.69
   1   4   9   29.17    1.40
   1   4   9   28.07    1.21
   1   4   9   28.92    1.73
  -1   4  -9   28.00    1.44
   2  -4   9    1.05    0.49
   2  -4   9    1.61    0.25
   2  -4   9    0.28    0.69
   2  -4   9    1.87    0.41
   2  -4   9    1.65    0.33
  -2   4  -9    0.47    0.61
   2   4   9    1.21    0.50
  -2   4  -9    2.01    0.75
   2   4   9    0.86    0.91
   2   4   9    1.42    0.38
   2   4   9    1.62    0.85
   3  -4   9   19.23    1.30
  -3  -4  -9   20.52    1.02
   3  -4   9   19.12    0.95
   3  -4   9   20.88    1.71
  -3  -4  -9   18.06    1.51
   3  -4   9   19.16    0.84
  -3   4  -9   18.03    1.90
   3   4   9   19.75    1.19
   3   4   9   16.94    2.57
   3   4   9   16.85    2.09
   3   4   9   19.70    1.51
  -3   4  -9   20.62    1.93
   4  -4   9    0.86    0.54
  -4  -4  -9    0.28    0.72
  -4  -4  -9   -0.05    1.05
  -4  -4  -9    0.96    0.43
   4   4   9   -0.84    0.51
   4   4   9   -1.76    1.66
   4   4   9    1.27    1.15
   4   4   9    0.97    0.88
  -5  -4  -9   45.29    3.48
  -5  -4  -9   50.06    2.83
   5  -4   9   48.36    2.21
  -5  -4  -9   45.26    2.45
  -5   4  -9   47.42    2.60
   5   4   9   49.65    3.24
   5   4   9   43.81    2.88
  -6  -4  -9   -1.18    1.35
   6  -4   9    1.89    1.09
  -6  -4  -9   -0.66    1.85
  -6  -4  -9    2.56    1.15
   6   4   9    0.03    1.11
  -6   4  -9    1.34    1.37
  -6   4  -9   -1.33    1.25
   7  -5  -9    2.35    1.25
  -7  -5   9    2.17    1.66
  -7  -5   9    4.85    2.50
  -7  -5   9    0.86    1.22
  -7   5   9    0.66    1.61
   7   5  -9    5.23    1.26
  -6  -5   9    2.42    1.56
  -6  -5   9    6.66    1.06
  -6  -5   9    7.17    2.02
   6  -5  -9    6.79    1.15
  -6   5   9    5.01    1.27
  -6   5   9    6.90    1.22
   6   5  -9    7.52    1.09
  -5  -5   9   29.57    1.61
   5  -5  -9   24.64    1.66
   5  -5  -9   26.89    1.44
  -5  -5   9   34.28    2.86
  -5  -5   9   29.83    2.11
  -5  -5   9   28.07    1.27
  -5   5   9   30.00    1.48
  -5   5   9   28.28    2.02
   5   5  -9   26.81    1.54
  -5   5   9   29.81    1.63
   5   5  -9   28.32    2.92
   4  -5  -9    0.92    0.55
  -4  -5   9    3.18    1.03
  -4  -5   9    2.23    0.74
   4  -5  -9    0.58    0.43
  -4  -5   9    0.77    0.45
  -4   5   9    0.87    0.57
  -4   5   9    1.41    0.49
  -4   5   9   -0.19    0.38
   4   5  -9    0.81    0.40
   4   5  -9    1.46    1.13
  -3  -5   9   69.91    2.48
   3  -5  -9   70.29    2.61
   3  -5  -9   70.87    2.42
  -3  -5   9   65.99    3.10
  -3  -5   9   66.68    2.20
  -3  -5   9   71.05    2.83
   3   5  -9   68.51    3.30
  -3   5   9   66.95    2.32
  -3   5   9   68.88    2.48
  -3   5   9   64.68    2.73
   3   5  -9   67.67    2.32
   2  -5  -9   11.12    0.71
  -2  -5   9    9.97    0.55
  -2  -5   9   10.68    0.71
  -2  -5   9    9.41    0.93
   2  -5  -9    9.88    0.50
   2  -5  -9   10.04    0.46
   2   5  -9   11.03    0.56
   2   5  -9    7.90    1.13
  -2   5   9   10.87    0.98
  -2   5   9   11.22    0.77
  -2   5   9    9.82    0.66
  -1  -5   9   11.45    0.96
   1  -5  -9   10.87    0.55
  -1  -5   9   10.74    0.60
  -1  -5   9   11.12    0.69
   1  -5  -9   11.05    0.68
  -1  -5   9   10.38    1.15
   1  -5  -9   11.06    0.71
   1   5  -9    8.98    1.10
  -1   5   9   10.85    0.76
  -1   5   9   11.14    1.01
   1   5  -9   11.21    0.72
  -1   5   9   10.74    0.67
   1   5  -9   11.41    0.43
   1   5  -9   10.86    1.20
   0  -5   9   53.70    2.14
   0  -5  -9   54.07    1.94
   0  -5   9   53.23    2.37
   0  -5   9   53.00    1.88
   0   5   9   51.18    2.07
   0   5   9   52.45    2.33
   0   5   9   54.94    1.91
   0   5  -9   52.07    2.41
   1  -5   9   24.42    1.65
  -1  -5  -9   23.25    1.06
   1  -5   9   21.36    1.46
   1  -5   9   22.69    1.24
   1  -5   9   20.85    0.96
  -1   5  -9   22.95    1.55
   1   5   9   22.80    1.27
  -1   5  -9   19.70    1.25
  -1   5  -9   21.08    1.34
   1   5   9   22.27    1.08
   1   5   9   20.77    1.54
   2  -5   9   76.61    2.82
   2  -5   9   77.50    2.57
   2  -5   9   76.70    2.48
  -2  -5  -9   77.16    2.66
   2  -5   9   74.41    2.38
   2  -5   9   81.03    3.08
  -2  -5  -9   76.48    3.11
   2   5   9   77.21    3.46
   2   5   9   79.12    2.77
  -2   5  -9   84.35    2.98
   2   5   9   76.85    3.20
   2   5   9   77.42    3.02
  -2   5  -9   80.49    3.21
  -3  -5  -9   32.83    1.98
   3  -5   9   27.77    1.44
  -3  -5  -9   34.69    1.43
   3  -5   9   33.73    1.70
  -3   5  -9   32.87    2.19
   3   5   9   34.68    1.61
   3   5   9   35.87    2.33
   3   5   9   37.56    2.01
   3   5   9   32.51    2.58
  -4  -5  -9   26.27    2.02
   4  -5   9   27.98    1.39
  -4  -5  -9   26.28    2.53
  -4  -5  -9   27.34    1.55
  -4  -5  -9   27.07    1.30
   4   5   9   23.77    2.43
   4   5   9   29.96    3.34
   4   5   9   29.12    1.61
   4   5   9   26.58    2.01
  -5  -5  -9   20.84    2.34
  -5  -5  -9   24.34    3.21
  -5  -5  -9   25.90    1.74
   5  -5   9   25.43    1.63
   5   5   9   28.40    2.84
   5   5   9   25.47    1.92
  -5   5  -9   23.02    1.94
  -6  -5  -9   -1.24    1.04
  -6  -5  -9    0.27    1.56
  -6  -5  -9    2.27    2.06
   6  -5   9   -0.27    1.27
  -6   5  -9    1.26    1.28
  -6   5  -9   -1.59    1.31
   6   5   9   -1.50    1.10
  -6  -6   9    9.75    1.64
   6  -6  -9    7.61    1.18
  -6  -6   9    9.36    1.22
  -6  -6   9    6.22    2.08
  -6   6   9    8.92    1.46
  -6   6   9   11.71    1.19
   6   6  -9    8.43    1.16
  -5  -6   9   10.03    1.72
  -5  -6   9    9.34    1.19
   5  -6  -9   10.49    1.12
  -5  -6   9   12.00    0.95
   5  -6  -9   10.01    1.61
  -5   6   9    9.12    1.25
  -5   6   9   10.07    1.15
   5   6  -9    5.55    1.77
   5   6  -9   10.24    1.13
   4  -6  -9   35.67    1.58
  -4  -6   9   35.44    1.40
  -4  -6   9   34.66    2.57
  -4  -6   9   34.96    1.65
   4  -6  -9   33.54    1.79
  -4  -6   9   36.13    2.09
   4   6  -9   35.41    1.58
   4   6  -9   34.92    2.67
  -4   6   9   34.67    1.56
  -4   6   9   34.48    1.92
  -4   6   9   35.41    1.58
   3  -6  -9    1.09    0.45
  -3  -6   9    1.00    0.61
  -3  -6   9    0.84    0.37
   3  -6  -9    0.60    0.36
  -3  -6   9   -0.28    0.68
  -3  -6   9   -0.16    0.31
  -3   6   9    0.26    0.39
  -3   6   9    0.53    0.33
  -3   6   9    1.05    0.56
   3   6  -9    1.11    0.90
   2  -6  -9   35.86    1.46
   2  -6  -9   35.27    1.27
  -2  -6   9   34.47    1.74
  -2  -6   9   34.77    1.31
  -2  -6   9   34.63    2.42
  -2  -6   9   35.23    1.46
  -2   6   9   36.26    1.38
  -2   6   9   36.02    1.51
   2   6  -9   35.29    2.20
  -2   6   9   35.12    1.76
   2   6  -9   34.70    1.24
   1  -6  -9   57.63    1.97
   1  -6  -9   60.60    2.16
  -1  -6   9   60.09    2.40
   1  -6  -9   60.31    1.97
  -1  -6   9   57.79    2.10
  -1  -6   9   62.66    2.67
  -1   6   9   59.83    2.47
  -1   6   9   60.11    2.22
   1   6  -9   61.62    2.77
   1   6  -9   55.50    2.77
   0  -6   9    8.27    0.60
   0  -6   9    7.92    0.57
   0  -6  -9    8.57    0.65
   0  -6   9    8.34    1.00
   0  -6   9    8.32    0.86
   0   6   9    7.95    0.98
   0   6   9    8.35    0.61
   0   6  -9    7.69    1.04
   0   6  -9    6.46    0.92
   0   6   9    9.17    0.77
   1  -6   9   70.24    2.57
  -1  -6  -9   68.28    2.38
   1  -6   9   78.16    3.64
   1  -6   9   68.33    2.38
   1  -6   9   63.38    2.89
   1  -6   9   63.88    2.23
   1   6   9   68.75    2.41
  -1   6  -9   64.80    2.62
  -1   6  -9   70.22    2.88
   1   6   9   67.30    2.62
   1   6   9   66.61    2.95
  -1   6  -9   65.10    2.69
  -2  -6  -9    3.00    0.79
  -2  -6  -9    2.76    0.43
   2  -6   9    2.72    0.33
   2  -6   9    3.10    0.63
   2  -6   9    3.09    0.38
   2  -6   9    4.17    0.89
  -2   6  -9    1.82    0.74
   2   6   9    3.04    0.54
   2   6   9    3.36    0.92
   2   6   9    4.35    1.01
   2   6   9    2.76    0.64
   3  -6   9   23.34    1.42
  -3  -6  -9   22.28    2.14
  -3  -6  -9   22.58    1.29
  -3  -6  -9   21.80    1.75
  -3  -6  -9   23.02    1.16
   3  -6   9   21.81    1.02
   3   6   9   28.69    2.34
   3   6   9   24.64    1.34
   3   6   9   25.47    2.48
   3   6   9   22.14    1.65
  -4  -6  -9   21.81    1.17
   4  -6   9   22.74    1.26
  -4  -6  -9   21.83    1.39
  -4  -6  -9   20.44    1.89
  -4  -6  -9   22.20    2.60
   4   6   9   22.71    1.49
   4   6   9   18.91    2.18
   4   6   9   17.44    1.92
   4   6   9   23.14    2.75
  -5  -6  -9    2.13    1.19
  -5  -6  -9    0.54    0.73
   5  -6   9    2.14    0.83
  -5   6  -9    0.88    1.06
   5   6   9    0.25    1.46
   5   6   9    0.94    0.95
  -6  -6  -9   17.86    2.05
  -6  -6  -9   16.45    2.11
  -6  -6  -9   14.42    2.71
   6   6   9   12.49    1.64
  -6   6  -9    8.63    1.75
  -6   6  -9   11.92    1.64
  -6  -7   9    9.36    2.39
   6  -7  -9    6.46    1.21
  -6  -7   9    6.31    1.55
  -6  -7   9    5.06    1.04
   6   7  -9    5.32    1.04
  -6   7   9    3.74    1.22
  -5  -7   9   54.87    2.09
   5  -7  -9   50.84    2.23
  -5  -7   9   54.68    3.86
   5  -7  -9   50.01    2.52
  -5  -7   9   50.90    2.91
  -5  -7   9   51.48    2.36
   5   7  -9   49.67    4.03
  -5   7   9   53.63    2.04
   5   7  -9   55.11    2.33
  -4  -7   9    4.87    1.31
   4  -7  -9    3.84    0.79
   4  -7  -9    4.84    0.68
  -4  -7   9    2.95    0.90
  -4  -7   9    4.30    0.57
  -4  -7   9    6.90    0.86
   4   7  -9    4.81    0.64
  -4   7   9    5.38    0.89
  -4   7   9    3.96    0.60
   4   7  -9    3.98    1.27
   3  -7  -9   13.22    0.94
  -3  -7   9   12.82    0.77
   3  -7  -9   12.04    0.76
  -3  -7   9   12.84    0.91
  -3  -7   9   13.19    1.34
  -3  -7   9   13.87    1.78
  -3   7   9   14.12    0.90
   3   7  -9   12.91    0.81
  -3   7   9   13.56    0.83
  -3   7   9   12.93    1.21
   3   7  -9   13.37    1.82
   2  -7  -9    1.32    0.36
  -2  -7   9   -0.14    0.73
  -2  -7   9    2.07    0.62
   2  -7  -9    1.83    0.37
  -2  -7   9    1.86    0.34
  -2  -7   9    1.98    0.43
  -2   7   9    1.56    0.54
  -2   7   9    2.41    0.38
   2   7  -9    2.50    0.91
  -2   7   9    1.46    0.42
   2   7  -9    1.69    0.28
   1  -7  -9   29.93    1.10
  -1  -7   9   28.90    1.21
   1  -7  -9   32.12    1.60
   1  -7  -9   28.06    1.30
   1  -7  -9   27.62    1.06
  -1  -7   9   30.20    1.59
  -1  -7   9   31.42    1.89
  -1  -7   9   31.61    1.28
  -1   7   9   28.45    1.63
   1   7  -9   29.62    2.20
  -1   7   9   29.03    1.38
   1   7  -9   31.28    2.05
  -1   7   9   29.94    1.24
   0  -7  -9   30.06    1.20
   0  -7  -9   28.88    1.35
   0  -7   9   32.21    1.87
   0  -7   9   28.40    1.55
   0  -7  -9   27.75    1.21
   0  -7   9   28.86    1.23
   0  -7  -9   28.94    1.31
   0  -7   9   29.59    1.23
   0   7  -9   29.14    1.83
   0   7  -9   29.46    1.87
   0   7   9   29.18    1.71
   0   7   9   29.28    1.25
   0   7   9   30.42    1.47
  -1  -7  -9  177.27    5.52
  -1  -7  -9  178.00    5.48
   1  -7   9  166.87    5.31
   1  -7   9  182.09    5.68
  -1  -7  -9  176.80    5.89
   1  -7   9  176.30    5.53
   1   7   9  176.04    6.11
   1   7   9  171.62    6.15
   1   7   9  175.84    5.55
  -1   7  -9  180.35    6.02
  -1   7  -9  179.41    5.74
   1   7   9  179.13    5.82
   2  -7   9   11.83    1.27
  -2  -7  -9   10.31    1.46
  -2  -7  -9    8.44    0.80
  -2  -7  -9    7.92    0.72
  -2  -7  -9    7.21    1.02
   2  -7   9    8.36    1.00
   2   7   9    8.81    1.07
   2   7   9    9.48    1.37
  -2   7  -9   10.25    1.22
  -2   7  -9    8.58    0.99
   2   7   9    9.18    0.84
  -2   7  -9    8.02    1.39
   2   7   9    6.48    1.24
  -3  -7  -9  169.26    5.29
  -3  -7  -9  161.78    5.45
  -3  -7  -9  171.51    6.37
   3  -7   9  163.67    5.08
  -3  -7  -9  170.03    6.04
   3   7   9  171.66    5.55
   3   7   9  169.12    6.61
   3   7   9  172.44    6.44
   3   7   9  164.70    5.89
  -4  -7  -9    0.44    0.97
  -4  -7  -9   -0.23    1.37
  -4  -7  -9    0.12    0.48
   4  -7   9    0.02    0.59
  -4  -7  -9   -0.78    0.49
   4   7   9   -0.10    0.64
   4   7   9   -0.14    0.99
   4   7   9    0.42    1.67
   4   7   9    4.08    1.96
  -5  -7  -9   54.01    6.01
  -5  -7  -9   56.38    3.30
  -5  -7  -9   57.94    2.72
   5   7   9   49.33    4.89
  -6  -7  -9   -4.15    2.51
  -6  -7  -9   -3.09    1.71
  -6  -7  -9   -1.51    1.06
  -6   7  -9    0.51    1.37
   6   7   9   -0.03    1.33
   6  -8  -9    3.44    1.16
  -6  -8   9   -0.22    1.50
  -6  -8   9    2.43    0.99
  -6  -8   9    0.38    2.42
   6   8  -9    0.28    2.44
  -6   8   9    1.93    1.22
   6   8  -9    2.07    1.04
  -5  -8   9   14.27    1.71
   5  -8  -9   10.13    1.21
  -5  -8   9   10.24    1.16
  -5  -8   9   11.67    2.18
  -5  -8   9   12.70    1.29
   5  -8  -9   11.09    1.12
  -5   8   9   10.57    1.21
   5   8  -9    9.96    1.07
   5   8  -9   13.93    2.36
   4  -8  -9   13.88    1.18
  -4  -8   9   14.99    1.66
  -4  -8   9   13.52    1.14
  -4  -8   9   12.25    1.67
  -4  -8   9   15.96    1.03
   4   8  -9   14.98    1.09
   4   8  -9   12.09    2.07
  -4   8   9   15.19    0.98
  -4   8   9   14.98    1.15
  -4   8   9   15.85    1.35
   3  -8  -9    0.45    0.43
  -3  -8   9   -0.03    0.98
  -3  -8   9    0.74    0.78
  -3  -8   9    0.63    0.42
  -3  -8   9    1.34    0.37
   3  -8  -9    0.92    0.43
   3   8  -9    1.62    1.15
  -3   8   9    1.20    0.54
   3   8  -9    0.60    0.34
  -3   8   9    0.81    0.41
  -3   8   9    0.98    0.40
   2  -8  -9   43.68    1.72
  -2  -8   9   48.02    2.25
  -2  -8   9   48.07    2.66
  -2  -8   9   47.45    1.73
  -2  -8   9   46.16    1.85
   2  -8  -9   46.62    1.88
  -2   8   9   48.41    1.85
   2   8  -9   45.86    2.79
   2   8  -9   45.34    1.56
  -2   8   9   46.47    2.11
  -2   8   9   43.84    1.70
  -1  -8   9   19.62    1.00
   1  -8  -9   18.01    1.05
  -1  -8   9   19.35    1.31
   1  -8  -9   21.04    1.40
   1  -8  -9   19.91    1.26
   1  -8  -9   18.63    0.95
  -1  -8   9   19.92    1.77
   1  -8  -9   17.61    0.71
  -1  -8   9   19.22    0.96
  -1   8   9   19.18    1.37
  -1   8   9   18.26    0.95
  -1   8   9   20.26    1.13
   1   8  -9   16.12    1.77
   0  -8  -9   23.50    1.45
   0  -8  -9   23.33    1.03
   0  -8  -9   22.95    1.19
   0  -8   9   24.95    1.09
   0  -8  -9   25.07    1.13
   0  -8   9   21.05    1.09
   0  -8  -9   22.47    1.19
   0  -8   9   24.59    1.83
   0  -8   9   23.27    1.46
   0   8   9   24.15    1.14
   0   8  -9   25.87    1.82
   0   8   9   22.28    1.58
   0   8  -9   26.54    2.03
   0   8   9   22.80    1.32
   1  -8   9   53.31    2.19
   1  -8   9   52.29    2.46
   1  -8   9   52.55    2.01
  -1  -8  -9   53.04    2.00
  -1  -8  -9   53.15    1.94
  -1  -8  -9   52.95    2.42
  -1  -8  -9   51.94    2.62
  -1   8  -9   48.20    2.33
  -1   8  -9   50.92    2.46
   1   8   9   51.58    2.67
   1   8   9   51.14    2.02
  -1   8  -9   50.84    2.55
   1   8   9   50.05    2.23
   1   8   9   48.64    2.60
  -2  -8  -9    0.80    1.04
  -2  -8  -9    0.24    0.33
  -2  -8  -9    0.16    0.76
  -2  -8  -9    1.43    0.43
   2  -8   9    1.11    0.66
  -2   8  -9    0.69    0.68
  -2   8  -9    0.15    0.87
   2   8   9    0.67    0.46
   2   8   9    1.52    0.98
   2   8   9    0.09    0.59
   2   8   9    2.17    1.05
  -3  -8  -9   29.13    1.37
   3  -8   9   24.37    1.19
  -3  -8  -9   29.21    2.62
  -3  -8  -9   27.27    2.15
  -3  -8  -9   27.94    1.51
   3   8   9   31.13    2.03
   3   8   9   31.06    2.96
   3   8   9   28.89    1.59
   3   8   9   27.90    2.82
  -4  -8  -9    6.29    1.90
  -4  -8  -9    7.21    1.07
  -4  -8  -9    8.40    1.01
  -4  -8  -9    7.56    1.44
   4   8   9   10.75    1.62
   4   8   9    5.10    2.36
   4   8   9    6.22    1.32
   4   8   9    8.88    2.15
  -5  -8  -9    2.76    0.95
  -5  -8  -9    1.53    1.47
  -5  -8  -9    3.36    2.23
   5   8   9    4.98    1.80
  -6  -8  -9    7.39    1.39
  -6  -8  -9    6.05    1.96
  -6  -8  -9   -0.61    2.94
  -6   8  -9    4.08    1.66
   6   8   9    8.06    1.63
  -6  -9   9    5.20    1.80
  -6  -9   9    6.68    1.20
  -6  -9   9   10.16    3.07
   6   9  -9    9.44    1.39
   6   9  -9    5.38    2.71
  -6   9   9    7.29    1.20
  -5  -9   9   28.65    3.15
  -5  -9   9   30.65    1.85
  -5  -9   9   34.05    2.66
   5  -9  -9   30.03    1.97
  -5  -9   9   32.80    1.87
   5   9  -9   31.40    1.88
   5   9  -9   35.77    3.78
  -5   9   9   30.72    1.90
  -4  -9   9   -0.41    0.49
  -4  -9   9    0.19    0.52
   4  -9  -9    0.13    0.60
  -4  -9   9    0.71    1.49
  -4  -9   9    0.44    1.01
  -4   9   9    0.73    0.45
   4   9  -9    2.65    1.43
  -4   9   9    0.80    0.63
   4   9  -9    1.34    0.57
  -3  -9   9   22.22    1.80
   3  -9  -9   23.05    1.35
  -3  -9   9   22.64    2.31
  -3  -9   9   22.10    1.14
  -3  -9   9   22.52    1.28
   3  -9  -9   22.10    1.19
  -3   9   9   22.74    1.17
   3   9  -9   17.72    2.31
  -3   9   9   22.63    1.45
  -3   9   9   21.88    1.09
   3   9  -9   22.11    1.10
  -2  -9   9   31.78    1.36
   2  -9  -9   29.63    1.48
  -2  -9   9   31.26    1.86
   2  -9  -9   29.48    1.37
  -2  -9   9   30.83    1.43
  -2  -9   9   32.37    2.41
  -2   9   9   31.20    1.42
  -2   9   9   32.44    1.71
   2   9  -9   30.31    1.14
   2   9  -9   34.86    2.55
  -2   9   9   27.29    1.46
  -1  -9   9    0.23    0.32
  -1  -9   9    0.61    0.63
   1  -9  -9    0.68    0.38
   1  -9  -9    0.03    0.32
   1  -9  -9    0.24    0.60
  -1  -9   9    0.20    0.34
  -1  -9   9    0.64    0.96
   1   9  -9    1.59    0.99
  -1   9   9    0.37    0.55
  -1   9   9    0.04    0.41
  -1   9   9    0.00    0.31
   0  -9   9   47.69    1.77
   0  -9  -9   46.29    2.40
   0  -9   9   48.75    1.90
   0  -9  -9   50.24    2.25
   0  -9  -9   49.99    1.74
   0  -9   9   47.21    2.20
   0  -9  -9   47.50    1.94
   0  -9  -9   48.86    1.88
   0   9   9   49.35    2.12
   0   9   9   49.00    1.89
   0   9   9   47.85    2.47
   0   9   9   49.71    2.58
   0   9  -9   50.68    2.80
   0   9  -9   48.42    2.72
  -1  -9  -9   32.61    2.28
  -1  -9  -9   35.63    1.48
   1  -9   9   32.69    1.20
   1  -9   9   36.01    1.79
   1  -9   9   32.36    1.45
   1  -9   9   34.41    1.58
  -1  -9  -9   35.83    1.99
  -1  -9  -9   34.99    1.54
  -1  -9  -9   34.27    1.54
   1   9   9   33.95    1.56
   1   9   9   37.30    2.41
  -1   9  -9   32.39    2.18
   1   9   9   34.89    2.28
   1   9   9   35.17    1.86
  -1   9  -9   36.90    2.24
  -2  -9  -9   28.07    1.41
  -2  -9  -9   26.44    1.33
  -2  -9  -9   26.29    1.92
  -2  -9  -9   24.64    2.44
   2   9   9   27.58    1.51
   2   9   9   31.17    2.54
   2   9   9   30.73    2.60
   2   9   9   26.91    1.74
  -3  -9  -9   64.02    2.38
  -3  -9  -9   61.03    3.81
  -3  -9  -9   64.80    3.29
  -3  -9  -9   59.66    2.51
   3   9   9   58.30    3.90
   3   9   9   60.95    3.97
   3   9   9   63.09    2.61
   3   9   9   60.90    3.05
  -4  -9  -9    1.37    0.66
  -4  -9  -9    1.78    2.44
  -4  -9  -9    5.73    2.02
  -4  -9  -9    0.38    0.64
   4   9   9    1.87    2.22
   4   9   9    4.10    0.84
   4   9   9   -0.24    2.10
   4   9   9    4.19    2.48
  -5  -9  -9   24.41    2.86
  -5  -9  -9   20.03    1.91
  -5  -9  -9   30.01    3.55
   5   9   9   26.16    3.12
  -6 -10   9    6.93    2.13
  -6 -10   9    3.16    1.21
   6  10  -9   11.83    3.17
   6  10  -9    6.43    1.30
  -5 -10   9    5.83    1.59
  -5 -10   9    8.11    1.14
  -5 -10   9    5.22    3.85
   5 -10  -9    7.42    1.19
  -5  10   9    7.60    0.97
   5  10  -9    4.60    1.38
   5  10  -9    5.35    2.42
  -4 -10   9   20.60    1.32
   4 -10  -9   19.66    1.44
  -4 -10   9   18.49    1.42
  -4 -10   9   15.88    2.21
  -4 -10   9   17.31    1.88
   4  10  -9   23.06    3.07
  -4  10   9   16.92    1.44
   4  10  -9   20.26    1.35
   3 -10  -9   45.08    2.08
  -3 -10   9   41.50    2.51
  -3 -10   9   46.70    2.02
  -3 -10   9   44.61    3.24
  -3 -10   9   48.83    1.92
   3 -10  -9   43.50    1.90
   3  10  -9   47.20    1.79
  -3  10   9   48.01    1.80
  -3  10   9   48.56    1.81
   3  10  -9   40.70    3.26
  -3  10   9   47.33    2.18
  -2 -10   9   22.66    1.85
   2 -10  -9   22.94    1.37
  -2 -10   9   25.43    2.50
   2 -10  -9   23.95    1.30
  -2 -10   9   24.86    1.24
  -2 -10   9   24.84    1.32
  -2  10   9   26.48    1.33
   2  10  -9   24.32    2.51
  -2  10   9   24.80    1.20
   2  10  -9   25.25    1.01
  -2  10   9   24.71    1.62
   1 -10  -9   69.80    2.65
  -1 -10   9   70.68    2.52
   1 -10  -9   73.94    2.76
  -1 -10   9   70.02    3.46
  -1 -10   9   70.22    2.55
   1 -10  -9   69.66    2.54
  -1 -10   9   73.01    2.98
  -1  10   9   71.73    2.70
   1  10  -9   67.66    3.66
  -1  10   9   69.71    2.50
  -1  10   9   72.57    3.06
   0 -10   9    9.24    0.84
   0 -10   9    9.54    1.12
   0 -10   9    9.63    0.75
   0 -10  -9    9.96    0.66
   0 -10  -9    8.99    0.85
   0 -10  -9    9.23    1.08
   0 -10  -9    9.05    0.85
   0  10   9   10.05    0.85
   0  10   9    8.90    1.17
   0  10   9    8.91    1.38
   0  10  -9   10.26    1.51
   0  10   9    8.25    1.04
  -1 -10  -9   47.71    2.75
  -1 -10  -9   45.28    2.33
  -1 -10  -9   41.90    1.84
  -1 -10  -9   44.69    1.88
   1 -10   9   43.55    1.89
  -1 -10  -9   42.83    1.76
   1 -10   9   42.09    2.07
   1  10   9   46.94    2.81
  -1  10  -9   38.45    2.61
   1  10   9   42.26    1.88
   1  10   9   41.52    2.61
   1  10   9   45.66    2.21
  -2 -10  -9    0.42    0.50
  -2 -10  -9    2.27    1.37
  -2 -10  -9   -0.02    0.99
  -2 -10  -9    0.29    0.45
   2 -10   9    0.56    0.48
   2  10   9    0.53    0.52
  -2  10  -9   -0.28    0.94
   2  10   9   -0.09    0.68
   2  10   9    1.36    1.41
   2  10   9   -0.16    1.12
  -3 -10  -9    1.60    1.13
  -3 -10  -9   -3.66    2.03
  -3 -10  -9    1.41    0.58
  -3 -10  -9    0.88    0.59
   3  10   9   -1.09    1.55
   3  10   9    1.35    1.72
   3  10   9   -0.05    0.66
   3  10   9    0.67    0.91
  -4 -10  -9    2.78    2.60
  -4 -10  -9    3.20    0.76
  -4 -10  -9    1.99    1.36
  -4 -10  -9    4.11    0.86
   4  10   9    4.17    1.00
   4  10   9    3.81    2.53
   4  10   9    4.06    1.43
   4  10   9    4.01    2.57
  -5 -10  -9   27.68    3.22
  -5 -10  -9   29.98    2.22
   5  10   9   39.06    3.69
   5 -11  -9    4.37    1.18
  -5 -11   9    6.19    1.09
  -5 -11   9    5.13    1.78
   5  11  -9    4.67    1.06
   5  11  -9    6.75    2.55
  -4 -11   9    0.81    0.98
  -4 -11   9    0.55    0.71
  -4 -11   9    0.26    1.26
   4 -11  -9    0.61    0.77
  -4  11   9    1.36    0.79
   4  11  -9    0.46    0.66
   4  11  -9   -1.48    1.65
   3 -11  -9   24.37    1.48
  -3 -11   9   22.32    1.44
  -3 -11   9   21.85    2.15
  -3 -11   9   22.27    1.47
   3 -11  -9   25.26    1.59
  -3 -11   9   16.31    2.27
  -3  11   9   21.04    1.63
   3  11  -9   23.74    1.23
  -3  11   9   23.31    1.22
   3  11  -9   23.97    2.85
  -2 -11   9    0.19    1.83
  -2 -11   9    0.38    0.92
  -2 -11   9    0.33    0.45
   2 -11  -9   -0.41    0.47
   2 -11  -9   -0.02    0.56
  -2 -11   9    0.39    0.52
  -2  11   9   -0.22    0.65
   2  11  -9    2.07    1.43
  -2  11   9    0.64    0.53
  -2  11   9    0.44    0.46
   2  11  -9    0.48    0.34
  -1 -11   9   41.83    1.73
   1 -11  -9   43.67    2.29
   1 -11  -9   39.87    1.85
  -1 -11   9   42.68    2.27
  -1 -11   9   41.65    1.78
  -1  11   9   40.05    2.60
  -1  11   9   36.72    2.23
  -1  11   9   37.83    1.67
  -1  11   9   42.65    1.91
   1  11  -9   40.20    2.98
   0 -11  -9   -0.01    0.87
   0 -11  -9    0.73    0.46
   0 -11  -9    0.32    0.34
   0 -11  -9   -0.46    0.37
   0 -11   9    0.96    0.49
   0 -11   9    0.06    0.90
   0 -11   9    0.15    0.38
   0  11   9    0.63    0.56
   0  11   9   -1.78    0.93
   0  11  -9    0.41    1.20
   0  11   9    0.10    0.44
   0  11   9    0.74    0.75
  -1 -11  -9   13.76    0.95
  -1 -11  -9   11.95    1.46
   1 -11   9   14.11    1.10
  -1 -11  -9   13.57    1.08
  -1 -11  -9   14.08    1.10
   1  11   9   14.26    1.90
   1  11   9   14.35    1.32
   1  11   9   11.47    1.09
  -1  11  -9   13.03    1.70
   1  11   9   12.31    1.67
  -2 -11  -9    5.82    1.31
  -2 -11  -9    5.47    0.76
  -2 -11  -9    7.82    0.95
  -2 -11  -9    6.15    0.85
   2 -11   9    6.54    0.88
   2  11   9    6.10    1.10
  -2  11  -9    6.56    1.36
   2  11   9    3.28    1.73
   2  11   9    5.80    0.85
   2  11   9    8.05    1.64
  -3 -11  -9    4.00    1.44
  -3 -11  -9    2.52    0.66
   3  11   9    3.47    2.19
   3  11   9    3.17    0.85
   3  11   9    3.82    1.12
   3  11   9    3.51    1.99
  -4 -11  -9    6.79    1.04
  -4 -11  -9    4.40    1.76
   4  11   9    6.33    2.90
   4  11   9    4.37    1.57
   4  11   9    7.02    3.59
  -5 -11  -9   10.16    1.40
  -5 -11  -9   16.22    2.41
   5  11   9   10.30    2.27
  -5 -12   9    6.44    1.93
   5 -12  -9    2.91    1.33
  -5 -12   9    5.00    1.12
   5  12  -9    2.77    2.67
  -5  12   9    3.75    2.38
  -4 -12   9   12.95    2.07
  -4 -12   9   11.77    1.36
  -4 -12   9   16.73    1.52
   4 -12  -9   13.44    1.36
  -4  12   9   15.06    1.58
   4  12  -9   11.19    2.62
  -3 -12   9   47.65    3.16
  -3 -12   9   51.14    2.12
   3 -12  -9   46.35    2.32
   3 -12  -9   47.86    2.22
  -3 -12   9   40.04    2.72
  -3  12   9   49.41    1.82
   3  12  -9   50.18    3.83
   2 -12  -9    9.77    1.18
   2 -12  -9    8.16    0.94
  -2 -12   9    7.30    0.84
  -2 -12   9    7.20    0.86
  -2 -12   9    9.74    1.43
  -2  12   9    7.10    0.80
  -2  12   9    8.14    1.18
  -2  12   9    8.31    0.97
   2  12  -9    7.72    2.02
  -2  12   9    5.43    1.38
  -1 -12   9   59.96    3.07
   1 -12  -9   66.99    2.59
  -1 -12   9   63.94    2.42
  -1 -12   9   69.34    2.59
   1 -12  -9   66.37    2.65
  -1  12   9   64.75    2.50
  -1  12   9   64.79    3.62
   1  12  -9   67.38    3.96
  -1  12   9   68.92    2.70
  -1  12   9   66.05    3.13
   0 -12   9   -0.19    1.08
   0 -12   9    0.67    0.42
   0 -12  -9   -0.59    0.51
   0 -12  -9    0.29    0.46
   0 -12   9   -0.73    0.49
   0  12  -9    0.12    1.27
   0  12   9   -0.79    0.61
   0  12   9    0.33    0.87
   0  12   9    0.44    0.55
   0  12   9    1.71    1.23
   1 -12   9   20.73    1.40
  -1 -12  -9   22.39    1.40
  -1 -12  -9   18.80    2.19
  -1 -12  -9   23.75    1.39
  -1 -12  -9   21.92    1.23
   1  12   9   22.81    2.32
  -1  12  -9   23.13    2.60
   1  12   9   23.65    1.45
   1  12   9   23.89    2.71
   1  12   9   19.99    1.71
  -2 -12  -9    3.17    1.40
  -2 -12  -9    3.68    0.84
  -2 -12  -9    4.33    0.77
  -2 -12  -9    4.02    0.71
   2  12   9    6.54    2.07
   2  12   9    6.03    1.70
   2  12   9    5.00    0.92
   2  12   9    4.82    1.89
  -2  12  -9    4.73    1.47
  -3 -12  -9    2.38    0.79
  -3 -12  -9    1.78    0.72
  -3 -12  -9    0.64    1.47
  -3 -12  -9    0.86    0.74
   3  12   9    2.90    2.35
   3  12   9    2.23    0.80
   3  12   9    1.69    1.10
  -4 -12  -9    4.75    1.91
  -4 -12  -9    4.41    1.08
  -4 -12  -9    3.59    1.04
   4  12   9    1.28    3.21
   4  12   9    6.77    3.36
   4  12   9    1.60    1.63
  -5 -13   9   25.94    2.83
  -5 -13   9   23.69    2.21
   5 -13  -9   23.97    2.42
   5  13  -9   20.57    3.63
  -5  13   9   29.60    3.55
  -4 -13   9    1.44    0.92
  -4 -13   9    1.24    0.93
  -4 -13   9    2.23    1.78
   4 -13  -9    3.13    0.95
  -4  13   9    3.12    2.11
   4  13  -9    3.03    2.40
   3 -13  -9   17.86    1.55
  -3 -13   9   18.66    2.19
  -3 -13   9   16.29    1.53
   3 -13  -9   15.24    1.66
  -3  13   9   16.71    1.71
  -3  13   9   16.46    2.32
   3  13  -9   18.76    2.78
   2 -13  -9   11.67    1.19
   2 -13  -9   10.83    1.27
  -2 -13   9   11.71    1.15
  -2 -13   9   12.30    1.75
  -2 -13   9   12.61    1.25
  -2  13   9    9.50    1.37
  -2  13   9    8.93    1.78
  -2  13   9   13.88    1.27
   2  13  -9    8.66    2.10
  -1 -13   9    1.18    1.29
  -1 -13   9    1.11    0.62
   1 -13  -9    0.72    0.65
  -1 -13   9    0.97    0.58
  -1  13   9    2.06    1.23
   1  13  -9    1.89    1.67
  -1  13   9    3.00    1.44
  -1  13   9   -0.82    1.83
  -1  13   9    0.74    0.71
   0 -13  -9   33.74    1.83
   0 -13   9   35.15    1.83
   0 -13  -9   38.94    1.92
   0  13   9   35.56    2.07
   0  13   9   32.22    3.27
   0  13   9   34.75    1.79
   0  13   9   33.33    2.63
   0  13  -9   35.58    3.27
  -1 -13  -9   34.71    1.61
  -1 -13  -9   34.84    1.83
  -1 -13  -9   35.14    1.86
   1 -13   9   31.25    2.60
  -1  13  -9   39.94    3.31
   1  13   9   37.08    5.22
   1  13   9   35.79    1.89
  -2 -13  -9   39.21    1.91
  -2 -13  -9   37.37    2.04
  -2 -13  -9   38.54    3.04
  -2 -13  -9   39.09    2.05
   2 -13   9   37.24    2.08
   2  13   9   39.88    2.46
   2  13   9   39.82    3.53
   2  13   9   35.53    2.10
  -2  13  -9   37.08    3.33
   2  13   9   38.36    4.09
  -3 -13  -9   43.46    2.57
  -3 -13  -9   46.65    2.27
  -3 -13  -9   45.66    2.40
   3  13   9   38.94    2.97
   3  13   9   52.27    4.55
   3  13   9   45.75    2.56
   3  13   9   45.14    4.76
  -4 -13  -9   12.97    2.50
  -4 -13  -9   16.36    1.89
  -4 -13  -9   12.30    1.39
   4  13   9   13.53    4.10
   4  13   9   16.56    3.77
   4  13   9   13.36    2.04
  -4 -14   9    2.17    1.07
  -4 -14   9    2.37    1.07
  -4 -14   9    1.28    2.17
   4 -14  -9    1.98    1.09
   4  14  -9    2.18    2.47
  -4  14   9   -0.56    2.38
  -3 -14   9    1.58    0.88
   3 -14  -9   -0.29    0.84
  -3 -14   9    1.84    0.84
  -3  14   9   -1.78    1.88
   3  14  -9    0.26    2.17
  -3  14   9   -0.77    1.07
  -2 -14   9    2.47    0.76
   2 -14  -9    1.13    0.81
   2 -14  -9    4.36    1.01
  -2 -14   9    2.08    0.85
  -2  14   9    2.92    1.12
   2  14  -9   -0.54    2.01
  -2  14   9   -0.49    1.69
  -2  14   9    1.95    0.85
   1 -14  -9    9.33    1.11
  -1 -14   9    9.45    1.09
   1 -14  -9    6.52    1.02
  -1 -14   9    8.55    0.93
  -1  14   9    8.52    1.04
  -1  14   9    8.37    1.75
  -1  14   9    8.43    1.15
  -1  14   9    6.19    1.32
   1  14  -9   10.50    2.27
   0 -14  -9    1.73    1.01
   0 -14  -9    1.83    0.70
   0 -14   9    0.84    0.70
   0  14   9   -0.48    1.17
   0  14   9    1.47    1.75
   0  14   9    0.45    0.92
   0  14   9    1.43    0.75
   0  14  -9   -1.61    1.79
   1 -14   9   16.40    1.50
  -1 -14  -9   17.37    1.51
  -1 -14  -9   18.22    1.51
   1  14   9   21.27    2.91
   1  14   9   14.21    2.09
  -1  14  -9   14.55    2.38
   1  14   9   16.99    1.76
   1  14   9   15.72    1.83
   2 -14   9    6.18    1.05
  -2 -14  -9    7.64    1.05
  -2 -14  -9    6.74    1.03
  -2 -14  -9    8.80    1.16
   2  14   9    7.52    1.95
   2  14   9    8.79    1.21
   2  14   9    7.26    2.68
   2  14   9    6.47    1.38
  -3 -14  -9   15.28    1.68
  -3 -14  -9   12.57    1.37
  -3 -14  -9   17.20    1.80
   3  14   9    6.90    2.99
   3  14   9   10.07    1.75
   3  14   9   13.68    1.60
   3  14   9   19.08    3.02
  -4 -14  -9    1.92    1.19
  -4 -14  -9    2.47    1.23
   4  14   9    0.60    1.94
   4  14   9    1.47    4.07
  -3 -15   9    2.96    1.04
   3 -15  -9    5.35    1.18
  -3 -15   9    5.71    1.20
  -3  15   9    6.06    2.59
  -3  15   9    3.80    1.31
   3  15  -9    9.69    2.80
   2 -15  -9    2.23    0.91
   2 -15  -9    3.49    1.07
  -2 -15   9    3.34    0.94
  -2 -15   9    3.83    1.21
   2  15  -9    5.61    2.58
  -2  15   9    1.60    1.96
  -2  15   9    1.92    1.31
  -2  15   9    2.81    1.15
   1 -15  -9    9.89    1.21
   1 -15  -9   12.27    1.35
  -1 -15   9   12.10    1.50
   1  15  -9    4.96    2.40
  -1  15   9   11.23    1.37
  -1  15   9    4.25    1.89
  -1  15   9   10.04    1.66
   0 -15  -9    2.55    0.88
   0 -15  -9    0.95    0.83
   0 -15   9    1.54    0.81
   0  15   9    0.96    1.93
   0  15   9    0.68    1.30
   0  15  -9    3.72    2.31
   0  15   9   -0.77    0.88
   0  15   9   -0.19    1.00
   1 -15   9   53.96    2.62
  -1 -15  -9   51.70    2.52
  -1 -15  -9   53.36    2.58
   1  15   9   49.13    2.70
   1  15   9   52.32    4.67
   1  15   9   57.73    3.90
   1  15   9   51.64    2.98
  -2 -15  -9    1.37    0.87
  -2 -15  -9   -0.29    0.96
   2 -15   9    0.26    0.98
   2  15   9    4.20    2.70
   2  15   9    2.38    1.99
   2  15   9    1.09    1.10
   2  15   9    1.76    1.24
  -3 -15  -9   48.94    2.72
  -3 -15  -9   49.98    2.62
  -3 -15  -9   46.31    2.59
   3  15   9   42.41    5.56
   3  15   9   50.77    6.03
   3  15   9   39.62    3.24
   3 -16  -9   -0.29    1.13
  -3 -16   9    1.64    1.16
  -3 -16   9    2.06    1.41
  -3  16   9    3.87    2.79
  -3  16   9   -0.90    1.30
   3  16  -9    2.20    3.09
  -2 -16   9   34.15    2.41
   2 -16  -9   36.29    2.36
   2 -16  -9   34.91    2.52
   2  16  -9   39.63    4.88
  -2  16   9   38.94    4.58
  -2  16   9   32.92    2.96
   1 -16  -9   16.29    2.01
   1 -16  -9   10.04    1.31
  -1 -16   9   13.36    1.42
  -1  16   9   16.69    2.94
  -1  16   9   13.96    2.63
  -1  16   9   12.69    1.97
   1  16  -9   17.67    3.18
   0 -16  -9   14.94    1.82
   0 -16  -9   11.23    1.40
   0 -16   9   11.76    1.32
   0  16   9   12.72    1.49
   0  16   9   12.90    2.13
   0  16  -9   12.20    2.94
   0  16   9    8.11    2.46
   0  16   9   10.69    1.60
   1 -16   9   17.04    1.89
  -1 -16  -9   15.70    1.81
  -1 -16  -9   15.19    1.86
   1  16   9   17.73    3.27
  -1  16  -9   19.97    3.35
   1  16   9   17.82    2.45
   1  16   9   16.85    2.06
   1  16   9   16.92    1.96
   2 -16   9   -2.02    1.02
  -2 -16  -9    2.83    1.09
  -2 -16  -9    1.58    1.08
   2  16   9    1.41    1.24
   2  16   9   -0.18    1.50
   2  16   9   -2.14    2.92
   2  16   9    3.45    2.24
   2 -17  -9    5.15    1.24
  -2 -17   9    5.74    1.37
   2 -17  -9    4.64    1.43
   2  17  -9    6.31    3.20
  -2  17   9    4.43    3.09
  -2  17   9    7.09    1.75
  -1 -17   9    2.41    1.14
   1 -17  -9    3.32    1.09
   1 -17  -9    5.13    1.39
  -1  17   9    1.75    2.96
   1  17  -9    2.58    3.08
  -1  17   9    1.35    1.44
  -1  17   9    2.92    1.70
   0 -17  -9    7.05    1.28
   0 -17  -9    7.16    1.36
   0 -17   9    7.32    1.27
   0  17   9    8.00    1.70
   0  17  -9    6.43    3.31
   0  17   9    4.59    1.91
   0  17   9    5.49    2.78
  -1 -17  -9   -1.54    1.01
  -1 -17  -9    0.60    1.18
   1 -17   9   -0.33    1.17
   1  17   9    0.64    1.99
   1  17   9    0.03    1.46
   1  17   9   -1.97    2.91
   1  17   9    0.29    1.33
  -7   0  10    2.09    1.45
   7   0 -10   -1.83    1.02
  -7   0  10    0.30    1.84
  -7   0  10    0.55    1.20
  -6   0  10   16.59    1.86
  -6   0  10   13.89    1.34
  -6   0  10   13.82    1.88
   6   0 -10   11.96    1.48
   5   0 -10   -0.09    0.51
  -5   0  10   -0.16    0.52
  -5   0  10   -0.58    0.67
  -5   0  10    0.89    0.88
   4   0 -10   31.89    1.25
  -4   0  10   34.49    1.78
  -4   0  10   31.79    1.45
  -4   0  10   32.08    2.10
   4   0 -10   32.09    1.50
  -3   0  10   -0.81    0.50
  -3   0  10    0.07    0.25
  -3   0  10    0.54    0.44
   3   0 -10   -0.10    0.25
  -2   0  10  418.34   12.66
  -2   0  10  421.54   12.39
  -2   0  10  421.70   12.92
   2   0 -10  424.44   12.37
  -1   0  10    0.09    0.26
  -1   0  10   -0.03    0.22
  -1   0  10    0.23    0.27
   1   0 -10    0.15    0.12
   0   0  10  441.42   14.02
   0   0  10  458.89   13.51
   0   0 -10  472.81   13.33
   0   0  10  465.25   13.38
   0   0  10  467.00   13.76
   1   0  10    0.18    0.64
   1   0  10    0.09    0.39
  -1   0 -10    1.01    0.74
   1   0  10    0.10    0.54
   1   0  10    0.32    0.25
   2   0  10   85.44    2.88
   2   0  10   75.23    3.28
  -2   0 -10   81.24    3.37
   2   0  10   77.59    2.97
   2   0  10   75.81    2.71
   3   0  10    0.35    0.64
  -3   0 -10    0.40    1.08
   3   0  10    0.38    0.95
   3   0  10    0.01    0.36
  -4   0 -10   -0.73    0.74
   4   0  10    0.35    0.52
   4   0  10    1.39    0.88
   4   0  10    0.30    0.47
   5   0  10   -0.09    0.65
  -5   0 -10    0.96    1.04
  -6   0 -10   17.81    2.08
   6   0  10   19.72    2.00
  -6   0 -10   24.75    3.19
  -6   0 -10   16.72    2.04
  -7  -1  10    3.84    1.40
   7  -1 -10    6.47    1.26
  -7  -1  10    6.35    2.19
  -7  -1  10    4.30    1.57
  -7   1  10    6.14    2.02
  -7   1  10    5.47    1.56
   7   1 -10    5.52    1.16
   6  -1 -10    0.38    0.75
  -6  -1  10    0.35    1.25
  -6  -1  10    0.17    0.97
  -6   1  10   -0.43    0.89
  -6   1  10    1.51    0.82
   6   1 -10    1.13    0.79
  -6   1  10    2.32    1.24
   5  -1 -10   22.21    1.45
  -5  -1  10   22.90    1.76
  -5  -1  10   28.64    2.30
  -5  -1  10   24.37    1.37
   5   1 -10   24.59    1.47
  -5   1  10   23.94    1.36
  -5   1  10   22.74    1.66
  -5   1  10   26.65    2.15
  -4  -1  10   18.75    1.05
  -4  -1  10   18.62    1.68
  -4  -1  10   16.93    1.35
   4  -1 -10   17.50    1.11
  -4   1  10   17.21    1.55
  -4   1  10   18.07    1.05
   4   1 -10   18.85    1.10
  -4   1  10   19.92    1.35
   4   1 -10   16.94    0.82
  -3  -1  10   17.33    1.17
  -3  -1  10   15.25    1.48
  -3  -1  10   15.55    0.87
   3  -1 -10   17.16    0.95
   3  -1 -10   16.52    0.85
   3  -1 -10   14.87    0.97
   3   1 -10   15.73    0.88
  -3   1  10   15.21    1.28
  -3   1  10   15.39    0.87
  -3   1  10   16.52    1.13
  -2  -1  10   84.47    3.42
   2  -1 -10  103.22    3.25
  -2  -1  10   87.36    2.95
   2  -1 -10   88.08    2.96
  -2  -1  10   88.57    3.21
  -2   1  10   85.82    3.39
   2   1 -10   90.18    2.90
  -2   1  10   92.99    2.95
  -2   1  10   84.32    3.15
  -1  -1  10   18.72    1.41
  -1  -1  10   17.58    0.88
   1  -1 -10   19.28    0.66
  -1  -1  10   17.88    0.80
  -1  -1  10   17.09    1.06
   1   1 -10   18.52    0.65
  -1   1  10   17.26    0.88
  -1   1  10   17.12    1.04
  -1   1  10   17.91    1.30
   0  -1  10  122.64    3.85
   0  -1  10  119.96    4.09
   0  -1  10  119.77    4.36
   0  -1  10  125.39    3.67
   0   1 -10  124.06    3.69
   0   1  10  115.77    4.35
   0   1  10  119.50    4.07
   0   1  10  121.41    3.80
   0   1 -10  125.81    4.42
   0   1  10  120.33    3.85
   1  -1  10   84.72    3.30
   1  -1  10   84.30    3.10
   1  -1  10   80.61    2.76
   1  -1  10   77.15    3.24
  -1   1 -10   85.36    3.36
   1   1  10   84.27    3.03
   1   1  10   83.44    2.80
   1   1  10   85.68    3.35
   2  -1  10   45.79    1.69
   2  -1  10   44.87    1.84
   2  -1  10   46.26    2.31
  -2   1 -10   41.30    2.35
   2   1  10   43.06    2.30
   2   1  10   43.91    1.73
   2   1  10   43.59    1.98
   3  -1  10   45.08    2.61
   3  -1  10   44.81    1.73
   3  -1  10   42.62    1.70
   3  -1  10   44.86    2.16
   3   1  10   43.16    2.14
   3   1  10   46.65    2.68
   3   1  10   43.45    1.72
  -3   1 -10   38.01    2.67
   3   1  10   42.39    1.77
   3   1  10   44.81    1.72
  -4  -1 -10    0.75    0.83
   4  -1  10    1.61    0.97
   4  -1  10    2.26    0.56
   4  -1  10    1.92    0.57
   4   1  10    1.99    0.63
   4   1  10    2.25    0.93
   4   1  10    2.28    0.61
  -5  -1 -10    8.02    1.64
   5  -1  10    6.74    0.93
  -5  -1 -10    5.37    1.23
  -5   1 -10    5.38    1.19
   5   1  10    5.79    2.10
   5   1  10    7.21    1.05
  -6  -1 -10   18.63    2.17
   6  -1  10   19.98    1.97
  -6  -1 -10   21.19    2.23
  -6  -1 -10   25.53    3.37
  -6   1 -10   23.20    2.51
  -6   1 -10   15.93    2.32
  -6   1 -10   17.02    2.08
   6   1  10   19.33    2.02
  -7  -2  10    2.51    1.32
   7  -2 -10   -0.24    1.18
  -7  -2  10   -2.45    1.90
  -7  -2  10   -0.55    1.50
  -7   2  10    1.74    1.47
   7   2 -10   -0.39    1.12
  -7   2  10   -0.48    1.67
  -6  -2  10   15.30    2.10
  -6  -2  10   14.67    1.50
  -6  -2  10   14.12    1.88
   6  -2 -10   13.47    1.59
   6   2 -10   16.12    1.54
  -6   2  10   10.64    1.64
  -6   2  10   13.27    1.79
  -6   2  10   14.92    1.66
  -5  -2  10    8.87    1.49
  -5  -2  10   10.74    1.04
   5  -2 -10   12.70    1.19
  -5  -2  10   12.61    1.35
  -5   2  10   11.93    1.36
   5   2 -10    9.54    1.08
  -5   2  10   10.82    1.44
  -5   2  10    9.26    1.03
   4  -2 -10   10.35    0.94
   4  -2 -10    9.63    0.71
  -4  -2  10   10.54    1.36
  -4  -2  10    9.56    0.84
  -4  -2  10   10.00    1.15
   4   2 -10    9.40    0.62
  -4   2  10   10.62    0.82
  -4   2  10    9.67    1.05
   4   2 -10   10.77    0.84
  -4   2  10    9.81    1.31
   3  -2 -10   69.96    2.49
  -3  -2  10   72.45    3.04
   3  -2 -10   67.83    2.32
  -3  -2  10   68.15    2.72
  -3  -2  10   67.18    2.42
   3  -2 -10   69.67    2.27
  -3   2  10   65.77    2.34
   3   2 -10   67.44    2.35
  -3   2  10   66.68    2.61
  -3   2  10   65.40    2.84
   2  -2 -10    5.84    0.56
  -2  -2  10    5.37    0.90
   2  -2 -10    5.53    0.59
   2  -2 -10    5.47    0.54
  -2  -2  10    6.30    0.55
  -2  -2  10    6.91    0.79
  -2  -2  10    6.26    0.66
  -2   2  10    6.33    0.69
   2   2 -10    5.67    0.49
  -2   2  10    5.06    0.78
  -2   2  10    5.43    0.52
  -1  -2  10  101.39    3.51
  -1  -2  10   97.94    3.25
  -1  -2  10  102.82    3.05
   1  -2 -10   99.90    2.94
  -1  -2  10   95.22    3.74
  -1   2  10   97.34    3.23
  -1   2  10  102.35    3.74
   1   2 -10  102.43    3.01
  -1   2  10  100.16    3.44
   0  -2  10   80.43    3.22
   0  -2  10   80.81    2.70
   0  -2  10   84.45    2.46
   0   2  10   80.08    2.71
   0   2  10   80.31    2.90
   0   2 -10   79.46    3.24
   0   2 -10   82.10    2.57
   1  -2  10   14.54    1.40
   1  -2  10   17.75    1.14
   1  -2  10   17.09    1.34
   1  -2  10   17.20    0.85
   1   2  10   16.83    1.07
   1   2  10   15.61    0.88
  -1   2 -10   15.60    1.47
   1   2  10   14.87    1.38
   2  -2  10  103.49    3.24
   2  -2  10  101.45    4.22
   2  -2  10  102.70    3.67
   2  -2  10  106.52    3.40
   2  -2  10  102.44    3.37
   2   2  10  102.12    4.13
   2   2  10  105.22    3.48
   2   2  10  109.48    3.77
   2   2  10  105.90    3.59
  -2   2 -10  101.89    4.04
   3  -2  10   21.64    1.09
   3  -2  10   22.49    1.53
   3  -2  10   21.75    1.08
   3   2  10   23.40    2.12
   3   2  10   20.97    1.19
   3   2  10   22.18    1.47
  -3   2 -10   20.55    2.21
   3   2  10   23.44    1.57
   4  -2  10   30.69    2.06
  -4  -2 -10   30.77    2.04
   4  -2  10   31.50    1.54
   4   2  10   29.55    1.66
   4   2  10   30.11    2.13
   4   2  10   32.69    1.63
  -5  -2 -10   34.62    3.31
  -5  -2 -10   38.16    2.01
  -5  -2 -10   31.38    2.38
   5  -2  10   33.35    1.87
  -5   2 -10   30.43    2.28
   5   2  10   35.38    3.21
   5   2  10   34.75    2.02
   6  -2  10   -0.52    1.07
  -6  -2 -10    0.23    1.12
  -6  -2 -10   -1.06    1.71
  -6  -2 -10    1.90    1.49
  -6   2 -10   -1.38    1.34
  -6   2 -10   -0.41    1.46
   6   2  10    3.63    1.10
  -7  -3  10    2.94    1.65
   7  -3 -10    0.44    1.19
  -7  -3  10    4.20    1.33
  -7  -3  10    3.33    2.26
  -7   3  10    4.58    1.89
   7   3 -10    3.25    1.21
  -7   3  10    3.91    1.51
   6  -3 -10   28.09    2.06
  -6  -3  10   33.69    3.24
  -6  -3  10   32.71    2.00
  -6  -3  10   31.86    2.44
   6   3 -10   34.54    2.02
  -6   3  10   36.18    1.97
  -6   3  10   35.64    2.69
  -6   3  10   30.25    2.19
  -5  -3  10   18.05    2.25
   5  -3 -10   17.51    1.20
   5  -3 -10   15.28    1.34
  -5  -3  10   18.53    1.26
  -5  -3  10   18.77    1.63
   5   3 -10   17.42    1.27
  -5   3  10   16.65    1.46
  -5   3  10   16.08    1.21
  -5   3  10   16.85    1.77
   4  -3 -10  130.43    4.42
   4  -3 -10  127.23    4.09
  -4  -3  10  129.24    3.83
  -4  -3  10  129.84    4.68
  -4  -3  10  130.06    4.32
  -4  -3  10  137.26    5.14
  -4   3  10  126.13    4.18
   4   3 -10  130.39    3.93
  -4   3  10  131.81    4.82
  -4   3  10  130.63    4.49
   4   3 -10  130.35    4.25
  -3  -3  10   11.34    1.07
  -3  -3  10    9.12    0.42
   3  -3 -10    8.27    0.80
  -3  -3  10    9.33    0.74
  -3  -3  10    6.71    0.95
   3  -3 -10   10.66    0.73
   3  -3 -10    9.07    0.61
   3   3 -10   10.10    0.68
   3   3 -10   11.41    1.49
  -3   3  10   10.89    0.90
  -3   3  10    9.98    1.10
  -3   3  10    9.46    0.67
  -2  -3  10   97.53    3.25
   2  -3 -10  107.34    3.27
   2  -3 -10  104.25    3.37
  -2  -3  10  102.80    3.40
  -2  -3  10  103.44    3.68
  -2  -3  10  107.39    3.98
  -2  -3  10  106.36    3.09
  -2   3  10   99.76    3.35
  -2   3  10  103.38    3.84
   2   3 -10  105.76    3.25
   2   3 -10  107.21    4.08
  -2   3  10  104.04    3.57
   1  -3 -10   17.40    0.64
  -1  -3  10   17.24    0.88
   1  -3 -10   16.89    0.94
  -1  -3  10   16.91    1.10
  -1  -3  10   18.09    0.69
   1  -3 -10   16.84    0.88
  -1  -3  10   15.60    1.29
   1   3 -10   17.50    0.74
  -1   3  10   17.73    1.26
  -1   3  10   17.47    0.86
  -1   3  10   17.89    1.02
   1   3 -10   16.94    1.35
   0  -3  10    4.03    0.47
   0  -3  10    2.55    0.67
   0   3 -10    3.80    0.41
   0   3 -10    4.06    0.83
   0   3  10    2.74    0.45
   0   3  10    3.87    0.47
   0   3  10    2.97    0.63
   1  -3  10   43.77    1.38
   1  -3  10   44.91    1.92
   1  -3  10   42.81    2.18
   1  -3  10   42.53    1.64
   1  -3  10   46.85    2.17
   1   3  10   44.91    1.91
   1   3  10   44.97    1.71
  -1   3 -10   45.86    2.28
   1   3  10   42.16    2.63
   2  -3  10  132.79    4.19
   2  -3  10  137.86    4.34
   2  -3  10  130.40    4.63
   2  -3  10  143.45    4.33
   2  -3  10  140.19    4.92
   2   3  10  138.76    4.73
  -2   3 -10  141.67    5.05
   2   3  10  146.16    4.53
   2   3  10  144.95    4.79
   2   3  10  137.74    5.24
  -3  -3 -10   14.01    1.43
   3  -3  10   13.14    1.24
   3  -3  10   13.90    0.84
   3  -3  10   15.79    1.90
   3  -3  10   14.11    0.83
   3   3  10   11.63    1.48
   3   3  10   14.46    1.00
   3   3  10   16.11    1.88
   3   3  10   12.54    1.36
   4  -3  10  102.68    3.95
   4  -3  10  107.17    3.59
  -4  -3 -10  106.54    4.33
   4   3  10  106.18    5.10
   4   3  10  110.00    4.29
   4   3  10  107.32    3.79
   5  -3  10    1.98    0.76
  -5  -3 -10    0.70    1.03
  -5  -3 -10    0.55    1.56
  -5  -3 -10    1.60    0.74
   5   3  10    0.45    1.51
  -5   3 -10    2.92    1.11
   5   3  10    2.23    1.21
   6  -3  10   20.51    2.06
  -6  -3 -10   19.23    2.86
  -6  -3 -10   14.33    2.06
  -6  -3 -10   19.98    2.14
  -6   3 -10   16.04    2.29
  -6   3 -10   18.64    2.05
   6   3  10   22.55    2.25
  -7  -4  10    0.70    1.65
  -7  -4  10   -3.43    2.33
   7  -4 -10   -1.20    1.20
  -7  -4  10    0.67    1.29
  -7   4  10    0.34    1.76
   7   4 -10    1.02    1.16
  -6  -4  10   11.47    1.47
  -6  -4  10   12.96    1.66
   6  -4 -10   16.71    1.73
  -6  -4  10   16.03    2.32
  -6   4  10   11.63    1.73
  -6   4  10   13.80    1.46
   6   4 -10   16.15    1.59
   5  -4 -10    0.39    0.60
  -5  -4  10    0.25    0.54
  -5  -4  10   -0.81    1.12
   5  -4 -10    1.50    0.59
  -5  -4  10    0.30    0.79
  -5   4  10    0.83    0.86
  -5   4  10   -0.01    0.67
  -5   4  10    0.02    0.56
   5   4 -10   -0.04    0.51
   4  -4 -10   46.65    1.83
   4  -4 -10   47.99    2.09
  -4  -4  10   49.19    2.83
  -4  -4  10   49.07    2.35
  -4  -4  10   47.86    1.58
  -4  -4  10   46.76    1.97
  -4   4  10   46.31    2.35
   4   4 -10   45.33    2.92
  -4   4  10   48.51    2.10
  -4   4  10   49.15    1.85
   4   4 -10   46.86    1.61
   4   4 -10   45.79    1.87
  -3  -4  10   18.22    1.33
   3  -4 -10   18.10    1.00
  -3  -4  10   17.10    0.71
  -3  -4  10   16.36    1.61
  -3  -4  10   17.54    1.00
   3  -4 -10   19.24    1.14
  -3   4  10   17.42    1.11
   3   4 -10   18.88    0.92
  -3   4  10   17.50    1.37
   3   4 -10   19.27    1.76
  -3   4  10   18.67    0.96
  -2  -4  10   57.67    2.70
  -2  -4  10   62.67    2.45
  -2  -4  10   58.86    1.89
   2  -4 -10   61.10    2.14
  -2  -4  10   58.77    2.14
   2  -4 -10   59.22    1.96
  -2   4  10   57.66    2.26
   2   4 -10   58.97    1.96
   2   4 -10   61.30    2.84
  -2   4  10   60.10    2.11
  -2   4  10   60.77    2.57
  -1  -4  10   20.90    0.85
  -1  -4  10   22.84    1.58
   1  -4 -10   21.64    0.80
  -1  -4  10   21.37    1.01
   1  -4 -10   21.39    1.03
   1  -4 -10   19.41    1.02
  -1  -4  10   19.85    1.21
  -1   4  10   21.32    1.37
  -1   4  10   20.93    0.99
   1   4 -10   21.56    0.92
  -1   4  10   21.95    1.14
   1   4 -10   20.90    1.50
   0  -4  10    1.17    0.31
   0  -4  10    1.05    0.56
   0  -4  10    0.82    0.55
   0  -4 -10    0.92    0.33
   0   4 -10   -0.69    0.53
   0   4 -10    0.16    0.74
   0   4  10    1.31    0.31
   0   4  10    0.48    0.50
   0   4  10    2.87    0.52
   1  -4  10    0.37    0.57
   1  -4  10    0.95    0.86
   1  -4  10    0.18    0.42
   1  -4  10   -0.03    0.25
  -1   4 -10    0.77    0.72
   1   4  10    0.03    0.52
   1   4  10    0.40    0.38
   1   4  10    1.57    0.38
   2  -4  10   73.72    2.30
   2  -4  10   72.35    2.45
   2  -4  10   76.55    2.49
   2  -4  10   69.71    2.77
   2   4  10   75.71    3.41
  -2   4 -10   74.61    3.22
   2   4  10   72.68    3.01
   2   4  10   74.20    2.93
   2   4  10   74.48    2.68
   3  -4  10    1.65    0.39
   3  -4  10    1.39    0.36
  -3  -4 -10    2.96    0.51
  -3  -4 -10    1.78    0.75
   3  -4  10    2.24    0.72
   3   4  10    1.21    0.72
   3   4  10    1.90    0.53
   3   4  10    1.34    1.03
   3   4  10    0.69    1.15
  -4  -4 -10   55.55    3.29
  -4  -4 -10   52.42    2.90
  -4  -4 -10   57.35    2.13
   4  -4  10   55.02    2.14
   4   4  10   56.41    2.89
   4   4  10   56.62    2.39
   4   4  10   49.58    2.95
  -5  -4 -10   -0.03    1.53
  -5  -4 -10    1.13    0.75
   5  -4  10    0.43    0.77
  -5  -4 -10    0.47    1.14
   5   4  10    0.97    0.87
  -5   4 -10   -0.36    0.98
   5   4  10   -0.01    1.48
  -6  -4 -10    9.53    1.86
  -6  -4 -10    7.44    1.35
  -6  -4 -10   10.78    2.50
  -6   4 -10    6.24    1.61
  -6   4 -10    8.99    1.84
   6   4  10   10.47    1.52
   6  -5 -10   21.94    1.88
  -6  -5  10   22.91    1.82
  -6  -5  10   23.14    2.25
  -6  -5  10   28.50    3.57
   6   5 -10   21.95    1.75
  -6   5  10   19.15    2.31
  -6   5  10   18.93    1.89
   5  -5 -10   29.43    1.54
  -5  -5  10   30.26    1.69
  -5  -5  10   29.97    2.95
  -5   5  10   27.42    2.34
  -5   5  10   31.33    1.76
   5   5 -10   30.59    1.65
  -5   5  10   31.28    1.58
  -4  -5  10   50.17    2.99
  -4  -5  10   51.23    2.12
  -4  -5  10   50.63    2.51
   4  -5 -10   51.68    2.26
   4  -5 -10   51.31    1.99
  -4  -5  10   52.52    1.75
   4   5 -10   49.42    2.00
  -4   5  10   48.86    2.45
  -4   5  10   50.53    1.94
   4   5 -10   51.45    3.13
  -4   5  10   50.72    2.13
  -3  -5  10    5.12    0.45
  -3  -5  10    4.63    0.93
  -3  -5  10    7.82    1.04
  -3  -5  10    5.39    0.67
   3  -5 -10    6.07    0.70
   3  -5 -10    6.88    0.81
  -3   5  10    5.22    0.63
   3   5 -10    5.24    1.15
  -3   5  10    5.16    0.85
  -3   5  10    6.07    0.76
   2  -5 -10   54.00    2.00
  -2  -5  10   52.87    1.99
  -2  -5  10   54.05    2.30
  -2  -5  10   52.83    1.78
   2  -5 -10   56.05    1.74
  -2  -5  10   54.56    2.66
   2  -5 -10   53.79    1.68
   2   5 -10   50.62    2.67
  -2   5  10   54.76    2.39
   2   5 -10   53.36    1.77
  -2   5  10   50.60    1.92
  -2   5  10   53.45    2.09
   1  -5 -10   38.08    1.47
   1  -5 -10   37.61    1.33
  -1  -5  10   38.42    2.10
  -1  -5  10   38.35    1.79
  -1  -5  10   38.38    1.54
  -1  -5  10   37.73    1.38
   1  -5 -10   40.16    1.56
  -1   5  10   39.73    1.50
  -1   5  10   37.72    1.93
   1   5 -10   40.44    2.12
   1   5 -10   36.69    1.47
  -1   5  10   38.09    1.65
   0  -5  10    7.14    0.60
   0  -5  10    7.82    0.93
   0  -5  10    6.96    0.55
   0  -5 -10    8.08    0.63
   0  -5  10    7.57    1.06
   0   5  10    7.01    0.58
   0   5 -10    8.40    1.12
   0   5  10    8.47    0.80
   0   5 -10    6.41    0.91
   0   5  10    5.71    0.82
   1  -5  10  127.79    4.26
   1  -5  10  117.65    4.42
   1  -5  10  114.71    4.47
   1  -5  10  123.38    3.93
  -1  -5 -10  129.48    4.06
  -1   5 -10  121.99    4.22
   1   5  10  125.98    4.31
  -1   5 -10  129.23    4.60
   1   5  10  130.30    4.09
   1   5  10  130.24    4.72
  -2  -5 -10   28.89    1.25
   2  -5  10   26.07    1.08
   2  -5  10   25.41    0.90
   2  -5  10   27.11    1.31
   2  -5  10   23.40    1.48
   2   5  10   24.91    1.29
   2   5  10   25.25    2.09
   2   5  10   25.83    1.80
   2   5  10   24.97    1.53
  -2   5 -10   24.50    1.91
  -2   5 -10   25.88    1.73
  -3  -5 -10   53.46    2.58
  -3  -5 -10   47.68    1.89
   3  -5  10   47.01    2.18
   3  -5  10   47.71    1.73
   3  -5  10   45.30    1.55
   3   5  10   49.06    2.48
   3   5  10   49.00    2.75
   3   5  10   49.17    2.10
   3   5  10   51.20    3.15
  -4  -5 -10   40.33    3.08
  -4  -5 -10   39.83    1.99
  -4  -5 -10   43.07    2.57
   4  -5  10   39.98    1.77
  -4  -5 -10   41.77    1.76
   4   5  10   43.26    2.07
   4   5  10   38.63    2.91
   4   5  10   44.38    3.92
   4   5  10   47.93    2.66
  -5  -5 -10    0.67    1.19
  -5  -5 -10    0.94    0.78
   5  -5  10    1.72    0.82
  -5  -5 -10    1.40    1.73
   5   5  10    3.44    1.61
   5   5  10   -0.17    0.88
  -5   5 -10    2.40    1.13
  -6  -5 -10   16.12    1.72
  -6  -5 -10   14.09    2.67
  -6  -5 -10   15.66    2.25
   6   5  10   15.04    1.78
  -6   5 -10   15.83    1.94
  -6   5 -10   16.65    2.14
  -6  -6  10   14.80    2.51
  -6  -6  10   12.49    1.39
  -6  -6  10    8.71    1.76
   6  -6 -10    9.35    1.37
   6   6 -10   13.02    1.31
  -6   6  10   12.14    1.50
  -6   6  10   11.78    1.61
   5  -6 -10    1.47    0.66
   5  -6 -10    0.99    0.72
  -5  -6  10    0.81    0.57
  -5  -6  10    1.09    1.00
  -5  -6  10    1.11    1.36
   5   6 -10    1.57    0.65
  -5   6  10    1.45    0.67
  -5   6  10    0.94    0.89
   5   6 -10    1.86    2.88
  -4  -6  10    1.02    0.73
   4  -6 -10    1.15    0.66
  -4  -6  10    2.02    0.51
   4  -6 -10    0.96    0.49
  -4  -6  10    0.98    1.04
  -4  -6  10    1.27    0.42
  -4   6  10    1.12    0.52
  -4   6  10    2.63    0.60
   4   6 -10    1.99    0.49
  -4   6  10    2.05    0.78
   4   6 -10    1.82    1.14
  -3  -6  10   30.85    1.44
  -3  -6  10   27.28    1.52
  -3  -6  10   33.81    2.27
   3  -6 -10   30.75    1.42
  -3  -6  10   30.94    1.85
  -3   6  10   29.17    1.73
   3   6 -10   28.53    2.29
  -3   6  10   29.35    1.43
   3   6 -10   30.79    1.27
  -3   6  10   31.46    1.35
  -2  -6  10   76.67    2.52
  -2  -6  10   80.56    3.07
  -2  -6  10   80.99    2.73
   2  -6 -10   74.05    2.44
   2  -6 -10   78.99    2.71
  -2  -6  10   76.96    3.41
  -2   6  10   78.42    2.78
   2   6 -10   76.14    2.44
  -2   6  10   74.24    3.06
   2   6 -10   79.10    3.58
  -2   6  10   79.24    2.62
  -1  -6  10  102.51    3.55
   1  -6 -10   91.58    3.02
  -1  -6  10   94.29    3.08
   1  -6 -10   98.37    3.25
   1  -6 -10   97.39    3.07
  -1  -6  10   99.22    3.84
  -1  -6  10  100.87    3.23
  -1   6  10   93.97    3.35
  -1   6  10   92.64    3.62
  -1   6  10   93.81    3.15
   1   6 -10  100.29    3.94
   0  -6  10  213.92    6.49
   0  -6 -10  213.05    6.58
   0  -6  10  218.03    7.11
   0  -6  10  211.30    6.90
   0  -6  10  211.59    6.48
   0   6  10  218.70    7.14
   0   6  10  219.82    6.79
   0   6 -10  215.52    7.14
   0   6  10  211.31    6.54
   0   6 -10  205.63    7.06
  -1  -6 -10   46.86    1.83
   1  -6  10   46.30    1.71
   1  -6  10   47.36    2.07
   1   6  10   48.48    2.46
  -1   6 -10   44.75    2.14
   1   6  10   49.10    2.10
   1   6  10   48.81    1.88
  -1   6 -10   45.23    2.40
   2  -6  10   98.23    3.26
   2  -6  10   99.63    3.73
  -2  -6 -10   97.80    3.27
  -2  -6 -10   95.99    3.79
   2  -6  10   98.31    3.48
  -2   6 -10   96.89    3.91
   2   6  10   98.10    3.70
   2   6  10   94.30    3.38
  -2   6 -10   89.07    3.56
   2   6  10   96.58    4.20
   2   6  10  101.32    4.00
  -3  -6 -10    2.02    0.93
  -3  -6 -10    2.30    1.17
   3  -6  10    2.52    0.81
   3  -6  10    2.27    0.42
  -3  -6 -10    1.73    0.48
   3   6  10    0.09    1.31
   3   6  10    1.96    0.61
   3   6  10    3.04    1.31
   3   6  10    1.86    0.82
  -4  -6 -10    1.68    0.54
  -4  -6 -10    3.30    1.55
  -4  -6 -10    1.37    0.66
  -4  -6 -10    0.58    1.02
   4  -6  10    1.97    0.62
   4   6  10    1.02    0.68
   4   6  10    3.13    1.21
   4   6  10    3.32    1.68
   4   6  10    5.05    2.26
  -5  -6 -10   23.38    2.81
  -5  -6 -10   22.93    2.47
  -5  -6 -10   27.16    1.94
  -5   6 -10   23.69    2.23
   5   6  10   28.19    2.10
   5   6  10   34.11    3.38
  -6  -6 -10    6.07    1.95
  -6  -6 -10    5.30    2.63
  -6  -6 -10    6.33    1.37
  -6   6 -10    5.07    1.78
  -6   6 -10    4.34    1.54
   6   6  10    5.46    1.44
  -6  -7  10    4.65    1.57
  -6  -7  10    5.39    1.10
  -6  -7  10    5.72    2.42
   6  -7 -10    5.57    1.21
  -6   7  10    6.12    1.44
   6   7 -10    3.65    1.10
  -5  -7  10   -0.09    1.50
   5  -7 -10    0.24    0.75
   5  -7 -10   -0.72    0.70
  -5  -7  10    0.24    1.01
  -5  -7  10    1.25    0.69
  -5   7  10    0.06    0.63
   5   7 -10    0.04    1.65
  -5   7  10   -1.12    0.89
   5   7 -10    0.15    0.63
  -4  -7  10    1.78    0.53
   4  -7 -10    1.22    0.55
  -4  -7  10    2.78    1.32
  -4  -7  10    3.06    0.99
  -4  -7  10    1.84    0.49
   4  -7 -10    3.23    0.74
  -4   7  10    2.20    0.58
  -4   7  10    3.30    0.85
  -4   7  10    2.11    0.59
   4   7 -10    3.69    1.33
   4   7 -10    2.17    0.54
   3  -7 -10   -0.12    0.40
  -3  -7  10    0.57    0.68
  -3  -7  10   -0.11    0.91
  -3  -7  10    0.62    0.39
  -3  -7  10    0.71    0.33
   3   7 -10    0.09    0.32
  -3   7  10    0.10    0.41
   3   7 -10    0.39    0.98
  -3   7  10   -0.12    0.52
  -3   7  10   -0.12    0.43
   2  -7 -10   81.55    2.77
  -2  -7  10   89.11    2.85
  -2  -7  10   88.37    3.40
   2  -7 -10   89.03    3.04
  -2  -7  10   85.74    3.00
  -2  -7  10   82.76    4.23
  -2   7  10   87.39    3.37
   2   7 -10   86.72    2.70
  -2   7  10   91.77    3.08
  -2   7  10   85.55    2.88
   2   7 -10   88.67    3.93
   1  -7 -10    4.89    0.61
  -1  -7  10    4.44    0.53
  -1  -7  10    4.70    0.57
  -1  -7  10    4.53    0.99
   1  -7 -10    4.44    0.58
  -1  -7  10    5.50    0.82
  -1   7  10    4.92    0.81
  -1   7  10    4.85    0.57
  -1   7  10    5.24    0.65
   1   7 -10    4.17    0.99
   0  -7  10  165.23    6.19
   0  -7  10  185.71    5.53
   0  -7  10  187.91    5.58
   0  -7  10  177.61    6.14
   0  -7 -10  182.52    5.66
   0  -7 -10  178.65    5.51
   0   7  10  175.35    6.19
   0   7 -10  186.88    6.29
   0   7  10  176.03    5.82
   0   7 -10  178.18    6.19
   0   7  10  181.22    5.61
   1  -7  10    3.81    1.02
  -1  -7 -10    3.49    0.83
   1  -7  10    3.50    0.49
   1  -7  10    3.92    0.73
  -1  -7 -10    3.47    0.54
   1  -7  10    3.35    0.43
   1   7  10    3.66    0.91
  -1   7 -10    4.22    1.00
   1   7  10    2.61    0.80
   1   7  10    3.09    0.49
  -1   7 -10    2.37    0.75
   1   7  10    1.67    0.60
   2  -7  10   43.18    1.46
  -2  -7 -10   47.49    2.72
  -2  -7 -10   44.48    2.38
  -2  -7 -10   44.91    1.82
  -2  -7 -10   48.24    1.90
   2  -7  10   41.30    2.02
   2   7  10   47.01    2.88
   2   7  10   46.93    1.95
  -2   7 -10   40.70    2.63
   2   7  10   45.69    2.24
   2   7  10   45.28    2.71
  -3  -7 -10    0.90    0.44
  -3  -7 -10    0.37    0.40
  -3  -7 -10    1.77    1.37
  -3  -7 -10    0.74    0.97
   3  -7  10    0.11    0.37
   3   7  10    1.22    0.53
   3   7  10    1.41    1.36
   3   7  10    0.27    0.77
   3   7  10    0.63    1.44
  -4  -7 -10   -0.45    1.55
  -4  -7 -10   -1.60    1.02
  -4  -7 -10    1.25    0.55
  -4  -7 -10   -0.39    0.84
   4   7  10   -1.42    1.03
   4   7  10    0.27    1.82
   4   7  10    1.30    2.18
  -5  -7 -10    0.75    2.02
  -5  -7 -10    0.44    0.86
  -5  -7 -10    1.33    1.46
  -5   7 -10    1.45    1.11
   5   7  10   -0.45    1.75
  -6  -7 -10   10.93    1.54
  -6  -7 -10   13.91    3.25
  -6  -7 -10   11.19    2.21
  -6   7 -10   10.40    1.91
   6   7  10   13.91    1.82
  -6  -8  10    8.32    1.66
  -6  -8  10    5.11    2.54
  -6  -8  10    6.11    1.22
   6  -8 -10   10.00    1.45
  -6   8  10    5.53    1.42
   6   8 -10    6.63    1.26
   5  -8 -10    0.25    0.81
  -5  -8  10    0.30    1.71
  -5  -8  10    1.07    1.18
  -5  -8  10    0.02    0.67
  -5   8  10    1.37    0.94
   5   8 -10   -0.09    0.69
   5   8 -10   -1.01    1.69
  -5   8  10    1.32    0.73
  -4  -8  10   16.99    1.04
   4  -8 -10   15.40    1.28
  -4  -8  10   14.41    1.74
  -4  -8  10   13.90    1.16
  -4  -8  10   13.45    1.92
   4   8 -10   14.12    2.11
  -4   8  10   12.58    1.42
  -4   8  10   15.45    1.28
  -4   8  10   17.42    1.11
   4   8 -10   16.63    1.14
  -3  -8  10   10.15    1.63
   3  -8 -10   10.19    0.99
  -3  -8  10   11.25    0.80
  -3  -8  10   13.09    1.48
  -3  -8  10   12.37    0.97
  -3   8  10   13.84    1.27
  -3   8  10   12.64    0.92
   3   8 -10   15.69    2.05
   3   8 -10   13.36    0.81
  -3   8  10   10.04    0.93
   2  -8 -10  144.33    4.56
  -2  -8  10  140.88    4.55
  -2  -8  10  134.74    4.94
   2  -8 -10  142.42    4.60
   2  -8 -10  134.71    4.35
  -2  -8  10  142.53    6.14
  -2  -8  10  144.14    4.41
  -2   8  10  140.72    4.91
  -2   8  10  134.55    4.39
   2   8 -10  137.64    5.54
   2   8 -10  140.36    4.20
  -2   8  10  144.37    4.59
   1  -8 -10   28.86    1.08
   1  -8 -10   30.98    1.79
  -1  -8  10   27.67    2.16
   1  -8 -10   25.21    1.18
  -1  -8  10   27.59    1.23
  -1  -8  10   27.57    1.27
   1  -8 -10   26.68    1.33
   1  -8 -10   29.65    1.61
  -1  -8  10   29.87    1.67
   1  -8 -10   25.29    1.01
  -1   8  10   26.91    1.24
  -1   8  10   24.86    1.67
   1   8 -10   28.60    2.12
  -1   8  10   28.90    1.45
   0  -8 -10  180.37    5.67
   0  -8  10  193.99    6.44
   0  -8 -10  182.07    6.22
   0  -8 -10  191.47    6.17
   0  -8 -10  181.50    5.85
   0  -8  10  190.35    5.80
   0  -8 -10  183.97    5.74
   0  -8  10  186.41    5.70
   0   8  10  187.57    5.82
   0   8  10  187.01    6.47
   0   8 -10  187.22    6.55
   0   8 -10  179.04    6.48
   0   8  10  190.44    6.08
   1  -8  10    1.18    1.02
  -1  -8 -10    0.06    0.72
   1  -8  10    0.99    0.33
   1  -8  10    0.80    0.38
  -1  -8 -10    0.38    0.40
  -1  -8 -10    0.37    0.84
  -1  -8 -10    0.30    0.36
   1  -8  10    0.72    0.61
  -1   8 -10    2.55    1.01
   1   8  10    1.57    0.58
   1   8  10    1.61    0.78
   1   8  10    1.20    0.45
   1   8  10    1.02    0.85
  -1   8 -10   -0.12    0.70
   2  -8  10   50.99    2.30
  -2  -8 -10   56.47    2.17
  -2  -8 -10   55.25    2.11
  -2  -8 -10   51.66    2.73
   2   8  10   53.65    2.54
  -2   8 -10   50.57    2.29
   2   8  10   56.41    2.27
   2   8  10   51.16    3.14
   2   8  10   54.43    3.12
  -3  -8 -10    7.64    1.66
  -3  -8 -10    9.19    0.91
  -3  -8 -10   10.63    1.51
  -3  -8 -10    9.87    1.06
   3   8  10   10.91    2.00
   3   8  10   10.16    1.10
   3   8  10    8.15    1.26
   3   8  10   12.99    2.12
  -4  -8 -10   -1.69    1.69
  -4  -8 -10    1.20    0.68
  -4  -8 -10   -0.96    0.57
  -4  -8 -10    0.44    2.17
   4   8  10    0.35    1.15
   4   8  10    0.62    0.76
   4   8  10   -1.29    2.08
   4   8  10    2.29    2.40
  -5  -8 -10   14.27    1.76
  -5  -8 -10   15.70    2.83
  -5  -8 -10   13.10    2.10
  -5   8 -10   15.02    1.59
   5   8  10   11.23    2.20
  -6  -9  10    6.47    3.06
  -6  -9  10    6.24    1.95
  -6  -9  10    8.84    1.30
   6   9 -10   10.14    1.43
  -6   9  10    8.67    1.35
   6   9 -10    4.79    2.84
  -5  -9  10   34.16    2.88
  -5  -9  10   32.81    1.98
   5  -9 -10   30.69    2.04
   5   9 -10   34.36    1.97
  -5   9  10   34.68    2.07
   5   9 -10   32.62    3.85
  -4  -9  10   36.78    2.50
  -4  -9  10   40.25    3.50
  -4  -9  10   34.92    1.91
   4  -9 -10   36.91    1.91
  -4  -9  10   39.20    1.68
  -4   9  10   40.05    1.61
  -4   9  10   34.09    2.02
   4   9 -10   32.47    3.84
   4   9 -10   38.88    1.76
   3  -9 -10   19.35    1.27
  -3  -9  10   18.75    1.08
  -3  -9  10   20.44    1.87
  -3  -9  10   19.96    2.47
  -3  -9  10   19.62    1.25
   3  -9 -10   17.97    1.09
  -3   9  10   21.02    1.15
   3   9 -10   19.69    1.03
   3   9 -10   13.24    2.02
  -3   9  10   19.70    1.48
  -3   9  10   18.89    1.16
  -2  -9  10   23.71    2.52
   2  -9 -10   27.79    1.44
   2  -9 -10   26.23    1.28
  -2  -9  10   28.30    1.88
  -2  -9  10   28.93    1.41
  -2  -9  10   30.49    1.32
  -2   9  10   27.18    1.40
   2   9 -10   27.64    1.04
   2   9 -10   26.60    2.39
  -2   9  10   29.07    1.72
  -2   9  10   29.37    1.31
  -1  -9  10    2.78    0.51
  -1  -9  10    2.58    0.45
  -1  -9  10    1.72    1.12
  -1  -9  10    2.91    0.80
   1  -9 -10    1.93    0.46
   1  -9 -10    3.02    0.77
   1  -9 -10    2.42    0.50
  -1   9  10    2.22    0.56
  -1   9  10    3.90    0.82
  -1   9  10    1.59    0.44
   1   9 -10    2.88    1.16
   0  -9 -10    4.58    0.52
   0  -9  10    4.37    0.52
   0  -9 -10    3.31    0.56
   0  -9 -10    3.48    0.90
   0  -9  10    1.95    1.51
   0  -9  10    4.08    0.60
   0  -9 -10    2.22    1.03
   0  -9 -10    4.38    0.57
   0   9 -10    3.14    1.06
   0   9  10    3.26    0.67
   0   9  10    4.17    0.57
   0   9  10    3.81    0.88
   1  -9  10   67.76    2.71
  -1  -9 -10   64.24    2.40
   1  -9  10   64.67    2.22
  -1  -9 -10   70.63    3.03
  -1  -9 -10   64.91    2.46
   1  -9  10   66.46    2.51
  -1  -9 -10   66.61    2.49
  -1  -9 -10   63.41    3.22
  -1   9 -10   65.02    3.03
   1   9  10   65.62    2.52
   1   9  10   68.14    2.82
   1   9  10   64.26    3.36
   1   9  10   64.23    3.31
  -2  -9 -10   -0.82    0.86
  -2  -9 -10   -0.03    0.48
  -2  -9 -10    0.40    0.39
  -2  -9 -10    1.19    1.38
   2   9  10   -0.08    0.63
   2   9  10   -0.27    1.08
   2   9  10    0.28    0.50
   2   9  10   -1.47    1.13
  -3  -9 -10   67.19    2.71
  -3  -9 -10   65.67    4.13
  -3  -9 -10   65.89    2.55
  -3  -9 -10   74.47    3.45
   3   9  10   66.08    3.20
   3   9  10   62.29    4.28
   3   9  10   66.34    4.43
   3   9  10   67.64    2.83
  -4  -9 -10    3.10    1.47
  -4  -9 -10    4.20    0.87
  -4  -9 -10    3.48    0.77
  -4  -9 -10    4.49    2.18
   4   9  10    6.05    1.45
   4   9  10    5.05    2.49
   4   9  10    3.79    0.98
   4   9  10    8.55    2.88
  -5  -9 -10    8.50    1.29
  -5  -9 -10   11.64    3.69
  -5  -9 -10   10.56    2.09
   5   9  10   13.87    2.34
  -5 -10  10    8.24    1.19
  -5 -10  10    5.98    2.74
  -5 -10  10    7.74    1.76
   5 -10 -10    7.99    1.23
  -5  10  10    8.44    1.13
   5  10 -10   12.42    2.68
   5  10 -10    7.67    1.28
  -4 -10  10   26.14    1.65
   4 -10 -10   27.17    1.76
  -4 -10  10   27.40    1.51
  -4 -10  10   23.42    2.84
  -4  10  10   28.19    1.42
   4  10 -10   25.23    1.50
  -4  10  10   23.70    1.76
   4  10 -10   26.51    2.99
   3 -10 -10   20.55    1.42
  -3 -10  10   18.92    1.17
  -3 -10  10   17.34    2.20
  -3 -10  10   18.77    1.92
   3 -10 -10   19.12    1.26
  -3 -10  10   18.42    1.31
  -3  10  10   19.72    1.21
  -3  10  10   22.22    1.24
   3  10 -10   20.12    1.09
  -3  10  10   20.93    1.54
   3  10 -10   15.90    2.11
  -2 -10  10   11.56    0.88
  -2 -10  10    8.98    0.94
  -2 -10  10   10.16    1.30
   2 -10 -10    8.99    0.97
   2 -10 -10    9.26    0.98
  -2 -10  10    9.51    1.84
  -2  10  10    9.53    0.84
  -2  10  10    8.40    1.07
  -2  10  10   10.14    0.99
   2  10 -10    8.18    1.70
   2  10 -10   10.05    0.60
   1 -10 -10    8.48    1.04
  -1 -10  10    8.50    1.57
  -1 -10  10    9.72    0.88
  -1 -10  10    8.30    0.84
   1 -10 -10    8.80    0.86
  -1 -10  10    9.11    1.16
   1 -10 -10    7.96    0.87
  -1  10  10    9.12    1.22
  -1  10  10    7.99    0.83
   1  10 -10    6.44    1.45
  -1  10  10    8.01    0.92
   0 -10 -10    3.18    0.93
   0 -10  10    2.99    0.57
   0 -10 -10    2.39    0.52
   0 -10  10    3.45    0.51
   0 -10 -10    2.85    0.56
   0 -10 -10    3.17    0.47
   0  10  10    2.64    0.93
   0  10 -10    4.32    1.21
   0  10  10    3.45    0.74
   0  10  10    2.46    0.52
   0  10  10    3.82    1.10
   1 -10  10    1.57    0.86
  -1 -10 -10    1.59    0.55
   1 -10  10    1.22    0.48
  -1 -10 -10    1.26    0.92
  -1 -10 -10    1.42    0.49
  -1 -10 -10    1.57    0.50
   1  10  10    1.93    1.15
   1  10  10    0.93    0.49
   1  10  10    1.40    0.69
   1  10  10    0.74    1.02
  -1  10 -10   -0.89    0.95
  -2 -10 -10   43.10    1.90
  -2 -10 -10   42.12    2.63
  -2 -10 -10   36.79    3.61
  -2 -10 -10   39.51    1.84
   2  10  10   42.44    3.20
   2  10  10   40.59    3.32
  -2  10 -10   38.88    2.43
   2  10  10   44.16    2.05
   2  10  10   39.74    2.28
  -3 -10 -10    7.62    0.87
  -3 -10 -10    8.18    3.27
  -3 -10 -10    7.98    1.61
   3  10  10    9.94    2.28
   3  10  10    7.32    1.05
   3  10  10    7.07    2.09
  -4 -10 -10   35.02    2.12
  -4 -10 -10   38.35    3.04
  -4 -10 -10   40.88    2.17
   4  10  10   38.36    3.00
   4  10  10   42.15    5.07
   4  10  10   41.32    2.36
   4  10  10   41.90    5.31
  -5 -10 -10    4.64    2.06
  -5 -10 -10    5.55    1.23
   5  10  10    5.56    2.26
   5 -11 -10   -1.45    1.08
  -5 -11  10    1.79    0.94
  -5 -11  10   -2.20    1.62
   5  11 -10   -2.16    2.37
  -4 -11  10   73.80    3.05
   4 -11 -10   78.88    3.11
  -4 -11  10   75.31    3.86
  -4 -11  10   81.29    3.13
  -4  11  10   66.84    3.05
   4  11 -10   73.46    4.80
  -3 -11  10    1.33    1.23
   3 -11 -10   -1.34    0.63
  -3 -11  10   -0.30    0.65
  -3 -11  10    1.11    0.57
   3 -11 -10   -0.11    0.66
  -3  11  10    0.49    0.59
  -3  11  10   -0.41    0.72
   3  11 -10    1.35    1.59
  -2 -11  10   52.57    2.85
   2 -11 -10   54.01    2.30
  -2 -11  10   52.99    2.14
   2 -11 -10   52.39    2.18
  -2 -11  10   55.72    2.21
  -2  11  10   48.58    2.16
  -2  11  10   52.56    2.07
  -2  11  10   49.07    2.53
   2  11 -10   56.52    3.59
   1 -11 -10    0.93    0.49
  -1 -11  10    0.58    0.84
  -1 -11  10    1.28    0.92
  -1 -11  10    0.67    0.49
   1 -11 -10    0.28    0.55
  -1  11  10    0.42    0.59
   1  11 -10    0.89    1.22
  -1  11  10    0.66    0.73
  -1  11  10    0.77    0.93
  -1  11  10    1.59    0.53
   0 -11 -10    4.11    0.64
   0 -11  10    3.48    0.63
   0 -11 -10    2.96    1.12
   0 -11  10    3.49    0.52
   0 -11 -10    3.10    0.47
   0 -11 -10    4.13    0.69
   0  11  10    1.89    0.73
   0  11  10    3.91    1.02
   0  11  10    3.64    1.25
   0  11 -10    1.66    1.26
   0  11  10    3.71    0.63
  -1 -11 -10    1.13    1.14
   1 -11  10    1.96    0.59
  -1 -11 -10    2.17    0.55
  -1 -11 -10    2.31    0.59
  -1 -11 -10    1.97    0.56
   1  11  10    3.99    0.72
   1  11  10    2.16    1.12
   1  11  10    1.20    1.34
   1  11  10    1.73    0.78
  -1  11 -10    1.64    1.22
  -2 -11 -10   70.34    2.72
  -2 -11 -10   69.33    2.78
  -2 -11 -10   73.81    3.58
  -2 -11 -10   75.34    2.74
   2  11  10   68.78    2.85
  -2  11 -10   65.95    3.35
   2  11  10   70.61    4.38
   2  11  10   66.79    3.20
   2  11  10   65.65    4.14
  -3 -11 -10    0.92    1.50
  -3 -11 -10   -0.07    0.69
  -3 -11 -10    0.98    0.63
   3  11  10    4.44    2.18
   3  11  10    0.15    1.05
   3  11  10    1.61    2.10
   3  11  10    0.66    0.82
  -4 -11 -10   69.90    3.16
  -4 -11 -10   75.36    4.26
   4  11  10   71.20    3.37
   4  11  10   69.43    6.26
   4  11  10   78.83    4.03
   4  11  10   75.72    6.36
  -5 -11 -10   -1.06    2.03
  -5 -11 -10    0.61    1.17
   5  11  10    2.25    2.19
   5 -12 -10    3.47    1.31
  -5 -12  10    1.77    1.01
  -5 -12  10    3.41    2.04
   5  12 -10    1.87    2.69
  -5  12  10    1.93    2.39
  -4 -12  10   10.90    1.26
   4 -12 -10   11.82    1.31
  -4 -12  10   11.20    1.71
  -4 -12  10   12.63    1.95
   4  12 -10   12.06    2.66
  -4  12  10   12.35    1.68
  -3 -12  10   44.25    1.98
   3 -12 -10   40.76    2.08
  -3 -12  10   42.34    2.12
  -3 -12  10   43.41    3.05
   3 -12 -10   44.85    2.24
  -3  12  10   40.44    2.35
  -3  12  10   39.70    1.82
   3  12 -10   36.10    3.50
  -2 -12  10    0.27    1.12
  -2 -12  10    1.02    0.59
   2 -12 -10    1.46    0.74
  -2 -12  10    1.78    0.62
   2 -12 -10    1.14    0.84
  -2  12  10    0.97    0.63
   2  12 -10    0.84    1.56
  -2  12  10    1.34    0.95
  -2  12  10    0.82    1.36
  -2  12  10    0.64    0.67
  -1 -12  10   50.96    2.08
   1 -12 -10   49.98    2.25
  -1 -12  10   48.33    2.81
  -1 -12  10   53.76    2.19
   1 -12 -10   49.93    2.20
  -1  12  10   52.57    3.27
  -1  12  10   52.83    2.16
  -1  12  10   53.12    2.82
  -1  12  10   50.70    2.33
   1  12 -10   47.93    3.46
   0 -12  10    8.50    1.04
   0 -12  10    7.58    0.80
   0 -12 -10    9.25    0.79
   0 -12 -10    8.75    0.99
   0 -12 -10    8.53    0.95
   0  12  10    7.53    1.44
   0  12  10    6.94    1.55
   0  12  10    9.34    1.11
   0  12 -10   10.64    1.82
   0  12  10    6.55    1.00
  -1 -12 -10    3.88    0.69
  -1 -12 -10    3.90    0.68
  -1 -12 -10    3.32    1.39
  -1 -12 -10    3.43    0.77
   1 -12  10    3.94    0.77
   1  12  10    4.99    0.82
   1  12  10    1.88    1.54
  -1  12 -10    3.53    1.60
   1  12  10    5.52    1.41
   1  12  10    2.90    0.92
  -2 -12 -10   24.91    1.51
  -2 -12 -10   28.82    2.77
   2 -12  10   21.08    1.58
  -2 -12 -10   21.09    1.97
  -2 -12 -10   25.93    1.56
   2  12  10   25.25    2.90
  -2  12 -10   23.82    2.89
   2  12  10   21.64    1.95
  -3 -12 -10    2.36    0.87
  -3 -12 -10    2.40    0.83
  -3 -12 -10    2.95    0.84
  -3 -12 -10    3.65    1.94
   3  12  10    2.62    1.24
   3  12  10    6.46    2.81
   3  12  10    6.39    2.42
   3  12  10    2.98    1.01
  -4 -12 -10   19.17    1.87
  -4 -12 -10   17.68    1.93
  -4 -12 -10   21.62    2.69
   4  12  10   19.69    4.14
   4  12  10   17.02    2.26
   4  12  10   16.54    3.64
   4 -13 -10    6.42    1.22
  -4 -13  10    8.82    2.09
  -4 -13  10    6.66    1.14
  -4 -13  10    6.94    1.08
  -4  13  10    4.71    2.31
  -4  13  10    7.10    1.18
   4  13 -10    2.23    2.56
  -3 -13  10    0.39    0.79
   3 -13 -10    0.11    0.83
  -3 -13  10    0.99    1.62
   3 -13 -10    0.26    0.95
  -3 -13  10    1.46    1.43
  -3  13  10    1.44    1.65
   3  13 -10   -1.58    1.86
  -3  13  10   -0.57    0.97
  -2 -13  10   18.20    1.42
   2 -13 -10   15.14    1.56
  -2 -13  10   14.41    1.89
   2 -13 -10   17.89    1.58
  -2 -13  10   17.61    1.46
  -2  13  10   14.85    1.92
  -2  13  10   17.43    1.47
   2  13 -10   18.08    2.65
  -2  13  10   16.38    2.34
   1 -13 -10   13.63    1.36
   1 -13 -10   16.64    1.44
  -1 -13  10   14.84    1.23
  -1 -13  10   15.99    1.31
  -1  13  10   17.40    1.50
  -1  13  10   14.60    2.13
   1  13 -10   14.43    2.33
  -1  13  10   14.93    1.32
  -1  13  10   13.50    1.63
   0 -13  10   17.77    1.41
   0 -13 -10   20.57    1.45
   0 -13 -10   18.97    1.52
   0  13  10   18.33    1.77
   0  13  10   17.71    2.39
   0  13  10   20.28    1.46
   0  13 -10   23.23    2.99
   0  13  10   17.13    2.23
  -1 -13 -10   37.49    2.74
  -1 -13 -10   36.33    1.75
   1 -13  10   36.76    2.00
  -1 -13 -10   38.85    2.22
   1  13  10   36.47    2.37
   1  13  10   44.30    3.79
   1  13  10   39.64    3.21
   1  13  10   42.78    2.10
  -1  13 -10   41.66    3.41
   2 -13  10    1.43    0.81
  -2 -13 -10    3.52    0.87
  -2 -13 -10    2.02    1.74
  -2 -13 -10    3.20    0.88
  -2 -13 -10    1.37    0.73
   2  13  10    2.43    1.81
   2  13  10    1.84    2.17
   2  13  10    4.00    0.99
   2  13  10    0.74    1.10
  -3 -13 -10   24.87    2.80
  -3 -13 -10   18.94    1.73
  -3 -13 -10   18.30    1.82
  -3 -13 -10   19.36    1.76
   3  13  10   19.91    3.13
   3  13  10   17.02    1.95
   3  13  10   22.14    2.49
   3  13  10   20.67    3.54
  -4 -13 -10    4.28    2.24
  -4 -13 -10    6.23    1.30
  -4 -13 -10    5.91    1.24
   4  13  10   -4.79    3.45
   4  13  10    0.73    1.81
   4  13  10    6.19    4.03
  -4 -14  10    2.82    1.79
  -4 -14  10    6.27    1.37
   4 -14 -10    6.01    1.27
  -4 -14  10    1.00    2.25
  -4  14  10    5.78    2.69
   4  14 -10    3.03    2.70
  -3 -14  10    3.49    2.07
  -3 -14  10    2.56    0.95
   3 -14 -10    1.47    0.96
  -3 -14  10    2.85    1.03
   3  14 -10   -0.73    2.29
  -3  14  10    2.30    1.95
  -3  14  10    3.31    1.22
   2 -14 -10   63.10    2.83
  -2 -14  10   66.01    2.80
   2 -14 -10   62.49    2.85
  -2  14  10   60.36    3.31
  -2  14  10   61.70    2.69
   2  14 -10   58.94    4.67
  -2  14  10   56.22    4.24
  -1 -14  10   14.94    1.52
  -1 -14  10   13.92    1.47
   1 -14 -10   16.44    1.55
   1 -14 -10   16.79    1.58
   1  14 -10   14.38    2.51
  -1  14  10   14.87    1.70
  -1  14  10   11.91    2.11
  -1  14  10   18.52    1.56
  -1  14  10   15.13    1.76
   0 -14  10  103.91    3.89
   0 -14 -10  108.22    3.98
   0 -14 -10  104.22    4.08
   0  14 -10  103.77    5.85
   0  14  10  103.06    5.37
   0  14  10  111.60    3.93
   0  14  10  103.94    4.19
   0  14  10   96.57    4.75
  -1 -14 -10   17.16    1.54
  -1 -14 -10   15.95    1.53
   1 -14  10   12.99    1.52
   1  14  10   16.26    1.71
  -1  14 -10    9.70    2.33
   1  14  10   15.78    2.69
   1  14  10   16.09    1.96
   1  14  10   17.97    2.29
   2 -14  10   32.12    2.18
  -2 -14 -10   35.76    2.16
  -2 -14 -10   41.43    2.09
  -2 -14 -10   38.29    2.16
   2  14  10   35.19    2.64
   2  14  10   40.94    4.37
   2  14  10   36.21    2.37
   2  14  10   40.71    4.08
  -3 -14 -10    6.58    1.22
  -3 -14 -10    6.56    1.23
  -3 -14 -10    4.89    1.13
   3  14  10    5.90    1.63
   3  14  10    7.48    1.41
   3  14  10    6.27    2.79
   3  14  10    3.30    3.14
  -3 -15  10    9.66    1.38
  -3 -15  10    9.25    1.33
   3 -15 -10    9.86    1.32
   3  15 -10   10.89    2.90
  -3  15  10    7.78    1.57
  -3  15  10    5.96    2.51
   2 -15 -10   29.24    2.12
  -2 -15  10   36.61    2.15
  -2 -15  10   33.83    2.20
   2 -15 -10   28.24    2.23
  -2  15  10   37.98    4.10
  -2  15  10   28.03    2.75
  -2  15  10   27.65    2.06
   2  15 -10   33.58    3.97
   1 -15 -10    1.32    1.00
  -1 -15  10   -0.05    0.87
   1 -15 -10    0.05    0.75
  -1  15  10   -1.64    1.79
  -1  15  10    0.95    1.31
   1  15 -10    1.46    2.17
  -1  15  10   -0.19    1.00
   0 -15 -10   41.56    2.42
   0 -15 -10   50.66    2.47
   0 -15  10   47.48    2.42
   0  15  10   42.51    3.71
   0  15 -10   43.68    4.43
   0  15  10   50.84    4.35
   0  15  10   46.81    3.51
   0  15  10   45.17    2.70
  -1 -15 -10    6.12    1.07
   1 -15  10    5.89    1.09
  -1 -15 -10    6.76    1.15
   1  15  10    6.87    1.93
   1  15  10    4.22    2.54
   1  15  10    6.07    1.26
   1  15  10    4.28    1.33
  -1  15 -10    5.00    2.39
  -2 -15 -10   14.27    1.79
   2 -15  10    7.69    1.31
  -2 -15 -10   10.88    1.42
   2  15  10   14.46    2.88
   2  15  10    7.77    1.39
   2  15  10   10.01    3.25
   2  15  10    8.21    1.65
  -3 -15 -10    4.85    1.66
  -3 -15 -10    6.94    1.37
  -3 -15 -10    9.80    1.38
   3  15  10    8.77    3.67
   3  15  10   -1.85    2.77
   3  15  10    7.59    1.88
  -2 -16  10    6.70    1.35
   2 -16 -10    7.92    1.42
   2 -16 -10    4.66    1.18
   2  16 -10    6.04    2.98
  -2  16  10    7.48    1.72
  -2  16  10    6.02    2.58
   1 -16 -10    9.14    1.33
  -1 -16  10    9.67    1.39
   1 -16 -10   12.74    1.57
  -1  16  10   10.03    1.49
  -1  16  10   14.53    2.95
  -1  16  10    8.57    1.82
   1  16 -10   10.02    2.88
   0 -16 -10   23.38    1.99
   0 -16 -10   24.98    2.12
   0 -16  10   19.17    1.95
   0  16  10   22.42    3.33
   0  16  10   23.56    2.34
   0  16  10   24.60    3.20
   0  16 -10   23.69    3.53
   0  16  10   28.24    2.24
   1 -16  10   -0.61    1.04
  -1 -16 -10   -0.27    0.92
  -1 -16 -10    2.08    1.08
   1  16  10    2.56    2.68
   1  16  10    1.63    1.23
   1  16  10   -1.90    1.93
   1  16  10   -0.36    1.32
  -2 -16 -10   15.89    2.06
  -2 -16 -10   16.71    2.11
   2 -16  10   14.32    1.80
   2  16  10   14.76    2.20
   2  16  10   20.53    2.46
   2  16  10   12.61    3.73
   2  16  10   19.01    3.11
  -1 -17  10    1.99    1.19
   1 -17 -10   -1.24    1.05
   1 -17 -10    1.34    1.31
   1  17 -10   -1.71    3.01
  -1  17  10   -1.26    1.38
  -1  17  10    0.02    3.00
  -1  17  10   -0.14    1.87
   0 -17  10    2.05    1.25
   0 -17 -10   -0.96    1.06
   0 -17 -10    2.26    1.25
   0  17 -10    2.02    3.24
   0  17  10    2.78    1.94
   0  17  10    0.67    1.44
   0  17  10    6.66    3.04
   1 -17  10    7.13    1.43
  -1 -17 -10   10.08    1.48
  -1 -17 -10    8.07    1.35
   1  17  10    2.37    2.53
   1  17  10    6.77    1.82
   1  17  10    4.91    3.56
  -7   0  11    3.19    1.86
   7   0 -11    0.82    1.17
  -7   0  11    1.32    1.56
  -7   0  11    0.41    1.29
  -6   0  11   -0.18    1.02
   6   0 -11   -1.92    0.74
  -6   0  11   -0.99    1.24
  -5   0  11   26.21    2.35
  -5   0  11   28.17    1.90
   5   0 -11   28.33    1.61
  -5   0  11   26.74    1.55
   4   0 -11    0.11    0.43
   4   0 -11   -0.22    0.34
  -4   0  11    0.17    0.36
  -4   0  11    0.31    0.76
  -4   0  11   -0.28    0.58
   3   0 -11  109.47    3.42
  -3   0  11  101.70    3.49
   3   0 -11  108.81    3.54
  -3   0  11  104.38    4.13
  -3   0  11  106.57    3.84
  -2   0  11    0.29    0.25
  -2   0  11   -0.27    0.47
   2   0 -11    0.28    0.26
  -2   0  11    0.53    0.40
  -1   0  11   74.00    2.56
  -1   0  11   70.70    2.44
  -1   0  11   74.80    3.11
  -1   0  11   79.04    2.83
   1   0 -11   75.98    2.23
   0   0  11    0.60    0.31
   0   0  11    0.10    0.34
   0   0  11    0.39    0.25
   0   0 -11    0.12    0.25
   0   0  11    0.43    0.56
   1   0  11    1.29    0.90
   1   0  11    1.88    0.73
   2   0  11    0.67    0.58
   2   0  11   -0.14    0.74
   2   0  11   -0.76    0.77
   2   0  11    0.21    0.33
   3   0  11   28.23    1.83
   3   0  11   30.11    2.49
   3   0  11   28.39    1.42
  -4   0 -11   -0.17    0.79
   4   0  11   -0.12    0.54
   4   0  11   -0.94    0.92
   4   0  11    0.05    0.53
  -5   0 -11   55.89    3.19
   5   0  11   60.58    2.63
  -6   0 -11   -0.88    1.42
  -6   0 -11   -0.01    1.16
   6   0  11    1.92    1.10
  -6   0 -11    1.02    1.87
  -7  -1  11    0.98    1.95
   7  -1 -11   -1.44    1.19
  -7  -1  11    0.73    1.52
  -7  -1  11    1.24    1.40
  -7   1  11   -1.96    1.83
  -7   1  11    0.15    1.52
   7   1 -11   -0.91    1.16
   6  -1 -11   14.27    1.66
  -6  -1  11   17.42    2.17
  -6  -1  11   15.93    1.65
  -6  -1  11   14.60    1.67
  -6   1  11   14.87    1.65
   6   1 -11   17.93    1.64
  -6   1  11   15.05    1.96
  -6   1  11   18.57    2.54
  -5  -1  11   18.34    1.31
  -5  -1  11   17.84    2.21
  -5  -1  11   16.78    1.63
   5  -1 -11   16.66    1.37
   5   1 -11   22.06    1.39
  -5   1  11   17.29    1.59
  -5   1  11   18.68    2.05
  -5   1  11   20.88    1.31
  -4  -1  11   13.31    1.63
   4  -1 -11   11.67    1.01
   4  -1 -11   10.28    0.80
  -4  -1  11   11.78    1.29
  -4  -1  11   11.47    0.91
  -4   1  11   12.83    1.49
  -4   1  11   12.29    0.92
   4   1 -11   12.06    0.95
   4   1 -11   11.04    0.86
  -4   1  11   12.21    1.25
  -3  -1  11   93.06    3.45
   3  -1 -11   92.13    3.14
  -3  -1  11   89.80    3.70
  -3  -1  11   89.56    3.10
   3  -1 -11   92.19    3.00
  -3   1  11   90.26    3.66
  -3   1  11   91.58    3.37
  -3   1  11   92.57    3.08
   3   1 -11   89.65    3.06
   2  -1 -11    1.65    0.37
  -2  -1  11    1.09    0.43
  -2  -1  11    1.69    0.54
  -2  -1  11    1.66    0.36
  -2   1  11    1.21    0.33
  -2   1  11    1.21    0.60
   2   1 -11    0.80    0.36
  -2   1  11    2.15    0.51
   1  -1 -11  139.57    3.91
  -1  -1  11  130.74    4.27
  -1  -1  11  136.23    4.88
  -1  -1  11  133.88    4.08
  -1  -1  11  136.16    4.54
   1   1 -11  136.16    3.95
  -1   1  11  135.40    4.26
  -1   1  11  130.59    4.48
  -1   1  11  128.57    4.77
   0  -1 -11    9.76    0.59
   0  -1  11    9.25    0.86
   0  -1  11    9.48    1.18
   0  -1  11    8.60    0.57
   0  -1  11   10.31    0.69
   0   1  11    8.09    0.82
   0   1  11    9.02    0.67
   0   1  11   10.36    0.83
   0   1 -11    8.68    0.59
   1  -1  11    9.43    1.17
   1  -1  11    7.70    1.01
   1  -1  11   10.25    0.97
   1  -1  11   10.38    0.71
  -1   1 -11   14.27    1.87
   1   1  11    9.39    1.19
   1   1  11   12.34    0.97
   1   1  11    9.80    0.72
   2  -1  11    7.50    0.92
   2  -1  11    6.12    0.86
   2  -1  11    5.77    0.64
   2  -1  11    7.28    1.17
   2   1  11    5.06    0.90
  -2   1 -11    6.75    1.22
   2   1  11    5.74    0.69
   2   1  11    5.52    0.85
   2   1  11    6.38    1.20
   3  -1  11   23.85    1.20
   3  -1  11   24.53    1.73
   3  -1  11   24.45    1.26
   3  -1  11   24.10    2.28
   3   1  11   24.78    1.33
   3   1  11   21.92    2.28
   3   1  11   24.05    1.37
   3   1  11   24.46    1.69
   4  -1  11    9.61    1.00
  -4  -1 -11   11.50    1.50
   4  -1  11    9.33    1.05
   4  -1  11    9.08    1.36
   4   1  11   11.59    1.11
   4   1  11    9.50    1.41
   4   1  11    9.05    1.12
   5  -1  11   53.07    2.38
  -5  -1 -11   47.50    2.93
  -5   1 -11   47.39    2.94
   5   1  11   49.93    2.47
  -6  -1 -11    3.00    1.90
  -6  -1 -11    7.82    1.42
  -6  -1 -11    4.05    1.70
   6  -1  11    6.91    1.33
  -6   1 -11    5.30    1.56
   6   1  11    6.71    1.33
  -6   1 -11    1.75    1.78
  -7  -2  11   10.89    1.97
   7  -2 -11   14.39    1.68
  -7  -2  11   14.61    2.64
   7   2 -11   13.54    1.64
  -7   2  11   14.00    2.28
  -7   2  11   16.09    1.93
  -6  -2  11    0.35    1.56
  -6  -2  11   -0.71    1.03
  -6  -2  11    1.04    0.83
   6  -2 -11   -1.00    0.78
  -6   2  11   -0.16    0.81
  -6   2  11   -0.02    1.04
  -6   2  11    0.26    1.33
   6   2 -11    0.92    0.84
  -5  -2  11   51.32    3.20
  -5  -2  11   52.88    2.67
   5  -2 -11   53.51    2.36
  -5  -2  11   54.31    2.26
  -5   2  11   45.54    2.80
  -5   2  11   52.42    2.19
  -5   2  11   48.38    2.45
   5   2 -11   51.28    2.25
   4  -2 -11    7.75    0.74
  -4  -2  11    8.33    0.85
  -4  -2  11    6.40    1.14
  -4  -2  11    8.33    1.07
   4  -2 -11    7.85    0.91
  -4   2  11    5.34    0.97
  -4   2  11    6.88    0.92
   4   2 -11    7.29    0.66
  -4   2  11    7.90    0.81
   4   2 -11    7.57    0.84
  -3  -2  11   35.07    1.90
   3  -2 -11   34.81    1.45
  -3  -2  11   34.44    1.50
   3  -2 -11   37.39    1.60
   3  -2 -11   34.09    1.42
  -3  -2  11   36.16    2.14
  -3   2  11   32.72    1.97
  -3   2  11   35.30    1.75
   3   2 -11   35.01    1.44
  -3   2  11   34.95    1.46
  -2  -2  11   46.47    1.76
   2  -2 -11   46.24    1.73
  -2  -2  11   45.67    2.29
  -2   2  11   47.83    2.29
  -2   2  11   42.50    1.71
  -2   2  11   45.65    1.97
   2   2 -11   44.88    1.64
  -1  -2  11    7.47    0.63
  -1  -2  11    6.57    0.80
   1  -2 -11    7.86    0.37
  -1  -2  11    7.13    0.50
  -1   2  11    7.82    0.76
  -1   2  11    8.15    1.00
   1   2 -11    6.97    0.45
  -1   2  11    6.96    0.60
   0  -2  11  119.53    3.99
   0  -2  11  118.66    3.42
   0  -2  11  112.45    4.28
   0  -2  11  121.02    3.71
   0   2  11  113.70    3.70
   0   2  11  106.95    4.21
   0   2 -11  112.25    3.53
   0   2  11  109.88    3.91
   1  -2  11   99.47    3.59
   1  -2  11  101.58    3.31
   1  -2  11  107.27    3.93
   1  -2  11   98.12    3.80
   1   2  11   96.38    3.57
   1   2  11  101.70    3.36
  -1   2 -11   97.41    3.92
   2  -2  11   42.06    1.50
   2  -2  11   40.57    2.02
   2  -2  11   41.36    1.65
   2  -2  11   41.60    2.33
   2  -2  11   41.85    1.89
   2   2  11   42.08    2.04
  -2   2 -11   44.72    2.58
   2   2  11   43.33    2.52
   2   2  11   41.18    1.72
   3  -2  11   70.41    2.47
   3  -2  11   72.87    3.47
   3  -2  11   68.11    2.92
   3  -2  11   70.64    2.42
   3   2  11   66.36    2.75
   3   2  11   68.11    3.58
   3   2  11   74.26    3.04
   3   2  11   66.59    2.61
   4  -2  11    0.36    1.04
   4  -2  11    0.25    0.52
   4  -2  11    0.10    0.52
  -4  -2 -11    0.91    0.83
   4   2  11    0.38    0.63
   4   2  11   -0.01    0.58
   4   2  11    2.40    1.08
   5  -2  11   12.75    1.44
  -5  -2 -11   15.19    1.99
  -5  -2 -11   13.63    2.07
  -5   2 -11   10.95    1.59
   5   2  11   13.83    2.01
   5   2  11   18.63    2.20
  -6  -2 -11    5.40    2.05
   6  -2  11    5.41    1.28
  -6  -2 -11    3.24    1.30
  -6  -2 -11    3.58    1.65
   6   2  11    3.06    1.18
  -6   2 -11    4.93    1.56
  -6   2 -11    4.45    1.81
   6  -3 -11    1.55    0.96
  -6  -3  11    2.10    0.84
  -6  -3  11    0.42    1.66
  -6  -3  11    2.38    1.17
  -6   3  11    2.16    1.08
  -6   3  11    4.08    1.35
   6   3 -11    2.02    0.90
  -6   3  11    1.95    0.92
  -5  -3  11    5.58    0.80
  -5  -3  11    6.29    1.19
  -5  -3  11    7.39    1.67
   5  -3 -11    7.16    0.94
  -5   3  11    7.42    0.86
  -5   3  11    3.73    1.26
  -5   3  11    6.82    1.03
   5   3 -11    7.03    0.88
  -4  -3  11   12.39    1.52
  -4  -3  11   14.87    1.07
   4  -3 -11   14.75    1.15
   4  -3 -11   13.55    0.93
  -4  -3  11   14.10    1.38
  -4   3  11   12.98    0.96
  -4   3  11   14.35    1.25
   4   3 -11   13.25    0.99
  -4   3  11   14.48    1.47
   4   3 -11   13.79    0.81
   3  -3 -11    6.62    0.82
   3  -3 -11    6.83    0.67
  -3  -3  11    8.58    1.25
  -3  -3  11    6.00    0.88
  -3  -3  11    5.50    0.68
   3  -3 -11    6.74    0.69
   3   3 -11    6.97    0.63
  -3   3  11    7.12    0.68
  -3   3  11    6.42    0.95
  -3   3  11    7.35    0.87
   2  -3 -11    4.79    0.56
  -2  -3  11    4.60    0.72
  -2  -3  11    4.56    0.52
  -2  -3  11    4.58    0.56
  -2  -3  11    3.62    0.81
   2  -3 -11    4.56    0.53
   2   3 -11    4.66    0.49
  -2   3  11    5.21    0.56
  -2   3  11    3.89    0.75
  -2   3  11    3.61    0.60
  -1  -3  11   64.45    2.54
  -1  -3  11   61.58    2.86
  -1  -3  11   64.32    2.27
   1  -3 -11   63.70    2.26
  -1  -3  11   65.82    2.00
   1  -3 -11   63.35    1.96
  -1   3  11   60.80    2.43
  -1   3  11   65.71    2.77
  -1   3  11   63.85    2.23
   1   3 -11   61.81    2.04
   0  -3  11    2.06    0.36
   0  -3  11    1.93    0.51
   0  -3  11    1.69    0.62
   0  -3  11    2.19    0.23
   0   3  11    2.42    0.62
   0   3  11    2.02    0.35
   0   3  11    1.84    0.48
   1  -3  11   85.25    3.50
   1  -3  11   86.29    2.59
   1  -3  11   86.36    2.90
   1  -3  11   76.56    3.40
   1  -3  11   86.33    3.45
   1  -3  11   93.52    2.62
   1   3  11   84.48    2.96
  -1   3 -11   90.19    3.62
   1   3  11   88.58    3.64
   1   3  11   86.46    3.20
   2  -3  11   14.38    1.22
   2  -3  11   13.27    0.84
   2  -3  11   13.36    0.66
   2  -3  11   11.95    1.60
   2  -3  11   13.00    1.23
   2   3  11   12.42    1.31
   2   3  11   13.13    0.94
   2   3  11   13.27    1.17
  -2   3 -11   16.18    1.62
   2   3  11   14.91    1.90
   3  -3  11   28.91    1.27
   3  -3  11   29.62    1.85
   3  -3  11   31.08    1.34
   3   3  11   30.71    3.17
   3   3  11   29.54    1.52
   3   3  11   28.35    2.00
   3   3  11   33.99    1.99
  -4  -3 -11   21.05    1.99
   4  -3  11   16.32    1.19
   4   3  11   15.55    1.87
   4   3  11   19.99    1.39
  -5  -3 -11   -1.41    1.47
  -5  -3 -11   -0.65    1.13
   5  -3  11    0.73    0.81
  -5  -3 -11    0.55    0.76
   5   3  11    1.42    1.59
   5   3  11    1.10    0.89
  -5   3 -11   -0.80    1.08
  -6  -3 -11    4.66    2.25
  -6  -3 -11    2.08    1.58
  -6  -3 -11    3.54    1.25
  -6   3 -11    2.67    1.49
  -6   3 -11    3.86    1.78
   6   3  11    1.98    1.24
  -6  -4  11   -0.53    1.11
  -6  -4  11   -0.85    0.82
   6  -4 -11   -0.42    0.79
  -6  -4  11   -3.06    1.70
  -6   4  11    0.30    1.01
   6   4 -11   -0.05    0.84
  -6   4  11    0.11    1.24
  -5  -4  11   16.74    1.35
   5  -4 -11   17.22    1.23
  -5  -4  11   20.68    2.70
  -5  -4  11   15.48    1.97
  -5   4  11   18.83    1.55
  -5   4  11   17.54    1.37
   5   4 -11   16.90    1.35
  -4  -4  11    1.95    1.07
   4  -4 -11    4.52    0.80
   4  -4 -11    4.07    0.66
  -4  -4  11    4.88    0.69
  -4  -4  11    3.30    0.88
   4   4 -11    3.87    0.61
  -4   4  11    4.66    0.63
   4   4 -11    5.45    0.64
  -4   4  11    4.95    0.78
  -4   4  11    5.07    0.96
  -3  -4  11    0.55    0.35
  -3  -4  11    0.51    0.59
   3  -4 -11    1.20    0.50
  -3  -4  11    0.63    0.76
   3  -4 -11    1.27    0.34
   3  -4 -11    0.35    0.36
  -3  -4  11    0.94    0.22
  -3   4  11    0.96    0.44
   3   4 -11    0.80    0.34
  -3   4  11    0.21    0.59
  -3   4  11    0.57    0.35
   3   4 -11    0.36    0.86
  -2  -4  11    9.40    0.82
  -2  -4  11    9.84    0.76
  -2  -4  11   12.33    1.51
   2  -4 -11   11.44    0.77
  -2  -4  11   11.08    1.15
   2  -4 -11   10.46    0.77
  -2   4  11   10.12    0.90
  -2   4  11   10.79    1.16
  -2   4  11   11.03    0.75
   2   4 -11   11.48    0.63
   2   4 -11   11.72    1.38
  -1  -4  11   33.21    1.22
  -1  -4  11   35.24    1.72
  -1  -4  11   34.68    1.42
   1  -4 -11   32.12    1.15
  -1  -4  11   31.46    2.06
   1  -4 -11   33.19    1.43
  -1   4  11   33.34    1.88
   1   4 -11   34.88    1.96
  -1   4  11   35.57    1.39
  -1   4  11   33.26    1.58
   1   4 -11   34.35    1.29
   0  -4  11    1.88    0.54
   0  -4  11    3.40    0.78
   0  -4  11    2.23    0.38
   0  -4 -11    2.68    0.45
   0   4  11    3.04    0.73
   0   4  11    2.81    0.54
   0   4 -11    1.54    0.84
   0   4  11    3.08    0.46
   1  -4  11   94.81    3.08
   1  -4  11   88.38    3.68
   1  -4  11   91.33    3.66
   1  -4  11   89.41    3.47
   1   4  11   99.22    3.21
   1   4  11   95.07    3.44
  -1   4 -11   92.92    3.80
   1   4  11   88.93    3.77
   2  -4  11    1.42    0.68
   2  -4  11    0.75    0.23
   2  -4  11    0.95    0.65
   2  -4  11    1.21    0.37
   2  -4  11    1.29    0.93
   2   4  11    1.93    0.77
   2   4  11    1.26    0.61
  -2   4 -11    0.72    0.96
   2   4  11    1.80    0.98
   2   4  11    0.87    0.41
  -3  -4 -11   91.69    3.78
   3  -4  11   87.39    2.87
   3  -4  11   87.39    3.38
  -3  -4 -11   89.93    3.09
   3  -4  11   86.93    2.89
   3   4  11   91.64    4.29
   3   4  11   85.86    3.62
   3   4  11   89.15    3.24
   3   4  11   89.79    3.75
  -4  -4 -11   -0.46    0.49
  -4  -4 -11    1.38    0.96
   4  -4  11   -0.67    0.54
   4   4  11   -0.29    0.62
   4   4  11    0.31    1.09
   4   4  11   -3.31    2.85
  -5  -4 -11   14.79    1.57
  -5  -4 -11   12.47    1.70
  -5  -4 -11   19.87    2.47
   5  -4  11   13.28    1.28
   5   4  11   14.29    1.50
  -5   4 -11   12.48    1.66
   5   4  11   14.04    2.10
  -6  -4 -11    4.27    2.42
  -6  -4 -11    2.33    1.72
  -6  -4 -11   -0.63    1.14
  -6   4 -11    2.55    1.61
   6   4  11    2.85    1.31
  -6   4 -11    2.38    1.72
  -6  -5  11    8.64    2.17
  -6  -5  11    9.52    1.25
   6  -5 -11    8.80    1.30
  -6  -5  11    8.60    1.64
  -6   5  11    8.75    1.62
  -6   5  11   10.50    1.35
   6   5 -11   10.79    1.27
   5  -5 -11    0.53    0.66
  -5  -5  11   -0.97    0.87
  -5  -5  11    0.24    1.14
   5  -5 -11    0.99    0.67
  -5  -5  11   -0.33    1.26
  -5   5  11   -0.85    0.70
  -5   5  11    0.53    0.67
   5   5 -11    0.24    0.61
  -5   5  11    0.26    0.96
  -4  -5  11   27.03    1.88
   4  -5 -11   27.30    1.64
  -4  -5  11   27.84    1.07
   4  -5 -11   27.43    1.42
  -4  -5  11   31.17    1.56
  -4  -5  11   32.22    2.56
  -4   5  11   28.00    1.93
   4   5 -11   26.47    2.57
  -4   5  11   28.59    1.59
   4   5 -11   27.30    1.38
  -4   5  11   27.00    1.40
  -3  -5  11   19.43    1.92
  -3  -5  11   15.41    0.74
   3  -5 -11   18.22    1.07
  -3  -5  11   17.42    1.41
  -3  -5  11   18.16    1.07
  -3   5  11   16.78    1.48
  -3   5  11   15.61    1.10
   3   5 -11   17.48    1.87
  -3   5  11   16.43    0.98
   3   5 -11   16.07    0.89
  -2  -5  11   21.45    1.86
  -2  -5  11   20.49    1.12
  -2  -5  11   20.71    0.87
   2  -5 -11   21.57    1.10
   2  -5 -11   21.47    0.75
  -2  -5  11   20.42    1.40
   2  -5 -11   22.18    0.95
   2   5 -11   22.46    1.85
  -2   5  11   21.40    1.56
  -2   5  11   21.63    1.07
  -2   5  11   20.44    1.21
   2   5 -11   21.91    0.89
   1  -5 -11   46.72    1.61
  -1  -5  11   48.98    2.17
   1  -5 -11   47.28    1.81
   1  -5 -11   48.80    1.86
  -1  -5  11   49.42    1.69
  -1  -5  11   46.85    2.50
  -1  -5  11   49.24    1.86
   1   5 -11   48.10    2.45
  -1   5  11   46.81    2.28
  -1   5  11   49.67    1.82
  -1   5  11   48.82    2.03
   0  -5  11   -0.05    0.50
   0  -5  11    1.46    0.73
   0  -5 -11    0.15    0.29
   0  -5  11   -0.34    0.28
   0   5 -11    1.10    0.87
   0   5  11    1.45    0.47
   0   5  11    0.54    0.57
   0   5  11    0.54    0.28
   0   5 -11   -0.31    0.51
   1  -5  11   63.71    2.23
   1  -5  11   59.09    2.56
   1  -5  11   66.95    2.89
  -1  -5 -11   64.10    2.32
   1   5  11   62.39    2.57
  -1   5 -11   60.13    2.98
   1   5  11   63.18    3.03
   1   5  11   64.03    2.35
   2  -5  11   33.96    2.24
   2  -5  11   31.64    1.57
   2  -5  11   30.26    1.75
   2  -5  11   29.42    1.27
  -2  -5 -11   33.04    1.45
   2   5  11   33.20    2.10
   2   5  11   29.56    1.51
  -2   5 -11   34.15    2.42
   2   5  11   29.74    2.43
   2   5  11   30.81    1.82
  -3  -5 -11    8.16    1.26
  -3  -5 -11    9.04    0.86
   3  -5  11    7.67    1.05
   3  -5  11    9.89    0.75
   3   5  11    9.06    0.99
   3   5  11    8.31    1.59
   3   5  11    7.49    1.15
   3   5  11    9.48    1.56
  -4  -5 -11   38.44    1.70
  -4  -5 -11   33.95    1.91
  -4  -5 -11   39.69    2.56
  -4  -5 -11   34.44    3.07
   4  -5  11   37.32    1.70
   4   5  11   41.21    4.25
   4   5  11   38.69    2.05
   4   5  11   36.85    2.60
  -5  -5 -11    3.41    0.96
  -5  -5 -11    8.09    2.09
  -5  -5 -11    5.28    1.57
   5   5  11    4.59    1.12
   5   5  11    3.86    1.88
  -5   5 -11    3.74    1.31
  -6  -5 -11    8.50    2.00
  -6  -5 -11   12.13    2.75
  -6  -5 -11   10.60    1.59
  -6   5 -11    9.22    1.83
  -6   5 -11    7.41    1.90
   6   5  11   12.72    1.71
  -6  -6  11    0.00    0.95
  -6  -6  11    2.47    1.38
  -6  -6  11    1.66    2.21
   6   6 -11    1.39    0.99
  -6   6  11    1.46    1.32
  -6   6  11   -0.45    0.98
  -5  -6  11   47.88    2.85
   5  -6 -11   49.13    2.50
  -5  -6  11   52.96    3.87
  -5  -6  11   49.44    2.35
   5  -6 -11   53.52    2.23
  -5   6  11   51.44    2.26
   5   6 -11   51.64    2.23
  -5   6  11   45.37    2.79
   4  -6 -11    9.84    1.00
   4  -6 -11    9.87    1.19
  -4  -6  11    8.65    1.68
  -4  -6  11    8.99    0.98
  -4  -6  11    8.56    1.26
   4   6 -11    9.47    0.92
   4   6 -11   11.58    1.77
  -4   6  11    8.01    1.04
  -4   6  11    9.48    0.97
  -4   6  11    9.16    1.21
  -3  -6  11   36.09    2.58
  -3  -6  11   42.78    2.22
  -3  -6  11   41.24    1.80
   3  -6 -11   41.56    1.78
  -3  -6  11   40.52    1.49
  -3   6  11   41.10    2.17
   3   6 -11   40.72    1.58
   3   6 -11   47.56    2.85
  -3   6  11   43.12    1.85
  -3   6  11   42.26    1.71
   2  -6 -11   31.74    1.13
  -2  -6  11   31.28    1.24
  -2  -6  11   31.76    2.23
   2  -6 -11   33.06    1.46
  -2  -6  11   31.07    1.77
  -2  -6  11   31.08    1.43
   2   6 -11   31.32    1.14
  -2   6  11   30.87    1.35
  -2   6  11   32.53    1.84
  -2   6  11   32.48    1.54
   2   6 -11   32.15    2.22
   1  -6 -11    3.02    0.38
   1  -6 -11    3.57    0.54
  -1  -6  11    3.11    0.43
   1  -6 -11    2.91    0.50
  -1  -6  11    2.79    0.90
  -1  -6  11    3.79    0.75
  -1  -6  11    3.03    0.45
  -1   6  11    5.10    0.56
  -1   6  11    2.71    0.54
  -1   6  11    3.15    0.75
   1   6 -11    2.55    0.78
   0  -6 -11   52.04    2.03
   0  -6  11   54.23    1.97
   0  -6  11   54.09    2.35
   0  -6  11   51.86    1.92
   0  -6  11   57.74    2.71
   0   6  11   50.07    2.57
   0   6  11   52.73    2.01
   0   6  11   53.21    2.24
   0   6 -11   56.05    2.54
   0   6 -11   50.21    2.76
   1  -6  11   20.65    1.77
  -1  -6 -11   17.33    1.05
   1  -6  11   17.98    1.36
   1  -6  11   18.34    0.95
  -1   6 -11   15.81    1.88
   1   6  11   18.17    1.07
   1   6  11   18.60    1.30
  -1   6 -11   14.65    1.56
   1   6  11   17.99    1.73
   2  -6  11   13.37    1.37
  -2  -6 -11   18.94    1.08
  -2  -6 -11   16.16    1.61
   2  -6  11   18.01    0.89
   2   6  11   17.29    1.87
   2   6  11   16.32    1.38
   2   6  11   15.98    1.11
   2   6  11   20.04    2.15
  -3  -6 -11   47.54    1.94
  -3  -6 -11   50.11    2.72
   3  -6  11   45.74    1.66
  -3  -6 -11   47.91    3.12
   3   6  11   48.13    3.49
   3   6  11   49.27    3.14
   3   6  11   48.73    2.16
   3   6  11   48.38    2.59
  -4  -6 -11    2.19    1.59
  -4  -6 -11    0.12    1.20
   4   6  11    1.90    1.15
   4   6  11    1.40    1.87
   4   6  11    2.93    2.24
  -5  -6 -11   21.11    2.69
  -5  -6 -11   20.80    1.85
  -5  -6 -11   20.39    2.73
  -5   6 -11   18.80    2.27
   5   6  11   16.20    2.04
   5   6  11   22.40    2.53
  -6  -6 -11    4.92    2.71
  -6  -6 -11    3.84    2.14
  -6  -6 -11    5.11    1.48
  -6   6 -11    5.25    1.72
  -6   6 -11    3.53    1.70
   6   6  11    2.61    1.45
  -6  -7  11    0.27    1.43
   6  -7 -11    0.98    1.20
  -6  -7  11   -1.71    2.38
  -6  -7  11    0.96    0.99
   6   7 -11    3.43    1.14
  -6   7  11   -0.20    1.33
  -5  -7  11   33.92    2.00
   5  -7 -11   36.40    1.92
  -5  -7  11   36.87    2.70
   5  -7 -11   35.19    2.22
  -5  -7  11   43.51    5.81
  -5   7  11   33.67    1.84
  -5   7  11   36.25    2.40
   5   7 -11   36.74    1.89
   5   7 -11   31.18    3.51
  -4  -7  11    4.24    1.46
   4  -7 -11    4.94    0.75
  -4  -7  11    5.76    0.83
  -4  -7  11    4.37    1.06
  -4  -7  11    5.34    0.58
  -4   7  11    5.27    0.76
  -4   7  11    5.36    0.74
  -4   7  11    4.45    0.95
   4   7 -11    4.00    1.51
   4   7 -11    5.31    0.72
  -3  -7  11  100.14    3.43
  -3  -7  11   98.87    3.90
   3  -7 -11   94.20    3.35
  -3  -7  11  101.05    4.40
  -3  -7  11   96.10    3.10
  -3   7  11   92.00    3.74
   3   7 -11   93.07    4.43
   3   7 -11   96.88    3.12
  -3   7  11   95.89    3.23
  -3   7  11   95.09    3.37
  -2  -7  11    0.83    0.39
  -2  -7  11    1.11    0.62
   2  -7 -11    0.46    0.39
  -2  -7  11    1.92    0.99
  -2  -7  11    0.37    0.30
   2  -7 -11    0.52    0.32
   2   7 -11    1.95    1.07
  -2   7  11    0.82    0.44
   2   7 -11    0.06    0.22
  -2   7  11    0.30    0.35
  -2   7  11    0.43    0.64
  -1  -7  11   68.53    2.82
   1  -7 -11   68.99    2.52
  -1  -7  11   67.43    2.45
   1  -7 -11   65.91    2.29
   1  -7 -11   60.26    2.37
  -1  -7  11   70.67    3.22
  -1  -7  11   69.33    2.35
  -1   7  11   68.28    2.98
   1   7 -11   75.62    3.33
  -1   7  11   67.71    2.42
  -1   7  11   67.78    2.62
   0  -7  11    1.24    0.93
   0  -7  11    0.30    0.63
   0  -7  11    0.27    0.32
   0  -7  11   -0.34    0.33
   0  -7 -11    0.07    0.31
   0  -7 -11    0.11    0.33
   0   7 -11   -0.28    1.02
   0   7  11    0.57    0.34
   0   7  11    0.13    0.46
   0   7  11   -0.03    0.60
   0   7 -11    1.33    0.77
   1  -7  11    3.07    0.45
   1  -7  11    4.39    0.82
   1  -7  11    3.71    1.20
  -1  -7 -11    2.61    0.48
  -1  -7 -11    1.41    0.80
   1   7  11    2.10    0.49
   1   7  11    3.04    0.69
  -1   7 -11    2.79    1.15
  -1   7 -11    2.47    0.82
   1   7  11    2.92    1.00
   1   7  11    3.47    0.90
   2  -7  11    0.13    0.71
  -2  -7 -11    0.05    0.38
  -2  -7 -11    1.24    0.87
   2   7  11   -1.64    0.97
   2   7  11   -0.52    0.98
   2   7  11    0.45    0.47
   2   7  11    0.56    0.64
  -3  -7 -11   36.05    1.78
  -3  -7 -11   35.47    2.41
  -3  -7 -11   36.39    1.64
  -3  -7 -11   31.45    2.91
   3   7  11   32.03    3.32
   3   7  11   36.65    2.33
   3   7  11   36.15    3.17
   3   7  11   35.00    1.84
  -4  -7 -11    0.78    0.58
  -4  -7 -11    1.20    0.68
  -4  -7 -11    2.70    1.77
  -4  -7 -11    1.66    1.28
   4   7  11    1.10    0.82
   4   7  11    0.08    2.55
   4   7  11    0.17    2.08
   4   7  11   -0.38    1.12
  -5  -7 -11   62.24    3.83
  -5  -7 -11   65.15    5.15
  -5  -7 -11   61.64    2.95
   5   7  11   70.15    4.23
  -5   7 -11   53.46    3.18
  -6  -8  11    1.91    1.59
  -6  -8  11    1.14    1.06
  -6  -8  11   -0.10    2.68
   6   8 -11    1.99    1.16
  -6   8  11    1.53    1.36
   5  -8 -11   26.72    1.82
  -5  -8  11   25.99    1.76
  -5  -8  11   24.84    2.51
  -5  -8  11   26.30    4.15
  -5   8  11   26.63    1.52
   5   8 -11   22.51    1.70
  -5   8  11   24.22    2.10
   5   8 -11   25.60    3.46
  -4  -8  11   -1.98    1.51
   4  -8 -11    0.91    0.66
  -4  -8  11    2.80    1.05
  -4  -8  11    2.36    0.58
  -4   8  11    2.31    0.85
  -4   8  11    1.55    0.61
  -4   8  11    1.28    0.72
   4   8 -11    2.54    0.66
  -3  -8  11   54.37    1.98
  -3  -8  11   58.26    2.27
  -3  -8  11   55.82    2.77
   3  -8 -11   55.74    2.25
  -3  -8  11   47.94    3.29
  -3   8  11   53.56    2.17
  -3   8  11   51.11    2.51
   3   8 -11   52.51    3.32
  -3   8  11   52.47    2.04
   3   8 -11   55.90    1.95
  -2  -8  11   13.09    0.85
   2  -8 -11   12.02    1.03
  -2  -8  11   11.81    1.68
  -2  -8  11   14.25    1.45
  -2  -8  11   15.01    1.01
   2  -8 -11   14.31    1.01
  -2   8  11   12.96    1.03
   2   8 -11   13.58    0.63
   2   8 -11   12.77    1.73
  -2   8  11   14.57    1.41
  -2   8  11   15.36    0.91
  -1  -8  11   32.15    2.40
  -1  -8  11   27.90    1.37
   1  -8 -11   28.07    1.13
  -1  -8  11   29.99    1.31
  -1  -8  11   29.28    1.79
   1  -8 -11   29.17    1.43
   1  -8 -11   29.39    1.27
   1   8 -11   28.61    2.18
  -1   8  11   32.43    1.58
  -1   8  11   29.68    1.35
  -1   8  11   28.17    1.85
   0  -8  11   14.58    0.96
   0  -8  11   15.93    1.42
   0  -8 -11   15.90    0.92
   0  -8  11   14.87    0.95
   0  -8 -11   13.59    1.45
   0  -8  11   18.10    1.98
   0  -8 -11   16.18    0.96
   0  -8 -11   14.60    1.52
   0   8 -11   15.84    1.71
   0   8  11   15.19    1.00
   0   8  11   13.09    1.54
   0   8  11   16.73    1.19
  -1  -8 -11    0.64    0.84
  -1  -8 -11    1.23    1.03
  -1  -8 -11    0.38    0.40
   1  -8  11    0.49    0.72
   1  -8  11    0.28    0.36
  -1  -8 -11    0.55    0.38
   1  -8  11    0.16    0.39
   1   8  11    0.52    0.56
  -1   8 -11    0.33    0.76
   1   8  11    0.43    0.87
   1   8  11   -0.47    0.39
   1   8  11   -0.29    0.85
  -2  -8 -11   17.75    1.91
   2  -8  11   16.25    1.57
  -2  -8 -11   18.03    2.40
  -2  -8 -11   18.86    1.17
  -2  -8 -11   19.30    1.23
   2   8  11   19.27    1.61
   2   8  11   18.26    1.27
   2   8  11   19.37    2.29
   2   8  11   19.45    2.37
  -3  -8 -11   26.92    1.44
  -3  -8 -11   25.41    1.56
  -3  -8 -11   26.18    2.25
  -3  -8 -11   26.36    3.12
   3   8  11   30.17    3.24
   3   8  11   30.30    2.13
   3   8  11   23.06    1.61
   3   8  11   24.97    3.26
  -4  -8 -11    2.80    1.50
  -4  -8 -11    4.74    0.81
  -4  -8 -11    3.49    0.80
  -4  -8 -11    5.30    2.17
   4   8  11    4.28    0.96
   4   8  11    7.34    2.86
   4   8  11    5.69    1.38
   4   8  11    4.03    2.49
  -5  -8 -11   24.05    3.06
  -5  -8 -11   26.52    3.45
  -5  -8 -11   33.76    2.30
   5   8  11   37.17    3.87
  -5   8 -11   34.04    2.60
  -6  -9  11   13.44    3.43
  -6  -9  11   10.69    2.15
  -6  -9  11   12.50    1.51
  -6   9  11   13.08    1.59
   5  -9 -11   -0.33    1.12
  -5  -9  11    1.35    1.47
  -5  -9  11    0.65    0.79
  -5  -9  11   -2.34    2.22
  -5   9  11    0.47    0.97
   5   9 -11    2.64    1.98
   5   9 -11   -0.37    0.87
  -4  -9  11    7.92    0.99
   4  -9 -11    9.55    1.06
  -4  -9  11    7.42    2.02
  -4  -9  11    6.25    0.88
  -4   9  11    7.91    0.85
  -4   9  11    6.79    1.12
   4   9 -11    9.59    2.00
   4   9 -11    7.96    0.88
  -3  -9  11   27.00    2.94
   3  -9 -11   26.87    1.55
   3  -9 -11   26.68    1.32
  -3  -9  11   27.26    1.33
  -3  -9  11   24.21    2.04
  -3  -9  11   28.21    1.54
  -3   9  11   25.72    1.81
  -3   9  11   30.56    1.40
  -3   9  11   29.67    1.49
   3   9 -11   28.48    1.27
   3   9 -11   28.44    2.86
   2  -9 -11    0.75    0.45
  -2  -9  11    1.60    0.51
  -2  -9  11    0.86    0.80
   2  -9 -11    1.94    0.49
  -2  -9  11    0.47    0.43
  -2  -9  11    2.31    2.20
  -2   9  11    0.60    0.52
   2   9 -11    1.69    1.08
  -2   9  11    1.34    0.47
  -2   9  11    1.00    0.68
  -1  -9  11   65.77    2.41
   1  -9 -11   60.78    2.01
  -1  -9  11   65.82    2.86
   1  -9 -11   63.93    2.46
  -1  -9  11   63.45    2.35
   1  -9 -11   67.86    2.33
  -1  -9  11   59.00    3.43
   1  -9 -11   64.28    2.75
  -1   9  11   64.57    2.99
  -1   9  11   64.34    2.38
   1   9 -11   62.67    3.32
  -1   9  11   66.51    2.60
   0  -9 -11    8.53    0.82
   0  -9 -11    6.52    1.16
   0  -9 -11    7.23    0.73
   0  -9 -11    7.25    0.83
   0  -9  11    6.66    0.78
   0  -9  11    8.08    0.76
   0  -9  11    6.88    1.03
   0  -9  11    9.34    2.02
   0   9  11    7.68    0.96
   0   9 -11    8.39    1.36
   0   9  11    6.52    0.80
   0   9  11    5.81    1.08
   1  -9  11   17.99    1.16
  -1  -9 -11   20.92    1.81
  -1  -9 -11   18.41    1.18
  -1  -9 -11   19.25    1.16
  -1  -9 -11   18.75    1.17
   1  -9  11   18.17    0.91
   1  -9  11   18.06    1.63
  -1  -9 -11   19.87    2.38
   1   9  11   19.26    1.47
   1   9  11   16.53    2.11
   1   9  11   18.99    1.22
  -1   9 -11   17.54    1.85
   1   9  11   19.75    2.10
  -2  -9 -11   24.81    1.41
  -2  -9 -11   26.10    2.19
  -2  -9 -11   25.70    1.45
  -2   9 -11   20.11    2.22
   2   9  11   25.70    2.78
   2   9  11   25.81    2.76
   2   9  11   26.93    1.93
   2   9  11   27.89    1.59
  -3  -9 -11    2.16    0.84
  -3  -9 -11    0.58    0.55
  -3  -9 -11    1.68    1.88
  -3  -9 -11   -0.77    1.11
   3   9  11    0.62    0.97
   3   9  11    0.24    1.84
   3   9  11    0.31    1.71
  -4  -9 -11    9.75    2.48
  -4  -9 -11   12.59    1.40
  -4  -9 -11   16.27    2.22
  -4  -9 -11   11.16    1.25
   4   9  11    7.59    1.62
   4   9  11    8.76    2.86
   4   9  11   14.61    1.67
   4   9  11   19.28    3.66
  -5  -9 -11    9.52    2.20
  -5  -9 -11   11.11    1.48
   5   9  11   14.12    2.67
  -5   9 -11   14.38    2.08
  -5 -10  11   19.20    1.70
  -5 -10  11   19.35    4.34
  -5 -10  11   21.84    2.43
   5 -10 -11   19.42    1.94
   5  10 -11   13.45    2.74
  -5  10  11   15.80    1.85
  -4 -10  11    0.88    1.25
  -4 -10  11    0.01    2.18
   4 -10 -11   -0.27    1.06
  -4 -10  11    0.00    0.66
  -4 -10  11   -0.03    0.62
   4  10 -11   -1.23    1.72
  -4  10  11   -0.41    0.61
  -4  10  11   -0.14    0.81
   3 -10 -11    5.78    0.84
  -3 -10  11    5.60    2.02
  -3 -10  11    4.62    0.77
  -3 -10  11    6.87    0.76
   3 -10 -11    7.08    1.01
  -3  10  11    4.25    0.96
  -3  10  11    7.95    0.99
   3  10 -11    6.64    1.71
  -3  10  11    6.54    0.84
  -2 -10  11   13.29    1.05
  -2 -10  11   11.66    1.11
  -2 -10  11   14.58    2.16
   2 -10 -11   16.23    1.18
  -2 -10  11   14.45    1.69
   2 -10 -11   13.70    1.08
  -2  10  11   13.55    1.01
  -2  10  11   10.67    1.43
   2  10 -11   14.71    2.02
  -2  10  11   12.28    1.15
  -1 -10  11   14.71    1.10
  -1 -10  11   12.36    1.40
   1 -10 -11   15.37    1.10
  -1 -10  11   16.83    1.08
   1 -10 -11   14.25    1.10
  -1  10  11   14.96    1.05
   1  10 -11   17.95    2.23
  -1  10  11   16.69    1.65
  -1  10  11   18.30    1.33
   0 -10  11   34.12    1.60
   0 -10 -11   32.94    1.73
   0 -10 -11   33.64    1.66
   0 -10 -11   35.74    1.60
   0 -10  11   35.98    2.19
   0 -10 -11   32.61    2.51
   0 -10  11   34.51    1.47
   0  10  11   30.76    1.86
   0  10  11   35.42    1.65
   0  10  11   36.21    2.49
   0  10 -11   31.23    2.52
   0  10  11   34.37    2.30
   1 -10  11   76.93    2.93
  -1 -10 -11   76.79    2.88
   1 -10  11   80.80    3.26
  -1 -10 -11   76.12    3.44
  -1 -10 -11   77.80    2.93
  -1 -10 -11   75.34    2.80
   1  10  11   76.81    4.10
   1  10  11   75.73    3.29
   1  10  11   83.27    3.01
  -1  10 -11   78.79    3.61
   1  10  11   81.46    3.97
  -2 -10 -11   23.39    1.44
  -2 -10 -11   24.82    2.26
  -2 -10 -11   26.43    1.52
  -2  10 -11   25.39    2.07
   2  10  11   23.53    1.91
   2  10  11   27.90    3.11
   2  10  11   26.66    2.96
   2  10  11   24.91    1.61
  -3 -10 -11   45.93    2.25
  -3 -10 -11   48.00    2.12
  -3 -10 -11   42.65    3.22
   3  10  11   42.26    4.47
   3  10  11   47.58    2.35
   3  10  11   44.92    4.30
   3  10  11   42.18    2.81
  -4 -10 -11    2.39    0.91
  -4 -10 -11    0.22    1.68
   4  10  11   -1.55    1.38
   4  10  11    2.52    1.06
   4  10  11    3.91    3.25
  -5 -10 -11    7.50    2.20
  -5 -10 -11    5.40    1.30
   5  10  11    2.99    2.26
  -5 -11  11    5.73    1.19
  -5 -11  11    9.87    2.07
   5 -11 -11    7.38    1.35
  -5  11  11    8.53    1.29
   5  11 -11    6.57    2.76
  -4 -11  11    0.40    0.74
   4 -11 -11    0.74    0.89
  -4 -11  11   -0.40    0.73
  -4 -11  11   -0.45    1.47
  -4  11  11    1.38    0.95
   4  11 -11    1.11    2.00
  -3 -11  11    0.96    0.65
  -3 -11  11    1.88    0.64
  -3 -11  11    2.52    1.33
   3 -11 -11    1.63    0.96
  -3  11  11    1.15    0.85
  -3  11  11    0.74    0.66
   3  11 -11   -0.42    1.48
  -2 -11  11    1.45    1.06
   2 -11 -11    4.07    0.76
  -2 -11  11    1.87    0.71
  -2 -11  11    3.65    0.73
   2 -11 -11    2.26    0.65
  -2  11  11    2.55    0.68
   2  11 -11    1.98    1.50
  -2  11  11    1.82    0.90
  -2  11  11    3.12    0.69
   1 -11 -11   31.95    1.70
  -1 -11  11   33.11    1.60
  -1 -11  11   31.51    1.59
  -1 -11  11   31.32    2.27
   1 -11 -11   32.22    1.63
  -1  11  11   33.79    1.81
   1  11 -11   32.52    2.83
  -1  11  11   33.91    1.60
  -1  11  11   31.83    2.24
  -1  11  11   32.17    2.55
   0 -11 -11    2.08    1.81
   0 -11 -11    2.13    0.60
   0 -11  11    2.17    0.53
   0 -11  11    4.15    1.21
   0 -11  11    2.16    0.56
   0 -11 -11    1.87    0.48
   0 -11 -11    1.75    0.53
   0  11 -11    1.81    1.33
   0  11  11    2.04    0.77
   0  11  11    1.98    1.00
   0  11  11    3.04    0.64
   0  11  11    1.56    1.17
  -1 -11 -11   41.77    1.92
  -1 -11 -11   40.30    1.80
  -1 -11 -11   39.89    1.94
  -1 -11 -11   39.05    2.61
   1 -11  11   39.99    1.94
   1  11  11   41.05    2.98
   1  11  11   39.57    3.23
  -1  11 -11   48.28    2.98
   1  11  11   41.15    2.00
   1  11  11   41.86    2.33
  -2 -11 -11    0.53    0.66
  -2 -11 -11    0.81    0.55
  -2 -11 -11    0.73    1.35
  -2 -11 -11   -0.53    0.59
   2  11  11    0.23    0.88
   2  11  11   -1.61    1.45
   2  11  11   -0.60    0.66
   2  11  11    1.16    1.77
  -3 -11 -11   20.08    1.57
  -3 -11 -11   16.56    2.25
  -3 -11 -11   21.04    1.64
   3  11  11   18.17    1.75
   3  11  11   18.39    5.27
   3  11  11   21.86    2.18
   3  11  11   21.65    4.49
  -4 -11 -11    0.55    0.93
  -4 -11 -11    1.96    1.95
   4  11  11   -2.83    3.38
   4  11  11    2.29    1.11
   4  11  11    0.92    1.62
   4  11  11    1.52    3.24
  -5 -12  11   11.36    2.37
  -5 -12  11   13.05    1.60
   5 -12 -11   11.23    1.52
   5  12 -11   10.19    2.99
  -4 -12  11   11.08    2.07
  -4 -12  11   12.66    1.30
   4 -12 -11   11.41    1.35
  -4  12  11   12.17    1.43
   4  12 -11   12.87    2.95
   3 -12 -11    1.72    0.85
  -3 -12  11    3.04    0.86
  -3 -12  11    3.34    0.83
  -3 -12  11    3.38    1.51
  -3  12  11    3.75    1.08
  -3  12  11    3.56    0.82
   3  12 -11   -0.33    1.71
   2 -12 -11   23.40    1.65
  -2 -12  11   24.89    1.53
   2 -12 -11   23.45    1.62
  -2 -12  11   25.73    1.61
  -2 -12  11   28.29    2.58
  -2  12  11   27.80    1.69
  -2  12  11   27.12    2.15
  -2  12  11   26.77    1.55
  -2  12  11   25.16    2.61
   2  12 -11   21.93    2.97
   1 -12 -11   13.82    1.29
  -1 -12  11   12.07    1.66
  -1 -12  11   13.41    1.22
  -1 -12  11   14.96    1.18
   1 -12 -11   14.48    2.05
  -1  12  11   13.81    1.38
  -1  12  11   12.48    3.02
   1  12 -11   11.20    1.99
  -1  12  11   13.65    1.22
   0 -12 -11   11.60    1.23
   0 -12 -11   14.23    1.22
   0 -12  11   14.25    1.21
   0 -12  11   13.02    0.99
   0  12  11   14.35    1.50
   0  12  11   16.03    1.34
   0  12  11   16.27    2.18
   0  12 -11    9.93    1.91
   0  12  11   11.87    1.97
  -1 -12 -11   47.08    3.12
   1 -12  11   40.80    2.11
  -1 -12 -11   45.36    2.17
  -1 -12 -11   46.40    1.96
  -1 -12 -11   48.55    2.13
   1  12  11   40.12    2.64
  -1  12 -11   49.39    3.27
   1  12  11   42.12    4.28
   1  12  11   46.22    2.20
  -2 -12 -11    3.09    0.84
  -2 -12 -11    3.05    0.82
  -2 -12 -11    2.95    1.74
   2  12  11    3.77    1.76
   2  12  11    1.53    2.09
   2  12  11    2.99    1.12
   2  12  11    2.77    0.83
  -3 -12 -11   30.02    3.25
  -3 -12 -11   26.14    1.92
  -3 -12 -11   28.17    1.88
  -3 -12 -11   25.36    1.84
   3  12  11   27.72    2.61
   3  12  11   27.39    3.29
   3  12  11   27.30    3.82
   3  12  11   25.45    2.13
  -4 -12 -11    0.21    1.07
  -4 -12 -11    3.20    1.09
  -4 -12 -11   -3.04    2.06
   4  12  11    5.60    3.65
   4  12  11    2.67    1.76
   4  12  11   -3.90    4.65
   4  12  11    0.41    1.17
   4 -13 -11   16.14    1.97
  -4 -13  11   17.09    2.51
  -4 -13  11   13.97    1.53
   4  13 -11   10.93    2.99
  -4  13  11   20.13    2.17
  -4  13  11    8.82    2.45
   3 -13 -11   16.66    1.71
  -3 -13  11   14.68    1.39
  -3 -13  11   18.12    1.61
  -3 -13  11   13.91    2.18
  -3  13  11   12.94    2.43
  -3  13  11   14.08    1.66
   3  13 -11   17.65    2.78
  -2 -13  11   17.22    2.08
   2 -13 -11   15.04    1.65
   2 -13 -11   15.40    1.51
  -2 -13  11   11.74    1.42
  -2  13  11   12.68    1.55
   2  13 -11    9.90    2.37
  -2  13  11   12.43    1.50
  -2  13  11   14.68    2.39
   1 -13 -11   25.79    1.66
  -1 -13  11   25.50    1.50
  -1 -13  11   23.03    1.57
   1 -13 -11   23.16    1.59
  -1  13  11   16.24    2.15
  -1  13  11   19.87    2.47
  -1  13  11   20.40    1.58
  -1  13  11   19.04    2.49
   0 -13 -11    0.56    0.73
   0 -13 -11   -0.41    0.58
   0  13 -11    0.73    1.65
   0  13  11    1.45    0.87
   0  13  11    2.05    1.19
   0  13  11    0.47    0.74
   0  13  11    2.16    1.53
  -1 -13 -11    7.81    0.99
  -1 -13 -11    9.63    1.13
   1 -13  11    8.20    1.06
  -1 -13 -11   10.48    1.24
   1  13  11    7.89    1.79
   1  13  11    9.96    1.40
   1  13  11    7.09    2.02
  -1  13 -11   10.73    2.07
  -2 -13 -11   12.09    1.53
  -2 -13 -11   10.25    1.16
  -2 -13 -11   12.67    1.51
   2  13  11   13.90    2.41
   2  13  11   10.17    2.69
   2  13  11   10.02    1.32
   2  13  11    9.59    1.53
  -3 -13 -11   -0.42    2.16
  -3 -13 -11    1.07    0.97
  -3 -13 -11    0.74    0.95
  -3 -13 -11    0.94    1.00
   3  13  11    0.67    1.06
   3  13  11    6.03    2.77
   3  13  11   -2.11    3.10
   3  13  11   -1.44    1.32
  -4 -13 -11   16.36    2.74
  -4 -13 -11   16.68    1.81
  -4 -13 -11   15.15    1.63
   4  13  11   20.26    4.91
   4  13  11   14.59    2.40
   4 -14 -11    3.02    1.19
  -4 -14  11    0.52    2.21
  -4 -14  11    0.10    1.21
   4  14 -11    2.23    3.06
  -4  14  11   -0.08    2.61
  -3 -14  11   25.18    2.04
  -3 -14  11   18.98    2.84
   3 -14 -11   17.59    1.92
  -3 -14  11   20.57    1.89
   3  14 -11   20.59    3.30
  -3  14  11   19.35    2.39
  -3  14  11   17.11    2.76
  -2 -14  11    6.05    1.04
   2 -14 -11    3.78    0.99
   2 -14 -11    8.18    1.24
  -2 -14  11    5.30    1.04
  -2  14  11    4.42    1.06
   2  14 -11    5.85    2.42
  -2  14  11    7.26    2.11
  -2  14  11    2.65    1.26
   1 -14 -11   12.27    1.34
  -1 -14  11   14.51    1.53
  -1  14  11   16.47    1.77
   1  14 -11   10.33    2.47
  -1  14  11   16.11    1.64
  -1  14  11   14.71    1.97
  -1  14  11   11.38    2.26
   0 -14 -11    0.60    0.82
   0 -14  11    1.27    0.76
   0 -14 -11    2.20    0.84
   0  14  11    1.19    1.37
   0  14  11   -0.49    1.02
   0  14 -11    3.48    2.03
   0  14  11    1.08    0.89
   0  14  11    3.40    1.92
  -1 -14 -11    0.35    0.76
  -1 -14 -11    1.16    0.83
   1 -14  11   -0.52    0.76
   1  14  11   -0.27    1.57
   1  14  11    1.24    2.20
   1  14  11    2.36    1.15
   1  14  11    0.15    0.90
  -1  14 -11    0.72    2.02
  -2 -14 -11    2.77    1.01
  -2 -14 -11    0.57    0.90
  -2 -14 -11    0.97    0.99
   2  14  11    2.16    2.14
   2  14  11    0.83    1.04
   2  14  11   -2.08    2.63
   2  14  11   -0.23    1.30
  -3 -14 -11   13.97    1.54
  -3 -14 -11   15.64    1.95
  -3 -14 -11   16.30    1.98
   3  14  11   14.24    3.75
   3  14  11   13.28    1.73
   3  14  11    8.39    1.97
   3  14  11    8.48    3.09
   3 -15 -11   33.54    2.47
  -3 -15  11   40.50    2.65
  -3 -15  11   40.71    2.61
  -3  15  11   37.93    2.94
  -3  15  11   38.06    4.69
   3  15 -11   34.27    4.22
   2 -15 -11    2.24    1.61
  -2 -15  11    1.21    0.99
   2 -15 -11    3.31    1.08
   2  15 -11    2.49    2.52
  -2  15  11    1.53    2.21
  -2  15  11    4.12    1.57
  -2  15  11    4.69    1.20
   1 -15 -11   24.61    2.01
  -1 -15  11   23.55    1.95
   1 -15 -11   29.35    2.15
  -1  15  11   20.47    3.03
  -1  15  11   25.27    2.88
  -1  15  11   25.41    2.17
   1  15 -11   23.38    3.20
   0 -15 -11    3.02    1.01
   0 -15 -11    2.56    1.04
   0 -15  11    1.84    0.98
   0  15  11    2.27    2.30
   0  15  11    1.58    1.18
   0  15  11    2.10    1.74
   0  15  11    2.52    1.05
   0  15 -11    4.24    2.42
   1 -15  11    0.15    0.99
  -1 -15 -11    1.50    0.97
  -1 -15 -11    2.54    1.06
   1  15  11    3.46    2.68
   1  15  11    1.23    1.32
  -1  15 -11    5.09    2.86
   1  15  11    3.38    1.95
   1  15  11    0.72    1.07
  -2 -15 -11   -0.78    0.99
  -2 -15 -11    1.05    1.09
   2  15  11    2.22    3.05
   2  15  11   -1.22    1.40
   2  15  11    0.08    1.16
   2  15  11   -0.96    2.33
   2 -16 -11   11.10    1.47
  -2 -16  11   10.41    1.48
   2  16 -11   10.74    3.25
  -2  16  11    9.37    2.83
  -2  16  11    6.62    1.85
   1 -16 -11    0.34    0.98
  -1 -16  11    2.71    1.14
   1 -16 -11    1.42    1.38
  -1  16  11    1.41    1.64
  -1  16  11    1.21    1.33
  -1  16  11    2.80    2.44
   1  16 -11    1.65    2.84
   0 -16  11   21.51    2.06
   0 -16 -11   19.08    1.97
   0 -16 -11   22.22    2.24
   0  16  11   15.07    3.19
   0  16  11   17.97    2.03
   0  16  11   19.89    1.88
   0  16 -11   19.56    3.45
   0  16  11   19.52    2.47
  -1 -16 -11    4.20    1.22
  -1 -16 -11    1.34    1.05
   1 -16  11    2.89    1.18
   1  16  11    5.27    1.47
   1  16  11    0.93    2.87
   1  16  11    6.84    2.26
   1  16  11    3.40    1.56
  -6   0  12   42.83    2.78
   6   0 -12   46.27    2.50
  -6   0  12   43.44    3.49
  -6   0  12   44.98    2.38
  -5   0  12    0.51    0.78
  -5   0  12   -0.94    0.55
  -5   0  12   -0.08    1.56
   5   0 -12    0.00    0.59
   4   0 -12   54.13    1.97
  -4   0  12   50.93    2.48
   4   0 -12   55.14    2.23
  -4   0  12   56.26    2.92
  -4   0  12   53.85    2.17
   3   0 -12    0.04    0.33
  -3   0  12    0.33    0.50
  -3   0  12   -0.11    0.63
  -3   0  12   -0.09    0.33
   3   0 -12    0.67    0.39
  -2   0  12    5.31    0.62
  -2   0  12    6.88    0.90
  -2   0  12    7.44    1.10
  -1   0  12   -0.18    0.40
   1   0 -12    0.46    0.18
  -1   0  12    0.64    0.57
  -1   0  12    0.51    0.30
   0   0  12   55.13    2.00
   0   0  12   51.89    2.71
   0   0 -12   52.14    1.80
   0   0  12   55.52    2.26
   0   0  12   51.12    1.88
   1   0  12    0.67    0.79
   1   0  12    0.26    0.33
   1   0  12    0.00    0.44
   2   0  12  190.18    6.62
   2   0  12  176.07    6.11
   2   0  12  181.09    5.96
   2   0  12  187.09    5.80
   3   0  12    0.52    0.85
   3   0  12   -1.19    1.20
   3   0  12    0.79    0.51
   4   0  12  101.30    3.61
   4   0  12  104.84    3.62
   4   0  12   99.93    4.25
   5   0  12   -0.35    0.92
  -5   0 -12    0.27    1.18
   6   0  12   16.25    1.72
  -6   0 -12   11.33    2.44
  -6   0 -12   12.28    2.02
  -6   0 -12   12.55    1.73
  -6  -1  12   18.72    2.37
  -6  -1  12   18.30    2.18
  -6  -1  12   15.97    1.69
   6  -1 -12   14.42    1.77
   6   1 -12   12.38    1.35
  -6   1  12   15.69    2.08
  -6   1  12   14.89    1.71
  -6   1  12   15.71    2.02
  -5  -1  12   20.23    1.39
   5  -1 -12   18.98    1.52
  -5  -1  12   20.08    2.57
  -5  -1  12   19.59    2.63
   5   1 -12   20.33    1.45
  -5   1  12   18.70    1.72
  -5   1  12   22.93    1.42
  -4  -1  12   19.50    1.97
  -4  -1  12   18.47    1.48
   4  -1 -12   16.21    1.22
  -4  -1  12   17.16    1.12
   4  -1 -12   18.66    1.02
   4   1 -12   16.04    0.97
  -4   1  12   15.51    1.41
   4   1 -12   17.75    1.16
  -4   1  12   17.97    1.12
  -4   1  12   20.00    1.84
   3  -1 -12   42.76    1.70
  -3  -1  12   42.55    2.07
  -3  -1  12   44.50    1.78
   3  -1 -12   44.10    1.82
  -3  -1  12   43.66    2.44
   3   1 -12   43.78    1.74
  -3   1  12   43.54    2.37
  -3   1  12   42.72    1.76
  -3   1  12   42.01    2.04
  -2  -1  12    0.94    0.49
  -2  -1  12    1.48    0.43
  -2  -1  12    0.88    0.66
  -2   1  12    1.15    0.67
  -2   1  12    1.36    0.34
   2   1 -12    1.02    0.32
  -2   1  12    1.35    0.47
  -1  -1  12   17.87    1.00
  -1  -1  12   19.99    0.93
   1  -1 -12   20.42    0.67
  -1  -1  12   19.15    1.63
  -1  -1  12   18.71    1.22
  -1   1  12   19.04    1.01
  -1   1  12   17.57    1.50
   1   1 -12   19.17    0.72
  -1   1  12   19.54    1.22
   0  -1 -12   63.00    2.09
   0  -1  12   62.63    2.54
   0  -1  12   62.46    2.28
   0  -1  12   65.85    2.98
   0  -1  12   64.40    2.08
   0   1 -12   62.12    2.10
   0   1  12   64.91    2.30
   0   1  12   64.58    2.93
   0   1  12   61.83    2.50
   1  -1  12   -0.02    0.28
   1  -1  12    0.29    0.46
   1  -1  12   -0.19    0.66
   1   1  12   -0.45    0.46
   1   1  12   -0.08    0.80
   1   1  12   -0.06    0.29
   2  -1  12  113.28    3.95
   2  -1  12  115.82    4.55
   2  -1  12  110.01    4.08
   2  -1  12  112.18    3.72
   2   1  12  118.19    3.80
   2   1  12  109.14    4.58
   2   1  12  104.74    4.06
   2   1  12  110.47    4.10
   3  -1  12   10.63    0.98
   3  -1  12   13.98    1.84
   3  -1  12   12.10    1.52
   3  -1  12   11.00    0.89
   3   1  12   12.00    1.04
   3   1  12   11.44    1.77
   3   1  12   11.14    1.22
   3   1  12   13.04    1.51
   4  -1  12   37.77    1.83
   4  -1  12   39.28    1.79
  -4  -1 -12   34.22    2.37
   4  -1  12   39.78    2.69
   4   1  12   37.64    1.88
   4   1  12   39.34    1.91
   4   1  12   38.01    2.63
  -5  -1 -12    9.81    1.58
   5  -1  12   12.87    1.56
  -5   1 -12    8.71    1.55
   5   1  12   11.81    1.41
  -6  -1 -12    1.78    1.28
  -6  -1 -12   -2.23    2.03
  -6  -1 -12    0.82    1.68
   6  -1  12    1.81    1.21
  -6   1 -12    3.43    2.09
   6   1  12    1.84    1.27
  -6   1 -12    1.53    1.64
  -6  -2  12    5.74    1.77
  -6  -2  12    6.85    1.13
   6  -2 -12    8.10    1.32
  -6  -2  12    8.82    1.48
  -6   2  12    4.73    1.29
   6   2 -12    7.63    1.13
  -6   2  12    6.92    1.59
  -5  -2  12   10.39    1.81
   5  -2 -12   12.73    1.35
  -5  -2  12   14.36    1.24
  -5  -2  12   14.16    1.92
  -5   2  12   10.66    1.59
  -5   2  12   11.23    1.35
  -5   2  12   14.89    1.27
   5   2 -12   14.47    1.27
  -4  -2  12   27.55    2.34
  -4  -2  12   28.25    1.41
   4  -2 -12   25.85    1.27
  -4  -2  12   26.54    1.80
   4  -2 -12   25.71    1.47
  -4   2  12   25.99    1.98
   4   2 -12   24.69    1.37
  -4   2  12   27.77    1.68
   4   2 -12   24.64    1.20
  -4   2  12   27.18    1.37
  -3  -2  12   -0.03    0.72
  -3  -2  12    1.11    0.55
  -3  -2  12    1.22    0.40
   3  -2 -12    1.27    0.41
   3  -2 -12    1.66    0.46
  -3   2  12    0.60    0.36
  -3   2  12    0.05    0.62
  -3   2  12    1.37    0.52
   3   2 -12    0.38    0.34
   2  -2 -12   38.01    1.55
  -2  -2  12   35.66    1.84
  -2  -2  12   38.75    2.26
  -2  -2  12   38.41    1.58
  -2   2  12   37.70    1.78
  -2   2  12   36.91    1.55
  -2   2  12   37.11    2.14
   1  -2 -12   49.42    1.47
  -1  -2  12   47.49    2.48
  -1  -2  12   45.67    1.60
  -1  -2  12   47.54    2.11
  -1  -2  12   47.38    1.84
   1   2 -12   46.60    1.55
  -1   2  12   47.42    1.81
  -1   2  12   48.48    2.41
  -1   2  12   46.69    2.05
   0  -2  12   12.85    0.62
   0  -2  12   13.10    1.48
   0  -2  12   13.52    0.83
   0  -2  12   13.29    1.06
   0   2  12   15.33    1.40
   0   2 -12   12.30    0.83
   0   2  12   12.35    0.81
   0   2  12   12.09    0.97
   1  -2  12   69.76    3.15
   1  -2  12   68.01    2.50
   1  -2  12   76.45    2.88
   1  -2  12   75.62    2.32
   1   2  12   66.72    2.79
   1   2  12   73.30    3.30
   1   2  12   69.23    2.56
   2  -2  12    5.92    1.22
   2  -2  12    5.22    1.01
   2  -2  12    4.04    0.84
   2  -2  12    5.11    0.57
   2  -2  12    4.75    0.60
   2   2  12    4.56    0.65
   2   2  12    4.66    0.80
   3  -2  12   20.99    1.65
   3  -2  12   17.74    1.15
   3  -2  12   19.98    1.08
   3   2  12   18.31    1.67
   3   2  12   21.07    1.77
   3   2  12   20.15    2.66
   3   2  12   19.91    1.28
   4  -2  12   22.55    1.34
  -4  -2 -12   23.64    2.16
   4  -2  12   25.43    2.33
   4  -2  12   23.01    1.38
   4   2  12   23.60    2.35
   4   2  12   25.43    1.62
   4   2  12   23.68    1.59
  -5  -2 -12    2.10    1.69
  -5  -2 -12    1.79    1.30
   5  -2  12   -0.31    0.85
  -5   2 -12    0.64    1.19
   5   2  12    1.96    0.97
  -6  -2 -12   12.82    2.70
  -6  -2 -12   15.60    2.38
  -6  -2 -12   18.05    1.90
   6   2  12   16.44    1.72
  -6   2 -12   13.89    2.02
  -6   2 -12   10.20    2.28
  -6  -3  12    5.63    2.01
  -6  -3  12    4.43    1.06
  -6  -3  12    5.26    1.38
   6  -3 -12    6.56    1.19
  -6   3  12    4.39    1.49
  -6   3  12    3.60    1.20
   6   3 -12    5.05    1.03
  -6   3  12    5.14    1.20
  -5  -3  12    5.64    1.09
  -5  -3  12    7.61    0.95
  -5  -3  12    5.12    1.65
  -5   3  12    5.78    1.18
   5   3 -12    6.69    0.89
  -5   3  12    7.56    0.91
  -5   3  12    7.01    1.10
  -4  -3  12   27.23    1.80
  -4  -3  12   26.88    2.42
  -4  -3  12   23.90    1.41
   4  -3 -12   27.49    1.57
   4  -3 -12   26.05    1.34
   4   3 -12   29.11    1.40
  -4   3  12   27.39    1.67
   4   3 -12   25.33    1.38
  -4   3  12   31.61    2.13
  -4   3  12   28.02    1.41
   3  -3 -12   14.64    1.07
  -3  -3  12   13.13    1.68
  -3  -3  12   14.50    0.99
  -3  -3  12   13.74    1.29
   3  -3 -12   13.39    0.93
  -3   3  12   11.91    1.13
   3   3 -12   13.45    0.86
  -3   3  12   15.14    1.50
  -3   3  12   13.93    0.94
   2  -3 -12  185.00    5.66
  -2  -3  12  179.69    5.70
  -2  -3  12  190.11    6.43
  -2  -3  12  180.73    6.05
   2   3 -12  181.27    5.49
  -2   3  12  171.14    6.25
  -2   3  12  178.67    5.90
  -2   3  12  183.88    5.67
   1  -3 -12   13.83    0.65
  -1  -3  12   13.51    1.69
  -1  -3  12   14.72    1.15
  -1  -3  12   15.50    0.91
  -1  -3  12   15.13    0.67
  -1   3  12   12.81    1.26
  -1   3  12   13.40    1.03
   1   3 -12   14.76    0.73
  -1   3  12   13.85    0.85
   0  -3  12  181.86    5.62
   0  -3  12  181.67    6.31
   0  -3  12  187.80    5.98
   0   3  12  175.01    5.63
   0   3  12  182.18    5.92
   0   3  12  175.18    6.24
   1  -3  12    4.87    0.80
   1  -3  12    4.61    0.96
   1  -3  12    5.51    0.43
   1  -3  12    5.31    0.62
   1  -3  12    5.62    0.35
  -1   3 -12    4.80    1.36
   1   3  12    5.37    0.64
   1   3  12    3.39    0.79
   1   3  12    4.94    0.94
   2  -3  12   27.77    1.10
   2  -3  12   31.00    1.72
   2  -3  12   28.66    1.35
   2  -3  12   26.18    2.19
   2  -3  12   31.24    1.78
  -2   3 -12   31.51    2.94
   2   3  12   30.01    1.80
   2   3  12   29.13    1.79
   2   3  12   27.99    2.41
   2   3  12   32.31    1.49
   3  -3  12    2.86    0.95
   3  -3  12    2.71    0.55
   3  -3  12    3.35    0.47
   3   3  12    3.90    0.69
   3   3  12    2.84    0.94
   3   3  12    2.64    1.47
   3   3  12    3.02    1.23
   4  -3  12    2.53    0.67
  -4  -3 -12    1.20    1.07
   4   3  12    3.44    1.21
   4   3  12    1.52    0.73
  -5  -3 -12    7.36    2.08
   5  -3  12    7.69    1.11
  -5  -3 -12    5.80    1.50
  -5   3 -12    7.33    1.48
   5   3  12    6.92    1.94
   5   3  12    6.64    1.21
  -6  -3 -12   14.58    1.73
  -6  -3 -12   15.29    2.76
  -6  -3 -12   14.91    2.26
  -6   3 -12   12.81    1.99
   6   3  12   15.26    1.73
  -6   3 -12   13.91    2.35
  -6  -4  12    0.69    0.91
  -6  -4  12    2.73    1.88
  -6  -4  12    2.58    1.30
   6  -4 -12    3.91    1.12
  -6   4  12    2.79    1.20
   6   4 -12    3.16    1.06
  -6   4  12    1.71    1.38
  -5  -4  12    2.18    1.02
  -5  -4  12    1.54    1.24
   5  -4 -12    1.94    0.77
  -5  -4  12    2.02    1.86
   5  -4 -12    2.03    1.20
  -5   4  12    1.67    0.72
  -5   4  12    2.33    0.88
  -5   4  12    2.54    1.03
   5   4 -12    0.85    0.69
  -4  -4  12   28.22    2.57
  -4  -4  12   29.13    1.51
   4  -4 -12   29.85    1.68
  -4  -4  12   25.03    1.88
   4  -4 -12   28.64    1.43
  -4   4  12   28.60    1.47
  -4   4  12   29.27    1.68
  -4   4  12   25.74    2.04
   4   4 -12   26.81    1.42
  -3  -4  12   -0.21    0.35
  -3  -4  12   -0.28    0.60
   3  -4 -12   -0.48    0.34
  -3  -4  12    0.42    0.79
  -3   4  12    0.09    0.51
  -3   4  12    0.03    0.38
  -3   4  12    0.62    0.67
   3   4 -12    0.55    0.34
  -2  -4  12  127.48    4.50
   2  -4 -12  123.87    3.96
  -2  -4  12  128.95    4.16
  -2  -4  12  126.10    4.86
   2  -4 -12  125.83    4.10
   2   4 -12  126.04    3.88
  -2   4  12  124.65    4.69
  -2   4  12  128.79    4.32
   2   4 -12  122.63    4.86
  -2   4  12  126.50    4.09
   1  -4 -12    0.24    0.20
   1  -4 -12   -0.23    0.27
  -1  -4  12   -0.41    0.45
  -1  -4  12    0.18    0.30
  -1  -4  12    0.86    0.87
  -1   4  12   -0.09    0.59
  -1   4  12    0.44    0.41
  -1   4  12    0.34    0.29
   1   4 -12    0.83    0.39
   0  -4  12  106.04    3.44
   0  -4  12  104.77    4.14
   0  -4  12  106.68    3.79
   0  -4 -12  102.71    3.48
   0   4  12   98.26    3.69
   0   4  12   97.21    4.05
   0   4  12  108.49    3.50
   1  -4  12    5.19    1.00
   1  -4  12    4.64    0.55
   1  -4  12    3.90    0.76
  -1   4 -12    1.55    1.07
   1   4  12    4.45    0.80
   1   4  12    4.37    0.92
   1   4  12    3.96    0.55
   2  -4  12   12.14    1.44
   2  -4  12   12.44    0.60
   2  -4  12   12.73    0.89
   2  -4  12   10.37    1.47
   2   4  12   15.61    1.37
   2   4  12   13.03    1.53
   2   4  12   12.94    1.01
   2   4  12   14.34    1.82
  -3  -4 -12    6.72    0.84
   3  -4  12    7.09    1.24
   3  -4  12    7.03    0.78
  -3  -4 -12    8.94    1.33
   3  -4  12    6.89    0.90
   3   4  12    6.15    1.67
   3   4  12    7.55    1.46
   3   4  12    5.27    1.14
   3   4  12    5.97    0.82
  -4  -4 -12    8.53    0.92
   4  -4  12    8.68    0.89
   4   4  12    8.36    1.49
   4   4  12   11.17    1.36
  -5  -4 -12    0.92    1.87
  -5  -4 -12   -2.02    1.28
  -5  -4 -12    2.04    0.90
   5   4  12    1.92    1.04
  -5   4 -12   -0.76    1.19
   5   4  12    2.15    1.84
  -6  -4 -12   12.48    1.67
  -6  -4 -12   17.41    3.17
  -6  -4 -12   13.71    2.31
  -6   4 -12   14.25    2.31
   6   4  12   15.75    1.85
  -6   4 -12   13.93    2.03
  -6  -5  12    6.48    1.14
   6  -5 -12    4.85    1.16
  -6  -5  12    5.82    1.62
  -6  -5  12    6.41    2.39
  -6   5  12    2.79    1.48
  -6   5  12    5.19    1.30
   6   5 -12    5.49    1.18
  -5  -5  12   15.31    1.80
  -5  -5  12   15.65    1.39
   5  -5 -12   14.25    1.37
   5  -5 -12   12.94    1.61
  -5   5  12   15.49    2.02
  -5   5  12   14.16    1.40
  -5   5  12   11.06    1.49
   5   5 -12   15.07    1.37
  -4  -5  12    1.20    0.54
  -4  -5  12   -0.15    1.14
  -4  -5  12    2.78    0.89
   4  -5 -12    1.29    0.53
   4  -5 -12    1.33    0.63
  -4   5  12    0.93    0.85
  -4   5  12    1.61    0.56
  -4   5  12    0.68    0.62
   4   5 -12    0.69    0.51
   3  -5 -12   42.76    1.79
  -3  -5  12   42.48    2.70
  -3  -5  12   42.94    1.83
  -3  -5  12   39.38    1.40
  -3  -5  12   41.75    2.22
  -3   5  12   41.41    1.92
   3   5 -12   40.81    1.60
  -3   5  12   38.85    2.28
  -3   5  12   44.59    1.79
   3   5 -12   44.45    2.79
   2  -5 -12   68.85    2.44
  -2  -5  12   66.52    2.46
   2  -5 -12   65.47    2.25
  -2  -5  12   62.42    3.19
  -2  -5  12   64.04    2.79
  -2  -5  12   66.63    2.15
  -2   5  12   63.83    2.93
   2   5 -12   66.36    2.15
  -2   5  12   68.81    2.61
   2   5 -12   64.11    3.19
  -2   5  12   68.47    2.39
   1  -5 -12   24.48    0.98
  -1  -5  12   25.96    1.59
  -1  -5  12   25.38    2.10
  -1  -5  12   26.25    1.08
  -1  -5  12   25.51    1.25
   1  -5 -12   27.29    1.28
   1   5 -12   23.35    1.76
  -1   5  12   26.01    1.22
  -1   5  12   24.79    1.75
  -1   5  12   24.82    1.38
   0  -5  12  113.46    4.34
   0  -5  12  108.53    3.58
   0  -5 -12  106.16    3.66
   0  -5  12  109.58    3.95
   0   5  12  107.60    3.90
   0   5  12  109.01    3.65
   0   5  12  109.00    4.28
   0   5 -12  108.89    4.08
   1  -5  12   -1.24    0.84
   1  -5  12    0.10    0.65
   1  -5  12    1.00    0.38
  -1  -5 -12    0.11    0.35
   1   5  12    0.59    0.83
   1   5  12    0.45    0.57
   1   5  12    0.99    0.42
  -1   5 -12   -0.05    1.09
   2  -5  12   51.25    1.91
  -2  -5 -12   49.55    2.05
   2  -5  12   49.75    2.45
   2   5  12   50.81    2.50
   2   5  12   58.60    3.27
   2   5  12   52.83    2.19
   2   5  12   52.34    2.77
   3  -5  12   17.36    0.94
   3  -5  12   16.77    0.92
   3  -5  12   14.74    1.73
  -3  -5 -12   18.66    1.95
  -3  -5 -12   16.21    1.14
   3   5  12   19.11    1.83
   3   5  12   17.57    2.29
   3   5  12   18.02    1.31
   3   5  12   17.46    1.94
  -4  -5 -12    4.80    0.72
  -4  -5 -12    2.93    1.45
  -4  -5 -12    3.73    1.70
   4   5  12    4.78    1.39
  -5  -5 -12   16.40    2.09
  -5  -5 -12   15.08    1.81
  -5  -5 -12   19.16    2.86
  -5   5 -12   19.04    2.38
   5   5  12   20.44    2.04
   5   5  12   19.12    2.49
   6  -6 -12   15.57    1.83
  -6  -6  12   16.51    2.10
  -6  -6  12   18.39    3.11
  -6  -6  12   17.99    1.96
  -6   6  12   17.55    1.87
  -6   6  12   15.35    2.00
   6   6 -12   21.12    2.15
   5  -6 -12   19.76    1.60
  -5  -6  12   21.58    2.96
   5  -6 -12   22.46    1.89
  -5  -6  12   22.14    2.14
  -5  -6  12   20.74    1.59
  -5   6  12   18.79    2.13
   5   6 -12   23.97    1.58
  -5   6  12   24.12    1.70
  -4  -6  12   49.16    2.61
  -4  -6  12   43.10    2.04
  -4  -6  12   48.22    3.34
   4  -6 -12   45.59    2.01
   4   6 -12   46.10    1.92
  -4   6  12   49.10    2.03
  -4   6  12   41.94    2.50
   4   6 -12   47.20    3.27
  -4   6  12   45.40    2.08
  -3  -6  12    3.17    1.22
  -3  -6  12    1.95    0.52
  -3  -6  12    2.60    0.42
   3  -6 -12    2.86    0.58
  -3  -6  12    2.18    0.82
   3   6 -12    2.71    1.25
  -3   6  12    2.39    0.54
  -3   6  12    3.02    0.60
  -3   6  12    2.57    0.84
   3   6 -12    2.44    0.44
   2  -6 -12   11.32    0.58
   2  -6 -12   11.54    0.92
  -2  -6  12    9.87    0.70
  -2  -6  12   12.96    1.33
  -2  -6  12   11.01    1.47
  -2  -6  12   12.89    0.90
  -2   6  12   12.63    1.04
   2   6 -12   11.65    1.56
  -2   6  12   10.76    1.31
  -2   6  12   12.71    0.88
   2   6 -12   11.11    0.63
  -1  -6  12   33.03    2.43
  -1  -6  12   35.10    1.36
  -1  -6  12   33.09    1.87
   1  -6 -12   30.45    1.25
   1  -6 -12   34.62    1.54
  -1  -6  12   33.87    1.50
   1   6 -12   35.20    2.20
  -1   6  12   34.33    1.70
  -1   6  12   32.92    2.04
  -1   6  12   32.61    1.44
   0  -6  12   17.40    1.83
   0  -6  12   14.34    0.91
   0  -6 -12   14.63    0.96
   0  -6  12   13.41    1.26
   0   6 -12   16.56    1.47
   0   6  12   13.00    1.50
   0   6  12   12.92    1.12
   0   6  12   15.04    0.95
  -1  -6 -12   68.05    2.53
   1  -6  12   66.49    2.39
   1  -6  12   71.18    3.23
   1  -6  12   68.07    2.86
   1   6  12   67.53    3.34
   1   6  12   69.08    2.58
   1   6  12   65.72    2.84
  -2  -6 -12   49.64    2.03
   2  -6  12   46.15    1.78
  -2  -6 -12   49.81    2.67
   2  -6  12   46.06    2.36
   2   6  12   52.78    2.88
   2   6  12   49.51    2.47
   2   6  12   50.01    3.18
   2   6  12   49.06    2.13
  -3  -6 -12   18.10    2.04
  -3  -6 -12   20.40    1.26
   3   6  12   20.82    1.93
   3   6  12   24.91    2.84
   3   6  12   19.38    1.42
   3   6  12   23.54    2.64
  -4  -6 -12   43.44    3.81
  -4  -6 -12   45.60    2.02
  -4  -6 -12   40.37    3.04
  -4  -6 -12   45.25    2.23
   4   6  12   42.39    2.34
   4   6  12   47.13    3.04
  -5  -6 -12    0.92    2.15
  -5  -6 -12    3.57    1.55
  -5  -6 -12    1.48    0.96
   5   6  12    0.22    1.13
   5   6  12   -1.31    1.97
  -5   6 -12    0.69    1.36
  -6  -7  12   21.93    2.44
   6  -7 -12   18.80    2.41
  -6  -7  12   19.99    1.99
  -6  -7  12   15.56    3.38
  -6   7  12   21.51    2.17
   6   7 -12   20.67    2.18
  -5  -7  12    4.31    2.00
  -5  -7  12    5.06    0.96
   5  -7 -12    5.62    1.00
  -5  -7  12    5.30    1.40
  -5   7  12    5.85    0.97
   5   7 -12    5.14    0.95
  -5   7  12    4.79    1.24
  -4  -7  12   22.92    2.96
  -4  -7  12   26.28    2.13
  -4  -7  12   27.45    2.18
   4  -7 -12   29.35    1.60
  -4   7  12   23.97    1.97
   4   7 -12   21.07    3.19
   4   7 -12   26.44    1.45
  -4   7  12   29.11    1.57
  -4   7  12   28.24    1.58
  -3  -7  12    1.48    0.51
   3  -7 -12    1.37    0.56
  -3  -7  12    1.12    0.43
  -3  -7  12    1.28    1.20
  -3  -7  12    0.37    0.81
  -3   7  12    1.08    0.58
   3   7 -12    0.22    1.12
  -3   7  12    2.98    0.85
  -3   7  12    1.29    0.53
   3   7 -12    1.10    0.43
  -2  -7  12    0.28    1.14
  -2  -7  12    1.39    0.78
   2  -7 -12    1.29    0.50
  -2  -7  12    1.17    0.48
  -2  -7  12    1.04    0.35
   2  -7 -12    0.99    0.34
  -2   7  12    1.15    0.45
  -2   7  12    1.45    0.68
   2   7 -12    1.00    0.28
   2   7 -12    2.06    1.09
  -2   7  12    0.19    0.48
  -1  -7  12    0.56    0.69
  -1  -7  12    1.36    0.45
  -1  -7  12    1.06    0.40
   1  -7 -12    0.48    0.39
  -1  -7  12    0.48    0.98
   1  -7 -12    1.68    0.39
  -1   7  12    1.18    0.51
  -1   7  12    1.29    0.71
   1   7 -12    0.28    0.79
  -1   7  12    1.72    0.43
   0  -7  12   24.53    1.20
   0  -7  12   24.30    1.23
   0  -7  12   25.33    2.21
   0  -7 -12   25.88    1.33
   0  -7 -12   24.31    1.17
   0  -7  12   26.64    1.66
   0   7 -12   24.07    1.88
   0   7  12   25.55    1.29
   0   7  12   24.77    1.48
   0   7  12   23.92    1.90
  -1  -7 -12    2.10    0.48
   1  -7  12    2.24    0.47
   1  -7  12    1.75    1.11
   1   7  12    1.68    0.61
  -1   7 -12    2.58    0.84
   1   7  12    2.04    0.52
   1   7  12    2.69    0.98
  -2  -7 -12   67.35    2.59
   2  -7  12   68.36    2.27
  -2  -7 -12   71.66    3.29
   2  -7  12   64.78    2.92
   2   7  12   66.53    3.81
   2   7  12   69.24    2.73
   2   7  12   69.53    3.08
   2   7  12   71.14    3.58
  -3  -7 -12    2.93    1.21
  -3  -7 -12    2.52    1.46
  -3  -7 -12    1.77    0.63
  -3  -7 -12    3.36    0.66
   3   7  12    2.98    0.76
   3   7  12    1.84    1.88
   3   7  12    4.39    1.93
   3   7  12    2.47    1.06
  -4  -7 -12   41.79    1.99
  -4  -7 -12   39.49    2.19
  -4  -7 -12   43.17    2.99
  -4  -7 -12   44.61    4.20
   4   7  12   44.97    2.40
   4   7  12   44.46    3.39
  -5  -7 -12    0.49    0.95
  -5  -7 -12    1.75    1.67
  -5  -7 -12   -0.34    2.59
   5   7  12    1.01    2.11
  -5   7 -12    2.88    1.44
  -6  -8  12   22.32    2.19
  -6  -8  12   34.25    4.07
  -6  -8  12   19.56    2.48
  -6   8  12   22.06    2.15
  -5  -8  12    3.92    1.50
  -5  -8  12    8.27    2.37
   5  -8 -12    5.30    1.04
  -5  -8  12    3.41    0.90
  -5   8  12    3.25    1.23
   5   8 -12    9.14    2.34
  -5   8  12    4.55    0.86
   5   8 -12    4.87    0.96
  -4  -8  12   28.36    3.39
  -4  -8  12   28.41    1.69
   4  -8 -12   28.27    1.73
   4   8 -12   26.51    3.03
  -4   8  12   31.18    2.15
  -4   8  12   25.87    2.01
   4   8 -12   31.50    1.55
  -4   8  12   29.46    1.64
  -3  -8  12    1.31    0.55
  -3  -8  12    0.72    0.45
  -3  -8  12    0.50    1.29
   3  -8 -12    1.28    0.59
  -3  -8  12    1.29    0.96
  -3   8  12    1.56    0.76
  -3   8  12    1.24    0.55
   3   8 -12    1.20    1.30
  -3   8  12    0.96    0.58
   3   8 -12    0.65    0.44
  -2  -8  12    4.82    0.94
  -2  -8  12    4.33    0.57
  -2  -8  12    3.88    0.64
   2  -8 -12    4.76    0.78
  -2  -8  12    4.30    1.38
   2  -8 -12    4.21    0.64
  -2   8  12    4.50    0.62
  -2   8  12    6.21    1.04
  -2   8  12    4.26    0.67
   2   8 -12    3.19    1.33
  -1  -8  12   14.81    1.52
  -1  -8  12   15.52    1.05
   1  -8 -12   15.08    1.04
  -1  -8  12   16.23    1.84
   1  -8 -12   13.56    0.88
   1  -8 -12   13.31    0.80
  -1  -8  12   15.13    0.95
   1   8 -12   14.38    1.92
  -1   8  12   15.84    1.21
  -1   8  12   15.24    1.01
  -1   8  12   14.44    1.50
   0  -8 -12   16.80    1.01
   0  -8 -12   16.46    1.02
   0  -8  12   17.64    1.04
   0  -8 -12   16.51    1.63
   0  -8  12   16.00    1.04
   0  -8  12   18.00    1.57
   0  -8  12   18.75    2.19
   0  -8 -12   17.50    1.12
   0   8  12   16.50    1.08
   0   8  12   17.89    1.33
   0   8  12   17.43    1.78
   0   8 -12   19.57    1.85
   1  -8  12   19.67    2.09
  -1  -8 -12   20.62    1.25
  -1  -8 -12   23.41    2.26
  -1  -8 -12   21.62    1.88
   1  -8  12   20.38    1.08
  -1  -8 -12   22.10    1.27
   1   8  12   20.62    2.22
   1   8  12   24.74    2.20
   1   8  12   21.38    1.30
   1   8  12   19.80    1.55
  -1   8 -12   22.58    1.76
  -2  -8 -12   64.89    2.59
  -2  -8 -12   66.60    2.56
  -2  -8 -12   56.91    3.61
  -2  -8 -12   66.06    3.26
   2   8  12   70.05    3.93
   2   8  12   69.10    2.71
   2   8  12   63.86    3.69
   2   8  12   67.18    3.07
  -3  -8 -12    2.41    1.33
  -3  -8 -12    2.66    0.69
  -3  -8 -12    0.33    1.83
   3   8  12    3.41    2.02
   3   8  12    1.14    1.97
   3   8  12    1.33    1.01
  -4  -8 -12   61.20    4.74
  -4  -8 -12   55.49    2.69
  -4  -8 -12   59.43    3.55
  -4  -8 -12   48.94    2.55
   4   8  12   51.92    3.44
   4   8  12   55.53    2.81
  -5  -8 -12    4.81    1.96
  -5  -8 -12    3.43    2.86
  -5  -8 -12    3.21    1.17
  -5   8 -12    2.04    1.51
   5   8  12    5.96    2.30
   5  -9 -12   12.69    1.41
  -5  -9  12   10.30    1.89
  -5  -9  12   12.35    3.11
  -5  -9  12   13.08    1.65
  -5   9  12   12.76    1.53
   5   9 -12   11.28    2.53
   4  -9 -12    3.68    0.88
  -4  -9  12    1.49    1.23
  -4  -9  12    2.25    0.72
  -4  -9  12    2.07    2.03
  -4   9  12    1.24    0.93
   4   9 -12    1.56    1.74
  -4   9  12    1.36    0.90
   3  -9 -12   59.47    2.50
  -3  -9  12   63.13    3.33
  -3  -9  12   59.59    2.48
  -3  -9  12   59.90    2.22
  -3  -9  12   58.94    3.98
   3   9 -12   59.86    3.74
  -3   9  12   58.52    2.29
  -3   9  12   57.14    2.41
  -3   9  12   56.17    2.78
  -2  -9  12    6.65    0.82
   2  -9 -12    5.92    0.79
  -2  -9  12    5.04    1.66
   2  -9 -12    6.00    0.66
  -2  -9  12    5.29    0.66
  -2  -9  12    4.51    1.10
   2   9 -12    3.92    1.44
  -2   9  12    5.35    0.79
  -2   9  12    5.77    0.73
  -2   9  12    7.17    1.07
   1  -9 -12   48.60    2.06
  -1  -9  12   47.37    1.90
   1  -9 -12   48.45    2.47
  -1  -9  12   46.20    1.97
  -1  -9  12   49.61    3.24
   1  -9 -12   45.66    1.84
  -1  -9  12   46.69    2.56
   1  -9 -12   46.69    1.65
   1   9 -12   45.68    2.95
  -1   9  12   49.40    2.62
  -1   9  12   47.51    1.97
  -1   9  12   47.99    2.21
   0  -9  12   54.15    2.65
   0  -9 -12   54.74    2.11
   0  -9  12   56.18    2.19
   0  -9 -12   54.20    2.71
   0  -9  12   54.90    2.15
   0  -9 -12   52.84    2.02
   0  -9 -12   53.08    2.24
   0   9  12   57.44    2.24
   0   9  12   55.18    2.97
   0   9  12   53.34    2.47
   0   9 -12   48.36    2.96
  -1  -9 -12    0.89    0.54
  -1  -9 -12    0.75    0.45
   1  -9  12    0.66    0.42
  -1  -9 -12    1.84    1.03
   1  -9  12    2.44    1.04
  -1  -9 -12    0.88    0.49
   1   9  12   -0.55    1.12
  -1   9 -12    1.68    0.97
   1   9  12    2.03    1.16
   1   9  12    1.36    0.53
   1   9  12    1.76    0.78
  -2  -9 -12   60.80    2.46
  -2  -9 -12   59.48    3.96
  -2  -9 -12   60.63    2.41
  -2  -9 -12   57.31    3.17
   2   9  12   55.52    2.89
   2   9  12   60.43    2.60
   2   9  12   61.03    3.75
   2   9  12   58.36    3.77
  -3  -9 -12    5.51    1.52
  -3  -9 -12    7.72    0.93
  -3  -9 -12    8.02    2.42
  -3  -9 -12    6.60    0.93
   3   9  12    6.53    0.95
   3   9  12    8.85    2.27
   3   9  12    7.94    1.45
   3   9  12    8.18    2.40
  -4  -9 -12    8.74    1.94
  -4  -9 -12    9.51    1.25
  -4  -9 -12   10.27    1.11
   4   9  12    7.61    1.75
   4   9  12    8.02    1.29
  -5  -9 -12   11.38    1.58
  -5  -9 -12    9.51    2.32
  -5   9 -12   17.40    2.35
   5   9  12   10.53    2.59
  -5 -10  12   -1.04    1.60
  -5 -10  12    0.05    0.99
   5 -10 -12    0.98    1.12
  -5  10  12    0.48    1.12
   5  10 -12    0.88    2.36
  -4 -10  12   10.74    1.75
  -4 -10  12    7.71    2.58
   4 -10 -12   12.57    1.32
  -4 -10  12   12.00    1.24
  -4  10  12   13.23    1.73
  -4  10  12   10.09    1.15
   4  10 -12   11.03    2.32
  -3 -10  12    4.23    1.25
   3 -10 -12    2.20    0.71
  -3 -10  12    2.10    0.65
  -3 -10  12    1.71    0.88
  -3 -10  12    3.41    2.10
  -3  10  12    3.28    0.71
  -3  10  12    3.27    0.73
  -3  10  12    3.86    1.14
   3  10 -12    1.08    1.51
  -2 -10  12   47.65    1.93
   2 -10 -12   45.50    1.90
   2 -10 -12   46.62    2.11
  -2 -10  12   47.52    2.08
  -2 -10  12   47.91    2.73
  -2  10  12   46.31    1.95
  -2  10  12   44.87    2.11
  -2  10  12   43.54    2.52
   2  10 -12   41.53    3.20
  -1 -10  12    9.19    1.39
   1 -10 -12    9.20    0.98
   1 -10 -12    9.61    1.00
  -1 -10  12   10.72    1.05
  -1 -10  12    9.73    0.95
  -1  10  12   10.23    1.25
  -1  10  12    9.98    1.35
   1  10 -12    9.29    1.62
  -1  10  12   11.45    1.05
   0 -10 -12   42.89    2.56
   0 -10  12   44.37    1.76
   0 -10 -12   41.77    1.71
   0 -10  12   41.56    2.47
   0 -10 -12   43.13    1.96
   0 -10  12   42.05    1.91
   0 -10 -12   43.68    1.85
   0  10 -12   43.49    2.88
   0  10  12   39.96    2.69
   0  10  12   42.02    1.92
   0  10  12   44.80    2.25
   0  10  12   41.48    2.80
   1 -10  12   10.40    1.05
  -1 -10 -12   12.45    1.10
  -1 -10 -12    9.57    1.71
   1 -10  12   11.48    0.81
  -1 -10 -12   11.91    1.09
  -1 -10 -12   11.94    1.11
  -1  10 -12    9.48    1.58
   1  10  12    9.91    1.25
   1  10  12   12.80    1.18
   1  10  12    8.49    1.58
   1  10  12   13.27    2.02
  -2 -10 -12    1.92    0.62
  -2 -10 -12    0.79    0.67
  -2 -10 -12    1.74    1.33
   2  10  12    1.99    1.47
   2  10  12    1.53    0.71
   2  10  12    2.26    1.60
  -3 -10 -12    5.52    1.94
  -3 -10 -12    4.47    0.90
  -3 -10 -12    4.28    0.85
   3  10  12    2.84    0.82
   3  10  12    5.14    1.34
   3  10  12    7.19    2.44
   3  10  12    4.83    2.62
  -4 -10 -12    6.45    2.10
  -4 -10 -12    4.13    1.08
   4  10  12    6.18    1.24
   4  10  12    7.88    1.77
  -5 -11  12    0.98    1.08
   5 -11 -12    3.50    1.20
  -5 -11  12   -0.96    2.08
   5  11 -12    2.45    2.72
  -5  11  12    0.82    1.20
  -4 -11  12   26.90    1.93
   4 -11 -12   27.05    2.00
  -4 -11  12   29.25    2.90
  -4  11  12   26.28    2.17
   4  11 -12   28.38    3.68
  -3 -11  12    0.90    0.70
   3 -11 -12    0.21    0.72
  -3 -11  12    0.12    0.69
  -3 -11  12   -0.68    1.23
  -3  11  12    0.99    0.96
   3  11 -12    0.65    1.83
  -3  11  12    1.32    0.75
  -2 -11  12   96.24    3.37
   2 -11 -12   87.33    3.19
  -2 -11  12   91.40    4.10
  -2 -11  12   96.71    3.26
  -2  11  12   89.95    3.23
   2  11 -12   84.19    4.75
  -2  11  12   72.49    4.97
  -2  11  12   92.29    3.43
  -1 -11  12    0.77    0.55
  -1 -11  12    0.34    0.59
   1 -11 -12   -0.34    0.48
   1 -11 -12   -0.62    0.60
  -1 -11  12    1.24    1.20
   1  11 -12   -0.33    1.38
  -1  11  12    0.57    0.92
  -1  11  12   -0.15    0.72
  -1  11  12    0.25    0.57
   0 -11  12   85.56    3.70
   0 -11 -12   79.89    2.76
   0 -11 -12   83.80    3.20
   0 -11  12   83.30    2.84
   0 -11 -12   83.67    3.05
   0 -11  12   85.38    3.12
   0  11  12   81.02    4.03
   0  11  12   77.67    3.42
   0  11 -12   88.99    4.19
   0  11  12   82.62    4.26
   0  11  12   83.29    3.14
  -1 -11 -12    3.89    1.42
  -1 -11 -12    3.76    0.75
  -1 -11 -12    5.11    0.79
  -1 -11 -12    4.74    0.75
   1 -11  12    3.59    0.67
   1  11  12    3.56    0.79
   1  11  12    5.94    1.75
  -1  11 -12    3.39    1.51
   1  11  12    2.17    1.29
   1  11  12    3.50    1.28
  -2 -11 -12    9.01    1.09
  -2 -11 -12    8.77    1.41
  -2 -11 -12    7.82    1.07
  -2 -11 -12   10.64    1.82
   2  11  12    9.90    2.66
   2  11  12    9.23    1.35
   2  11  12    8.90    1.09
   2  11  12   11.22    2.40
  -3 -11 -12    9.72    2.00
  -3 -11 -12    6.57    0.99
  -3 -11 -12    4.10    0.97
   3  11  12    7.78    3.07
   3  11  12    5.36    2.74
   3  11  12    6.26    1.18
   3  11  12    4.62    1.43
  -4 -11 -12    4.37    2.32
  -4 -11 -12    4.14    1.15
   4  11  12    5.60    1.86
   4  11  12    3.08    1.25
   4 -12 -12   11.80    1.45
  -4 -12  12   11.52    1.31
  -4 -12  12   11.14    2.10
   4  12 -12    6.91    2.59
  -4  12  12    8.69    1.48
  -3 -12  12   -0.92    1.87
  -3 -12  12    0.83    0.79
  -3 -12  12    0.30    0.85
   3 -12 -12   -1.21    0.78
   3  12 -12    1.23    1.94
  -3  12  12   -0.38    1.01
  -3  12  12   -0.01    0.83
  -2 -12  12   34.19    2.81
  -2 -12  12   36.72    1.85
   2 -12 -12   37.62    2.00
   2 -12 -12   34.42    1.95
  -2  12  12   32.80    2.53
  -2  12  12   36.44    2.05
  -2  12  12   35.91    1.86
   2  12 -12   32.12    3.32
  -1 -12  12    2.58    0.68
  -1 -12  12    3.13    1.56
   1 -12 -12    2.47    0.79
  -1 -12  12    2.80    0.73
   1 -12 -12    2.20    0.71
  -1  12  12    2.85    0.86
   1  12 -12    2.46    1.57
  -1  12  12    1.00    1.30
  -1  12  12    1.93    0.71
  -1  12  12    2.89    1.09
   0 -12  12   22.72    1.27
   0 -12 -12   21.94    1.52
   0 -12  12   22.19    1.55
   0 -12 -12   24.03    1.57
   0  12  12   18.09    2.31
   0  12  12   20.38    2.80
   0  12  12   20.96    2.41
   0  12  12   27.27    1.65
   0  12 -12   21.88    2.49
  -1 -12 -12   13.52    1.37
  -1 -12 -12   13.48    1.35
   1 -12  12   14.75    1.46
  -1 -12 -12   14.69    1.25
   1  12  12   13.00    1.54
   1  12  12   15.17    2.52
  -1  12 -12   14.92    2.06
   1  12  12   12.93    1.62
   1  12  12   11.03    1.93
  -2 -12 -12    0.12    0.70
  -2 -12 -12   -0.85    0.74
  -2 -12 -12    0.67    0.77
  -2 -12 -12    1.25    1.80
   2  12  12   -0.32    2.17
   2  12  12    0.10    0.82
   2  12  12   -0.60    1.79
   2  12  12   -0.19    1.07
  -3 -12 -12   22.69    2.74
  -3 -12 -12   14.78    1.72
  -3 -12 -12   15.23    1.49
  -3 -12 -12   13.51    1.72
   3  12  12   12.33    3.13
   3  12  12   16.05    2.05
   3  12  12   13.22    1.91
   3  12  12   18.78    3.76
  -4 -12 -12    7.58    1.42
  -4 -12 -12    8.82    2.54
  -4 -12 -12    7.77    1.36
   4  12  12    3.41    2.09
   4  12  12    7.30    1.59
  -4 -13  12    4.10    1.20
   4 -13 -12    3.58    1.23
  -4 -13  12    4.00    2.15
  -4  13  12    4.82    2.27
  -4  13  12    3.27    1.47
   4  13 -12    2.09    2.75
  -3 -13  12   17.07    2.43
  -3 -13  12   23.16    1.85
  -3 -13  12   19.34    1.76
   3 -13 -12   14.65    1.47
   3  13 -12   19.39    3.03
  -3  13  12   18.67    2.40
  -3  13  12   14.35    2.48
   2 -13 -12    2.76    0.88
  -2 -13  12    0.45    1.79
   2 -13 -12    1.01    1.00
  -2 -13  12    1.32    0.86
  -2  13  12    3.87    0.99
   2  13 -12    2.43    2.00
  -2  13  12    1.11    1.52
  -2  13  12    0.66    1.16
   1 -13 -12    2.27    0.73
  -1 -13  12    3.14    0.82
   1 -13 -12    3.64    0.93
  -1  13  12    4.22    0.91
  -1  13  12    3.56    1.03
  -1  13  12    2.10    1.21
   1  13 -12    1.02    1.84
  -1  13  12    1.86    1.45
   0 -13 -12   22.80    1.71
   0 -13 -12   23.89    1.74
   0 -13  12   24.87    1.75
   0  13  12   24.46    3.17
   0  13  12   26.49    2.04
   0  13 -12   24.18    3.28
   0  13  12   28.18    1.86
   0  13  12   31.46    2.80
  -1 -13 -12    4.53    0.94
   1 -13  12    4.79    0.99
  -1 -13 -12    7.15    0.95
  -1 -13 -12    5.73    0.98
   1  13  12    6.70    1.77
  -1  13 -12    8.24    2.18
   1  13  12    7.05    2.21
   1  13  12    5.74    1.27
   1  13  12    5.77    1.06
  -2 -13 -12   33.41    2.04
  -2 -13 -12   33.39    2.03
  -2 -13 -12   32.76    2.11
   2  13  12   32.73    4.26
   2  13  12   38.22    4.84
   2  13  12   30.21    2.63
   2  13  12   32.85    2.26
  -3 -13 -12   11.39    1.35
  -3 -13 -12    9.30    1.40
  -3 -13 -12    7.96    1.27
   3  13  12   10.69    1.56
   3  13  12   10.01    1.91
   3  13  12    7.94    3.79
   3  13  12   14.34    3.39
   3 -14 -12   -1.75    1.04
  -3 -14  12    1.39    1.14
  -3 -14  12    0.88    1.04
  -3  14  12    2.46    2.31
   3  14 -12    0.01    2.51
  -3  14  12    0.13    1.35
  -2 -14  12    1.12    0.96
  -2 -14  12    2.60    1.07
   2 -14 -12    0.92    0.95
  -2  14  12   -0.01    1.07
  -2  14  12    0.29    1.33
   2  14 -12    1.57    2.30
  -2  14  12    2.26    2.03
   1 -14 -12    1.90    0.86
  -1 -14  12    2.71    0.93
   1 -14 -12    2.94    1.14
  -1  14  12    1.71    1.32
  -1  14  12    3.82    2.03
   1  14 -12    0.39    1.85
  -1  14  12    2.78    1.01
  -1  14  12    2.68    1.03
   0 -14 -12   20.47    1.88
   0 -14  12   22.83    1.85
   0 -14 -12   21.37    1.75
   0  14  12   20.07    2.83
   0  14  12   22.97    1.90
   0  14 -12   26.38    3.07
   0  14  12   17.82    2.38
   0  14  12   20.63    2.20
   1 -14  12    9.83    1.26
  -1 -14 -12    9.15    1.15
  -1 -14 -12   12.34    1.35
   1  14  12    9.37    1.27
   1  14  12   10.25    2.13
   1  14  12   10.99    2.83
   1  14  12    9.39    1.58
  -1  14 -12    6.82    2.53
  -2 -14 -12   48.81    2.62
  -2 -14 -12   43.83    2.44
  -2 -14 -12   46.40    2.53
   2  14  12   42.92    3.10
   2  14  12   51.11    5.06
   2  14  12   43.04    2.77
   2  14  12   48.25    4.98
  -3 -14 -12    6.26    1.35
  -3 -14 -12    5.45    1.30
  -3 -14 -12    6.63    1.30
   3  14  12   10.03    3.44
   3  14  12    8.13    3.73
   3  14  12    4.70    1.50
   3  14  12    6.48    1.89
  -3 -15  12    6.52    1.46
   3 -15 -12    8.28    1.36
   3  15 -12    5.78    3.12
  -3  15  12    6.31    1.69
  -3  15  12    2.25    2.70
   2 -15 -12    0.19    0.99
  -2  15  12    1.36    1.52
   2  15 -12    1.67    2.67
  -2  15  12   -1.17    1.16
  -2  15  12    1.82    2.25
   1 -15 -12    8.79    1.41
   1 -15 -12    7.51    1.20
  -1 -15  12    8.24    1.25
  -1  15  12    4.05    2.44
   1  15 -12    8.06    2.75
  -1  15  12    6.59    1.43
  -1  15  12    8.12    1.86
   0 -15  12    9.84    1.30
   0 -15 -12   12.06    1.39
   0 -15 -12   11.61    1.39
   0  15  12    9.86    2.78
   0  15  12    8.32    1.37
   0  15 -12   11.73    2.87
   0  15  12    8.57    2.09
   0  15  12   10.45    1.62
   1 -15  12    2.33    1.09
  -1 -15 -12    3.60    1.08
  -1 -15 -12    4.97    1.23
   1  15  12    1.24    2.06
   1  15  12    1.30    1.22
   1  15  12    2.35    2.82
   1  15  12    3.31    1.46
  -2 -15 -12   20.14    2.09
  -2 -15 -12   23.19    2.18
   2  15  12   24.96    4.38
   2  15  12   16.38    2.21
   2  15  12   15.79    3.28
   2  15  12   22.72    2.48
   1 -16 -12   19.19    2.10
   1 -16 -12   14.77    2.31
  -1 -16  12   16.63    1.70
  -1  16  12   15.11    3.15
   1  16 -12   16.30    3.38
  -1  16  12   19.90    2.46
  -1  16  12   13.63    2.33
   0 -16 -12    0.31    1.28
   0 -16 -12    1.57    1.10
   0 -16  12   -0.52    1.09
   0  16 -12    1.16    2.99
   0  16  12   -0.51    1.31
   0  16  12    0.75    1.41
   0  16  12   -1.28    1.84
   0  16  12   -2.93    2.74
  -1 -16 -12   13.54    1.63
  -1 -16 -12   13.85    1.62
   1 -16  12   15.01    1.64
   1  16  12    9.30    2.67
   1  16  12   13.84    2.02
   1  16  12   10.26    1.66
   1  16  12   12.87    3.79
  -6   0  13    0.60    0.96
  -6   0  13    1.52    1.48
  -6   0  13   -0.62    1.21
   6   0 -13    0.28    0.92
  -5   0  13    5.55    0.84
   5   0 -13    5.83    0.92
  -5   0  13    5.75    1.15
  -5   0  13    3.12    1.31
  -4   0  13   -0.36    0.48
   4   0 -13    0.24    0.43
  -4   0  13   -0.01    0.84
   4   0 -13   -0.10    0.83
  -4   0  13   -0.36    0.70
  -3   0  13   16.02    1.30
  -3   0  13    9.87    1.34
   3   0 -13   15.06    0.98
   3   0 -13   15.46    1.00
  -3   0  13   14.41    1.01
  -2   0  13    0.06    0.32
  -2   0  13   -0.41    0.68
  -2   0  13   -0.03    0.44
  -1   0  13  113.83    4.54
  -1   0  13  119.50    3.88
   1   0 -13  120.01    3.47
  -1   0  13  115.96    4.18
   0   0 -13   -0.12    0.35
   0   0  13    0.31    0.45
   0   0  13   -0.03    0.71
   0   0  13   -0.46    0.29
   1   0  13  171.02    5.47
   1   0  13  176.02    5.82
   1   0  13  169.54    6.36
   2   0  13    0.85    0.73
   2   0  13    1.10    1.15
   2   0  13    0.06    0.39
   3   0  13   30.73    1.59
   3   0  13   31.94    3.18
   3   0  13   30.14    2.11
   4   0  13   -0.73    0.64
   4   0  13    0.15    1.36
   4   0  13    0.99    0.72
   5   0  13    4.32    1.06
  -5   0 -13    4.47    1.47
  -6   0 -13   -2.83    2.29
  -6   0 -13   -0.15    1.36
  -6   0 -13   -3.59    1.74
  -6  -1  13   -0.64    1.62
  -6  -1  13   -0.70    0.93
   6  -1 -13    1.74    1.04
  -6  -1  13    1.92    1.34
  -6   1  13    0.06    1.51
  -6   1  13    0.41    1.16
   6   1 -13    1.12    0.99
  -6   1  13    3.02    1.04
  -5  -1  13   13.90    1.58
  -5  -1  13   15.26    1.92
  -5  -1  13   12.52    1.29
   5  -1 -13   13.21    1.46
  -5   1  13   13.32    1.65
  -5   1  13   15.46    1.31
  -5   1  13   14.64    1.87
   5   1 -13   14.07    1.40
  -4  -1  13    8.65    0.93
  -4  -1  13    7.08    1.11
  -4  -1  13    5.26    1.22
   4  -1 -13    8.75    0.90
   4  -1 -13    8.97    0.98
  -4   1  13    7.54    1.32
   4   1 -13    7.95    0.86
  -4   1  13    8.50    1.08
  -4   1  13    7.14    0.90
   4   1 -13    8.11    0.95
   3  -1 -13    6.18    0.77
  -3  -1  13    7.42    1.23
  -3  -1  13    6.44    0.95
  -3  -1  13    5.80    0.75
   3  -1 -13    6.66    0.78
   3   1 -13    6.72    0.78
  -3   1  13    5.96    0.75
  -3   1  13    7.17    1.13
  -3   1  13    6.68    0.92
  -2  -1  13   32.12    1.74
  -2  -1  13   29.65    2.15
  -2   1  13   32.00    2.05
  -2   1  13   30.19    1.68
  -2   1  13   32.79    1.44
   1  -1 -13   82.13    2.36
  -1  -1  13   74.89    2.58
  -1  -1  13   77.29    3.45
  -1  -1  13   79.96    2.79
   1   1 -13   82.47    2.41
  -1   1  13   76.95    3.41
  -1   1  13   79.12    2.77
  -1   1  13   76.75    3.02
   0  -1  13   46.80    2.10
   0  -1  13   40.87    2.49
   0  -1  13   44.29    1.58
   0  -1  13   46.25    1.80
   0  -1 -13   43.02    1.60
   0   1  13   43.67    2.44
   0   1  13   45.31    2.07
   0   1  13   43.28    1.78
   1  -1  13   99.88    3.43
   1  -1  13   96.76    3.24
   1  -1  13  104.62    3.78
   1  -1  13   99.07    4.18
   1   1  13   99.51    4.23
   1   1  13  100.74    3.76
   1   1  13  103.51    3.46
   2  -1  13    2.80    0.82
   2  -1  13    4.17    1.18
   2  -1  13    4.63    0.63
   2   1  13    3.52    0.58
   2   1  13    4.01    0.93
   2   1  13    4.55    1.48
   3  -1  13   34.52    1.65
   3  -1  13   30.87    2.18
   3  -1  13   31.63    1.49
   3   1  13   35.04    3.18
   3   1  13   34.76    2.31
   3   1  13   31.86    1.70
  -4  -1 -13    3.47    2.11
   4  -1  13    6.16    0.85
   4  -1  13    5.91    0.88
   4  -1  13    4.51    1.54
   4   1  13    4.20    1.45
   4   1  13    4.52    0.84
   4   1  13    4.24    0.83
  -5  -1 -13    1.22    1.36
   5   1  13   -0.44    0.98
  -5   1 -13   -0.35    1.36
  -6  -1 -13    8.17    1.55
  -6  -1 -13    6.83    2.05
  -6  -1 -13    6.82    2.59
   6   1  13    9.63    1.51
  -6   1 -13    9.02    2.02
  -6   1 -13    4.48    2.29
  -6  -2  13   11.89    1.83
  -6  -2  13   16.24    1.57
  -6  -2  13   12.62    2.15
   6  -2 -13   17.02    1.89
   6   2 -13   15.82    1.91
  -6   2  13   15.55    1.82
  -6   2  13   16.66    2.16
  -6   2  13   13.97    2.08
  -5  -2  13   20.50    2.66
  -5  -2  13   25.36    2.01
  -5  -2  13   21.24    1.51
   5  -2 -13   22.26    2.22
   5   2 -13   20.26    1.55
  -5   2  13   16.75    1.94
  -5   2  13   22.53    1.50
  -5   2  13   17.92    2.21
  -4  -2  13   27.16    1.46
   4  -2 -13   29.02    1.61
  -4  -2  13   25.39    1.80
   4  -2 -13   28.38    1.40
  -4  -2  13   29.33    2.46
   4   2 -13   28.38    1.48
  -4   2  13   26.56    1.77
  -4   2  13   26.32    1.45
  -4   2  13   27.59    2.26
   4   2 -13   23.15    1.28
  -3  -2  13   68.59    3.35
   3  -2 -13   65.98    2.41
  -3  -2  13   64.22    2.49
   3  -2 -13   70.28    2.59
  -3  -2  13   65.51    2.85
  -3   2  13   63.98    3.15
  -3   2  13   65.77    2.48
  -3   2  13   63.90    2.75
   3   2 -13   66.79    2.40
  -2  -2  13    0.39    0.32
  -2  -2  13    0.96    0.78
   2  -2 -13   -0.02    0.34
  -2  -2  13   -0.09    0.53
  -2   2  13   -0.09    0.35
  -2   2  13   -0.37    0.41
  -2   2  13   -0.52    0.65
  -1  -2  13   57.32    2.90
   1  -2 -13   61.03    1.78
  -1  -2  13   57.39    2.49
  -1  -2  13   56.93    2.17
  -1  -2  13   55.49    1.91
  -1   2  13   55.79    2.40
   1   2 -13   57.20    1.85
  -1   2  13   59.18    2.83
  -1   2  13   58.42    2.17
   0  -2  13   43.43    1.45
   0  -2  13   41.24    2.49
   0  -2  13   40.55    1.71
   0  -2  13   42.90    2.04
   0   2  13   43.96    2.41
   0   2  13   43.88    2.02
   0   2  13   43.20    1.74
   1  -2  13    8.72    1.13
   1  -2  13    9.30    0.71
   1  -2  13   12.42    1.55
   1  -2  13    8.93    0.80
   1   2  13    7.87    1.23
   1   2  13    8.99    1.07
   1   2  13   10.16    0.85
   2  -2  13   71.62    2.66
   2  -2  13   72.82    2.41
   2  -2  13   75.95    3.60
   2  -2  13   72.86    3.10
   2   2  13   73.38    3.72
   2   2  13   73.04    2.75
   2   2  13   71.50    3.09
   3  -2  13    4.35    1.08
   3  -2  13    4.19    0.61
   3  -2  13    4.42    0.70
   3   2  13    3.79    1.05
   3   2  13    5.62    1.17
   3   2  13    5.52    0.82
   4  -2  13   40.94    1.92
  -4  -2 -13   36.64    2.81
   4  -2  13   42.36    1.89
   4   2  13   44.80    2.97
   4   2  13   44.21    2.18
   4   2  13   39.48    2.11
   5  -2  13   17.90    1.80
  -5  -2 -13   13.63    2.28
  -5  -2 -13   13.82    2.06
   5   2  13   20.62    1.94
  -5   2 -13   16.44    2.04
  -6  -3  13    1.32    1.34
  -6  -3  13    0.68    0.91
  -6  -3  13    2.92    1.84
   6  -3 -13    0.04    1.00
  -6   3  13    1.94    1.45
   6   3 -13    2.59    1.02
  -6   3  13    1.94    1.22
   5  -3 -13   36.40    2.11
  -5  -3  13   33.97    1.99
  -5  -3  13   36.13    2.41
  -5  -3  13   40.31    3.31
   5   3 -13   38.45    1.95
  -5   3  13   31.81    2.30
  -5   3  13   34.28    2.75
  -5   3  13   37.31    1.91
  -4  -3  13   10.46    1.67
   4  -3 -13    9.79    1.16
   4  -3 -13    9.93    1.02
  -4  -3  13    9.54    1.01
  -4  -3  13    7.79    1.18
   4   3 -13    8.82    0.98
  -4   3  13    8.13    1.32
   4   3 -13    7.41    0.91
  -4   3  13    9.14    1.01
  -4   3  13    9.05    1.13
  -3  -3  13   89.87    3.63
   3  -3 -13   94.11    3.16
  -3  -3  13   91.56    4.10
  -3  -3  13   90.68    3.24
   3   3 -13   93.82    3.09
  -3   3  13   89.34    3.19
  -3   3  13   89.85    3.47
  -3   3  13   89.55    3.89
   2  -3 -13   20.32    1.11
  -2  -3  13   19.28    1.93
  -2  -3  13   19.19    1.44
  -2  -3  13   17.84    1.09
  -2   3  13   17.80    1.28
  -2   3  13   21.08    1.11
  -2   3  13   21.15    1.70
   1  -3 -13   45.99    1.51
  -1  -3  13   46.01    1.57
  -1  -3  13   46.83    2.65
   1  -3 -13   47.71    1.51
  -1  -3  13   46.96    1.90
  -1  -3  13   50.10    2.24
  -1   3  13   47.82    1.87
   1   3 -13   44.81    1.62
  -1   3  13   48.87    2.14
  -1   3  13   49.25    2.49
   0  -3  13   17.99    0.65
   0  -3  13   17.85    1.83
   0  -3  13   17.98    1.05
   0  -3  13   18.08    1.36
   0   3  13   19.78    1.73
   0   3  13   16.24    1.21
   0   3  13   18.95    1.06
   1  -3  13    5.80    0.45
   1  -3  13    4.35    0.54
   1  -3  13    3.90    1.04
   1  -3  13    4.15    0.84
   1  -3  13    4.21    0.35
   1   3  13    4.16    0.78
   1   3  13    3.10    1.02
   1   3  13    4.37    0.60
   2  -3  13    1.05    0.75
   2  -3  13    0.06    0.28
   2  -3  13    0.05    0.44
   2  -3  13    0.44    1.14
   2   3  13    0.35    1.08
   2   3  13    0.36    0.44
   2   3  13    0.12    0.73
   3  -3  13   60.64    2.93
   3  -3  13   63.84    2.38
   3  -3  13   60.48    2.20
   3   3  13   61.14    3.96
   3   3  13   64.80    2.61
   3   3  13   65.30    3.16
   4  -3  13    5.47    0.80
   4  -3  13    4.92    0.81
  -4  -3 -13    5.88    1.42
   4   3  13    5.96    1.04
   4   3  13    5.77    1.51
  -5  -3 -13   41.16    4.15
  -5  -3 -13   38.87    3.09
   5   3  13   47.56    2.65
  -5   3 -13   45.55    3.11
   6  -4 -13    1.44    1.08
  -6  -4  13    0.21    1.43
  -6  -4  13    3.45    2.12
  -6  -4  13    2.19    0.99
  -6   4  13    1.17    1.23
  -6   4  13   -0.64    1.44
   6   4 -13   -1.31    1.02
  -5  -4  13   35.99    3.43
  -5  -4  13   38.07    2.58
   5  -4 -13   44.15    2.31
  -5  -4  13   42.77    2.15
   5   4 -13   41.70    2.06
  -5   4  13   42.19    2.12
  -5   4  13   38.17    2.74
  -5   4  13   35.82    2.41
  -4  -4  13    0.87    0.80
   4  -4 -13   -0.73    0.48
  -4  -4  13    0.69    1.14
   4  -4 -13    0.18    0.59
  -4  -4  13    0.24    0.48
  -4   4  13    0.37    0.65
  -4   4  13    0.14    0.56
   4   4 -13    0.43    0.53
  -4   4  13   -0.76    0.84
   3  -4 -13  100.05    3.51
  -3  -4  13  102.80    3.60
  -3  -4  13  101.55    4.01
  -3  -4  13  107.21    4.57
   3   4 -13  101.35    3.37
  -3   4  13  104.16    3.54
  -3   4  13  102.79    4.20
  -3   4  13  103.80    3.78
  -2  -4  13    0.71    0.41
   2  -4 -13    0.80    0.39
  -2  -4  13    1.52    1.06
  -2  -4  13    0.95    0.58
  -2   4  13    1.45    0.53
  -2   4  13    1.40    0.74
  -2   4  13    0.80    0.42
  -1  -4  13   64.70    2.37
  -1  -4  13   66.13    2.75
  -1  -4  13   63.76    3.21
   1  -4 -13   64.79    2.38
   1  -4 -13   60.17    1.99
   1   4 -13   59.01    2.13
  -1   4  13   64.20    2.99
  -1   4  13   64.74    2.34
  -1   4  13   62.58    2.58
   0  -4  13    4.39    1.09
   0  -4 -13    5.98    0.71
   0  -4  13    5.51    0.88
   0  -4  13    4.98    0.58
   0   4  13    5.81    1.10
   0   4  13    5.62    0.72
   0   4  13    4.95    0.76
   1  -4  13    4.63    0.85
   1  -4  13    1.50    1.00
   1  -4  13    3.47    0.52
   1   4  13    2.39    0.49
   1   4  13    2.76    0.70
   1   4  13    2.26    0.96
   2  -4  13    7.98    0.51
   2  -4  13    7.73    1.13
   2  -4  13    8.33    0.85
   2  -4  13    9.98    1.63
   2   4  13   10.14    1.35
   2   4  13    8.25    1.62
   2   4  13    7.41    1.12
   2   4  13    6.96    0.81
  -3  -4 -13   60.64    2.37
   3  -4  13   59.35    2.19
  -3  -4 -13   57.74    3.13
   3  -4  13   54.22    2.87
   3   4  13   53.18    4.02
   3   4  13   57.89    3.28
   3   4  13   58.18    2.51
   3   4  13   65.29    3.10
  -4  -4 -13    0.87    0.67
  -4  -4 -13    1.32    1.21
   4   4  13    0.56    0.98
   4   4  13    2.80    1.91
  -5  -4 -13   48.03    3.37
  -5  -4 -13   46.65    2.67
  -5  -4 -13   53.30    4.62
   5   4  13   56.07    4.15
  -5   4 -13   52.00    3.34
   5   4  13   52.43    2.87
  -6  -5  13   -1.02    0.97
   6  -5 -13    1.08    1.16
  -6  -5  13    1.57    2.31
  -6  -5  13    2.11    1.47
  -6   5  13    0.10    1.54
   6   5 -13    2.62    1.14
  -6   5  13    0.92    1.23
  -5  -5  13   28.06    2.27
  -5  -5  13   33.33    3.53
   5  -5 -13   24.90    1.98
  -5  -5  13   24.86    1.74
   5   5 -13   27.19    1.74
  -5   5  13   24.37    2.39
  -5   5  13   26.26    1.83
  -5   5  13   23.73    1.94
   4  -5 -13   13.68    1.18
  -4  -5  13   15.81    1.99
  -4  -5  13   13.34    1.22
  -4  -5  13   13.96    1.57
  -4   5  13   13.85    1.24
  -4   5  13   13.69    1.58
   4   5 -13   13.69    1.10
  -4   5  13   14.88    1.38
   3  -5 -13   31.91    1.57
  -3  -5  13   30.29    2.02
  -3  -5  13   33.54    1.63
  -3  -5  13   29.87    2.79
   3   5 -13   31.83    1.40
  -3   5  13   33.20    1.75
  -3   5  13   34.90    2.17
  -3   5  13   32.94    1.57
  -2  -5  13   66.09    2.48
   2  -5 -13   65.45    2.46
  -2  -5  13   64.60    2.87
  -2  -5  13   66.98    3.43
  -2   5  13   63.08    3.01
  -2   5  13   64.18    2.39
  -2   5  13   65.76    2.66
   2   5 -13   65.28    3.29
  -1  -5  13    0.78    0.40
   1  -5 -13    0.46    0.25
   1  -5 -13    0.25    0.39
  -1  -5  13   -0.54    0.63
  -1  -5  13   -0.03    1.21
  -1   5  13    0.42    0.45
  -1   5  13    0.43    0.67
  -1   5  13    0.69    0.39
   1   5 -13    0.68    0.78
   0  -5  13   51.62    2.03
   0  -5 -13   51.77    2.11
   0  -5  13   52.55    2.43
   0  -5  13   54.07    2.88
   0   5  13   52.40    2.09
   0   5  13   52.20    2.77
   0   5  13   55.57    2.39
   1  -5  13   22.33    1.59
   1  -5  13   24.34    1.22
   1  -5  13   28.41    2.24
  -1  -5 -13   21.19    1.25
   1   5  13   24.43    1.35
   1   5  13   23.31    1.57
   1   5  13   21.81    2.11
  -2  -5 -13    3.81    0.62
   2  -5  13    3.62    0.98
   2  -5  13    3.42    0.58
   2   5  13    4.67    1.02
   2   5  13    5.52    1.26
   2   5  13    3.18    0.67
   2   5  13    3.68    1.36
  -3  -5 -13   28.89    1.58
  -3  -5 -13   34.98    2.45
   3  -5  13   33.73    1.42
   3   5  13   34.16    2.34
   3   5  13   36.20    3.64
   3   5  13   33.23    3.00
   3   5  13   31.60    1.80
  -4  -5 -13    5.85    0.85
  -4  -5 -13    3.76    1.75
  -4  -5 -13    6.03    1.52
   4   5  13    5.43    1.03
   4   5  13    3.74    1.51
  -5  -5 -13   17.35    2.01
  -5  -5 -13   18.51    2.34
  -5  -5 -13   26.71    3.19
  -5   5 -13   17.72    2.06
   5   5  13   18.20    2.18
   5   5  13   24.17    2.85
  -6  -6  13    4.59    2.60
  -6  -6  13    7.75    1.35
  -6  -6  13    4.33    1.59
   6  -6 -13    7.89    1.45
  -6   6  13    8.47    1.79
   6   6 -13    6.52    1.35
  -6   6  13    5.41    1.31
  -5  -6  13    2.64    1.89
  -5  -6  13   -0.08    0.74
   5  -6 -13    0.31    0.90
  -5  -6  13    0.99    1.22
   5   6 -13   -1.26    0.74
  -5   6  13    1.09    1.18
  -5   6  13   -0.15    0.86
  -4  -6  13   12.64    1.96
  -4  -6  13   14.50    1.77
   4  -6 -13   16.89    1.32
  -4  -6  13   14.45    1.76
   4   6 -13   15.62    1.19
  -4   6  13   16.46    2.06
  -4   6  13   14.70    1.32
  -4   6  13   15.73    2.44
   3  -6 -13   18.99    1.25
  -3  -6  13   20.38    1.28
  -3  -6  13   14.62    1.87
  -3  -6  13   17.88    1.77
  -3  -6  13   19.80    0.89
   3   6 -13   17.82    1.03
  -3   6  13   18.41    1.22
   3   6 -13   15.44    1.93
  -3   6  13   20.56    1.80
  -3   6  13   19.03    1.35
  -2  -6  13   -0.26    0.33
  -2  -6  13   -0.17    0.41
   2  -6 -13    0.17    0.41
  -2  -6  13    0.15    1.10
  -2  -6  13   -0.05    0.73
  -2   6  13    0.18    0.40
   2   6 -13   -0.26    0.80
  -2   6  13   -0.08    0.64
  -2   6  13    0.44    0.52
   1  -6 -13   70.82    2.38
  -1  -6  13   76.27    3.13
  -1  -6  13   69.19    3.68
   1  -6 -13   73.48    2.72
  -1  -6  13   76.92    2.70
   1   6 -13   72.59    3.38
  -1   6  13   73.00    3.32
  -1   6  13   73.23    2.90
  -1   6  13   72.99    2.63
   0  -6  13   48.03    2.80
   0  -6  13   44.95    1.83
   0  -6 -13   46.32    1.92
   0  -6  13   44.61    2.24
   0   6  13   45.91    2.61
   0   6  13   44.84    2.14
   0   6 -13   43.33    2.41
   0   6  13   44.65    1.89
  -1  -6 -13   46.71    1.96
   1  -6  13   46.36    2.82
   1  -6  13   43.93    2.31
   1  -6  13   47.19    1.84
   1   6  13   45.15    2.00
   1   6  13   45.31    2.27
   1   6  13   43.54    2.85
  -2  -6 -13   64.88    3.25
   2  -6  13   65.40    3.19
  -2  -6 -13   66.25    2.60
   2   6  13   69.66    3.57
   2   6  13   69.97    3.94
   2   6  13   70.12    3.14
   2   6  13   70.63    2.74
  -3  -6 -13    4.63    0.71
  -3  -6 -13    2.37    1.21
   3   6  13    4.87    1.90
   3   6  13    3.73    0.80
   3   6  13    3.94    1.16
   3   6  13    6.17    1.98
  -4  -6 -13   24.32    1.56
  -4  -6 -13   26.28    3.03
  -4  -6 -13   21.06    2.48
  -4  -6 -13   21.98    1.69
   4   6  13   21.47    1.89
  -5  -6 -13    3.90    1.16
  -5  -6 -13    2.95    2.65
  -5  -6 -13    2.90    1.86
   5   6  13    5.10    2.32
   5   6  13    5.92    1.37
  -5   6 -13    5.18    1.71
  -6  -7  13    2.19    1.74
  -6  -7  13   -1.38    2.69
  -6  -7  13   -1.43    1.07
  -6   7  13    1.13    1.60
  -5  -7  13    2.96    1.38
  -5  -7  13    2.09    0.93
   5  -7 -13    1.06    1.00
  -5  -7  13   -0.45    2.17
  -5   7  13    4.31    1.30
  -5   7  13    4.34    0.95
   5   7 -13    2.29    0.89
   4  -7 -13   -0.83    0.63
  -4  -7  13   -0.20    0.58
  -4  -7  13    1.40    1.46
  -4   7  13    0.75    0.92
  -4   7  13    1.49    0.68
   4   7 -13    0.48    0.59
   4   7 -13    1.41    1.43
  -4   7  13   -0.12    0.69
  -3  -7  13    8.44    1.77
   3  -7 -13    9.64    1.06
  -3  -7  13   10.05    1.04
  -3  -7  13   11.81    1.47
  -3  -7  13    9.75    0.82
  -3   7  13    8.76    1.26
  -3   7  13   10.25    1.05
   3   7 -13    8.32    1.47
  -3   7  13    8.95    1.09
   3   7 -13   10.23    0.88
   2  -7 -13    0.18    0.32
  -2  -7  13    0.01    1.21
  -2  -7  13    0.15    0.44
  -2  -7  13    1.01    0.86
   2  -7 -13    0.16    0.28
  -2  -7  13    0.58    0.38
   2  -7 -13    0.54    0.46
  -2   7  13    1.42    0.56
  -2   7  13    1.51    0.74
   2   7 -13    0.88    1.07
  -2   7  13    0.94    0.47
   1  -7 -13   85.71    3.08
  -1  -7  13   88.09    4.09
  -1  -7  13   85.20    2.86
  -1  -7  13   83.53    3.03
   1  -7 -13   80.78    2.76
  -1  -7  13   86.63    3.53
  -1   7  13   88.64    3.03
  -1   7  13   80.62    3.23
  -1   7  13   86.41    3.71
   1   7 -13   83.91    3.82
   0  -7  13    8.56    1.51
   0  -7 -13    7.57    0.86
   0  -7  13    8.30    0.85
   0  -7 -13    7.28    0.75
   0  -7  13    5.91    0.98
   0   7  13    8.93    1.13
   0   7  13    7.10    1.26
   0   7 -13    5.95    1.15
   0   7  13    7.32    0.84
   1  -7  13  101.36    3.91
   1  -7  13  104.23    3.40
  -1  -7 -13  100.98    3.58
   1   7  13  104.11    4.58
   1   7  13  101.53    3.62
   1   7  13   98.68    3.91
   2  -7  13    5.24    0.60
  -2  -7 -13    5.03    1.27
   2  -7  13    4.79    1.19
  -2  -7 -13    3.91    0.68
   2   7  13    5.66    1.17
   2   7  13    6.08    1.58
   2   7  13    8.54    1.69
   2   7  13    3.88    0.69
  -3  -7 -13   20.77    2.55
  -3  -7 -13   19.36    1.37
  -3  -7 -13   21.37    2.36
   3   7  13   19.89    2.06
   3   7  13   23.68    2.94
   3   7  13   17.74    2.57
  -4  -7 -13   -0.49    0.74
  -4  -7 -13   -0.14    0.75
  -4  -7 -13   -0.93    1.38
  -4  -7 -13   -1.96    2.22
   4   7  13    0.18    0.91
   4   7  13    2.80    1.52
  -5  -7 -13   -0.43    2.82
  -5  -7 -13   -0.14    1.81
  -5  -7 -13    0.13    1.05
   5   7  13   -1.32    2.26
  -5   7 -13    0.74    1.61
  -5  -8  13    0.53    1.30
   5  -8 -13    1.74    1.10
  -5  -8  13   -0.05    0.91
  -5  -8  13   -1.05    2.49
  -5   8  13    1.98    0.90
  -5   8  13    0.36    1.25
  -4  -8  13   13.41    1.79
  -4  -8  13   10.02    1.15
   4  -8 -13   11.50    1.35
  -4  -8  13   10.57    2.16
   4   8 -13   12.06    2.11
  -4   8  13    7.60    1.30
   4   8 -13   13.34    1.49
  -4   8  13   11.02    1.33
   3  -8 -13   15.71    1.28
  -3  -8  13   11.24    2.00
  -3  -8  13   15.46    1.85
  -3  -8  13   16.78    1.27
  -3  -8  13   13.39    0.99
  -3   8  13   16.89    1.30
  -3   8  13   15.23    1.19
   3   8 -13   13.87    2.06
  -3   8  13   13.42    1.62
  -2  -8  13    3.33    1.00
  -2  -8  13    6.30    0.66
  -2  -8  13    5.71    0.76
  -2  -8  13    6.48    1.71
   2  -8 -13    7.14    0.64
   2  -8 -13    5.52    0.75
  -2   8  13    7.58    1.20
  -2   8  13    5.79    0.71
   2   8 -13    6.81    1.45
  -2   8  13    6.66    0.87
  -1  -8  13   68.70    2.60
   1  -8 -13   69.64    2.35
   1  -8 -13   68.82    2.65
  -1  -8  13   71.27    3.18
   1  -8 -13   67.68    2.38
  -1  -8  13   70.12    2.47
  -1  -8  13   66.95    3.80
  -1   8  13   70.45    2.59
   1   8 -13   70.12    3.50
  -1   8  13   66.35    2.82
  -1   8  13   67.85    3.23
   0  -8  13    5.96    0.70
   0  -8  13    5.97    1.09
   0  -8 -13    7.64    0.83
   0  -8 -13    6.43    0.80
   0  -8 -13    6.39    0.70
   0  -8  13    7.74    0.85
   0   8  13    5.75    0.94
   0   8  13    9.07    1.46
   0   8 -13    7.65    1.33
   0   8  13    5.57    0.74
   1  -8  13   83.18    3.29
  -1  -8 -13   72.98    2.76
  -1  -8 -13   72.85    2.81
  -1  -8 -13   73.92    3.44
   1  -8  13   72.62    2.58
   1   8  13   71.98    3.14
   1   8  13   73.91    3.72
  -1   8 -13   72.28    3.26
   1   8  13   77.06    3.90
   1   8  13   71.20    2.85
  -2  -8 -13   31.74    2.52
  -2  -8 -13   30.61    1.63
   2  -8  13   31.72    1.34
  -2  -8 -13   34.10    3.21
  -2  -8 -13   33.67    1.71
   2   8  13   33.29    3.14
   2   8  13   30.78    2.23
   2   8  13   32.13    1.81
   2   8  13   31.72    3.15
  -3  -8 -13   17.15    2.67
  -3  -8 -13   15.43    1.41
  -3  -8 -13   17.71    2.06
  -3  -8 -13   16.51    1.33
   3   8  13   10.10    1.83
   3   8  13   14.94    2.65
   3   8  13   13.91    2.63
   3   8  13   13.13    1.53
  -4  -8 -13   13.24    1.51
  -4  -8 -13   12.48    1.60
  -4  -8 -13   11.53    2.07
  -4  -8 -13   14.99    2.96
   4   8  13   14.61    2.10
   4   8  13   13.01    1.50
  -5  -8 -13    1.13    2.13
  -5  -8 -13    1.81    1.26
   5   8  13    3.44    2.43
  -5   8 -13   -3.33    1.52
  -5  -9  13   17.47    3.16
  -5  -9  13   18.50    2.24
  -5  -9  13   18.14    1.89
   5  -9 -13   21.36    1.98
  -5   9  13   18.37    2.25
   5   9 -13   23.05    3.11
  -4  -9  13   15.70    1.50
  -4  -9  13   14.88    1.94
  -4  -9  13   20.18    3.01
   4  -9 -13   15.17    1.64
  -4   9  13   13.64    1.47
   4   9 -13   20.11    2.66
  -4   9  13   14.47    1.60
   3  -9 -13    3.49    0.78
  -3  -9  13    1.59    1.14
  -3  -9  13    2.15    0.61
  -3  -9  13    1.52    2.02
  -3   9  13    3.46    0.80
  -3   9  13    0.51    1.17
   3   9 -13    0.16    1.86
  -3   9  13    3.45    0.70
   2  -9 -13   43.77    2.05
  -2  -9  13   45.54    3.73
  -2  -9  13   42.56    2.59
   2  -9 -13   43.79    1.76
  -2  -9  13   46.83    2.03
  -2  -9  13   45.27    1.85
  -2   9  13   46.83    2.56
  -2   9  13   45.90    1.95
   2   9 -13   40.29    3.03
  -2   9  13   43.66    2.12
  -1  -9  13    9.56    1.36
  -1  -9  13    8.48    0.94
  -1  -9  13   10.30    1.03
   1  -9 -13    6.98    0.72
   1  -9 -13    8.84    1.00
   1  -9 -13    9.57    1.34
   1  -9 -13    8.58    0.87
  -1   9  13   10.87    1.03
  -1   9  13    7.35    1.21
   1   9 -13   10.57    1.70
  -1   9  13   10.36    1.20
   0  -9 -13   24.91    1.46
   0  -9 -13   26.58    1.37
   0  -9  13   24.59    1.96
   0  -9  13   23.04    1.29
   0  -9  13   24.69    1.35
   0  -9 -13   21.05    2.16
   0  -9 -13   24.34    1.28
   0   9  13   29.35    2.29
   0   9 -13   29.11    2.28
   0   9  13   25.89    1.70
   0   9  13   21.70    1.42
   1  -9  13   30.62    1.42
  -1  -9 -13   31.17    1.62
   1  -9  13   35.53    2.35
  -1  -9 -13   35.32    1.66
  -1  -9 -13   30.76    1.66
  -1  -9 -13   34.86    2.62
   1   9  13   31.74    2.06
  -1   9 -13   32.69    2.32
   1   9  13   31.08    1.75
   1   9  13   34.02    2.77
   1   9  13   35.56    2.90
  -2  -9 -13    1.65    0.60
  -2  -9 -13   -0.32    1.23
  -2  -9 -13    1.32    0.66
   2   9  13    1.61    1.54
   2   9  13    1.69    0.74
   2   9  13    1.46    1.03
   2   9  13   -0.96    1.56
  -3  -9 -13   24.95    1.63
  -3  -9 -13   24.42    1.73
   3   9  13   25.22    2.37
   3   9  13   27.52    3.41
   3   9  13   22.98    3.17
   3   9  13   22.77    1.82
  -4  -9 -13    5.76    1.18
  -4  -9 -13    9.53    2.12
  -4  -9 -13   10.06    1.20
   4   9  13   10.42    1.45
   5 -10 -13   27.16    2.41
  -5 -10  13   30.95    2.26
  -5 -10  13   33.10    3.38
   5  10 -13   24.22    3.36
  -5  10  13   25.66    2.41
  -4 -10  13    7.20    1.74
   4 -10 -13    7.12    1.18
  -4 -10  13   11.41    1.28
   4  10 -13   12.11    2.45
  -4  10  13    8.81    1.08
  -4  10  13    7.34    1.31
  -3 -10  13   66.97    3.45
  -3 -10  13   64.49    2.75
  -3 -10  13   61.50    2.43
   3 -10 -13   61.91    2.70
  -3  10  13   59.48    3.08
   3  10 -13   62.40    4.13
  -3  10  13   63.71    2.54
  -3  10  13   62.78    2.65
   2 -10 -13    2.71    0.72
  -2 -10  13    2.98    0.64
   2 -10 -13    2.45    0.81
  -2 -10  13    3.00    1.24
  -2 -10  13    2.26    0.70
   2  10 -13    3.32    1.64
  -2  10  13    2.11    0.71
  -2  10  13    3.33    0.71
  -2  10  13    1.85    1.16
  -1 -10  13   20.92    1.38
  -1 -10  13   22.72    2.25
   1 -10 -13   20.83    1.31
   1 -10 -13   21.32    1.43
  -1 -10  13   22.34    1.34
  -1  10  13   21.13    1.65
  -1  10  13   18.81    2.02
  -1  10  13   23.20    1.42
   1  10 -13   25.07    2.65
   0 -10  13    2.89    0.61
   0 -10 -13    2.44    0.65
   0 -10  13    0.92    1.09
   0 -10 -13    2.44    0.63
   0 -10 -13    2.98    1.33
   0 -10 -13    2.57    0.62
   0 -10  13    2.74    0.66
   0  10  13    1.49    0.78
   0  10 -13    1.93    1.28
   0  10  13    2.58    1.17
   0  10  13    2.69    0.66
   0  10  13    3.49    1.31
  -1 -10 -13    0.52    0.56
  -1 -10 -13   -0.65    0.57
  -1 -10 -13    1.56    0.62
   1 -10  13    0.99    0.82
  -1 -10 -13    0.29    1.30
   1  10  13    0.91    0.64
   1  10  13   -0.49    0.78
   1  10  13    0.88    1.45
   1  10  13    0.97    1.31
  -1  10 -13    1.73    1.27
  -2 -10 -13   16.61    1.37
  -2 -10 -13   19.10    2.21
   2  10  13   15.67    1.50
   2  10  13   21.39    2.55
   2  10  13   16.21    2.02
   2  10  13   16.68    2.50
  -3 -10 -13   22.37    2.86
  -3 -10 -13   21.60    1.76
  -3 -10 -13   23.07    1.70
   3  10  13   27.09    5.84
   3  10  13   19.17    1.87
   3  10  13   26.72    2.60
  -4 -10 -13   17.18    2.65
  -4 -10 -13   12.29    1.49
   4  10  13   15.41    1.79
   4  10  13   12.37    2.13
  -5 -11  13   14.85    2.41
  -5 -11  13   20.39    2.25
  -5  11  13   19.89    2.44
   5  11 -13   15.72    3.33
   4 -11 -13   -1.33    0.97
  -4 -11  13    1.05    0.93
  -4 -11  13   -0.64    1.57
  -4  11  13    2.32    1.18
   4  11 -13   -0.52    2.26
  -3 -11  13   41.96    2.23
  -3 -11  13   46.90    2.06
   3 -11 -13   43.56    2.28
  -3  11  13   42.31    2.19
  -3  11  13   39.63    2.65
   3  11 -13   39.84    3.84
  -2 -11  13    1.18    0.66
  -2 -11  13    2.06    1.17
   2 -11 -13    1.67    0.67
  -2 -11  13    2.05    1.39
  -2  11  13    1.84    0.73
  -2  11  13    1.55    0.81
   2  11 -13    0.85    1.62
  -2  11  13   -0.31    0.98
  -1 -11  13   31.06    2.76
  -1 -11  13   36.29    1.76
  -1 -11  13   35.43    1.76
   1 -11 -13   33.81    1.91
   1 -11 -13   33.42    1.74
   1  11 -13   30.17    3.05
  -1  11  13   36.46    1.83
  -1  11  13   33.95    2.06
  -1  11  13   26.73    2.82
   0 -11 -13    1.86    0.65
   0 -11  13    2.48    0.65
   0 -11  13    2.19    0.67
   0 -11 -13    4.05    0.66
   0  11 -13    2.57    1.55
   0  11  13    2.98    0.75
  -1 -11 -13    0.69    0.70
  -1 -11 -13   -1.06    1.40
  -1 -11 -13   -0.04    0.73
  -1 -11 -13   -0.47    0.98
  -1  11 -13    2.10    1.49
   1  11  13    0.89    0.71
   1  11  13   -1.26    0.83
  -2 -11 -13    1.90    0.79
  -2 -11 -13    2.15    0.82
  -2 -11 -13    1.96    0.77
  -2 -11 -13    1.46    1.71
   2  11  13    1.89    0.84
   2  11  13    2.85    1.13
   2  11  13    2.98    2.11
   2  11  13    0.60    1.86
  -3 -11 -13   37.87    2.16
  -3 -11 -13   30.06    3.48
  -3 -11 -13   34.06    2.19
   3  11  13   38.63    2.40
   3  11  13   39.13    4.12
   3  11  13   32.97    3.05
   3  11  13   32.26    4.06
  -4 -11 -13   -0.11    1.10
  -4 -11 -13    3.06    2.36
   4  11  13    1.11    1.29
   4  11  13    0.50    1.89
   4 -12 -13    1.93    1.15
  -4 -12  13    0.61    1.89
  -4 -12  13   -1.60    0.99
  -4  12  13    1.09    1.31
   4  12 -13   -4.04    2.36
  -3 -12  13   35.37    2.10
  -3 -12  13   33.91    3.14
   3 -12 -13   33.43    2.18
  -3 -12  13   34.26    2.19
  -3  12  13   30.79    2.02
   3  12 -13   29.36    3.94
  -3  12  13   24.46    2.53
  -2 -12  13    1.11    1.62
  -2 -12  13    2.57    0.79
   2 -12 -13    3.11    0.83
  -2 -12  13    1.74    0.85
   2  12 -13    3.27    2.01
  -2  12  13    3.22    0.89
  -2  12  13    2.14    0.94
  -2  12  13    1.86    1.14
  -1 -12  13   23.94    1.55
  -1 -12  13   23.17    1.58
   1 -12 -13   22.46    1.62
   1 -12 -13   21.07    1.62
  -1 -12  13   22.81    2.84
  -1  12  13   19.05    2.45
  -1  12  13   21.97    1.66
  -1  12  13   22.85    2.76
  -1  12  13   22.28    1.83
   0 -12 -13   17.50    1.51
   0 -12  13   19.54    1.41
   0 -12 -13   23.19    1.58
   0 -12  13   17.35    1.50
   0  12  13   19.05    1.86
   0  12  13   21.30    2.87
   0  12 -13   19.93    2.43
   0  12  13   18.75    2.45
   0  12  13   18.95    1.61
  -1 -12 -13    0.76    0.73
  -1 -12 -13    0.05    0.70
   1  12  13    2.21    1.01
   1  12  13    2.21    1.55
   1  12  13   -0.43    1.93
   1  12  13    1.31    0.88
  -1  12 -13   -1.85    1.64
  -2 -12 -13   25.81    1.84
  -2 -12 -13   24.69    1.89
  -2 -12 -13   25.55    1.85
  -2 -12 -13   26.41    3.49
   2  12  13   29.78    3.99
   2  12  13   24.18    3.34
   2  12  13   23.57    2.44
   2  12  13   25.81    2.03
  -3 -12 -13   18.95    2.80
  -3 -12 -13   12.82    1.43
  -3 -12 -13   11.66    1.43
  -3 -12 -13   14.12    1.46
   3  12  13   10.93    1.65
   3  12  13    9.12    3.28
   3  12  13   10.55    1.93
   3  12  13   18.88    3.99
   4 -13 -13    4.29    1.27
  -4 -13  13    2.17    2.19
  -4 -13  13    4.33    1.31
  -4  13  13    5.43    1.61
   4  13 -13    3.13    2.87
  -4  13  13    1.85    2.35
  -3 -13  13   -1.02    1.96
  -3 -13  13   -0.39    0.99
   3 -13 -13    1.78    1.06
  -3  13  13    1.98    1.46
   3  13 -13    0.91    2.36
  -3  13  13    1.20    1.90
  -2 -13  13   26.69    1.85
  -2 -13  13   28.60    1.96
   2 -13 -13   23.42    1.92
  -2  13  13   21.62    2.69
  -2  13  13   27.93    2.05
   2  13 -13   21.93    3.09
  -2  13  13   29.26    2.70
  -1 -13  13    9.69    1.16
   1 -13 -13    9.79    1.22
   1 -13 -13    9.07    1.23
  -1 -13  13    9.69    1.06
  -1  13  13    6.13    1.57
  -1  13  13    7.96    1.26
   1  13 -13    6.02    2.10
  -1  13  13   13.96    2.18
  -1  13  13    8.29    1.21
   0 -13 -13   27.56    1.87
   0 -13  13   27.55    1.84
   0  13  13   23.69    2.04
   0  13  13   29.59    2.24
   0  13  13   29.31    3.02
   0  13  13   31.50    3.61
  -1 -13 -13   23.04    1.84
  -1 -13 -13   24.36    1.84
  -1  13 -13   30.36    3.25
   1  13  13   23.32    2.88
   1  13  13   25.80    3.34
   1  13  13   25.78    1.96
   1  13  13   19.15    2.12
  -2 -13 -13   10.57    1.25
  -2 -13 -13    9.57    1.28
  -2 -13 -13    8.91    1.24
   2  13  13    8.16    1.43
   2  13  13    8.35    1.61
   2  13  13   11.59    3.14
   2  13  13    7.27    2.52
  -3 -13 -13   13.27    1.55
  -3 -13 -13   13.04    1.42
  -3 -13 -13   15.06    1.56
   3  13  13   14.78    4.12
   3  13  13   19.32    3.74
   3  13  13   13.10    1.75
   3  13  13   10.16    2.10
  -3 -14  13    3.24    1.30
   3 -14 -13    3.54    1.21
  -3  14  13    3.28    2.36
  -3  14  13    3.20    1.54
   3  14 -13    0.92    2.72
   2 -14 -13    0.91    0.99
  -2 -14  13    2.11    1.03
  -2 -14  13    1.23    1.10
  -2  14  13    0.38    1.15
  -2  14  13    3.90    2.12
   2  14 -13   -0.30    2.50
  -2  14  13    1.11    1.49
   1 -14 -13   27.97    2.11
  -1 -14  13   30.94    2.11
   1 -14 -13   33.26    2.28
  -1  14  13   21.86    2.92
   1  14 -13   34.35    3.67
  -1  14  13   30.17    2.39
  -1  14  13   34.46    2.24
  -1  14  13   30.50    3.11
   0 -14  13    6.55    1.12
   0 -14 -13    6.41    1.17
   0 -14 -13    5.70    1.02
   0  14 -13    6.16    2.51
   0  14  13    7.23    1.35
   0  14  13    8.61    1.31
   0  14  13    5.11    2.38
   0  14  13    5.12    1.87
   1 -14  13   36.95    2.32
  -1 -14 -13   35.90    2.29
  -1 -14 -13   39.33    2.40
   1  14  13   37.17    2.52
   1  14  13   40.41    5.06
   1  14  13   49.18    4.35
   1  14  13   37.44    2.87
  -2 -14 -13    9.19    1.33
  -2 -14 -13   10.06    1.37
   2  14  13   11.47    1.86
   2  14  13   -1.41    3.30
   2  14  13    7.80    2.77
   2  14  13    5.76    1.43
   2 -15 -13    6.81    1.27
  -2 -15  13    4.29    1.31
  -2  15  13   -2.01    2.41
  -2  15  13    5.12    1.40
   2  15 -13   -1.29    2.72
  -2  15  13    4.00    1.85
  -1 -15  13   24.86    2.23
   1 -15 -13   23.88    2.17
   1  15 -13   27.99    3.71
  -1  15  13   21.13    2.54
  -1  15  13   21.02    3.05
  -1  15  13   24.69    2.50
   0 -15 -13    2.46    1.05
   0 -15  13    2.25    1.14
   0 -15 -13    1.20    1.24
   0  15  13    1.66    1.44
   0  15  13    1.65    1.26
   0  15 -13   -0.70    2.80
   0  15  13    3.13    1.92
   0  15  13    4.33    2.61
  -1 -15 -13   35.98    2.35
  -1 -15 -13   37.95    2.52
   1  15  13   33.98    2.66
   1  15  13   27.10    3.85
   1  15  13   29.05    2.86
   1  15  13   37.59    4.35
   0  16  13   -0.95    2.17
  -6   0  14    2.14    1.69
  -6   0  14    1.44    1.11
   6   0 -14   -0.50    1.02
  -6   0  14    2.04    1.38
  -5   0  14   -1.11    0.90
  -5   0  14   -0.26    0.66
  -5   0  14   -0.33    1.21
  -4   0  14   29.04    1.92
   4   0 -14   29.86    1.66
   4   0 -14   30.12    1.48
  -4   0  14   29.64    2.55
  -4   0  14   28.34    1.58
  -3   0  14   -1.39    0.86
   3   0 -14   -0.40    0.43
   3   0 -14    0.66    0.41
  -3   0  14    0.03    0.64
  -3   0  14    0.00    0.45
  -2   0  14   76.58    3.59
  -2   0  14   77.34    3.16
  -2   0  14   79.09    2.85
  -1   0  14    0.40    0.38
   1   0 -14    0.10    0.22
  -1   0  14    0.42    0.55
  -1   0  14    0.47    0.78
   0   0  14   30.06    1.43
   0   0  14   32.68    2.23
   0   0  14   31.06    1.72
   1   0  14    0.02    0.64
   1   0  14    0.39    1.03
   1   0  14    0.61    0.38
   2   0  14   -0.16    0.44
   2   0  14    1.01    0.78
   2   0  14    3.55    1.39
   3   0  14    0.42    1.06
   3   0  14    0.02    0.61
   4   0  14   16.54    1.54
   4   0  14   16.63    2.09
   4   0  14   16.84    1.50
  -5   0 -14   -2.39    1.37
   5   0  14   -0.60    1.00
   6  -1 -14    4.52    1.26
  -6  -1  14    4.20    1.46
  -6  -1  14    2.85    1.83
  -6  -1  14    4.98    1.16
   6   1 -14    4.87    1.20
  -6   1  14    4.39    1.20
  -6   1  14    3.36    1.38
  -6   1  14    2.88    1.75
   5  -1 -14    0.40    0.76
  -5  -1  14   -1.13    0.98
  -5  -1  14    0.13    1.36
  -5   1  14    1.15    1.00
   5   1 -14    0.94    0.83
  -5   1  14    2.01    0.78
  -5   1  14    2.02    1.31
  -4  -1  14   58.06    2.40
  -4  -1  14   58.19    3.34
   4  -1 -14   57.63    2.43
  -4  -1  14   56.68    2.79
   4  -1 -14   58.41    2.61
  -4   1  14   57.87    3.29
  -4   1  14   55.26    2.72
   4   1 -14   56.68    2.18
  -4   1  14   55.38    2.38
   4   1 -14   58.16    2.38
   3  -1 -14    6.02    0.71
  -3  -1  14    7.36    1.31
  -3  -1  14    6.71    0.76
  -3  -1  14    6.09    1.00
   3   1 -14    6.79    0.84
  -3   1  14    5.68    1.21
  -3   1  14    5.16    0.92
  -3   1  14    5.95    0.72
  -2  -1  14   83.11    2.92
  -2  -1  14   82.31    3.74
  -2  -1  14   76.20    3.24
  -2   1  14   80.27    3.19
  -2   1  14   78.96    2.89
  -2   1  14   78.94    3.61
  -1  -1  14   24.67    1.25
  -1  -1  14   25.44    1.58
  -1  -1  14   24.88    2.06
  -1   1  14   23.15    1.24
  -1   1  14   25.88    2.05
  -1   1  14   20.59    1.47
   1   1 -14   24.64    0.90
   0  -1  14   15.98    0.92
   0  -1  14   17.91    1.18
   0  -1  14   17.35    1.82
   0  -1  14   15.96    1.29
   0   1  14   17.23    1.31
   0   1  14   16.81    1.04
   0   1  14   15.72    1.77
   1  -1  14   23.24    1.65
   1  -1  14   24.60    2.36
   1  -1  14   24.94    1.31
   1   1  14   23.68    1.28
   1   1  14   21.65    2.21
   1   1  14   24.07    1.63
   2  -1  14    4.92    1.45
   2  -1  14    5.21    1.05
   2  -1  14    4.36    0.69
   2   1  14    4.60    0.99
   2   1  14    5.63    0.76
   2   1  14    7.07    1.67
   3  -1  14    6.92    1.30
   3  -1  14    9.00    1.11
   3  -1  14    6.07    0.75
   3   1  14    7.65    1.36
   3   1  14    5.35    2.15
   3   1  14    9.92    1.15
   4  -1  14   41.95    3.49
  -4  -1 -14   33.27    2.68
   4  -1  14   39.38    2.00
   4  -1  14   37.99    2.01
   4   1  14   36.46    3.14
   4   1  14   39.64    2.07
   4   1  14   38.33    2.14
  -5  -1 -14    0.61    1.52
   5   1  14   -0.61    1.12
  -5   1 -14    0.36    1.58
   6  -2 -14   11.31    1.50
  -6  -2  14   12.83    1.50
  -6  -2  14   14.81    1.91
  -6  -2  14    9.70    2.19
  -6   2  14   12.14    1.43
  -6   2  14    8.49    1.97
   6   2 -14   10.45    1.46
  -6   2  14   13.20    1.78
  -5  -2  14   30.10    3.18
   5  -2 -14   33.08    2.04
  -5  -2  14   31.61    2.33
  -5  -2  14   33.64    1.91
   5   2 -14   33.35    1.98
  -5   2  14   31.10    1.92
  -5   2  14   35.92    2.90
  -5   2  14   32.85    2.25
  -4  -2  14    1.43    1.13
  -4  -2  14    2.95    0.97
   4  -2 -14    0.60    0.60
  -4  -2  14    0.22    0.53
   4  -2 -14    1.65    0.60
   4   2 -14    1.78    0.61
  -4   2  14    1.46    0.98
  -4   2  14    0.86    0.60
  -4   2  14    1.71    0.85
   4   2 -14    0.77    0.55
  -3  -2  14   22.61    1.66
  -3  -2  14   27.31    2.39
  -3  -2  14   24.49    1.37
   3  -2 -14   23.70    1.29
  -3   2  14   23.17    1.32
   3   2 -14   22.42    1.25
  -3   2  14   23.45    2.15
  -3   2  14   23.40    1.59
   2  -2 -14   24.95    1.31
  -2  -2  14   22.47    1.27
  -2  -2  14   25.11    1.66
  -2  -2  14   26.39    2.26
  -2   2  14   24.76    1.29
  -2   2  14   26.56    2.03
  -2   2  14   24.76    1.56
  -1  -2  14    0.21    0.53
   1  -2 -14    1.08    0.21
  -1  -2  14    1.12    0.38
   1  -2 -14    1.08    0.25
  -1  -2  14    2.02    0.52
  -1  -2  14   -0.30    0.87
   1   2 -14    0.66    0.32
  -1   2  14    1.43    0.80
  -1   2  14    0.47    0.52
  -1   2  14    2.13    0.46
   0  -2  14   82.96    2.89
   0  -2  14   80.24    2.54
   0  -2  14   81.91    3.74
   0  -2  14   80.13    3.22
   0   2  14   80.74    2.89
   0   2  14   81.10    3.66
   0   2  14   79.79    3.20
   1  -2  14   10.61    0.90
   1  -2  14    7.45    1.00
   1  -2  14    8.98    1.46
   1   2  14    9.62    1.20
   1   2  14    8.03    1.38
   1   2  14    9.56    0.87
   2  -2  14   51.22    2.61
   2  -2  14   49.53    1.80
   2  -2  14   48.58    3.15
   2  -2  14   49.24    2.07
   2   2  14   50.14    3.31
   2   2  14   48.28    2.12
   2   2  14   49.71    2.55
   3  -2  14   29.83    1.58
   3  -2  14   28.41    2.27
   3  -2  14   28.53    1.41
   3   2  14   28.72    2.22
   3   2  14   30.00    1.69
   3   2  14   25.89    2.83
   4  -2  14    5.59    0.91
  -4  -2 -14    6.83    1.49
   4  -2  14    7.77    0.97
   4   2  14    4.05    1.23
   4   2  14    5.81    1.03
   4   2  14    7.26    1.69
  -5  -2 -14   14.90    2.12
   5   2  14   16.52    2.03
  -5   2 -14   14.03    2.07
  -6  -3  14   20.07    2.65
  -6  -3  14   19.05    2.66
   6  -3 -14   23.21    2.29
  -6  -3  14   25.33    2.12
  -6   3  14   22.76    2.60
   6   3 -14   24.07    2.28
  -6   3  14   23.05    2.53
  -5  -3  14    0.81    1.04
   5  -3 -14   -0.40    0.76
  -5  -3  14   -1.04    1.42
  -5  -3  14    0.01    0.69
  -5   3  14   -2.69    1.11
  -5   3  14    0.70    0.85
   5   3 -14    0.02    0.77
  -5   3  14    0.63    0.94
  -4  -3  14   12.00    1.55
   4  -3 -14   14.11    1.36
  -4  -3  14    8.77    1.61
   4  -3 -14   11.87    1.18
  -4  -3  14   11.52    1.16
   4   3 -14   13.03    1.12
  -4   3  14   10.56    1.30
  -4   3  14   13.91    1.74
   4   3 -14   14.44    1.16
  -4   3  14   14.26    1.23
   3  -3 -14    2.98    0.59
  -3  -3  14    2.65    1.21
  -3  -3  14    4.01    0.66
  -3  -3  14    5.36    0.98
  -3   3  14    3.53    0.79
   3   3 -14    4.75    0.60
  -3   3  14    3.30    1.00
  -3   3  14    3.34    0.63
  -2  -3  14    0.92    0.45
  -2  -3  14    1.05    0.68
   2  -3 -14    0.82    0.43
  -2  -3  14    3.11    1.18
  -2   3  14    2.66    0.92
  -2   3  14    0.32    0.53
  -2   3  14    1.61    0.48
  -1  -3  14   23.18    2.12
  -1  -3  14   23.00    1.09
   1  -3 -14   22.19    0.86
  -1  -3  14   22.87    1.61
   1  -3 -14   25.10    0.88
  -1  -3  14   23.78    1.25
  -1   3  14   24.42    1.26
  -1   3  14   23.35    1.48
  -1   3  14   25.25    1.97
   0  -3  14   46.76    3.25
   0  -3  14   48.33    2.35
   0  -3  14   49.77    1.99
   0   3  14   49.76    2.31
   0   3  14   51.36    2.83
   0   3  14   50.16    2.02
   1  -3  14   11.68    1.39
   1  -3  14   10.71    0.91
   1  -3  14    9.77    1.43
   1   3  14   10.69    1.56
   1   3  14   13.42    1.31
   1   3  14   11.77    0.97
   2  -3  14   83.86    2.62
   2  -3  14   84.96    3.53
   2  -3  14   83.17    3.00
   2  -3  14   79.50    4.06
   2   3  14   83.55    4.27
   2   3  14   80.85    3.51
   2   3  14   84.03    3.12
   3  -3  14    1.24    1.14
   3  -3  14    1.32    0.65
   3  -3  14    1.05    0.50
   3   3  14    2.26    1.47
   3   3  14    0.17    1.76
   3   3  14    0.27    1.04
   3   3  14    0.18    0.65
  -4  -3 -14   45.79    2.11
  -4  -3 -14   36.25    2.88
   4   3  14   45.07    2.36
   4   3  14   46.09    3.19
  -5  -3 -14   -3.08    1.99
  -5  -3 -14   -0.80    1.58
   5   3  14   -0.15    1.17
  -5   3 -14   -1.29    1.57
  -6  -4  14   29.64    2.83
  -6  -4  14   34.95    4.23
  -6  -4  14   31.44    2.34
   6  -4 -14   26.92    2.54
  -6   4  14   31.04    2.68
   6   4 -14   32.25    2.48
  -5  -4  14   -0.39    1.13
   5  -4 -14    0.90    0.89
  -5  -4  14    1.42    0.78
  -5  -4  14    1.86    1.52
  -5   4  14    1.68    1.25
   5   4 -14    2.51    0.87
  -5   4  14   -1.06    0.91
  -5   4  14    1.04    0.90
  -4  -4  14    9.22    1.35
   4  -4 -14    8.00    0.91
  -4  -4  14    9.35    1.15
  -4  -4  14    7.77    1.64
   4   4 -14    9.07    1.09
  -4   4  14   10.85    1.36
  -4   4  14    7.44    1.44
  -4   4  14    9.25    1.14
   3  -4 -14    2.50    0.59
  -3  -4  14    3.18    0.63
  -3  -4  14    3.57    0.87
  -3  -4  14    3.66    1.34
  -3   4  14    2.52    0.92
  -3   4  14    3.43    0.74
  -3   4  14    3.33    0.64
   3   4 -14    2.16    0.52
  -2  -4  14    8.06    1.52
  -2  -4  14    7.74    0.84
  -2  -4  14    5.74    1.00
   2  -4 -14    6.72    0.86
  -2   4  14    6.40    0.90
  -2   4  14    5.88    1.10
  -2   4  14    6.51    0.73
   1  -4 -14    2.14    0.30
  -1  -4  14    2.76    1.01
  -1  -4  14    3.37    0.57
  -1  -4  14    0.37    0.74
   1  -4 -14    2.06    0.48
  -1   4  14    2.28    0.64
  -1   4  14    2.82    0.94
  -1   4  14    2.11    0.50
   0  -4  14   83.05    3.32
   0  -4  14   82.04    2.89
   0  -4 -14   81.11    2.96
   0  -4  14   87.66    3.94
   0   4  14   76.51    3.21
   0   4  14   79.85    2.95
   0   4  14   83.68    3.79
   1  -4  14    0.41    0.43
   1  -4  14    0.24    1.08
   1  -4  14    0.56    0.75
   1   4  14    0.30    0.41
   1   4  14    1.31    0.64
   1   4  14    0.36    0.99
   2  -4  14   94.32    3.85
   2  -4  14   94.33    3.30
   2   4  14   94.19    3.48
   2   4  14   97.33    4.02
   2   4  14   97.42    3.93
   2   4  14   95.88    5.06
   3  -4  14    0.77    1.22
  -3  -4 -14    1.34    0.57
   3  -4  14    0.87    0.58
   3   4  14   -0.25    1.03
   3   4  14    0.68    0.67
   3   4  14    1.58    1.63
   3   4  14    1.57    1.95
  -4  -4 -14   34.24    1.92
  -4  -4 -14   32.53    2.84
   4   4  14   42.20    3.13
   4   4  14   35.40    2.21
  -5  -4 -14    3.42    1.10
  -5  -4 -14   -0.45    2.51
  -5  -4 -14    1.68    1.68
   5   4  14    3.16    1.31
   5   4  14    1.80    1.25
  -5   4 -14    1.96    1.61
   6  -5 -14   17.19    1.88
  -6  -5  14   14.54    2.14
  -6  -5  14   18.82    2.14
  -6  -5  14   19.87    2.96
  -6   5  14   15.87    1.77
   6   5 -14   22.40    2.23
  -6   5  14   10.76    2.06
  -5  -5  14    1.89    1.25
  -5  -5  14    0.49    0.83
  -5  -5  14    0.77    1.60
   5   5 -14    1.27    0.84
  -5   5  14    3.38    0.98
  -5   5  14    1.32    1.23
  -5   5  14    0.79    1.00
   4  -5 -14   18.94    1.36
  -4  -5  14   18.08    2.24
  -4   5  14   17.62    1.44
  -4   5  14   17.12    1.54
   4   5 -14   15.89    1.29
  -4   5  14   15.66    2.12
   3  -5 -14   25.68    1.43
  -3  -5  14   22.66    1.42
  -3  -5  14   22.12    2.70
  -3  -5  14   23.30    1.89
   3   5 -14   24.56    1.24
  -3   5  14   24.39    1.75
  -3   5  14   25.07    1.42
  -3   5  14   24.33    2.05
  -2  -5  14    3.85    0.66
  -2  -5  14    2.50    0.84
   2  -5 -14    2.95    0.60
  -2  -5  14    4.37    1.40
  -2   5  14    4.28    1.00
  -2   5  14    4.19    0.63
  -2   5  14    3.14    0.71
  -1  -5  14   44.97    2.33
  -1  -5  14   47.75    2.89
  -1  -5  14   45.31    1.90
   1  -5 -14   43.54    1.92
   1  -5 -14   44.35    1.53
  -1   5  14   44.78    1.88
  -1   5  14   43.52    2.10
  -1   5  14   44.74    2.53
   0  -5  14    7.37    1.37
   0  -5 -14    7.67    0.86
   0  -5  14    8.00    1.12
   0  -5  14    9.19    0.85
   0   5  14    9.19    1.10
   0   5  14    6.68    1.33
   0   5  14    7.73    0.87
  -1  -5 -14   25.14    1.40
   1  -5  14   27.87    1.85
   1  -5  14   25.21    1.33
   1  -5  14   26.69    2.49
   1   5  14   25.37    1.46
   1   5  14   25.88    1.78
   1   5  14   24.78    2.39
   2  -5  14   48.09    1.97
   2  -5  14   47.16    2.64
  -2  -5 -14   48.96    2.12
   2   5  14   47.23    2.62
   2   5  14   49.49    3.04
   2   5  14   53.89    3.70
   2   5  14   51.05    2.25
  -3  -5 -14    1.21    0.62
  -3  -5 -14    2.69    1.25
   3  -5  14    2.19    0.64
   3   5  14    2.56    1.22
   3   5  14    3.85    1.85
   3   5  14    2.49    0.74
   3   5  14    4.27    2.07
  -4  -5 -14   36.15    4.93
  -4  -5 -14   33.43    1.92
  -4  -5 -14   37.61    2.94
   4   5  14   34.91    2.24
  -5  -5 -14    2.19    1.18
  -5  -5 -14    3.53    2.73
  -5  -5 -14    4.27    1.77
   5   5  14    5.37    2.41
   5   5  14    4.20    1.39
  -5   5 -14    4.81    1.65
   5   5  14    6.30    1.43
  -6  -6  14    0.97    1.21
  -6  -6  14   -5.38    2.62
  -6  -6  14   -1.05    1.69
  -6   6  14   -1.95    1.78
  -6   6  14    1.07    1.55
  -5  -6  14   25.80    1.90
  -5  -6  14   17.04    2.57
  -5  -6  14   23.74    2.45
   5   6 -14   24.59    1.83
  -5   6  14   19.96    1.92
  -5   6  14   19.67    2.60
  -4  -6  14    4.58    0.80
  -4  -6  14    4.07    1.25
  -4  -6  14    4.84    1.68
   4  -6 -14    5.76    0.88
   4   6 -14    6.20    0.81
  -4   6  14    5.27    0.90
  -4   6  14    6.05    1.24
  -4   6  14    3.95    0.91
  -3  -6  14   26.20    1.52
   3  -6 -14   25.96    1.49
  -3  -6  14   23.35    2.94
  -3  -6  14   26.38    2.02
   3   6 -14   24.73    1.27
  -3   6  14   26.51    2.09
  -3   6  14   26.02    1.65
   3   6 -14   24.88    2.43
  -3   6  14   26.26    1.48
  -2  -6  14   27.49    2.68
   2  -6 -14   25.25    1.42
  -2  -6  14   26.98    1.93
  -2  -6  14   24.71    1.39
  -2   6  14   27.77    1.99
  -2   6  14   23.30    1.33
  -2   6  14   23.60    1.56
   2   6 -14   26.48    2.30
  -1  -6  14    3.97    0.64
  -1  -6  14    4.44    1.36
  -1  -6  14    3.80    0.93
   1  -6 -14    3.87    0.60
   1  -6 -14    3.78    0.46
   1   6 -14    4.18    1.13
  -1   6  14    4.31    1.09
  -1   6  14    4.16    0.63
  -1   6  14    3.87    0.76
   0  -6 -14   50.78    2.09
   0  -6  14   48.93    2.51
   0  -6  14   48.22    1.98
   0  -6  14   48.36    3.04
   0   6  14   50.49    2.08
   0   6  14   46.67    2.31
   0   6  14   50.92    2.93
   1  -6  14    4.28    1.00
  -1  -6 -14    3.30    0.62
   1  -6  14    3.44    0.61
   1   6  14    3.47    0.64
   1   6  14    3.51    0.88
   1   6  14    4.20    1.25
   2  -6  14   12.04    1.50
  -2  -6 -14   10.95    1.08
   2  -6  14   13.22    1.03
   2   6  14    9.38    1.83
   2   6  14   12.24    1.18
   2   6  14   12.46    1.82
   2   6  14    9.20    1.34
  -3  -6 -14   16.94    2.26
  -3  -6 -14   17.50    1.32
   3   6  14   18.54    2.20
   3   6  14   12.65    1.47
   3   6  14   17.98    2.47
   3   6  14   15.49    2.80
  -4  -6 -14    3.09    1.58
  -4  -6 -14    2.78    0.86
  -4  -6 -14    1.80    0.87
   4   6  14    4.52    1.10
   4   6  14    4.02    1.68
  -5  -6 -14    7.00    1.36
  -5  -6 -14    7.92    2.07
  -5  -6 -14    6.41    3.16
   5   6  14    6.66    2.53
  -5   6 -14    5.44    1.83
   5   6  14   10.35    1.56
   5   6  14   11.50    1.63
  -5  -7  14    0.26    0.92
  -5  -7  14    2.16    1.44
  -5  -7  14    2.40    2.22
  -5   7  14    1.06    0.99
  -5   7  14    1.19    1.32
  -4  -7  14   50.59    3.99
  -4  -7  14   43.85    2.80
  -4  -7  14   43.31    2.19
   4  -7 -14   45.20    2.20
  -4   7  14   41.09    2.21
  -4   7  14   46.61    2.19
   4   7 -14   45.70    2.85
  -4   7  14   36.56    2.63
  -3  -7  14   -0.39    0.58
  -3  -7  14   -0.76    1.63
   3  -7 -14    2.21    0.63
  -3  -7  14    1.34    1.00
  -3   7  14    0.55    0.62
  -3   7  14    1.48    0.60
  -3   7  14    1.92    0.96
   3   7 -14    2.36    1.34
   2  -7 -14   79.04    2.60
  -2  -7  14   81.64    3.54
  -2  -7  14   84.57    3.02
  -2  -7  14   77.40    4.19
  -2  -7  14   77.28    2.67
   2  -7 -14   80.64    3.01
  -2   7  14   78.12    3.56
   2   7 -14   77.19    3.93
  -2   7  14   81.50    3.19
  -2   7  14   77.56    2.89
   1  -7 -14    2.51    0.48
  -1  -7  14    2.96    0.61
  -1  -7  14    3.27    1.12
   1  -7 -14    3.00    0.55
  -1  -7  14    4.76    1.80
   1   7 -14    1.86    1.07
  -1   7  14    3.24    0.60
  -1   7  14    3.97    1.01
  -1   7  14    2.07    0.70
   0  -7 -14   34.57    1.69
   0  -7  14   33.35    1.57
   0  -7  14   32.60    2.84
   0  -7  14   32.94    2.14
   0  -7 -14   33.75    1.49
   0   7  14   34.23    1.93
   0   7  14   34.72    1.66
   0   7  14   31.14    2.50
  -1  -7 -14    0.27    0.49
   1  -7  14    1.10    0.49
   1  -7  14    1.01    0.94
   1   7  14    1.44    1.12
   1   7  14    0.75    0.57
   1   7  14    0.78    0.79
  -2  -7 -14    1.84    1.19
   2  -7  14    0.81    1.19
  -2  -7 -14    1.65    0.58
   2  -7  14    1.70    0.57
   2   7  14   -0.86    1.53
   2   7  14    1.75    1.57
   2   7  14    1.62    0.65
   2   7  14    1.45    0.99
  -3  -7 -14   -0.27    1.81
  -3  -7 -14    1.05    0.70
  -3  -7 -14    1.64    0.64
   3   7  14    0.86    2.30
   3   7  14   -0.94    1.94
   3   7  14    1.33    0.76
   3   7  14    0.65    2.22
  -4  -7 -14   19.76    1.85
  -4  -7 -14   22.04    2.54
  -4  -7 -14   21.79    2.75
   4   7  14   27.65    3.18
   4   7  14   19.26    2.03
  -5  -7 -14    6.15    4.61
  -5  -7 -14    1.20    1.21
  -5  -7 -14   -1.79    2.04
   5   7  14   -1.32    1.40
  -5   7 -14    1.62    1.79
   5   7  14   -1.94    2.42
  -5  -8  14    1.02    2.55
  -5  -8  14    8.70    1.23
  -5  -8  14    5.91    1.80
  -5   8  14    5.44    1.51
  -5   8  14    7.57    1.18
  -4  -8  14   11.98    1.76
  -4  -8  14   12.15    1.39
  -4  -8  14   13.49    2.54
   4   8 -14   12.05    2.28
  -4   8  14   11.90    1.63
  -3  -8  14    4.28    1.16
  -3  -8  14    5.74    1.32
   3  -8 -14    5.48    0.88
  -3  -8  14    6.59    2.02
  -3   8  14    3.36    1.40
  -3   8  14    6.65    0.89
  -3   8  14    5.91    0.91
  -2  -8  14   38.97    1.89
   2  -8 -14   39.39    1.92
  -2  -8  14   40.18    1.65
  -2  -8  14   41.51    3.65
  -2  -8  14   38.08    2.48
  -2   8  14   41.18    1.83
   2   8 -14   35.17    2.82
  -2   8  14   41.58    2.06
  -2   8  14   39.15    2.47
  -1  -8  14    0.22    0.45
  -1  -8  14   -0.85    1.51
  -1  -8  14    0.22    0.49
   1  -8 -14    0.14    0.42
   1  -8 -14   -0.20    0.44
   1  -8 -14   -0.43    0.43
  -1  -8  14   -1.02    0.94
  -1   8  14   -0.44    0.46
  -1   8  14   -0.80    0.79
   1   8 -14    0.12    1.04
  -1   8  14   -0.23    0.63
   0  -8  14   28.84    2.17
   0  -8  14   29.46    1.48
   0  -8 -14   30.38    1.62
   0  -8 -14   28.28    1.43
   0   8  14   30.33    1.60
   0   8 -14   29.29    2.31
   0   8  14   31.85    2.55
   0   8  14   28.85    1.84
   1  -8  14    5.97    1.30
  -1  -8 -14    8.63    1.52
   1  -8  14    8.88    0.97
  -1  -8 -14    8.67    1.00
   1   8  14   10.68    1.77
   1   8  14   11.26    1.49
   1   8  14    9.16    1.11
   1   8  14    7.88    1.71
  -2  -8 -14    0.87    0.64
  -2  -8 -14   -3.69    1.81
  -2  -8 -14    0.99    0.56
  -2  -8 -14   -0.65    1.29
   2   8  14    0.92    0.76
   2   8  14   -0.82    1.58
   2   8  14    1.17    1.68
   2   8  14    2.31    1.03
  -3  -8 -14    7.00    0.97
  -3  -8 -14    7.99    3.62
  -3  -8 -14    7.75    1.05
  -3  -8 -14   10.88    1.87
   3   8  14    6.60    1.61
   3   8  14    7.79    1.16
   3   8  14    7.21    2.58
   3   8  14    8.55    2.77
  -4  -8 -14    6.36    2.04
  -4  -8 -14    7.07    1.15
  -4  -8 -14    5.61    1.07
   4   8  14    9.07    1.44
   4   8  14   11.29    2.02
  -5  -9  14    0.07    1.04
  -5  -9  14    2.74    1.72
  -5   9  14    0.23    1.30
  -4  -9  14   20.88    2.71
  -4  -9  14   23.41    1.82
  -4  -9  14   20.69    3.13
   4  -9 -14   24.45    1.90
  -4   9  14   21.07    2.27
  -4   9  14   22.32    1.76
   4   9 -14   24.68    3.22
  -3  -9  14    9.62    2.66
  -3  -9  14   12.44    1.36
   3  -9 -14    8.35    1.42
  -3  -9  14   13.32    1.69
  -3   9  14   11.01    1.35
   3   9 -14   10.25    2.06
  -3   9  14   13.82    1.32
  -3   9  14   12.72    1.55
   2  -9 -14   20.74    1.48
  -2  -9  14   22.84    2.16
  -2  -9  14   31.77    3.81
  -2  -9  14   22.43    1.49
  -2  -9  14   19.57    1.30
   2   9 -14   20.53    2.56
  -2   9  14   17.34    1.95
  -2   9  14   19.95    1.54
  -2   9  14   24.36    1.44
  -1  -9  14   27.59    1.42
   1  -9 -14   28.40    1.59
  -1  -9  14   25.45    2.34
   1  -9 -14   26.26    1.23
  -1  -9  14   28.54    1.57
   1  -9 -14   26.90    1.36
  -1   9  14   27.69    1.56
  -1   9  14   25.78    1.75
  -1   9  14   24.62    2.22
   1   9 -14   28.81    2.55
   0  -9 -14   -0.43    0.52
   0  -9 -14   -1.86    1.20
   0  -9 -14    0.43    0.53
   0  -9  14   -0.03    1.03
   0  -9 -14   -0.44    0.53
   0  -9  14    0.69    0.55
   0   9 -14    1.27    1.13
   0   9  14    1.68    1.05
   0   9  14    0.40    0.56
   0   9  14    0.23    0.74
  -1  -9 -14   30.06    1.64
   1  -9  14   30.83    1.47
  -1  -9 -14   30.47    1.69
  -1  -9 -14   32.35    1.91
  -1  -9 -14   29.07    2.69
   1  -9  14   29.98    2.43
   1   9  14   30.99    1.79
   1   9  14   27.98    2.06
   1   9  14   29.88    3.03
   1   9  14   32.70    3.10
  -2  -9 -14   22.03    3.50
  -2  -9 -14   17.26    1.40
   2   9  14   18.30    1.64
   2   9  14   19.97    2.63
   2   9  14   19.03    2.10
   2   9  14   17.05    2.49
  -3  -9 -14   12.06    2.09
  -3  -9 -14   11.00    1.19
  -3  -9 -14    8.14    1.09
   3   9  14   14.80    3.38
   3   9  14   10.57    1.30
   3   9  14    6.95    1.52
   3   9  14   14.34    3.02
  -4  -9 -14   30.42    2.24
  -4  -9 -14   41.69    3.89
   4   9  14   27.84    2.52
   4   9  14   31.39    3.34
  -5 -10  14    6.86    1.27
  -5 -10  14    4.48    2.03
  -5  10  14    6.39    1.50
   5  10 -14    9.40    3.05
   4 -10 -14    6.16    1.21
  -4 -10  14    4.30    1.03
  -4 -10  14    7.03    1.77
   4  10 -14    3.72    2.19
  -4  10  14    4.58    1.35
  -4  10  14    5.83    1.04
  -3 -10  14    6.14    1.67
  -3 -10  14    4.97    0.92
   3 -10 -14    4.84    0.94
  -3  10  14    5.60    0.94
   3  10 -14    7.09    2.08
  -3  10  14    5.45    1.27
   2 -10 -14    8.15    1.05
  -2 -10  14    9.75    1.61
  -2 -10  14    9.50    1.13
  -2  10  14    8.91    1.00
  -2  10  14    7.25    1.29
  -2  10  14    8.99    1.15
  -1 -10  14    3.26    1.43
  -1 -10  14    0.02    0.59
   1 -10 -14    0.74    0.62
  -1 -10  14   -0.39    0.59
  -1  10  14    0.71    0.63
  -1  10  14    1.25    0.82
   1  10 -14   -0.17    1.26
   0 -10 -14   41.16    3.06
   0 -10  14   44.79    1.98
   0 -10  14   42.13    2.80
   0 -10 -14   39.74    1.90
   0 -10 -14   41.57    2.66
   0 -10 -14   40.88    1.84
   0 -10  14   43.31    1.86
   0  10  14   42.92    3.17
   0  10  14   44.12    3.09
   0  10  14   41.08    2.55
   0  10 -14   38.98    3.02
   0  10  14   43.59    2.08
  -1 -10 -14   13.07    1.32
   1 -10  14   11.69    1.18
  -1 -10 -14   13.11    1.95
  -1 -10 -14   11.74    1.24
   1  10  14   12.24    1.45
   1  10  14   11.55    2.18
   1  10  14   11.03    1.44
   1  10  14   14.91    2.19
  -1  10 -14   10.81    1.70
  -2 -10 -14   49.76    2.33
  -2 -10 -14   50.51    3.58
  -2 -10 -14   47.69    2.29
   2  10  14   50.35    2.96
   2  10  14   45.48    2.47
  -3 -10 -14   12.94    1.61
  -3 -10 -14   10.37    1.28
  -3 -10 -14   13.22    2.32
   3  10  14    7.50    1.30
   3  10  14   13.14    1.88
   3  10  14    7.71    3.53
   3  10  14   15.80    3.39
  -4 -10 -14   22.82    2.94
  -4 -10 -14   16.62    2.16
   4  10  14   16.16    2.37
   4  10  14   23.78    2.47
   4 -11 -14    9.86    1.38
  -4 -11  14    6.11    2.06
  -4 -11  14    8.83    1.28
  -4  11  14    7.55    1.50
   4  11 -14    8.56    2.54
   3 -11 -14    2.79    0.95
  -3 -11  14    0.79    1.71
  -3 -11  14    3.93    0.98
  -3  11  14    3.52    1.03
  -3  11  14    4.50    1.29
   3  11 -14   -1.72    1.99
   2 -11 -14    3.49    0.77
  -2 -11  14    3.32    1.55
  -2 -11  14    3.62    0.85
  -2 -11  14    5.60    0.90
   2  11 -14    1.65    1.76
  -2  11  14    3.16    0.88
  -2  11  14    2.88    1.14
  -2  11  14    3.14    0.97
  -1 -11  14    1.17    0.68
   1 -11 -14    0.68    0.68
  -1 -11  14    0.98    1.52
  -1 -11  14    0.20    0.67
   1 -11 -14    1.67    0.77
  -1  11  14    0.78    1.08
  -1  11  14   -0.01    0.85
   1  11 -14   -0.75    1.50
  -1  11  14    1.14    0.76
   0 -11 -14   35.20    1.94
   0 -11  14   36.08    1.73
   0 -11 -14   36.87    1.86
   0 -11 -14   36.04    1.68
   0 -11  14   36.00    1.88
   0  11  14   38.49    2.38
   0  11 -14   37.47    3.14
   0  11  14   32.14    3.25
   0  11  14   35.75    3.06
   0  11  14   35.74    2.04
  -1 -11 -14    0.09    0.75
  -1 -11 -14   -0.51    0.66
  -1 -11 -14    0.11    1.69
  -1 -11 -14   -0.38    0.74
   1  11  14    0.25    0.79
   1  11  14    0.64    1.63
  -1  11 -14   -2.00    1.46
   1  11  14    0.70    0.95
   1  11  14    3.69    1.89
  -2 -11 -14   38.83    2.17
  -2 -11 -14   43.24    2.21
  -2 -11 -14   45.22    3.79
  -2 -11 -14   42.44    2.24
   2  11  14   39.93    2.74
   2  11  14   35.36    2.34
   2  11  14   36.75    4.60
   2  11  14   42.94    4.35
  -3 -11 -14    0.50    2.22
  -3 -11 -14    4.44    1.16
  -3 -11 -14    2.32    1.09
   3  11  14   -4.42    3.47
   3  11  14    3.66    3.20
   3  11  14    1.53    1.52
   3  11  14    5.18    1.21
   4 -12 -14    4.04    1.36
  -4 -12  14    6.25    1.29
  -4 -12  14    3.05    2.15
   4  12 -14    4.11    2.60
  -4  12  14    5.44    1.62
   3 -12 -14   11.70    1.39
  -3 -12  14   12.21    2.28
  -3 -12  14   14.73    1.82
  -3  12  14   12.18    1.41
   3  12 -14   11.55    2.57
  -3  12  14    8.92    1.61
  -2 -12  14    5.83    1.02
   2 -12 -14    4.78    0.95
  -2 -12  14    5.68    2.03
  -2 -12  14    5.71    1.06
   2  12 -14    5.62    2.12
  -2  12  14    6.34    1.19
  -2  12  14    4.26    1.38
  -2  12  14    6.30    1.08
   1 -12 -14    6.10    0.99
  -1 -12  14    6.57    0.97
  -1 -12  14    7.83    1.02
   1 -12 -14   10.30    1.17
   1  12 -14    5.04    2.06
  -1  12  14    7.02    1.09
  -1  12  14    7.91    1.80
  -1  12  14    8.10    1.26
  -1  12  14    6.55    1.58
   0 -12 -14   37.43    1.99
   0 -12 -14   34.51    1.99
   0 -12  14   31.10    1.98
   0  12  14   31.19    2.22
   0  12  14   31.06    2.30
   0  12  14   38.19    3.16
   0  12 -14   36.10    3.43
   0  12  14   36.09    3.51
  -1 -12 -14   -0.12    0.71
  -1 -12 -14   -0.29    0.82
  -1 -12 -14    2.32    0.90
   1  12  14   -0.92    1.05
   1  12  14   -1.54    1.99
   1  12  14    0.59    0.91
   1  12  14    0.39    1.65
  -2 -12 -14   33.41    2.14
  -2 -12 -14   36.27    2.12
  -2 -12 -14   33.50    2.22
   2  12  14   50.24    5.29
   2  12  14   30.82    2.33
   2  12  14   27.16    2.75
   2  12  14   34.19    3.67
  -3 -12 -14    2.44    1.17
  -3 -12 -14    3.05    1.23
  -3 -12 -14    8.26    2.55
  -3 -12 -14    3.11    1.19
   3  12  14    3.91    1.72
   3  12  14    7.72    3.49
   3  12  14   -1.49    3.80
   3  12  14    3.00    1.33
  -3 -13  14   15.76    2.66
  -3 -13  14   20.04    2.15
   3 -13 -14   12.11    1.49
   3  13 -14   15.62    3.03
  -3  13  14   16.81    2.07
  -3  13  14   11.99    2.47
  -2 -13  14   11.14    1.35
  -2 -13  14   14.49    1.72
   2 -13 -14   10.69    1.33
  -2  13  14   13.57    1.54
  -2  13  14    7.73    2.15
   2  13 -14    6.39    2.44
  -2  13  14    9.90    1.80
  -1 -13  14   15.18    1.69
   1 -13 -14   17.80    1.70
  -1  13  14   16.40    2.22
  -1  13  14   15.46    1.94
  -1  13  14   15.37    2.00
   1  13 -14   20.45    2.94
  -1  13  14   13.97    2.39
   0 -13 -14   -0.89    0.95
   0 -13 -14    1.19    0.79
   0 -13  14    0.05    0.90
   0  13 -14   -0.07    2.06
   0  13  14   -0.82    1.10
   0  13  14   -1.83    1.53
   0  13  14    0.84    0.98
   0  13  14    3.98    2.02
  -1 -13 -14    8.12    1.23
  -1 -13 -14   10.66    1.29
   1  13  14   13.07    2.78
   1  13  14   10.57    1.60
   1  13  14   10.75    1.46
   1  13  14    6.24    2.29
  -2 -13 -14    8.10    1.28
  -2 -13 -14    4.33    1.21
  -2 -13 -14    6.06    1.20
   2  13  14    7.22    2.77
   2  13  14    7.73    1.44
   2  13  14    4.85    3.35
   2  13  14    4.62    1.57
  -3 -14  14    4.36    1.34
   3 -14 -14    8.55    1.46
  -3  14  14    4.60    1.78
   3  14 -14    8.01    2.99
  -3  14  14    8.15    2.76
  -2 -14  14   21.69    2.16
   2 -14 -14   15.96    2.01
  -2 -14  14   15.79    2.01
   2  14 -14   15.64    3.14
  -2  14  14   20.22    3.07
  -2  14  14   16.78    1.79
  -2  14  14   16.94    2.23
  -1 -14  14    0.15    1.03
   1 -14 -14    2.03    0.98
   1  14 -14    2.22    2.47
  -1  14  14    1.08    1.65
  -1  14  14    2.36    2.20
  -1  14  14    2.45    1.21
  -1  14  14    1.75    1.32
   0 -14 -14    9.15    1.37
   0 -14  14    5.76    1.24
   0 -14 -14    8.63    1.19
   0  14  14    8.31    1.56
   0  14  14    6.64    1.39
   0  14  14    5.91    2.47
   0  14 -14    7.13    2.62
   0  14  14    4.12    1.93
  -1 -14 -14    0.46    0.95
  -1 -14 -14    0.51    1.10
   1  14  14    1.99    2.31
   1  14  14   -0.34    2.77
   1  14  14    1.70    1.21
   1  14  14   -0.41    1.45
  -2 -14 -14    1.04    1.18
  -2 -14 -14   -1.72    1.37
   2  14  14    3.79    2.86
   2  14  14    3.79    3.73
   2  14  14   -1.34    1.29
   2  14  14    2.42    1.72
   1 -15 -14    0.10    1.15
  -1 -15  14    2.93    1.22
   1  15 -14    1.05    2.90
  -1  15  14    3.24    1.91
  -1  15  14   -0.22    1.41
  -1  15  14    4.08    2.66
   0 -15 -14   13.23    1.81
   0 -15  14   14.69    1.61
   0 -15 -14   12.90    1.58
   0  15  14   11.66    1.86
   0  15  14   15.95    1.83
   0  15  14    9.52    2.40
   0  15 -14   10.90    3.05
   0  15  14   16.36    3.17
  -1 -15 -14    1.91    1.17
  -1 -15 -14    6.61    1.39
   1  15  14    5.12    1.72
   1  15  14    4.05    1.44
   1  15  14    5.35    3.37
   1  15  14    3.25    2.58
  -6   0  15   -0.62    1.11
  -6   0  15   -0.93    1.83
   6   0 -15    0.76    1.16
  -6   0  15    0.39    1.45
  -5   0  15   39.67    3.44
   5   0 -15   46.23    2.39
  -5   0  15   41.56    2.72
  -5   0  15   41.07    2.28
  -4   0  15    1.53    0.91
  -4   0  15   -0.19    1.22
   4   0 -15    0.34    0.61
   4   0 -15    0.21    0.64
  -4   0  15    0.38    0.61
  -3   0  15   84.69    3.21
  -3   0  15   88.70    4.15
  -3   0  15   82.53    3.51
   3   0 -15   83.99    3.03
  -2   0  15    1.05    0.93
  -2   0  15   -0.45    0.55
  -2   0  15    0.08    0.42
  -1   0  15    8.02    0.84
  -1   0  15    6.63    1.00
  -1   0  15    7.64    1.34
   0   0  15    0.00    0.38
   0   0  15    1.27    0.61
   0   0  15    1.00    0.92
   1   0  15   46.27    3.06
   1   0  15   44.55    1.95
   1   0  15   45.95    2.38
   2   0  15   -0.03    1.82
   2   0  15    0.35    0.53
   2   0  15   -0.63    0.83
   3   0  15   81.93    3.80
   3   0  15   79.57    2.94
   3   0  15   79.55    3.11
   4   0  15   -0.31    0.83
   4   0  15    1.46    0.92
   4   0  15    2.05    1.81
  -5   0 -15   29.70    3.21
  -6  -1  15    4.66    1.28
  -6  -1  15    3.02    1.94
  -6  -1  15    3.86    1.55
   6  -1 -15    5.18    1.29
  -6   1  15    7.25    2.12
  -6   1  15    5.01    1.55
   6   1 -15    4.86    1.26
  -6   1  15    5.72    1.36
  -5  -1  15   30.62    1.89
  -5  -1  15   26.38    2.35
  -5  -1  15   31.54    3.18
   5  -1 -15   30.48    1.99
  -5   1  15   24.95    2.98
   5   1 -15   26.49    1.99
  -5   1  15   27.76    2.04
  -5   1  15   24.56    2.25
  -4  -1  15    5.68    0.85
   4  -1 -15    5.25    0.87
  -4  -1  15    5.14    1.61
  -4  -1  15    3.85    1.11
   4  -1 -15    4.41    0.75
  -4   1  15    4.41    1.29
   4   1 -15    5.40    0.85
   4   1 -15    4.30    0.73
  -4   1  15    4.19    1.02
  -4   1  15    5.24    0.83
  -3  -1  15   44.59    2.35
  -3  -1  15   44.90    3.08
   3  -1 -15   43.32    1.93
  -3  -1  15   45.72    2.01
  -3   1  15   44.35    2.31
  -3   1  15   44.32    1.99
  -3   1  15   44.48    2.90
  -2  -1  15    1.68    1.15
  -2  -1  15    1.80    0.53
  -2  -1  15    1.62    0.69
  -2   1  15    1.70    1.00
  -2   1  15    2.00    0.68
  -2   1  15    1.69    0.50
  -1  -1  15   13.57    1.01
  -1  -1  15   12.14    1.25
  -1  -1  15   15.30    1.94
  -1   1  15   15.80    1.89
  -1   1  15   13.58    1.34
  -1   1  15   14.86    1.01
   0  -1  15   26.26    1.75
   0  -1  15   25.43    2.28
   0  -1  15   28.51    1.40
   0   1  15   27.74    1.39
   0   1  15   25.43    2.22
   0   1  15   27.63    1.71
   1  -1  15    6.76    1.06
   1  -1  15    6.21    0.78
   1  -1  15    8.05    1.65
   1   1  15    5.87    1.35
   1   1  15    6.44    0.83
   1   1  15    6.21    1.04
   2  -1  15   26.82    1.53
   2  -1  15   24.03    3.07
   2  -1  15   28.23    2.04
   2   1  15   27.64    1.55
   2   1  15   25.86    3.02
   2   1  15   25.92    2.02
   3  -1  15   18.33    2.27
   3  -1  15   21.21    1.33
   3  -1  15   21.09    1.47
   3   1  15   21.00    2.25
   3   1  15   19.73    1.52
   4  -1  15    9.10    1.12
  -4  -1 -15    9.38    1.67
   4  -1  15    7.21    1.05
   4   1  15    6.17    1.11
   4   1  15   10.48    2.03
   4   1  15    8.63    1.22
  -5  -1 -15   12.15    2.21
  -5   1 -15   12.77    2.14
   5   1  15   18.43    1.76
  -6  -2  15    2.02    1.15
  -6  -2  15   -0.56    1.98
  -6  -2  15    1.10    1.49
   6  -2 -15    1.26    1.20
  -6   2  15    1.60    1.47
  -6   2  15    2.29    1.34
   6   2 -15    3.10    1.23
  -6   2  15   -3.29    1.67
  -5  -2  15    4.06    0.93
  -5  -2  15    6.63    1.39
   5  -2 -15    3.74    1.00
  -5  -2  15    6.34    1.83
  -5   2  15    2.64    1.20
  -5   2  15    5.06    1.54
   5   2 -15    5.77    1.73
   4  -2 -15   23.07    1.45
  -4  -2  15   23.25    2.87
  -4  -2  15   22.19    1.52
  -4   2  15   22.88    2.62
   4   2 -15   23.42    1.50
  -4   2  15   22.90    1.88
  -4   2  15   23.91    1.55
   4   2 -15   21.78    1.42
  -3  -2  15    0.76    0.76
  -3  -2  15    2.28    0.63
  -3  -2  15   -0.35    1.11
   3  -2 -15    2.17    0.59
  -3   2  15    1.50    0.58
  -3   2  15    1.56    0.96
  -3   2  15    0.76    0.66
  -2  -2  15   47.07    2.40
   2  -2 -15   46.81    2.01
  -2  -2  15   48.46    3.06
  -2  -2  15   45.07    2.01
  -2   2  15   47.70    2.01
  -2   2  15   47.59    2.29
  -2   2  15   47.68    2.83
  -1  -2  15   30.32    1.51
  -1  -2  15   32.19    2.48
  -1  -2  15   29.62    1.84
  -1   2  15   31.23    1.79
  -1   2  15   30.20    2.36
  -1   2  15   34.14    1.55
   0  -2  15   17.85    2.12
   0  -2  15   15.27    1.50
   0  -2  15   15.87    1.04
   0   2  15   17.34    1.38
   0   2  15   16.68    1.07
   0   2  15   10.62    1.46
   1  -2  15   50.92    2.06
   1  -2  15   49.10    2.48
   1  -2  15   49.34    3.29
   1   2  15   45.75    2.05
   1   2  15   49.04    3.15
   1   2  15   48.94    2.48
   2  -2  15    6.75    1.22
   2  -2  15    6.75    1.68
   2  -2  15    6.73    0.85
   2   2  15    7.45    1.19
   2   2  15    6.74    0.86
   2   2  15    6.50    1.72
   3  -2  15   20.19    2.24
   3  -2  15   21.78    1.48
   3  -2  15   21.51    1.65
   3   2  15   22.44    2.32
   3   2  15   17.82    1.54
   4  -2  15   22.24    1.73
  -4  -2 -15   20.74    2.52
   4   2  15   20.01    2.51
   4   2  15   22.57    1.89
   4   2  15   20.32    1.89
  -5  -2 -15    1.42    1.69
   5   2  15    1.89    1.34
  -5   2 -15    4.23    1.65
  -6  -3  15    4.55    1.23
  -6  -3  15    5.63    2.30
   6  -3 -15   -0.27    1.21
  -6  -3  15    0.39    1.54
  -6   3  15    4.39    1.54
  -6   3  15    3.14    1.80
   6   3 -15    3.12    1.24
  -5  -3  15   -0.54    0.76
   5  -3 -15   -0.18    0.89
  -5  -3  15    1.96    1.18
  -5  -3  15    1.69    1.57
  -5   3  15   -1.30    0.96
  -5   3  15   -2.12    0.98
  -5   3  15    2.66    1.36
  -4  -3  15    1.84    1.46
  -4  -3  15    2.40    1.16
  -4  -3  15    2.89    0.77
   4  -3 -15    2.08    0.72
   4   3 -15    3.11    0.74
  -4   3  15   -0.89    1.20
  -4   3  15    2.49    0.76
   4   3 -15    2.50    0.75
  -4   3  15    3.11    0.92
  -3  -3  15   42.97    2.42
   3  -3 -15   44.88    1.98
  -3  -3  15   46.23    3.25
  -3  -3  15   45.15    2.04
   3   3 -15   42.71    1.85
  -3   3  15   43.55    2.00
  -3   3  15   44.56    2.28
  -3   3  15   45.34    2.86
   2  -3 -15    4.77    0.67
  -2  -3  15    5.09    1.31
  -2  -3  15    6.74    0.80
  -2  -3  15    4.62    0.96
  -2   3  15    5.84    0.91
  -2   3  15    6.83    0.87
  -2   3  15    6.21    1.19
   1  -3 -15  147.02    4.82
  -1  -3  15  138.90    4.77
  -1  -3  15  147.68    5.23
  -1  -3  15  154.99    5.80
   1  -3 -15  139.94    4.29
  -1   3  15  150.63    5.64
  -1   3  15  140.94    5.09
  -1   3  15  151.17    4.82
   0  -3  15   21.17    1.66
   0  -3  15   23.13    2.30
   0  -3  15   20.97    1.22
   0   3  15   21.33    1.55
   0   3  15   22.01    2.18
   0   3  15   22.23    1.26
   1  -3  15   98.98    3.79
   1  -3  15   88.49    4.27
   1  -3  15   92.93    3.30
   1   3  15   94.65    3.40
   1   3  15   91.43    3.73
   1   3  15   92.01    4.43
   2  -3  15    8.76    1.40
   2  -3  15   11.32    1.10
   2   3  15   11.99    1.16
   2   3  15   10.87    2.08
   2   3  15    9.13    1.32
   3  -3  15    2.38    1.34
   3  -3  15    3.18    0.76
   3   3  15    3.02    1.32
   3   3  15    4.90    0.89
   3   3  15    4.35    2.40
  -4  -3 -15    0.17    1.43
  -4  -3 -15    1.69    0.84
   4   3  15    0.94    0.98
   4   3  15    2.42    1.78
  -5  -3 -15   12.39    2.13
  -5  -3 -15   18.02    3.08
   5   3  15   10.86    1.60
  -5   3 -15   10.23    2.05
   5   3  15   13.22    1.75
   6  -4 -15    1.05    1.31
  -6  -4  15   -0.04    1.15
  -6  -4  15   -3.99    2.22
  -6  -4  15    2.59    1.69
  -6   4  15   -0.51    1.92
  -6   4  15   -0.37    1.44
   6   4 -15    0.79    1.29
  -5  -4  15   -0.48    0.79
  -5  -4  15    1.23    1.20
  -5  -4  15    1.35    1.64
   5   4 -15    1.66    1.32
  -5   4  15    0.19    0.98
  -5   4  15    3.01    1.49
  -5   4  15    0.44    1.05
  -4  -4  15    1.39    1.51
   4  -4 -15    2.68    0.75
  -4  -4  15    0.02    0.98
  -4  -4  15    2.05    0.72
   4   4 -15    1.84    0.72
  -4   4  15    0.60    1.43
  -4   4  15    0.44    1.08
  -4   4  15    1.11    0.72
   3  -4 -15   30.62    1.65
  -3  -4  15   30.86    2.14
  -3  -4  15   31.72    1.68
  -3  -4  15   36.75    3.11
   3   4 -15   33.68    1.53
  -3   4  15   31.52    2.44
  -3   4  15   29.09    1.84
  -3   4  15   35.94    1.71
  -2  -4  15    5.07    1.45
   2  -4 -15    4.34    0.66
  -2  -4  15    5.54    0.73
  -2  -4  15    4.62    1.03
  -2   4  15    4.90    0.71
  -2   4  15    6.83    1.23
  -2   4  15    3.58    0.80
   1  -4 -15  102.01    3.62
  -1  -4  15  100.86    3.58
  -1  -4  15  107.06    4.62
  -1  -4  15  105.89    4.08
   1  -4 -15   99.03    3.12
  -1   4  15  105.07    4.43
  -1   4  15  104.84    3.59
  -1   4  15  103.74    3.91
   0  -4 -15   -0.70    0.37
   0  -4  15   -0.17    0.41
   0  -4  15    0.74    0.75
   0   4  15   -0.04    0.61
   0   4  15   -0.08    0.98
   0   4  15   -0.22    0.41
   1  -4  15   76.37    3.33
   1  -4  15   75.90    3.88
   1  -4  15   79.78    2.88
   1   4  15   76.19    4.03
   1   4  15   78.04    3.36
   1   4  15   81.40    3.03
   2  -4  15    2.41    0.65
   2  -4  15    2.27    1.10
   2   4  15    1.87    0.93
   2   4  15    3.71    1.86
   2   4  15    1.93    1.26
   2   4  15    2.00    0.68
   3  -4  15   10.84    1.24
  -3  -4 -15   13.58    1.24
   3  -4  15   11.65    2.45
   3   4  15   10.77    1.65
   3   4  15   10.57    2.65
  -4  -4 -15    1.74    1.49
   4   4  15    4.41    1.82
   4   4  15    2.27    1.04
  -5  -4 -15    4.15    2.82
  -5  -4 -15    2.86    1.26
  -5  -4 -15   -0.27    1.81
  -5   4 -15   -0.74    1.70
   5   4  15    1.07    1.42
   5   4  15    1.53    1.49
  -6  -5  15   16.40    3.08
  -6  -5  15   10.47    1.99
  -6  -5  15   11.72    1.53
  -6   5  15   12.92    1.73
  -6   5  15    9.86    2.12
  -5  -5  15    2.36    1.89
  -5  -5  15    5.50    1.08
  -5  -5  15    4.18    1.51
  -5   5  15    4.69    1.19
  -5   5  15    5.51    1.22
  -5   5  15    4.04    1.43
   4  -5 -15   10.05    1.07
  -4  -5  15    9.42    1.49
  -4  -5  15   12.38    2.15
  -4  -5  15    9.43    1.09
  -4   5  15    9.42    1.52
  -4   5  15    5.99    1.76
   4   5 -15   11.88    1.29
  -4   5  15   12.17    1.42
   3  -5 -15   39.43    1.87
  -3  -5  15   37.12    3.40
  -3  -5  15   38.01    1.90
  -3  -5  15   39.41    2.44
  -3   5  15   37.16    1.88
   3   5 -15   36.00    1.62
  -3   5  15   34.81    2.60
  -3   5  15   38.73    2.06
   2  -5 -15    2.15    0.59
  -2  -5  15    1.89    0.92
  -2  -5  15    2.96    0.61
  -2  -5  15    3.43    1.54
  -2   5  15    1.88    1.01
  -2   5  15    2.08    0.53
  -2   5  15    1.59    0.68
   1  -5 -15   55.60    1.93
  -1  -5  15   60.16    2.36
  -1  -5  15   60.78    3.47
  -1  -5  15   58.48    2.89
   1  -5 -15   57.78    2.39
  -1   5  15   60.52    2.65
  -1   5  15   62.17    3.16
  -1   5  15   61.01    2.36
   0  -5 -15   40.21    1.88
   0  -5  15   40.38    1.78
   0  -5  15   40.10    2.32
   0  -5  15   43.58    3.12
   0   5  15   38.05    2.10
   0   5  15   40.93    1.86
   0   5  15   40.02    2.77
   1  -5  15   37.25    2.59
   1  -5  15   31.27    3.49
  -1  -5 -15   36.35    1.78
   1  -5  15   36.17    1.70
   1   5  15   37.61    3.02
   1   5  15   36.08    2.13
   1   5  15   38.01    1.84
  -2  -5 -15   36.59    1.84
   2  -5  15   36.87    2.53
   2  -5  15   37.66    1.74
   2   5  15   36.00    1.96
   2   5  15   41.61    3.67
   2   5  15   35.62    2.95
   2   5  15   38.20    2.46
  -3  -5 -15   -0.27    0.60
   3  -5  15    0.30    0.71
  -3  -5 -15   -1.60    2.13
   3   5  15    2.67    2.70
   3   5  15    2.39    2.40
   3   5  15   -1.53    1.11
   3   5  15   -1.26    0.74
  -4  -5 -15    4.11    0.95
  -4  -5 -15    8.76    1.93
  -4  -5 -15    5.12    2.19
   4   5  15    2.98    1.87
   4   5  15    5.06    1.19
  -5  -5 -15    9.65    2.18
  -5  -5 -15   11.74    1.66
  -5  -5 -15    6.84    3.12
   5   5  15   10.23    1.64
  -5   5 -15   11.58    2.18
   5   5  15   12.63    1.74
  -5  -6  15   16.87    3.00
  -5  -6  15   22.19    2.69
  -5  -6  15   19.17    1.84
  -5   6  15   18.22    1.99
  -5   6  15   18.38    2.26
   4  -6 -15   23.66    1.67
  -4  -6  15   25.37    2.96
  -4  -6  15   22.64    1.61
  -4  -6  15   24.63    2.40
  -4   6  15   21.99    1.73
  -4   6  15   23.16    2.42
  -4   6  15   20.05    1.74
   3  -6 -15    9.77    1.16
  -3  -6  15   11.84    1.55
  -3  -6  15   12.41    2.16
  -3  -6  15    9.72    1.14
  -3   6  15   10.41    1.18
  -3   6  15   10.24    1.27
  -3   6  15    9.38    1.41
  -2  -6  15   24.47    2.00
  -2  -6  15   27.09    2.70
  -2  -6  15   24.05    1.50
   2  -6 -15   24.99    1.48
  -2   6  15   24.21    2.12
  -2   6  15   26.67    1.46
  -2   6  15   26.33    1.66
   1  -6 -15    0.25    0.37
  -1  -6  15    0.07    0.47
  -1  -6  15    1.42    1.36
   1  -6 -15    0.20    0.46
  -1  -6  15   -0.12    0.90
  -1   6  15    1.66    0.66
  -1   6  15    0.15    0.47
  -1   6  15   -0.02    0.89
   0  -6  15    1.21    1.49
   0  -6  15    1.30    0.92
   0  -6 -15    1.65    0.54
   0  -6  15    1.54    0.55
   0   6  15    1.85    0.67
   0   6  15    1.07    1.03
   0   6  15    2.25    0.60
  -1  -6 -15   30.97    1.69
   1  -6  15   34.79    1.60
   1  -6  15   34.37    2.29
   1   6  15   35.01    2.97
   1   6  15   31.22    1.74
   1   6  15   30.68    2.11
  -2  -6 -15   10.38    1.18
   2  -6  15   10.93    1.67
   2  -6  15   11.87    1.14
   2   6  15    9.77    2.23
   2   6  15   11.51    1.25
   2   6  15   14.24    1.97
   2   6  15   11.68    1.57
  -3  -6 -15   48.24    3.29
  -3  -6 -15   50.66    2.29
   3   6  15   47.01    4.43
   3   6  15   50.60    2.53
   3   6  15   47.11    3.51
   3   6  15   49.33    5.03
  -4  -6 -15   13.21    1.48
  -4  -6 -15   15.14    1.64
  -4  -6 -15   12.43    2.22
  -4  -6 -15   16.16    3.20
   4   6  15   11.80    2.08
   4   6  15   16.24    2.00
  -5  -6 -15    5.49    2.34
  -5  -6 -15    7.91    1.55
  -5  -6 -15   16.12    3.52
  -5   6 -15   10.12    2.12
   5   6  15   10.87    1.77
   5   6  15   10.93    1.70
  -5  -7  15   36.25    2.29
  -5  -7  15   34.07    3.19
  -5  -7  15   38.04    4.99
  -5   7  15   27.32    2.34
  -5   7  15   31.83    2.98
  -4  -7  15   -0.56    1.23
  -4  -7  15    3.19    0.82
  -4  -7  15    1.53    2.17
  -4   7  15    1.62    0.93
  -4   7  15    4.17    1.20
  -4   7  15    1.32    0.92
   3  -7 -15   42.53    2.05
  -3  -7  15   43.46    4.03
  -3  -7  15   42.17    2.67
  -3  -7  15   39.81    2.07
  -3   7  15   42.60    1.97
  -3   7  15   36.41    2.60
  -3   7  15   37.22    2.10
  -2  -7  15    1.41    0.60
  -2  -7  15    2.42    1.05
   2  -7 -15    1.56    0.63
  -2  -7  15   -0.38    1.66
   2   7 -15    0.22    1.13
  -2   7  15    1.43    0.95
  -2   7  15    1.53    0.71
  -2   7  15    0.93    0.57
  -1  -7  15    1.57    1.65
  -1  -7  15    1.14    0.57
   1  -7 -15    1.66    0.54
  -1  -7  15    0.68    0.97
   1  -7 -15    2.24    0.49
  -1   7  15    1.85    0.75
  -1   7  15    1.12    0.54
  -1   7  15    1.99    0.99
   0  -7  15   -0.39    0.49
   0  -7 -15    0.02    0.48
   0  -7  15    0.69    1.01
   0  -7 -15    0.40    0.49
   0   7  15   -0.12    0.64
   0   7  15    0.31    0.47
   0   7  15   -1.19    0.96
   1  -7  15   18.67    1.22
   1  -7  15   15.63    1.97
  -1  -7 -15   15.21    1.26
   1   7  15   15.54    1.71
   1   7  15   15.57    1.98
   1   7  15   17.04    1.33
  -2  -7 -15    1.85    0.63
   2  -7  15    2.22    0.67
  -2  -7 -15    2.55    1.32
   2   7  15    0.44    1.66
   2   7  15    2.00    1.81
   2   7  15    1.44    1.10
  -3  -7 -15   29.24    2.38
  -3  -7 -15   30.94    1.96
  -3  -7 -15   28.89    3.22
  -3  -7 -15   37.21    3.15
   3   7  15   36.49    4.66
   3   7  15   36.14    2.85
   3   7  15   41.74    5.14
   3   7  15   34.13    2.13
  -4  -7 -15    3.48    3.64
  -4  -7 -15    3.54    1.03
  -4  -7 -15    3.00    0.98
  -4  -7 -15    6.45    1.96
   4   7  15    4.90    1.92
   4   7  15    3.28    1.21
  -5  -8  15   23.78    3.73
  -5  -8  15   19.92    2.13
  -5  -8  15   27.03    3.02
  -5   8  15   26.17    2.14
  -5   8  15   23.59    2.38
  -4  -8  15    9.25    1.76
  -4  -8  15   11.50    2.84
  -4  -8  15    7.40    1.08
   4  -8 -15    6.91    1.09
  -4   8  15    7.51    1.16
  -4   8  15    7.92    1.49
  -3  -8  15   26.34    1.74
  -3  -8  15   28.54    3.27
  -3   8  15   30.19    1.73
  -3   8  15   26.06    2.84
  -3   8  15   26.30    2.26
   3   8 -15   24.69    3.07
  -2  -8  15   15.43    1.37
   2  -8 -15   19.42    1.40
  -2  -8  15   19.82    2.74
  -2  -8  15   21.40    2.20
  -2   8  15   18.24    1.49
   2   8 -15   21.63    2.56
  -2   8  15   19.14    1.38
  -2   8  15   16.52    2.03
  -1  -8  15    1.28    1.14
   1  -8 -15    1.65    0.62
   1  -8 -15    2.03    0.57
  -1  -8  15    0.48    0.56
   1  -8 -15    1.19    0.53
   1   8 -15    1.74    1.25
  -1   8  15    0.69    0.57
  -1   8  15    0.81    1.01
  -1   8  15    0.34    0.67
   0  -8 -15    3.93    0.66
   0  -8 -15    2.92    0.69
   0  -8  15    2.63    1.13
   0  -8  15    2.60    0.63
   0   8  15    0.28    0.77
   0   8  15    1.78    0.64
   0   8  15    2.54    1.23
   1  -8  15   27.84    2.43
   1  -8  15   22.55    1.36
  -1  -8 -15   23.40    2.52
  -1  -8 -15   23.00    1.50
   1   8  15   21.33    1.56
   1   8  15   26.53    3.02
   1   8  15   26.54    3.33
   1   8  15   22.73    1.92
  -2  -8 -15    0.29    0.66
  -2  -8 -15   -0.37    1.40
   2   8  15   -1.46    1.78
   2   8  15   -0.76    0.73
   2   8  15   -0.47    1.82
   2   8  15    1.37    1.13
  -3  -8 -15   44.08    2.38
  -3  -8 -15   51.26    2.40
  -3  -8 -15   47.09    3.45
   3   8  15   44.22    2.61
   3   8  15   54.04    5.46
   3   8  15   45.35    3.19
   3   8  15   45.09    4.53
  -4  -8 -15   -0.39    2.02
  -4  -8 -15    1.87    1.00
  -4  -8 -15    2.33    1.06
   4   8  15    4.04    1.96
   4   8  15    1.29    1.25
  -5  -9  15    4.85    1.25
  -5  -9  15    9.29    2.14
  -5   9  15    3.88    1.60
   4  -9 -15    0.13    0.91
  -4  -9  15    0.76    0.93
  -4  -9  15    3.36    1.62
  -4   9  15    0.73    1.25
  -4   9  15   -0.89    0.97
   4   9 -15    4.39    2.15
  -3  -9  15   21.41    1.68
   3  -9 -15   22.24    1.69
  -3  -9  15   19.10    2.57
  -3   9  15   21.66    2.15
  -3   9  15   19.70    1.70
   3   9 -15   19.03    2.52
  -3   9  15   23.23    1.62
  -2  -9  15    7.87    0.87
  -2  -9  15    6.00    1.45
   2  -9 -15    6.85    0.92
  -2  -9  15   11.69    1.64
  -2   9  15    6.47    1.31
  -2   9  15    3.43    1.08
  -2   9  15    7.64    0.96
   1  -9 -15   23.33    2.19
  -1  -9  15   27.89    2.41
   1  -9 -15   24.01    1.28
   1  -9 -15   22.89    1.37
  -1  -9  15   25.48    1.54
  -1   9  15   26.08    2.67
  -1   9  15   24.80    1.57
  -1   9  15   22.29    1.78
   1   9 -15   23.57    2.57
   0  -9  15   46.00    2.86
   0  -9 -15   42.93    1.89
   0  -9  15   45.46    1.91
   0  -9 -15   41.13    1.85
   0  -9 -15   40.07    2.69
   0  -9 -15   41.97    2.98
   0   9  15   42.67    3.15
   0   9  15   37.86    2.04
   0   9  15   38.85    3.14
   0   9 -15   42.25    3.00
  -1  -9 -15    6.31    1.22
  -1  -9 -15    6.46    0.91
  -1  -9 -15    5.33    1.67
   1  -9  15    6.15    0.80
  -1  -9 -15    5.40    0.86
   1   9  15    4.70    1.73
   1   9  15    5.40    1.11
   1   9  15    4.97    1.73
  -2  -9 -15   32.37    1.88
  -2  -9 -15   36.12    1.98
  -2  -9 -15   33.99    3.17
   2   9  15   33.04    2.13
   2   9  15   32.21    4.05
   2   9  15   33.07    2.56
   2   9  15   32.26    4.15
  -3  -9 -15   -0.48    0.84
  -3  -9 -15    0.57    0.89
  -3  -9 -15    1.27    1.82
   3   9  15    4.12    4.60
   3   9  15    2.08    1.44
   3   9  15   -0.02    0.97
   3   9  15    5.10    3.03
  -4  -9 -15    2.27    1.14
  -4  -9 -15    8.84    2.43
   4   9  15    0.59    1.98
   4   9  15   -0.27    1.38
  -4 -10  15    5.72    1.15
  -4 -10  15    4.38    1.85
   4 -10 -15    3.79    1.15
   4  10 -15    7.40    2.49
  -4  10  15    5.51    1.44
  -4  10  15    6.08    1.21
  -3 -10  15   15.12    2.14
  -3 -10  15   12.92    1.39
   3 -10 -15   13.44    1.40
   3  10 -15   10.79    2.33
  -3  10  15   16.72    1.90
  -3  10  15   12.86    1.71
  -3  10  15   13.35    1.73
  -2 -10  15   15.60    1.52
   2 -10 -15   16.03    1.50
  -2 -10  15   17.28    2.11
  -2 -10  15   15.55    1.35
  -2  10  15   16.85    1.94
   2  10 -15   13.83    2.15
  -2  10  15   17.64    1.53
  -2  10  15   17.26    1.68
  -1 -10  15   48.35    2.18
  -1 -10  15   46.57    3.25
   1 -10 -15   50.56    2.32
   1 -10 -15   47.40    2.22
  -1 -10  15   49.22    2.16
  -1  10  15   51.85    2.31
  -1  10  15   45.06    3.19
   1  10 -15   46.69    3.38
  -1  10  15   47.00    2.54
   0 -10 -15    7.82    0.90
   0 -10  15    9.54    1.18
   0 -10 -15    7.87    1.02
   0 -10  15    6.80    1.69
   0 -10 -15    9.50    1.00
   0  10  15    8.46    1.85
   0  10  15    8.64    1.27
   0  10 -15    9.23    1.70
   0  10  15   11.06    1.87
   0  10  15    9.84    1.14
  -1 -10 -15   32.31    1.90
  -1 -10 -15   33.73    1.92
  -1 -10 -15   35.13    1.85
  -1 -10 -15   31.88    3.32
   1  10  15   28.80    3.40
   1  10  15   33.35    3.58
   1  10  15   27.20    2.27
   1  10  15   34.10    2.04
  -2 -10 -15    0.89    0.86
  -2 -10 -15   -2.65    1.94
  -2 -10 -15    1.18    0.73
   2  10  15   -0.03    0.90
   2  10  15   -0.49    2.12
   2  10  15    0.07    1.21
   2  10  15    0.93    2.33
  -3 -10 -15    2.67    1.03
  -3 -10 -15    5.10    1.04
  -3 -10 -15    6.55    2.19
   3  10  15    5.16    3.49
   3  10  15    5.53    1.24
   3  10  15    3.21    3.69
   3  10  15    5.38    1.69
  -4 -11  15    4.43    1.15
  -4 -11  15    2.52    2.07
   4 -11 -15    2.48    1.29
  -4  11  15   -0.24    1.42
   4  11 -15    8.53    2.48
  -3 -11  15   22.63    2.60
  -3 -11  15   27.63    2.04
   3 -11 -15   20.72    1.92
  -3  11  15   24.98    2.05
  -3  11  15   25.59    2.63
   3  11 -15   22.06    3.06
  -2 -11  15    2.48    0.79
  -2 -11  15    1.87    0.87
  -2 -11  15    0.48    1.76
   2 -11 -15    1.00    0.79
  -2  11  15    1.82    1.40
  -2  11  15    0.75    0.89
  -2  11  15   -1.08    0.90
   2  11 -15    2.71    1.93
  -1 -11  15   84.77    4.43
   1 -11 -15   82.48    3.42
  -1 -11  15   90.15    3.27
   1  11 -15   84.01    4.69
  -1  11  15   89.95    3.42
  -1  11  15   81.51    4.23
  -1  11  15   83.70    3.71
   0 -11  15    0.09    0.74
   0 -11 -15   -0.64    0.68
   0 -11 -15   -0.78    0.77
   0 -11 -15   -0.15    0.77
   0  11  15   -0.01    0.80
   0  11  15    1.09    1.71
   0  11  15   -1.31    1.36
   0  11  15   -0.34    1.01
   0  11 -15    0.37    1.49
  -1 -11 -15   51.01    2.44
   1  11  15   47.35    4.03
   1  11  15   45.08    4.35
   1  11  15   46.75    2.53
   1  11  15   46.74    2.92
  -2 -11 -15   -0.72    2.05
  -2 -11 -15    0.88    0.98
  -2 -11 -15   -0.85    0.94
  -2 -11 -15   -0.22    0.85
   2  11  15    1.57    2.42
   2  11  15   -0.97    2.66
   2  11  15    0.78    1.02
   2  11  15   -0.19    1.31
  -3 -11 -15    3.86    1.20
  -3 -11 -15    2.73    1.19
  -3 -11 -15    1.92    2.52
   3  11  15    1.24    1.59
   3  11  15    7.60    3.75
   3  11  15    5.58    1.40
   3  11  15   -2.44    3.43
   3 -12 -15    2.59    1.08
  -3 -12  15    2.97    1.10
  -3 -12  15    2.39    2.20
  -3  12  15    3.07    1.52
   3  12 -15   -1.85    2.26
  -3  12  15    2.83    1.23
  -2 -12  15   15.92    2.55
   2 -12 -15   11.59    1.26
  -2 -12  15   14.52    1.70
  -2  12  15   11.22    1.85
   2  12 -15   13.77    2.65
  -2  12  15   11.26    1.48
  -2  12  15   15.93    2.24
  -1 -12  15   25.25    1.78
   1 -12 -15   27.11    1.91
   1  12 -15   26.26    3.06
  -1  12  15   27.85    2.06
  -1  12  15   24.96    3.21
  -1  12  15   22.57    2.96
  -1  12  15   28.91    2.21
   0 -12 -15    1.21    0.75
   0 -12 -15    1.05    0.93
   0  12  15   -0.09    1.91
   0  12  15    1.11    0.97
   0  12 -15    2.28    2.49
   0  12  15    2.54    1.65
   0  12  15    1.77    1.20
  -1 -12 -15   30.55    2.07
  -1 -12 -15   31.56    2.09
  -1 -12 -15   28.50    1.99
   1  12  15   31.25    3.35
   1  12  15   27.51    3.36
   1  12  15   32.39    2.61
   1  12  15   28.48    2.26
  -2 -12 -15    6.91    1.29
  -2 -12 -15    6.71    1.22
  -2 -12 -15    4.76    1.12
   2  12  15    5.70    3.31
   2  12  15    7.32    2.83
   2  12  15    4.85    1.29
   2  12  15    6.92    1.69
  -3 -12 -15    9.88    1.48
  -3 -12 -15    8.95    1.44
  -3 -12 -15    6.00    1.40
   3  12  15    4.38    1.47
   3  12  15    1.84    1.86
   3  12  15    7.67    4.19
   3  12  15    9.26    3.77
  -3 -13  15   15.85    1.62
   3 -13 -15   14.14    1.64
  -3  13  15   16.23    2.88
  -3  13  15   10.56    1.98
   3  13 -15   20.13    3.45
   2 -13 -15    0.53    0.89
  -2 -13  15   -0.71    1.08
  -2  13  15    0.50    2.03
  -2  13  15   -1.48    1.61
  -2  13  15    2.33    1.26
   2  13 -15   -2.33    2.23
  -1 -13  15    8.64    1.25
   1 -13 -15    8.58    1.19
  -1  13  15   10.17    1.39
  -1  13  15   12.72    1.58
  -1  13  15   10.28    2.02
  -1  13  15   10.41    2.49
   1  13 -15   11.14    2.53
   0 -13 -15    7.70    1.22
   0 -13 -15    9.31    1.37
   0  13 -15   10.36    2.48
   0  13  15    7.72    1.37
   0  13  15    7.28    2.46
   0  13  15    8.31    2.14
   0  13  15    9.39    1.60
  -1 -13 -15   -1.77    0.93
  -1 -13 -15   -0.25    1.07
   1  13  15    0.38    2.61
   1  13  15    1.08    1.17
   1  13  15    0.36    1.29
   1  13  15    1.87    2.27
  -2 -13 -15   16.86    2.07
  -2 -13 -15   19.36    1.81
  -2 -13 -15   21.23    2.11
   2  13  15   25.10    4.34
   2  13  15   16.64    2.23
   2  13  15   18.23    2.32
   2  13  15   19.94    3.66
  -2 -14  15   -1.22    1.57
   2 -14 -15   -0.81    1.11
  -2  14  15    0.47    1.79
  -2  14  15    1.84    1.44
   2  14 -15    0.75    2.68
  -2  14  15    3.79    2.41
   1 -14 -15    3.07    1.01
  -1 -14  15    2.14    1.13
  -1  14  15    0.42    1.31
  -1  14  15    3.99    2.03
   1  14 -15   -0.94    2.57
  -1  14  15   -1.71    1.72
  -1  14  15   -4.51    2.22
   0 -14 -15    1.05    0.99
   0  14 -15   -1.71    2.57
   0  14  15    7.27    2.13
   0  14  15    3.82    1.41
   0  14  15   -0.66    1.41
   0  14  15    0.86    2.56
  -1 -14 -15   13.75    1.57
  -1 -14 -15   15.62    1.94
   1  14  15   10.10    1.95
   1  14  15    9.54    1.62
   1  14  15   12.56    3.40
   1  14  15    8.33    2.77
  -6   0  16    8.47    2.34
  -6   0  16   14.20    2.00
  -6   0  16   15.34    1.78
   6   0 -16   15.31    1.81
  -5   0  16   -1.15    1.66
  -5   0  16    0.05    0.92
   5   0 -16   -0.41    0.96
  -5   0  16    0.36    1.24
  -4   0  16    2.87    1.79
  -4   0  16    3.47    1.03
  -4   0  16    2.22    0.78
   4   0 -16    3.55    0.81
  -3   0  16   -0.54    0.54
   3   0 -16    0.63    0.55
  -3   0  16    0.38    0.84
  -3   0  16    0.71    1.21
  -2   0  16    4.06    0.83
  -2   0  16    5.38    0.75
  -2   0  16    4.61    1.31
  -1   0  16    0.76    0.67
  -1   0  16   -0.29    0.43
  -1   0  16   -1.04    0.98
   0   0  16   55.28    2.23
   0   0  16   54.35    3.21
   0   0  16   53.05    2.59
   1   0  16   -0.47    0.44
   1   0  16    0.35    0.90
   1   0  16    0.43    1.26
   2   0  16   74.74    2.98
   2   0  16   77.86    4.65
   2   0  16   79.20    3.61
   3   0  16    0.07    0.70
   3   0  16   -1.25    1.32
   3   0  16    0.02    0.72
   4   0  16   15.40    1.95
   4   0  16   15.83    2.06
  -5   0 -16    1.40    1.90
  -6  -1  16   14.35    2.15
   6  -1 -16   17.47    2.43
  -6  -1  16   11.82    2.75
  -6  -1  16   14.93    1.78
   6   1 -16   16.00    1.77
  -6   1  16   11.22    2.39
  -6   1  16   12.98    2.00
  -6   1  16   14.93    1.85
  -5  -1  16   12.54    2.30
  -5  -1  16   11.17    1.28
   5  -1 -16   11.64    1.43
  -5  -1  16    7.52    1.54
  -5   1  16    8.97    1.48
   5   1 -16   10.22    1.29
  -5   1  16    8.64    1.96
  -5   1  16    9.20    1.31
  -4  -1  16    0.84    0.91
   4  -1 -16    0.55    0.69
  -4  -1  16    2.19    0.95
  -4   1  16    1.74    0.95
  -4   1  16    1.32    1.37
  -4   1  16    0.16    0.67
   4   1 -16    0.21    0.70
   4   1 -16    1.37    0.72
  -3  -1  16    3.88    0.97
  -3  -1  16    2.99    1.46
  -3  -1  16    3.87    0.69
   3  -1 -16    5.93    0.81
  -3   1  16    4.91    0.96
  -3   1  16    5.69    0.81
  -3   1  16    5.25    1.31
  -2  -1  16   24.86    1.43
  -2  -1  16   26.05    2.55
  -2  -1  16   22.34    1.70
  -2   1  16   22.69    1.67
  -2   1  16   27.64    2.45
  -2   1  16   23.50    1.42
  -1  -1  16    0.49    1.14
  -1  -1  16    0.20    0.65
  -1  -1  16   -0.15    0.47
  -1   1  16    0.32    0.61
  -1   1  16    0.87    0.45
  -1   1  16    1.24    0.98
   0  -1  16   87.77    4.09
   0  -1  16   84.59    3.51
   0  -1  16   85.67    3.07
   0   1  16   82.04    3.47
   0   1  16   83.48    4.04
   0   1  16   82.25    3.07
   1  -1  16   14.49    1.68
   1  -1  16   14.44    2.06
   1  -1  16   13.16    1.12
   1   1  16   15.26    1.63
   1   1  16   15.95    2.07
   1   1  16   13.77    1.15
   2  -1  16   51.77    2.88
   2  -1  16   48.11    5.14
   2  -1  16   54.24    2.34
   2   1  16   52.52    2.34
   2   1  16   50.73    2.83
   2   1  16   56.17    4.14
   3  -1  16   22.60    2.64
   3  -1  16   26.96    1.71
   3  -1  16   26.00    1.56
   3   1  16   23.66    1.76
   3   1  16   26.07    2.60
  -4  -1 -16    6.59    1.64
   4   1  16    4.63    1.17
   4   1  16    6.27    2.17
   4   1  16    4.29    1.13
  -5  -1 -16    9.33    2.06
  -5   1 -16    3.34    2.06
  -6  -2  16   12.91    2.85
  -6  -2  16   15.92    1.74
   6  -2 -16   14.36    1.79
  -6  -2  16   11.52    2.05
   6   2 -16   16.90    1.85
  -6   2  16   11.70    2.46
  -6   2  16   16.14    1.85
  -6   2  16   13.51    2.00
  -5  -2  16    6.76    2.18
  -5  -2  16    6.34    1.11
   5  -2 -16    6.81    1.19
  -5  -2  16    5.29    1.45
  -5   2  16    4.64    1.41
   5   2 -16    6.12    1.14
  -5   2  16    6.55    1.19
  -5   2  16    9.02    1.91
  -4  -2  16   28.81    2.23
  -4  -2  16   30.74    1.98
  -4  -2  16   36.86    4.17
   4  -2 -16   30.56    1.76
  -4   2  16   33.77    1.93
  -4   2  16   26.75    2.82
   4   2 -16   30.75    1.73
  -4   2  16   33.83    2.17
   4   2 -16   30.74    1.81
  -3  -2  16   28.92    1.65
  -3  -2  16   30.11    2.09
  -3  -2  16   31.79    3.01
   3  -2 -16   28.01    1.59
  -3   2  16   29.93    1.66
  -3   2  16   27.86    1.94
  -3   2  16   30.04    2.64
  -2  -2  16   16.95    1.62
  -2  -2  16   18.14    1.22
   2  -2 -16   17.80    1.27
  -2  -2  16   19.30    2.55
  -2   2  16   16.69    1.53
  -2   2  16   16.33    2.19
  -2   2  16   18.57    1.24
  -1  -2  16   55.66    3.38
  -1  -2  16   56.28    2.72
  -1  -2  16   56.15    2.29
  -1   2  16   59.71    3.31
  -1   2  16   55.90    2.29
  -1   2  16   56.43    2.61
   0  -2  16    0.23    1.21
   0  -2  16    0.23    0.78
   0  -2  16    0.94    0.50
   0   2  16    1.89    0.61
   0   2  16   -0.15    0.62
   0   2  16   -0.32    1.10
   1  -2  16   26.26    1.46
   1  -2  16   26.39    3.07
   1  -2  16   26.35    2.00
   1   2  16   25.56    2.82
   1   2  16   22.65    1.89
   1   2  16   23.45    1.43
   2  -2  16   25.36    1.54
   2  -2  16   22.15    2.21
   2   2  16   27.09    2.21
   2   2  16   22.92    2.76
   2   2  16   26.16    1.60
   3  -2  16    0.94    1.39
   3  -2  16    0.43    0.77
   3   2  16    0.79    1.36
   3   2  16   -0.25    1.07
  -4  -2 -16   26.63    2.82
   4  -2  16   29.66    2.15
   4   2  16   28.58    2.19
   4   2  16   26.67    2.17
   4   2  16   29.36    3.79
  -5  -2 -16    3.85    2.05
  -5   2 -16    7.15    2.04
  -6  -3  16    3.96    1.83
  -6  -3  16    9.36    2.80
  -6  -3  16    7.18    1.38
   6   3 -16    6.11    1.48
  -6   3  16    4.76    1.69
  -6   3  16    4.60    2.18
  -5  -3  16    3.44    2.09
  -5  -3  16    4.30    1.43
  -5  -3  16    5.23    1.11
  -5   3  16    4.39    1.29
   5   3 -16    6.55    1.17
  -5   3  16    4.81    1.69
  -5   3  16    5.94    1.24
  -4  -3  16   27.77    3.67
  -4  -3  16   23.46    2.10
  -4  -3  16   23.42    1.67
   4  -3 -16   24.76    1.64
   4   3 -16   24.67    1.66
  -4   3  16   17.75    1.87
  -4   3  16   22.51    2.71
   4   3 -16   21.59    1.59
  -4   3  16   25.33    1.74
  -3  -3  16    2.83    0.71
   3  -3 -16    2.03    0.68
  -3  -3  16    4.38    1.61
  -3  -3  16    2.73    1.01
  -3   3  16    1.55    1.15
  -3   3  16    2.20    0.66
  -3   3  16    1.72    0.79
  -2  -3  16   37.65    2.25
  -2  -3  16   34.74    1.73
   2  -3 -16   32.57    1.72
  -2  -3  16   34.57    2.96
  -2   3  16   36.59    2.65
  -2   3  16   34.79    1.70
  -2   3  16   31.58    1.93
  -1  -3  16   -0.34    0.70
  -1  -3  16   -0.21    0.42
   1  -3 -16   -0.13    0.49
  -1  -3  16    0.74    1.13
  -1   3  16    0.15    0.97
  -1   3  16   -0.08    0.41
  -1   3  16    0.94    0.67
   0  -3  16    6.63    1.42
   0  -3  16   11.74    1.02
   0  -3  16    9.79    1.31
   0   3  16    9.97    1.33
   0   3  16   11.00    1.03
   0   3  16   10.89    1.59
   1  -3  16    3.31    1.03
   1  -3  16    3.37    1.69
   1  -3  16    3.80    0.68
   1   3  16    3.37    1.49
   1   3  16    3.58    1.01
   1   3  16    3.32    0.65
   2  -3  16    4.90    1.30
   2  -3  16    2.26    0.67
   2   3  16   -0.33    1.04
   2   3  16   -0.25    1.66
   2   3  16    2.79    0.76
   3  -3  16   12.53    1.95
   3  -3  16   14.34    1.46
   3   3  16   13.29    1.55
   3   3  16   14.76    1.93
  -4  -3 -16   19.37    2.38
  -4  -3 -16   20.30    1.80
   4   3  16   26.40    2.87
   4   3  16   20.99    2.10
  -5  -3 -16    0.27    1.98
  -5  -3 -16    0.38    2.76
   5   3  16    0.50    1.54
   5   3  16    3.06    1.41
  -5   3 -16   -1.74    1.94
  -5  -4  16   -1.03    1.37
  -5  -4  16    0.26    0.90
  -5  -4  16    0.13    2.08
  -5   4  16   -0.70    1.09
  -5   4  16   -1.08    1.14
   5   4 -16    1.27    1.02
  -5   4  16    2.25    1.63
   4  -4 -16   64.95    2.69
  -4  -4  16   71.55    5.12
  -4  -4  16   62.65    3.30
  -4  -4  16   64.04    2.83
  -4   4  16   56.08    2.95
  -4   4  16   57.95    3.64
   4   4 -16   69.53    2.65
  -4   4  16   65.26    2.78
  -3  -4  16    0.62    0.61
  -3  -4  16    0.18    0.95
  -3  -4  16    1.57    1.59
   3  -4 -16    0.85    0.60
  -3   4  16    1.37    0.63
  -3   4  16    1.51    0.81
  -3   4  16   -0.06    1.11
  -2  -4  16   78.56    3.48
  -2  -4  16   75.04    4.24
  -2  -4  16   78.68    2.98
   2  -4 -16   75.86    2.93
  -2   4  16   71.15    3.15
  -2   4  16   77.70    2.91
  -2   4  16   81.25    3.84
  -1  -4  16    3.90    1.01
  -1  -4  16    4.05    0.63
   1  -4 -16    3.82    0.71
  -1  -4  16    3.56    1.35
  -1   4  16    3.58    0.67
  -1   4  16    3.71    0.84
  -1   4  16    2.38    1.14
   0  -4 -16   18.28    1.27
   0  -4  16   17.16    1.71
   0  -4  16   15.27    1.94
   0  -4  16   17.61    1.19
   0   4  16   17.66    1.53
   0   4  16   16.43    2.03
   0   4  16   20.22    1.30
   1  -4  16    9.54    1.92
   1  -4  16    9.51    1.05
   1  -4  16    9.14    1.36
   1   4  16    8.34    1.71
   1   4  16    9.16    1.12
   1   4  16    9.74    1.28
   2  -4  16    5.44    0.81
   2  -4  16    7.90    1.50
   2   4  16   11.26    2.43
   2   4  16    3.50    1.24
   2   4  16    5.57    0.87
   2   4  16    9.91    1.73
  -3  -4 -16    2.90    0.92
   3  -4  16    3.31    0.86
   3   4  16    3.05    1.49
   3   4  16    4.36    0.96
  -4  -4 -16   42.23    3.65
  -4  -4 -16   52.42    2.54
   4   4  16   55.12    4.20
   4   4  16   47.19    2.82
  -5  -5  16   11.78    2.91
  -5  -5  16    8.56    1.79
  -5  -5  16    9.65    1.32
  -5   5  16    5.79    1.79
  -5   5  16   11.37    1.50
  -5   5  16    8.42    1.43
  -4  -5  16    8.26    1.14
  -4  -5  16    7.74    1.47
  -4  -5  16    7.91    3.14
   4  -5 -16    8.35    1.09
  -4   5  16    8.45    1.12
  -4   5  16    5.40    1.49
  -4   5  16    6.90    1.20
  -3  -5  16    4.26    1.81
   3  -5 -16    4.85    0.75
  -3  -5  16    3.51    1.19
  -3   5  16    2.08    0.84
  -3   5  16    2.13    0.75
  -2  -5  16   40.74    3.61
   2  -5 -16   39.91    1.93
  -2  -5  16   42.37    1.95
  -2  -5  16   42.37    2.52
  -2   5  16   37.33    2.69
  -2   5  16   37.88    1.86
  -2   5  16   40.40    2.14
  -1  -5  16    3.06    0.99
   1  -5 -16    1.28    0.59
  -1  -5  16    0.85    1.47
  -1  -5  16    1.30    0.55
  -1   5  16    2.17    0.58
  -1   5  16    1.51    0.71
  -1   5  16    2.47    1.14
   0  -5  16   22.76    1.96
   0  -5  16   25.08    1.43
   0  -5 -16   22.86    1.44
   0   5  16   24.75    2.56
   0   5  16   24.31    1.46
   0   5  16   24.97    1.77
   1  -5  16   24.44    1.44
   1  -5  16   23.58    2.13
  -1  -5 -16   23.63    1.50
   1   5  16   25.60    1.55
   1   5  16   23.45    1.88
   1   5  16   22.92    2.86
  -2  -5 -16    1.93    0.68
   2  -5  16    0.83    1.30
   2  -5  16    2.67    0.72
   2   5  16    1.36    1.93
   2   5  16    0.41    1.56
   2   5  16    1.93    1.07
   3  -5  16   28.30    1.75
  -3  -5 -16   27.46    1.96
  -3  -5 -16   31.97    3.03
   3   5  16   26.68    2.74
   3   5  16   33.48    5.69
   3   5  16   27.35    2.01
  -4  -5 -16    6.20    1.93
  -4  -5 -16    5.27    1.10
   4   5  16    5.30    1.37
   4   5  16    7.17    2.09
  -5  -6  16    2.75    1.62
  -5  -6  16    3.57    1.14
  -5  -6  16    8.14    2.73
  -5   6  16    2.14    1.70
  -5   6  16    1.74    1.18
  -4  -6  16   16.30    1.57
  -4  -6  16   13.46    1.79
  -4   6  16   13.00    1.45
  -4   6  16   12.96    1.35
  -4   6  16   11.01    1.73
  -3  -6  16   24.28    2.79
  -3  -6  16   23.58    1.56
  -3  -6  16   20.31    3.38
   3  -6 -16   20.43    1.55
  -3   6  16   23.65    1.57
  -3   6  16   18.16    2.19
  -2  -6  16    0.80    1.07
  -2  -6  16   -0.52    0.55
   2  -6 -16    1.22    0.62
  -2  -6  16    2.38    1.68
  -2   6  16    0.47    0.58
  -2   6  16    0.02    0.71
  -2   6  16    0.47    1.03
  -1  -6  16   32.22    2.25
  -1  -6  16   35.83    1.73
   1  -6 -16   33.54    1.76
  -1  -6  16   32.17    3.33
  -1   6  16   31.32    2.02
  -1   6  16   32.57    2.62
  -1   6  16   36.26    1.76
   0  -6  16   14.18    2.40
   0  -6  16   14.06    1.64
   0  -6  16   14.93    1.18
   0  -6 -16   12.25    1.02
   0  -6 -16   14.09    1.18
   0   6  16   14.88    1.23
   0   6  16   12.57    1.51
   0   6  16   15.36    1.97
   1  -6  16   15.65    1.21
   1  -6  16   13.63    1.61
  -1  -6 -16   15.44    1.30
   1   6  16   16.17    2.28
   1   6  16   14.50    1.34
   1   6  16   15.08    1.67
   2  -6  16   28.44    1.62
   2  -6  16   28.88    2.86
  -2  -6 -16   29.08    1.78
   2   6  16   31.23    4.03
   2   6  16   26.13    1.76
   2   6  16   30.16    3.38
  -3  -6 -16    0.25    0.75
  -3  -6 -16    0.56    1.47
   3   6  16    3.00    1.39
   3   6  16   -5.71    2.68
   3   6  16    0.47    0.91
  -4  -6 -16   21.18    1.88
  -4  -6 -16   19.39    1.99
  -4  -6 -16   17.55    2.48
  -4  -6 -16   14.29    3.14
   4   6  16   16.80    2.59
   4   6  16   18.27    1.90
  -5  -7  16    2.20    1.81
  -5  -7  16    5.09    3.17
  -5  -7  16    0.48    1.04
  -5   7  16    0.70    1.30
  -5   7  16   -0.43    1.52
  -4  -7  16    6.24    1.56
  -4  -7  16    3.64    0.98
   4  -7 -16    2.11    1.03
  -4  -7  16    6.43    3.84
  -4   7  16    2.87    1.04
  -4   7  16    4.43    1.03
  -4   7  16    2.43    1.30
  -3  -7  16    0.20    0.65
  -3  -7  16    2.35    2.16
   3  -7 -16   -1.91    1.20
  -3  -7  16    0.66    1.26
  -3   7  16   -0.71    0.77
  -3   7  16    0.58    1.12
  -3   7  16    0.15    0.71
  -2  -7  16    8.93    1.44
   2  -7 -16   11.15    1.22
  -2  -7  16   12.62    1.42
  -2  -7  16   15.26    2.44
  -2   7  16   10.20    1.80
  -2   7  16   11.27    1.21
  -2   7  16   14.59    1.50
   1  -7 -16    2.20    0.64
  -1  -7  16    2.97    1.20
  -1  -7  16    2.00    0.61
  -1  -7  16    1.92    1.76
  -1   7  16    1.23    1.07
  -1   7  16    2.04    0.76
  -1   7  16    1.42    0.60
   0  -7  16   54.73    2.27
   0  -7  16   55.96    3.02
   0  -7 -16   56.54    2.17
   0  -7 -16   53.60    2.38
   0   7  16   49.54    2.70
   0   7  16   58.19    3.53
   0   7  16   57.56    2.42
   1  -7  16    1.90    0.67
  -1  -7 -16    4.16    0.83
   1  -7  16    3.35    1.30
   1   7  16    4.54    1.62
   1   7  16    3.26    1.13
   1   7  16    3.66    0.82
  -2  -7 -16   67.99    2.87
  -2  -7 -16   67.58    3.85
   2  -7  16   70.14    2.62
   2   7  16   64.91    2.97
   2   7  16   67.61    3.61
   2   7  16   67.92    4.62
   2   7  16   74.16    5.01
  -3  -7 -16    2.89    0.94
  -3  -7 -16    4.38    1.78
   3   7  16    7.83    1.74
   3   7  16    4.93    3.10
   3   7  16    3.87    1.08
  -4  -7 -16   26.18    2.09
  -4  -7 -16   27.30    3.41
  -4  -7 -16   22.46    2.17
   4   7  16   27.62    2.48
   4   7  16   19.36    2.73
  -5  -8  16    8.94    1.44
  -5  -8  16    4.10    2.05
  -5   8  16    7.29    1.39
  -5   8  16    3.19    1.71
  -4  -8  16    3.67    3.04
  -4  -8  16    8.71    1.79
  -4  -8  16    7.70    1.22
   4  -8 -16    7.05    1.15
  -4   8  16    6.68    1.57
  -4   8  16    6.36    1.20
  -3  -8  16   17.19    3.01
  -3  -8  16   22.37    1.67
  -3  -8  16   22.46    2.50
   3  -8 -16   18.90    1.63
  -3   8  16   21.80    1.65
  -3   8  16   20.45    1.78
  -3   8  16   18.01    2.16
  -2  -8  16    3.77    1.40
   2  -8 -16    2.19    0.74
  -2  -8  16    1.73    0.70
  -2   8  16    2.66    1.04
  -2   8  16    1.47    1.11
  -2   8  16    2.23    0.76
  -1  -8  16    9.15    1.15
   1  -8 -16    9.87    1.10
  -1  -8  16   10.77    1.58
  -1   8  16    9.69    2.03
  -1   8  16   11.34    1.22
  -1   8  16    9.45    1.72
   0  -8  16   33.99    1.72
   0  -8  16   32.90    2.58
   0  -8 -16   33.04    1.66
   0   8  16   34.91    1.87
   0   8  16   30.87    3.01
   1  -8  16    3.61    0.79
  -1  -8 -16    2.35    0.70
  -1  -8 -16    1.98    1.51
   1  -8  16    0.55    1.40
   1   8  16    2.23    1.58
   1   8  16    3.10    0.88
   1   8  16    3.27    1.09
   1   8  16    2.99    1.82
  -2  -8 -16   38.18    2.05
  -2  -8 -16   35.82    2.08
  -2  -8 -16   41.43    3.63
   2   8  16   32.94    2.19
   2   8  16   40.50    2.89
   2   8  16   48.29    4.44
   2   8  16   41.31    4.36
  -3  -8 -16    1.78    1.92
  -3  -8 -16    0.15    0.88
  -3  -8 -16   -1.43    0.88
   3   8  16    1.44    1.11
   3   8  16    0.76    1.57
   3   8  16   -0.04    3.75
  -4  -8 -16    7.55    2.59
  -4  -8 -16    7.38    1.34
   4   8  16    6.44    1.64
   4   8  16    7.73    2.19
   4  -9 -16    3.03    1.11
  -4  -9  16    1.87    1.74
  -4  -9  16   -1.15    0.93
  -4   9  16   -0.18    1.10
  -4   9  16    1.95    1.45
  -3  -9  16   10.01    1.86
  -3  -9  16    8.59    1.18
   3  -9 -16    8.41    1.07
  -3   9  16    6.56    1.21
   3   9 -16   10.89    2.23
  -3   9  16    8.10    1.51
  -3   9  16    8.39    1.13
   2  -9 -16   26.76    1.76
  -2  -9  16   27.79    1.79
  -2  -9  16   27.94    2.64
  -2   9  16   22.84    1.89
  -2   9  16   24.77    1.71
   2   9 -16   24.03    3.07
  -2   9  16   21.00    2.42
   1  -9 -16   -1.44    0.56
   1  -9 -16    0.74    0.70
  -1  -9  16    0.85    1.38
  -1  -9  16    0.69    0.69
  -1   9  16   -0.93    0.83
   1   9 -16   -1.92    1.38
  -1   9  16   -0.55    0.67
  -1   9  16   -0.41    1.12
   0  -9  16   43.81    1.98
   0  -9  16   41.73    2.95
   0  -9 -16   39.14    3.32
   0  -9 -16   40.40    1.91
   0  -9 -16   40.45    2.09
   0  -9 -16   42.18    1.99
   0   9  16   39.62    2.33
   0   9  16   45.29    3.45
   0   9  16   42.23    2.48
  -1  -9 -16   12.15    2.10
  -1  -9 -16    9.89    1.10
   1  -9  16   11.03    1.27
   1   9  16   13.43    1.53
   1   9  16   10.66    1.52
   1   9  16   11.62    2.42
   1   9  16   12.70    2.30
  -2  -9 -16    6.99    1.04
  -2  -9 -16   13.19    2.39
  -2  -9 -16    8.71    1.12
   2   9  16    7.92    2.60
   2   9  16    7.36    1.18
   2   9  16    7.15    1.51
   2   9  16    8.29    2.61
  -3  -9 -16   19.30    1.84
  -3  -9 -16   18.40    2.77
  -3  -9 -16   16.32    1.90
   3   9  16   18.35    2.32
   3   9  16   19.08    1.87
   3   9  16   18.35    4.02
  -4 -10  16   21.92    2.20
   4 -10 -16   28.13    2.49
  -4 -10  16   28.75    3.58
  -4  10  16   24.44    2.25
  -4  10  16   22.64    2.74
  -3 -10  16   13.49    1.71
  -3 -10  16   13.27    2.17
   3 -10 -16    9.80    1.30
   3  10 -16   12.97    2.51
  -3  10  16    8.38    1.62
  -3  10  16   12.69    1.46
  -2 -10  16   34.28    1.99
   2 -10 -16   28.73    1.94
   2  10 -16   33.71    3.45
  -2  10  16   24.85    2.70
  -2  10  16   29.60    2.20
  -2  10  16   31.19    2.06
  -1 -10  16   15.79    1.42
  -1 -10  16   16.36    2.15
   1 -10 -16   13.26    1.42
  -1  10  16   15.35    1.77
  -1  10  16   13.93    1.96
   1  10 -16   11.90    2.61
  -1  10  16   15.07    1.73
   0 -10  16    6.11    0.90
   0 -10 -16    6.54    0.95
   0 -10 -16    4.32    0.83
   0 -10 -16    7.04    0.94
   0  10  16    4.88    1.21
   0  10  16    5.59    1.74
   0  10  16    5.38    0.98
   0  10  16    2.79    1.63
  -1 -10 -16    4.64    0.98
  -1 -10 -16    7.41    1.01
  -1 -10 -16    4.64    2.20
  -1 -10 -16   10.15    1.15
   1  10  16   11.06    2.31
   1  10  16    4.04    2.05
   1  10  16    8.83    1.19
   1  10  16    6.96    1.44
  -2 -10 -16   10.48    1.27
  -2 -10 -16    7.41    1.12
  -2 -10 -16   13.28    2.59
  -2 -10 -16   13.07    1.57
   2  10  16    8.09    1.30
   2  10  16   10.50    3.02
   2  10  16    9.20    2.74
   2  10  16    7.04    1.75
  -3 -10 -16   -2.72    2.33
  -3 -10 -16    0.77    1.09
  -3 -10 -16    1.06    1.05
   3  10  16    0.20    1.76
   3  10  16   -0.83    1.24
   3  10  16   -2.38    3.54
   4 -11 -16   16.74    1.74
  -4 -11  16   16.58    1.77
  -4 -11  16   12.10    2.53
  -4  11  16   16.08    2.18
   4  11 -16   21.70    3.41
   3 -11 -16   -0.19    1.00
  -3 -11  16    2.31    2.13
  -3 -11  16    0.96    1.06
  -3  11  16    1.77    1.19
   3  11 -16    5.70    2.53
  -3  11  16    1.16    1.45
  -2 -11  16   12.78    2.33
   2 -11 -16   13.07    1.63
  -2 -11  16   16.44    1.70
  -2  11  16   13.48    1.57
  -2  11  16   11.69    1.73
  -2  11  16   13.58    1.94
   2  11 -16    9.72    2.27
  -1 -11  16    3.41    2.55
  -1 -11  16    1.78    0.85
   1 -11 -16    2.52    0.91
  -1  11  16    2.85    1.00
  -1  11  16    2.01    1.05
   1  11 -16    1.73    1.90
  -1  11  16    1.74    1.47
   0 -11  16    3.59    0.94
   0 -11 -16    1.82    0.92
   0 -11 -16    1.69    0.83
   0  11  16    3.58    1.00
   0  11  16    3.04    1.73
   0  11  16    5.58    2.12
   0  11 -16    4.68    2.11
   0  11  16    2.67    1.17
  -1 -11 -16    2.28    1.03
  -1 -11 -16    1.11    0.85
  -1 -11 -16    0.29    0.95
   1  11  16    0.29    2.29
   1  11  16   -3.95    1.76
   1  11  16    0.21    1.00
   1  11  16    0.25    1.24
  -2 -11 -16    4.40    1.12
  -2 -11 -16    3.57    3.49
  -2 -11 -16    6.08    1.25
  -2 -11 -16    3.90    1.19
   2  11  16    6.38    3.17
   2  11  16    3.33    1.21
   2  11  16    2.50    2.71
   2  11  16    3.61    1.58
  -3 -11 -16    2.32    2.68
  -3 -11 -16   -1.44    1.19
  -3 -11 -16   -0.26    1.26
  -3 -11 -16   -0.79    1.19
   3  11  16   -2.73    3.64
   3  11  16   -1.10    1.36
   3  11  16    1.18    1.86
  -3 -12  16    4.47    2.32
   3 -12 -16    3.27    1.13
  -3 -12  16    1.05    2.49
  -3  12  16    1.68    1.74
  -3  12  16    4.62    1.36
   3  12 -16   -2.14    2.40
   2 -12 -16   21.63    1.97
  -2 -12  16   25.61    2.09
  -2  12  16   19.16    2.41
  -2  12  16   23.24    2.32
   2  12 -16   19.91    2.99
   1 -12 -16   14.48    1.74
  -1 -12  16   15.43    1.77
   1  12 -16   13.51    2.56
  -1  12  16   16.50    2.16
  -1  12  16   15.21    1.59
  -1  12  16   16.29    2.32
  -1  12  16   15.87    2.72
   0 -12 -16    3.72    1.03
   0  12  16    2.39    1.30
   0  12  16    1.85    1.91
   0  12  16    0.89    2.09
   0  12  16    1.48    1.03
   0  12 -16    2.82    2.05
  -1 -12 -16   19.77    1.98
  -1 -12 -16   24.71    2.11
   1  12  16   20.79    1.96
   1  12  16   17.35    3.29
   1  12  16   23.21    3.12
   1  12  16   29.17    2.76
  -2 -12 -16   10.86    1.37
  -2 -12 -16    7.98    1.27
  -2 -12 -16    9.04    1.37
   2  12  16    7.87    3.72
   2  12  16    9.07    3.22
   2  12  16    5.59    1.41
   2  12  16    6.72    1.81
  -2 -13  16   12.45    1.47
   2 -13 -16    9.68    1.39
  -2  13  16   10.20    1.63
  -2  13  16   14.12    2.72
  -2  13  16   10.02    2.10
   2  13 -16    7.11    2.62
   1 -13 -16    1.31    1.09
   1  13 -16    1.14    2.36
  -1  13  16    3.92    2.41
  -1  13  16    2.97    1.86
  -1  13  16    3.37    1.42
  -1  13  16    4.29    1.31
   0 -13 -16   21.39    2.05
   0  13  16   19.68    2.56
   0  13  16   20.11    2.33
   0  13 -16   20.04    2.99
   0  13  16   18.14    2.71
   0  13  16   21.18    3.31
  -1 -13 -16   19.44    2.21
  -1 -13 -16   23.19    2.07
   1  13  16   24.20    3.25
   1  13  16   24.42    2.38
   1  13  16   18.73    3.45
   1  13  16   19.17    2.20
   1 -14 -16    2.70    1.12
  -1  14  16    0.30    1.53
   1  14 -16    5.23    2.82
  -1  14  16    0.78    2.02
  -1  14  16   -0.08    2.70
   0 -14 -16   10.33    1.43
   0  14  16    8.46    3.06
   0  14  16   12.33    2.58
   0  14  16   16.94    1.92
   0  14  16    9.98    1.81
  -5   0  17   10.84    1.46
  -5   0  17   11.07    1.78
  -5   0  17    9.87    2.36
   5   0 -17   11.51    1.49
  -4   0  17   -1.12    1.51
   4   0 -17    0.10    0.80
  -4   0  17    1.90    0.79
  -4   0  17    1.08    1.06
  -3   0  17   98.16    4.86
  -3   0  17   88.94    4.00
  -3   0  17   93.93    3.55
   3   0 -17   95.02    3.45
  -2   0  17   -0.59    0.57
  -2   0  17   -1.80    1.09
  -2   0  17    0.82    0.79
  -1   0  17  135.17    4.61
  -1   0  17  134.22    5.03
  -1   0  17  140.24    5.73
   0   0  17   -0.02    1.21
   0   0  17    1.05    0.83
   0   0  17   -0.37    0.46
   1   0  17   52.89    3.77
   1   0  17   52.28    2.80
   1   0  17   51.87    2.28
   2   0  17   -0.35    1.12
   2   0  17    0.16    0.65
   3   0  17    2.09    0.89
   3   0  17    0.85    0.99
   3   0  17    0.47    1.59
   4   0  17    0.42    1.17
  -5  -1  17   -0.69    1.01
  -5  -1  17    2.20    2.08
  -5  -1  17   -1.21    1.28
  -5   1  17   -0.40    1.04
  -5   1  17    0.06    1.78
   5   1 -17    0.65    1.10
  -5   1  17    0.36    1.35
  -4  -1  17   20.63    2.18
  -4  -1  17   24.80    3.30
  -4  -1  17   20.42    1.68
   4  -1 -17   22.43    1.67
  -4   1  17   16.25    1.99
  -4   1  17   22.03    1.77
   4   1 -17   21.55    1.66
  -4   1  17   23.80    3.16
  -3  -1  17   18.68    1.43
  -3  -1  17   21.21    2.45
  -3  -1  17   18.34    1.85
   3  -1 -17   17.39    1.40
  -3   1  17   17.34    1.39
  -3   1  17   15.94    1.84
  -3   1  17   17.38    2.14
  -2  -1  17   20.06    1.77
  -2  -1  17   21.28    2.72
  -2  -1  17   22.05    1.44
  -2   1  17   22.76    2.60
  -2   1  17   22.62    1.71
  -2   1  17   20.46    1.39
  -1  -1  17   32.33    1.68
  -1  -1  17   35.47    2.12
  -1  -1  17   35.31    3.00
  -1   1  17   33.36    2.13
  -1   1  17   34.12    1.68
  -1   1  17   33.54    2.90
   0  -1  17    0.31    0.50
   0  -1  17   -1.19    1.18
   0  -1  17    1.44    0.92
   0   1  17    0.38    1.18
   0   1  17    0.64    0.52
   0   1  17   -0.13    0.71
   1  -1  17   24.77    3.24
   1  -1  17   27.73    1.55
   1  -1  17   26.90    2.10
   1   1  17   22.91    3.13
   1   1  17   24.71    2.02
   1   1  17   23.82    1.51
   2  -1  17   26.60    2.43
   2  -1  17   26.14    1.65
   2   1  17   31.31    3.33
   2   1  17   22.70    1.65
   2   1  17   22.26    2.23
   3  -1  17    7.39    1.88
   3   1  17    9.62    1.85
   3   1  17    6.48    1.11
   4  -1  17   25.63    2.27
  -4  -1 -17   23.25    2.61
   4   1  17   22.98    2.27
  -5  -2  17    6.26    1.19
  -5  -2  17    5.56    2.26
  -5  -2  17    5.28    1.64
   5   2 -17    6.78    1.29
  -5   2  17    7.54    1.51
  -5   2  17    5.95    1.94
  -5   2  17    5.88    1.44
   4  -2 -17    0.64    0.79
  -4  -2  17    1.56    0.85
  -4  -2  17    1.57    1.76
  -4  -2  17    1.94    1.13
  -4   2  17    0.05    1.36
  -4   2  17    0.27    1.04
   4   2 -17    0.19    0.83
  -4   2  17    1.19    1.50
  -3  -2  17   15.58    2.14
   3  -2 -17   16.93    1.38
  -3  -2  17   19.56    2.44
  -3  -2  17   14.42    1.40
  -3   2  17   13.62    1.36
  -3   2  17   18.15    2.69
  -3   2  17   16.50    2.08
  -2  -2  17   27.78    2.02
   2  -2 -17   27.55    1.60
  -2  -2  17   29.80    1.60
  -2  -2  17   31.62    3.00
  -2   2  17   25.78    1.85
  -2   2  17   28.18    1.61
  -2   2  17   26.82    2.64
  -1  -2  17   18.22    1.64
  -1  -2  17   13.64    1.16
  -1  -2  17   12.77    1.88
  -1   2  17   17.49    2.06
  -1   2  17   12.41    1.44
  -1   2  17   13.85    1.17
   0  -2  17   43.27    1.91
   0  -2  17   40.14    2.41
   0  -2  17   35.80    3.03
   0   2  17   40.13    1.93
   0   2  17   42.54    3.16
   0   2  17   42.64    2.36
   1  -2  17    0.72    1.00
   1  -2  17    5.37    1.92
   1  -2  17    1.82    0.61
   1   2  17    0.87    0.53
   1   2  17    2.71    1.00
   1   2  17   -0.56    1.54
   2  -2  17   12.01    1.35
   2  -2  17    9.28    1.57
   2   2  17   13.42    1.75
   2   2  17    9.66    1.24
   2   2  17   16.19    2.56
   3  -2  17    8.70    1.99
   3  -2  17   12.53    1.56
   3   2  17   13.17    1.66
   3   2  17   10.16    1.94
  -4  -2 -17    0.81    1.71
   4   2  17    0.54    1.19
   4   2  17   -0.41    1.16
   4   2  17    0.92    2.34
  -5  -3  17   29.69    2.34
  -5  -3  17   44.39    4.78
  -5  -3  17   37.81    2.91
  -5   3  17   34.53    2.72
  -5   3  17   37.13    2.60
   5   3 -17   42.69    2.48
  -5   3  17   28.51    3.69
  -4  -3  17    7.05    1.40
   4  -3 -17    7.22    1.04
  -4  -3  17    6.34    0.96
  -4  -3  17    7.20    2.02
  -4   3  17    3.92    1.14
   4   3 -17    6.29    1.09
  -4   3  17    7.79    1.74
   3  -3 -17   13.19    1.36
  -3  -3  17   15.04    2.23
  -3   3  17   15.63    1.38
  -3   3  17   15.62    2.26
   2  -3 -17    1.65    0.63
  -2  -3  17    0.38    0.54
  -2  -3  17    1.37    0.94
  -2  -3  17    0.72    1.35
  -2   3  17    0.44    0.77
  -2   3  17    0.45    0.58
  -2   3  17    0.73    1.12
   1  -3 -17   11.80    1.16
  -1  -3  17   13.15    2.03
  -1  -3  17   17.83    1.69
  -1  -3  17   13.63    1.13
  -1   3  17   11.79    1.68
  -1   3  17   12.88    1.14
  -1   3  17   13.74    1.45
   0  -3  17    0.71    1.36
   0  -3  17    1.09    0.93
   0  -3  17    1.29    0.54
   0   3  17    0.55    0.50
   0   3  17    0.76    1.36
   0   3  17    1.74    0.83
   1  -3  17   91.74    5.11
   1  -3  17   98.03    4.06
   1  -3  17   98.81    3.49
   1   3  17   94.74    4.01
   1   3  17   93.59    4.94
   1   3  17   93.85    3.57
   2  -3  17    8.48    1.55
   2  -3  17    8.24    1.02
   2   3  17    5.62    1.36
   2   3  17    8.72    1.74
   2   3  17    7.43    2.59
   2   3  17    6.85    1.45
   3  -3  17   85.49    3.26
   3   3  17   77.90    3.40
  -4  -3 -17    5.07    1.16
  -4  -3 -17    4.34    1.87
   4   3  17    4.77    2.37
   4   3  17    5.41    1.35
   4   3  17    4.58    1.29
  -5  -4  17   19.55    2.32
  -5  -4  17   18.65    2.07
  -5  -4  17   16.07    3.02
  -5   4  17   21.00    2.38
  -5   4  17   18.72    1.81
  -5   4  17   15.10    2.38
  -4  -4  17    0.79    0.82
  -4  -4  17    1.03    1.22
  -4  -4  17    3.57    2.05
   4  -4 -17    0.64    0.86
  -4   4  17    0.54    1.42
  -4   4  17    0.02    0.92
  -3  -4  17    5.36    0.86
   3  -4 -17    5.66    0.86
  -3  -4  17    6.10    1.41
  -3  -4  17    6.65    2.02
  -3   4  17    4.95    1.39
  -3   4  17    6.32    0.97
  -3   4  17    4.93    1.06
   2  -4 -17    2.86    0.70
  -2  -4  17    2.70    1.04
  -2  -4  17    5.15    1.69
  -2  -4  17    2.80    0.68
  -2   4  17    3.07    0.69
  -2   4  17    4.28    0.92
  -2   4  17    3.10    1.24
  -1  -4  17    9.82    1.08
   1  -4 -17    9.19    1.10
  -1  -4  17   11.08    1.47
  -1  -4  17    9.29    1.87
  -1   4  17    7.12    1.46
  -1   4  17   11.00    1.13
  -1   4  17    7.61    1.10
   0  -4  17    3.33    1.65
   0  -4 -17    8.31    1.01
   0  -4  17    8.69    1.03
   0  -4  17    6.33    1.21
   0   4  17    5.70    1.01
   0   4  17    4.88    0.83
   0   4  17    3.75    1.51
  -1  -4 -17   47.39    2.24
   1  -4  17   49.90    2.81
   1  -4  17   52.99    2.23
   1   4  17   50.81    3.77
   1   4  17   48.93    2.76
   1   4  17   50.02    2.32
   2  -4  17    2.76    0.75
   2  -4  17    4.55    1.50
   2   4  17    4.26    1.81
   2   4  17    1.59    1.21
   2   4  17    1.54    0.77
   2   4  17    3.00    2.33
  -3  -4 -17   25.55    1.77
   3  -4  17   26.50    1.88
   3   4  17   22.64    1.96
   3   4  17   25.43    3.08
  -4  -4 -17   -0.19    1.83
  -4  -4 -17    0.66    0.99
   4   4  17    3.53    2.22
   4   4  17   -1.03    1.22
  -5  -5  17   11.47    3.11
  -5  -5  17    8.69    1.84
  -5  -5  17   10.85    1.42
  -5   5  17   14.67    1.73
  -5   5  17   12.78    2.24
  -4  -5  17   25.90    2.48
  -4  -5  17   25.28    1.89
  -4  -5  17   24.40    3.26
   4  -5 -17   18.48    1.83
  -4   5  17   22.10    2.05
  -4   5  17   20.06    2.39
  -3  -5  17    0.68    2.02
  -3  -5  17    0.55    0.69
   3  -5 -17    2.14    0.77
  -3  -5  17    1.22    1.11
  -3   5  17    0.00    0.81
  -3   5  17    1.00    0.74
  -3   5  17   -0.12    1.08
  -2  -5  17   13.28    1.29
  -2  -5  17   13.51    2.26
  -2  -5  17   12.74    1.68
   2  -5 -17   11.75    1.29
  -2   5  17   12.88    1.22
  -2   5  17   10.94    1.43
  -2   5  17   10.82    1.63
  -1  -5  17   18.63    1.41
   1  -5 -17   22.26    1.47
  -1  -5  17   20.55    2.11
  -1  -5  17   25.23    3.25
  -1   5  17   24.43    1.50
  -1   5  17   18.66    1.66
  -1   5  17   24.63    2.57
   0  -5  17   -1.13    1.61
   0  -5  17    0.28    0.52
   0  -5 -17   -0.13    0.54
   0  -5  17   -0.23    1.03
   0   5  17    0.40    1.27
   0   5  17    0.46    0.80
   0   5  17    0.71    0.56
   1  -5  17   59.60    3.13
  -1  -5 -17   55.36    2.50
   1  -5  17   59.54    2.41
   1   5  17   57.50    3.01
   1   5  17   59.83    2.61
   1   5  17   54.43    4.10
   2  -5  17   12.80    1.38
   2  -5  17   11.74    2.36
  -2  -5 -17   11.98    1.33
   2   5  17   11.68    2.22
   2   5  17    8.94    1.16
   2   5  17   10.70    1.74
   2   5  17   13.47    2.71
  -3  -5 -17   32.62    1.99
  -3  -5 -17   35.41    3.31
   3   5  17   29.67    2.17
   3   5  17   29.55    3.16
  -4  -5 -17   14.09    1.51
  -4  -5 -17   15.11    2.51
   4   5  17   13.60    1.68
   4   5  17   11.50    2.51
  -5  -6  17    1.97    1.18
  -5  -6  17    0.60    1.71
  -5  -6  17   -0.52    3.03
  -5   6  17    3.34    1.34
  -5   6  17    4.92    1.88
  -4  -6  17    3.95    2.70
  -4  -6  17    2.14    1.40
  -4  -6  17    1.28    0.90
   4  -6 -17    2.92    1.06
  -4   6  17    2.67    1.48
  -4   6  17    1.79    1.09
  -4   6  17    0.85    1.13
   3  -6 -17   34.67    2.00
  -3  -6  17   39.20    2.08
  -3  -6  17   36.36    4.46
  -3  -6  17   33.50    2.70
  -3   6  17   37.32    1.99
  -3   6  17   35.91    2.23
  -3   6  17   34.18    2.89
  -2  -6  17   27.86    2.40
  -2  -6  17   33.26    3.94
  -2  -6  17   24.37    1.71
   2  -6 -17   23.47    1.79
  -2   6  17   23.95    2.88
  -2   6  17   29.16    1.68
  -1  -6  17   72.03    4.75
   1  -6 -17   67.33    2.78
  -1  -6  17   64.72    2.69
  -1  -6  17   66.14    3.31
  -1   6  17   65.88    3.04
  -1   6  17   68.59    2.73
  -1   6  17   64.95    3.80
   0  -6 -17   29.72    1.73
   0  -6  17   28.09    2.41
   0  -6 -17   30.71    1.49
   0  -6  17   31.41    1.66
   0   6  17   33.43    3.03
   0   6  17   28.69    1.74
   0   6  17   27.72    2.08
   1  -6  17   14.44    1.80
   1  -6  17   15.09    1.27
  -1  -6 -17   13.68    1.87
   1   6  17   10.88    1.55
   1   6  17   19.91    2.56
  -2  -6 -17    7.29    1.04
   2  -6  17    6.15    0.95
   2   6  17    8.16    1.56
   2   6  17    6.40    1.03
   2   6  17    7.00    2.23
   2   6  17    6.72    2.56
  -3  -6 -17    1.11    1.73
  -3  -6 -17    2.40    0.88
   3   6  17    3.27    1.10
   3   6  17    6.02    1.76
  -4  -6 -17    0.66    1.06
  -4  -6 -17    1.26    1.14
  -4  -6 -17    0.43    2.13
   4   6  17    0.44    2.20
   4   6  17   -0.63    1.31
  -5  -7  17    4.52    3.40
  -5  -7  17    3.55    1.89
  -5   7  17    2.81    1.72
  -5   7  17    1.78    1.40
  -4  -7  17   -0.71    2.89
  -4  -7  17    4.55    1.55
   4  -7 -17    1.29    1.01
  -4  -7  17    2.08    0.99
  -4   7  17    2.48    1.09
  -4   7  17   -2.05    1.35
  -4   7  17    3.28    1.13
  -3  -7  17   23.14    1.73
  -3  -7  17   26.02    3.32
  -3  -7  17   19.33    2.46
   3  -7 -17   20.72    1.69
  -3   7  17   24.01    1.98
  -3   7  17   21.16    1.78
  -3   7  17   23.94    2.49
  -2  -7  17    3.77    1.34
   2  -7 -17    3.00    0.76
  -2  -7  17    2.76    0.80
  -2  -7  17    3.91    2.33
  -2   7  17    3.79    1.00
  -2   7  17    4.50    1.42
  -2   7  17    4.14    0.83
  -1  -7  17   33.70    2.57
   1  -7 -17   34.89    1.87
  -1  -7  17   33.63    1.90
  -1   7  17   28.04    2.09
  -1   7  17   32.45    1.82
  -1   7  17   33.35    3.75
   0  -7 -17    2.80    0.73
   0  -7  17    3.33    0.74
   0  -7  17    3.09    1.35
   0  -7 -17    3.40    0.74
   0   7  17    2.40    1.53
   0   7  17    2.75    0.93
   0   7  17    3.43    0.84
   1  -7  17   12.39    1.79
   1  -7  17   13.85    1.34
  -1  -7 -17   11.23    1.32
   1   7  17   14.40    1.88
   1   7  17   11.63    2.13
   1   7  17   10.65    1.38
   2  -7  17   -0.19    0.84
  -2  -7 -17    0.93    0.77
  -2  -7 -17    0.05    1.68
   2   7  17   -0.27    0.81
   2   7  17    4.35    2.47
   2   7  17    1.99    1.27
   2   7  17   -0.14    2.27
  -3  -7 -17    1.07    0.87
  -3  -7 -17    2.34    1.92
   3   7  17   -0.27    1.65
   3   7  17    1.02    1.06
  -4  -7 -17    2.96    1.51
  -4  -7 -17    0.65    1.20
  -4  -7 -17    7.33    2.39
   4   7  17    2.96    1.51
   4   7  17   -0.58    2.21
   4  -8 -17    0.35    1.13
  -4  -8  17   -0.78    0.97
  -4  -8  17    0.41    1.70
  -4   8  17   -1.02    1.46
  -4   8  17    0.39    1.15
   3  -8 -17   44.93    2.40
  -3  -8  17   48.89    3.28
  -3  -8  17   44.15    2.47
  -3   8  17   47.18    2.62
  -3   8  17   45.78    3.27
  -3   8  17   52.68    3.07
  -2  -8  17    4.51    0.89
   2  -8 -17    4.35    0.91
  -2   8  17    1.29    0.87
  -2   8  17    2.99    1.33
  -2   8  17    3.11    0.88
   1  -8 -17   71.71    2.71
  -1  -8  17   74.62    3.71
  -1  -8  17   75.13    2.96
   1  -8 -17   70.09    2.98
  -1   8  17   68.42    3.28
  -1   8  17   70.69    4.08
  -1   8  17   74.73    3.04
   0  -8 -17   11.72    1.36
   0  -8 -17    9.96    1.13
   0  -8  17   12.73    1.30
   0  -8  17   13.73    1.88
   0   8  17   10.03    1.20
   0   8  17   11.05    1.48
   0   8  17   10.25    1.88
  -1  -8 -17   21.74    1.66
  -1  -8 -17   21.54    1.64
  -1  -8 -17   25.13    3.10
   1  -8  17   24.18    1.59
   1   8  17   24.98    2.29
   1   8  17   21.01    2.97
   1   8  17   21.21    1.71
   1   8  17   26.14    4.41
  -2  -8 -17    5.59    1.04
  -2  -8 -17    5.17    1.03
  -2  -8 -17    5.58    2.05
   2   8  17    4.86    3.20
   2   8  17    5.86    1.62
   2   8  17    7.71    1.26
   2   8  17   10.54    2.78
  -3  -8 -17    1.65    2.13
  -3  -8 -17   -0.37    0.95
  -3  -8 -17    2.11    1.01
   3   8  17    0.50    1.75
   3   8  17    0.42    1.18
  -4  -9  17   23.48    2.15
  -4  -9  17   24.58    2.71
   4  -9 -17   24.80    2.36
  -4   9  17   20.56    2.30
  -4   9  17   22.27    2.34
  -3  -9  17    3.39    1.77
   3  -9 -17    2.46    0.99
  -3  -9  17    2.00    0.94
  -3   9  17   -0.46    1.31
  -3   9  17   -0.02    1.10
  -3   9  17    1.89    1.08
  -2  -9  17   10.39    2.02
  -2  -9  17   10.50    1.20
   2  -9 -17    9.93    1.17
  -2   9  17    9.53    1.69
  -2   9  17   10.31    1.37
   1  -9 -17   11.07    1.24
  -1  -9  17   13.71    1.96
  -1  -9  17   12.27    1.42
  -1   9  17   12.42    1.42
  -1   9  17   11.75    1.98
  -1   9  17   13.56    1.76
   0  -9  17    7.79    1.83
   0  -9 -17    4.90    0.94
   0  -9 -17    3.25    0.79
   0  -9  17    5.34    1.03
   0   9  17    5.84    1.69
   0   9  17    6.03    1.08
   0   9  17    6.56    1.25
  -1  -9 -17   30.81    3.47
   1  -9  17   30.85    1.78
  -1  -9 -17   27.36    1.87
  -1  -9 -17   25.03    1.83
  -1  -9 -17   26.10    1.92
   1   9  17   27.57    2.51
   1   9  17   21.77    2.87
   1   9  17   29.18    2.05
   1   9  17   33.76    3.84
  -2  -9 -17   23.59    1.98
  -2  -9 -17   22.26    1.89
  -2  -9 -17   23.34    2.84
   2   9  17   31.13    3.72
   2   9  17   32.48    3.77
   2   9  17   28.81    2.74
   2   9  17   23.52    2.15
  -3  -9 -17   19.16    2.93
  -3  -9 -17   19.42    2.13
  -3  -9 -17   23.67    2.07
   3   9  17   14.87    1.78
   3   9  17   17.09    2.46
   4 -10 -17   -0.36    1.25
  -4 -10  17   -0.88    1.20
  -4 -10  17    0.39    2.17
  -4  10  17   -0.14    1.33
  -4  10  17   -1.42    1.66
  -3 -10  17    5.03    2.07
   3 -10 -17    4.69    1.19
  -3 -10  17    4.12    1.10
  -3  10  17    4.20    1.64
  -3  10  17    5.09    1.27
   2 -10 -17    1.37    0.95
  -2 -10  17    3.68    1.00
  -2 -10  17    3.80    1.94
  -2  10  17    3.05    1.14
  -2  10  17    3.92    1.12
  -2  10  17    3.87    1.53
   1 -10 -17    1.14    0.77
  -1 -10  17    4.79    1.80
  -1 -10  17    1.67    0.85
  -1  10  17    0.68    0.94
  -1  10  17   -0.11    1.43
  -1  10  17    1.61    1.10
   0 -10 -17    8.46    1.12
   0 -10 -17    7.08    1.03
   0  10  17    6.74    1.36
   0  10  17    5.52    2.00
   0  10  17    8.85    1.25
   0  10  17    6.93    1.95
  -1 -10 -17    9.43    1.21
  -1 -10 -17    6.26    1.10
  -1 -10 -17    8.50    1.18
   1  10  17    5.53    1.49
   1  10  17    6.08    2.18
   1  10  17    5.46    2.49
   1  10  17    9.34    1.28
  -2 -10 -17    4.97    1.14
  -2 -10 -17   10.06    2.75
  -2 -10 -17    7.70    1.24
  -2 -10 -17    8.10    1.27
   2  10  17    5.79    3.30
   2  10  17    4.91    3.06
   2  10  17    4.64    1.69
   2  10  17    4.46    1.26
  -3 -10 -17    9.52    1.48
  -3 -10 -17   13.75    1.55
  -3 -10 -17   18.37    2.99
   3  10  17   11.55    1.78
   3  10  17   15.77    2.41
  -3 -11  17   10.57    2.46
   3 -11 -17    9.84    1.40
  -3 -11  17    7.90    1.38
  -3  11  17   11.88    1.64
  -3  11  17    7.91    1.85
   3  11 -17    7.41    2.74
  -2 -11  17    1.81    1.06
  -2 -11  17   -2.95    2.09
   2 -11 -17   -0.02    0.92
  -2  11  17    0.62    1.22
  -2  11  17    3.73    1.59
   2  11 -17    1.40    2.08
  -2  11  17    2.66    1.17
   1 -11 -17    3.53    0.99
  -1 -11  17    4.75    1.04
  -1  11  17    3.58    1.32
  -1  11  17    5.37    1.19
  -1  11  17    5.56    1.87
   0 -11 -17    1.02    0.87
   0  11  17    0.96    2.10
   0  11  17    0.71    1.28
   0  11  17    0.10    0.99
   0  11  17    1.33    1.85
  -1 -11 -17   50.74    2.62
  -1 -11 -17   48.87    2.62
  -1 -11 -17   51.47    2.64
   1  11  17   51.10    5.13
   1  11  17   46.49    3.14
   1  11  17   51.13    4.86
   1  11  17   48.29    2.84
  -2 -11 -17   -0.04    1.23
  -2 -11 -17    1.26    1.08
  -2 -11 -17    0.27    1.20
   2  11  17    1.11    1.61
   2  11  17   -4.31    2.97
   2  11  17   -2.15    3.40
   2  11  17   -0.86    1.24
   2 -12 -17   12.05    1.52
  -2 -12  17   15.99    1.99
  -2  12  17    7.85    2.09
  -2  12  17   13.39    1.80
   2  12 -17   10.68    2.70
   1 -12 -17    1.88    0.98
  -1 -12  17   -1.30    1.06
  -1  12  17    4.25    2.08
  -1  12  17    1.89    1.33
   1  12 -17    2.37    2.37
  -1  12  17   -3.33    1.69
  -1  12  17   -0.94    1.15
   0 -12 -17   17.12    1.93
   0  12  17   17.67    2.05
   0  12  17   18.86    3.21
   0  12  17   14.68    1.68
   0  12  17   17.91    2.77
  -1 -12 -17   -0.11    1.08
   1  12  17    3.27    2.50
   1  12  17    2.93    1.59
   1  12  17    1.29    1.25
   1  12  17    3.08    3.05
   1 -13 -17   13.27    1.60
  -1  13  17   14.45    1.91
  -1  13  17   14.56    3.03
   1  13 -17   10.89    3.08
  -1  13  17   11.94    2.48
  -1  13  17   14.43    1.72
   0 -13 -17    1.66    1.19
   0  13  17   -1.64    2.26
   0  13  17   -0.31    2.80
   0  13  17    0.01    1.32
   0  13  17    1.94    1.51
  -5   0  18    1.00    1.23
  -5   0  18    0.42    1.46
  -5   0  18   -0.62    2.12
  -4   0  18   31.38    3.73
  -4   0  18   23.28    2.34
   4   0 -18   28.17    2.00
  -4   0  18   25.27    1.96
   3   0 -18    0.88    0.75
  -3   0  18   -0.16    0.86
  -3   0  18    0.87    0.95
  -3   0  18   -0.14    1.54
  -2   0  18   17.55    1.74
  -2   0  18   16.02    1.38
  -2   0  18   21.94    2.42
  -1   0  18    1.57    0.91
  -1   0  18    1.21    1.41
  -1   0  18    0.18    0.52
   0   0  18    0.88    0.94
   0   0  18    1.17    1.50
   0   0  18    0.75    0.55
   1   0  18    0.45    1.30
   1   0  18   -0.67    1.90
   1   0  18    0.22    0.61
   2   0  18    8.35    1.59
   2   0  18    7.74    1.11
   3   0  18   -1.90    1.76
   3   0  18    1.30    0.98
   4   0  18    8.00    1.56
  -5  -1  18    1.28    1.10
  -5  -1  18    0.92    2.27
  -5  -1  18    1.52    1.51
  -5   1  18    4.25    2.05
  -5   1  18    0.57    1.41
  -5   1  18    2.01    1.30
   4  -1 -18   46.23    2.39
  -4  -1  18   48.32    4.21
  -4  -1  18   43.71    2.98
  -4  -1  18   44.90    2.46
  -4   1  18   44.78    2.86
  -4   1  18   44.24    2.48
  -4   1  18   50.35    4.04
   4   1 -18   46.21    2.37
  -3  -1  18   13.01    2.21
  -3  -1  18    7.17    1.35
  -3  -1  18    8.17    1.06
   3  -1 -18   12.72    1.39
  -3   1  18    8.25    1.37
  -2  -1  18   23.88    1.55
  -2  -1  18   21.21    2.02
  -2  -1  18   31.28    3.19
  -2   1  18   22.91    1.89
  -2   1  18   21.11    1.50
  -2   1  18   25.59    2.93
  -1  -1  18   20.19    1.32
  -1  -1  18   18.88    1.82
  -1  -1  18   19.16    2.29
  -1   1  18   18.28    1.35
  -1   1  18   20.24    2.39
  -1   1  18   19.69    1.78
   0  -1  18    0.37    0.90
   0  -1  18   -0.28    1.43
   0  -1  18    0.35    0.56
   0   1  18    0.04    0.57
   0   1  18   -0.62    1.34
   0   1  18    0.64    0.87
   1  -1  18    5.12    1.24
   1  -1  18    2.12    0.70
   1  -1  18    1.01    2.06
   1   1  18    2.78    1.86
   1   1  18    2.52    0.68
   1   1  18    2.94    1.16
   2  -1  18   22.07    2.07
   2  -1  18   20.20    2.48
   2   1  18   22.97    1.71
   2   1  18   19.41    2.40
   3  -1  18    1.09    1.87
   3  -1  18    4.63    1.08
   3   1  18    4.20    1.04
   4  -1  18   35.32    3.74
  -4  -1 -18   30.84    3.44
   4   1  18   35.55    2.77
  -5  -2  18    2.69    1.63
  -5  -2  18    6.84    1.27
  -5  -2  18   10.45    2.60
  -5   2  18    8.68    2.25
  -5   2  18    5.67    1.57
  -5   2  18    4.92    1.44
   4  -2 -18    6.38    1.10
  -4  -2  18    9.83    2.32
  -4  -2  18    7.02    1.48
  -4  -2  18    8.49    1.25
  -4   2  18    5.97    1.16
  -4   2  18    4.98    1.89
  -4   2  18    8.14    1.52
   4   2 -18    6.63    1.15
  -3  -2  18    0.32    1.12
  -3  -2  18   -0.27    0.70
  -3  -2  18    0.50    1.65
   3  -2 -18    0.12    0.71
  -3   2  18    0.99    0.84
  -3   2  18    1.28    1.45
  -2  -2  18   45.12    2.71
   2  -2 -18   47.00    2.22
  -2  -2  18   48.18    2.24
  -2  -2  18   48.23    3.90
  -2   2  18   48.03    2.20
  -2   2  18   47.53    3.43
  -2   2  18   45.81    2.59
  -1  -2  18   19.14    1.84
  -1  -2  18   15.52    1.27
  -1  -2  18   16.50    2.28
  -1   2  18   13.70    1.57
  -1   2  18   13.91    1.29
  -1   2  18   18.46    2.16
   0  -2  18   46.24    2.11
   0  -2  18   43.92    3.56
   0  -2  18   46.64    2.67
   0   2  18   45.18    2.63
   0   2  18   46.84    2.18
   0   2  18   50.41    3.65
   1  -2  18   30.31    2.43
   1  -2  18   38.67    4.27
   1  -2  18   33.53    1.88
   1   2  18   33.18    2.07
   1   2  18   40.46    3.80
   1   2  18   33.78    2.39
   2  -2  18    7.45    1.66
   2   2  18   10.47    2.91
   2   2  18    6.79    1.01
   2   2  18    9.49    1.69
   3  -2  18   24.28    2.01
   3   2  18   23.66    2.03
   3   2  18   25.25    2.68
  -4  -2 -18    4.04    2.03
   4   2  18    0.49    1.35
  -5  -3  18    0.58    1.53
  -5  -3  18    1.91    1.20
  -5  -3  18    3.20    2.64
  -5   3  18    3.25    1.46
  -5   3  18   -1.16    1.86
  -5   3  18    2.47    1.39
   4  -3 -18   -0.30    1.08
  -4  -3  18    2.64    1.00
  -4  -3  18   -0.56    1.28
  -4  -3  18   -2.54    1.96
  -4   3  18    3.34    1.66
  -4   3  18    1.27    1.05
  -4   3  18    0.15    0.98
   3  -3 -18    9.04    1.13
  -3  -3  18    9.39    1.52
  -3  -3  18    8.39    2.15
  -3  -3  18    9.49    1.14
  -3   3  18    8.00    1.65
  -3   3  18    8.38    1.27
  -3   3  18    7.45    1.81
  -2  -3  18    3.93    1.13
   2  -3 -18    4.69    0.83
  -2  -3  18    4.03    1.75
  -2   3  18    2.61    1.29
  -2   3  18    4.54    0.79
  -1  -3  18    8.85    1.09
  -1  -3  18   10.30    2.04
  -1  -3  18    9.09    1.37
   1  -3 -18    9.63    1.17
  -1   3  18   11.43    1.94
  -1   3  18    9.21    1.13
  -1   3  18    7.58    1.22
   0  -3  18   18.01    2.32
   0  -3  18   22.83    1.45
   0  -3  18   22.83    2.05
   0   3  18   21.50    1.49
   0   3  18   23.30    1.93
   0   3  18   20.45    2.42
   1  -3  18    0.43    0.64
   1  -3  18   -0.03    1.09
   1   3  18   -0.86    1.86
   1   3  18   -0.20    1.03
   2  -3  18   21.68    2.70
   2   3  18   24.96    1.82
   2   3  18   25.18    2.56
   2   3  18   23.36    3.63
   3  -3  18    2.53    1.02
   3   3  18    5.89    1.98
   3   3  18    2.26    1.05
  -4  -3 -18    0.11    1.93
  -4  -3 -18    4.56    1.22
   4   3  18    4.71    1.49
   4   3  18    3.48    2.55
  -5  -4  18    9.13    2.96
  -5  -4  18    2.05    1.22
  -5  -4  18    1.29    1.66
  -5   4  18    2.43    1.39
  -5   4  18    1.83    1.38
  -5   4  18   -2.48    1.99
  -4  -4  18    0.96    1.32
  -4  -4  18    1.23    0.93
   4  -4 -18    1.12    0.96
  -4  -4  18   -3.81    2.20
  -4   4  18    1.97    1.64
  -4   4  18    2.48    1.17
  -4   4  18   -0.18    1.01
   3  -4 -18    2.56    1.42
  -3  -4  18    3.31    2.09
  -3  -4  18    2.11    0.81
  -3  -4  18    1.80    1.28
  -3   4  18    2.79    1.02
  -3   4  18    2.20    1.45
   2  -4 -18   33.86    1.90
  -2  -4  18   33.18    2.42
  -2  -4  18   32.06    3.76
  -2  -4  18   29.70    1.80
  -2   4  18   28.87    2.99
  -2   4  18   29.00    2.02
  -2   4  18   32.45    1.81
   1  -4 -18    1.11    0.67
  -1  -4  18    1.96    1.04
  -1  -4  18    1.77    0.66
  -1  -4  18    1.21    1.85
  -1   4  18   -1.34    1.22
  -1   4  18    0.60    0.64
  -1   4  18    1.49    0.89
   0  -4  18   98.59    3.59
   0  -4 -18   95.26    3.91
   0  -4  18  105.37    5.55
   0  -4  18   99.77    4.23
   0   4  18   98.65    4.17
   0   4  18   94.42    3.66
   0   4  18  102.62    5.06
   1  -4  18    6.77    1.44
  -1  -4 -18    5.50    0.82
   1  -4  18    6.77    0.95
   1   4  18    7.85    2.10
   1   4  18    6.47    0.94
   2  -4  18   48.15    2.47
  -2  -4 -18   47.39    2.36
   2  -4  18   50.78    3.40
   2   4  18   47.10    3.98
   2   4  18   46.51    5.30
   2   4  18   46.34    2.49
   2   4  18   50.47    3.16
  -3  -4 -18   -0.69    0.91
   3   4  18    2.21    1.04
   3   4  18    1.82    1.83
  -4  -4 -18   -0.75    2.03
  -4  -4 -18    2.60    1.18
   4   4  18    2.63    2.72
   4   4  18    4.90    2.53
  -5  -5  18    8.97    1.92
  -5  -5  18    9.59    1.57
  -5  -5  18   11.14    3.26
  -5   5  18    5.23    1.49
  -5   5  18    4.76    2.10
  -4  -5  18    6.52    2.89
  -4  -5  18    6.49    1.66
   4  -5 -18    3.11    1.13
  -4  -5  18    2.53    1.02
  -4   5  18    5.07    1.21
  -4   5  18    4.01    1.22
  -4   5  18    2.66    1.68
  -3  -5  18   33.15    3.44
  -3  -5  18   27.15    2.57
  -3  -5  18   28.21    1.88
   3  -5 -18   27.33    1.86
  -3   5  18   31.93    2.91
  -3   5  18   23.64    2.01
   2  -5 -18    0.59    0.79
  -2  -5  18   -0.49    0.59
  -2  -5  18    0.47    2.03
  -2   5  18    0.23    0.84
  -2   5  18    0.59    0.68
  -2   5  18    1.37    1.33
  -1  -5  18   14.13    2.46
  -1  -5  18   17.66    2.11
  -1   5  18   14.12    1.42
  -1   5  18   13.99    1.80
  -1   5  18   15.20    2.11
   0  -5  18   13.26    1.26
   0  -5 -18   10.03    1.27
   0  -5  18   12.81    1.71
   0   5  18    9.95    1.87
   0   5  18    9.57    1.73
   1  -5  18   -0.78    1.24
   1  -5  18    0.52    0.68
  -1  -5 -18    0.20    0.68
   1   5  18    0.20    1.06
   1   5  18    2.69    2.24
   1   5  18    0.08    0.72
  -2  -5 -18   19.24    1.71
   2  -5  18   23.24    1.76
   2   5  18   22.84    1.84
   2   5  18   20.84    2.32
   2   5  18   23.54    2.92
   2   5  18   22.84    3.37
  -3  -5 -18    9.69    2.08
  -3  -5 -18    9.95    1.29
   3   5  18    8.71    2.15
   3   5  18    7.77    1.33
  -4  -5 -18    5.77    2.44
  -4  -5 -18    6.17    1.31
   4   5  18    6.42    1.64
   4   5  18    8.72    2.59
  -4  -6  18   10.26    1.35
  -4  -6  18   16.08    3.40
  -4  -6  18   10.87    2.05
   4  -6 -18   13.31    1.51
  -4   6  18   11.30    2.00
  -4   6  18   13.15    1.66
  -4   6  18   13.13    1.47
   3  -6 -18    1.67    0.80
  -3  -6  18    0.21    0.78
  -3  -6  18   -1.41    1.34
  -3  -6  18    2.98    2.62
  -3   6  18    0.21    0.84
  -3   6  18    0.82    0.99
  -3   6  18   -1.67    1.31
  -2  -6  18   25.31    2.75
  -2  -6  18   21.20    1.63
   2  -6 -18   23.09    1.65
  -2  -6  18   29.16    3.36
  -2   6  18   25.29    2.77
  -2   6  18   23.28    2.02
  -2   6  18   21.51    2.02
  -1  -6  18    1.77    0.69
  -1  -6  18    4.08    1.36
   1  -6 -18    1.60    0.75
  -1   6  18    1.16    2.39
  -1   6  18    3.11    0.92
  -1   6  18    1.95    0.92
   0  -6  18   17.08    1.96
   0  -6 -18   14.96    1.42
   0   6  18   18.07    1.52
   0   6  18   17.22    1.81
   0   6  18   19.41    2.50
   1  -6  18   12.89    1.38
  -1  -6 -18   11.70    1.47
   1  -6  18   12.03    1.85
   1   6  18   12.69    2.61
   1   6  18   11.96    1.74
   1   6  18   11.64    1.48
   2  -6  18    0.91    0.94
  -2  -6 -18    0.89    0.79
   2   6  18   -3.20    2.31
   2   6  18    0.16    1.30
   2   6  18    0.76    0.90
   2   6  18   -0.17    2.72
  -3  -6 -18   14.50    1.77
  -3  -6 -18   19.60    2.68
   3   6  18   17.87    2.49
   3   6  18   16.00    2.06
  -4  -7  18   59.35    7.22
  -4  -7  18   48.78    2.69
   4  -7 -18   46.98    2.76
  -4  -7  18   50.09    3.72
  -4   7  18   48.07    2.72
  -4   7  18   46.40    2.94
  -4   7  18   39.90    3.62
  -3  -7  18   -1.77    1.47
   3  -7 -18    1.18    0.93
  -3  -7  18    2.00    4.45
  -3  -7  18    1.74    0.91
  -3   7  18    2.32    1.11
  -3   7  18    2.84    1.37
  -3   7  18    2.43    1.00
  -2  -7  18   46.35    3.16
  -2  -7  18   48.61    2.33
   2  -7 -18   46.68    2.32
  -2   7  18   43.77    2.77
  -2   7  18   48.83    3.36
  -2   7  18   45.26    2.64
   1  -7 -18    2.60    0.80
  -1  -7  18    2.22    0.74
  -1  -7  18    4.91    1.50
  -1   7  18    1.78    1.02
  -1   7  18    3.05    1.46
  -1   7  18    2.62    0.86
   0  -7  18    2.29    0.80
   0  -7  18    0.29    1.41
   0  -7 -18    1.16    0.73
   0   7  18    2.80    1.02
   0   7  18   -0.91    1.56
   0   7  18    2.26    0.82
   1  -7  18    1.92    1.61
   1  -7  18    0.29    0.79
  -1  -7 -18    1.44    0.77
   1   7  18   -0.61    0.78
   1   7  18    3.29    2.19
   1   7  18   -0.25    1.15
  -2  -7 -18   32.99    3.51
  -2  -7 -18   30.95    2.07
   2   7  18   31.66    3.08
   2   7  18   30.12    2.20
   2   7  18   47.12    5.44
  -3  -7 -18    2.42    2.22
  -3  -7 -18    2.69    1.06
  -3  -7 -18    1.17    1.05
   3   7  18    0.41    1.19
   3   7  18    1.49    1.88
   4  -8 -18   18.71    2.29
  -4  -8  18   25.28    3.37
  -4  -8  18   16.78    1.74
  -4   8  18   16.79    1.86
  -4   8  18   16.07    2.25
  -3  -8  18   -0.63    1.55
   3  -8 -18    0.19    0.91
  -3  -8  18    2.07    0.98
  -3   8  18   -0.11    1.07
  -3   8  18    0.60    1.02
  -3   8  18   -0.02    1.53
   2  -8 -18   12.57    1.58
  -2  -8  18   12.56    1.59
  -2  -8  18   13.61    2.08
  -2   8  18   14.43    1.73
  -2   8  18   11.40    1.92
  -2   8  18   12.05    1.51
   1  -8 -18    6.60    0.98
  -1  -8  18    5.72    1.75
  -1  -8  18    7.03    1.01
   1  -8 -18    7.57    1.08
  -1   8  18    5.91    1.63
  -1   8  18    5.94    1.18
  -1   8  18    6.31    1.06
   0  -8 -18    1.66    0.73
   0  -8  18    0.89    0.77
   0  -8  18    2.97    1.65
   0   8  18    1.91    1.70
   0   8  18    1.24    0.85
   0   8  18   -0.86    0.99
   1  -8  18   10.86    1.30
  -1  -8 -18   11.35    2.43
  -1  -8 -18   13.51    1.57
  -1  -8 -18   11.35    1.33
   1   8  18   12.02    2.45
   1   8  18   10.17    1.26
   1   8  18   13.83    1.86
   1   8  18   17.50    2.90
  -2  -8 -18    2.03    1.03
  -2  -8 -18    3.78    2.20
  -2  -8 -18    2.46    0.94
   2   8  18    3.99    1.16
   2   8  18    2.19    2.98
   2   8  18    2.47    1.57
   2   8  18    1.50    2.86
  -3  -8 -18    1.31    1.10
  -3  -8 -18    6.63    2.59
  -3  -8 -18    3.52    1.20
   3   8  18    5.58    1.43
   3   8  18    2.85    2.03
  -4  -9  18    4.20    1.37
  -4  -9  18    9.32    2.26
   4  -9 -18    8.75    1.44
  -4   9  18    9.26    1.88
  -4   9  18    6.64    1.60
  -3  -9  18   12.09    2.23
   3  -9 -18   11.87    1.42
  -3  -9  18    8.71    1.35
  -3   9  18   11.73    1.43
  -3   9  18   10.84    1.57
  -3   9  18    7.85    1.85
   2  -9 -18   -0.57    0.89
  -2  -9  18    0.49    0.90
  -2  -9  18    1.96    1.85
  -2   9  18    0.44    1.10
  -2   9  18   -0.89    1.41
  -2   9  18   -0.35    0.92
   1  -9 -18   12.00    1.28
  -1  -9  18   15.27    1.53
  -1   9  18   12.97    1.64
  -1   9  18   13.12    2.18
  -1   9  18   10.82    1.30
   0  -9 -18    2.85    0.98
   0  -9 -18    2.30    0.83
   0  -9  18    3.81    0.99
   0   9  18    2.90    0.94
   0   9  18    2.26    1.82
   0   9  18    3.70    1.21
  -1  -9 -18    2.78    0.94
  -1  -9 -18    3.93    1.06
  -1  -9 -18    2.81    3.82
   1   9  18    4.88    1.15
   1   9  18    3.18    2.51
   1   9  18    5.28    2.57
   1   9  18    4.62    1.50
  -2  -9 -18    8.06    1.26
  -2  -9 -18    4.86    1.13
  -2  -9 -18    4.60    2.56
   2   9  18    1.68    3.26
   2   9  18    7.96    1.40
   2   9  18    6.77    1.80
   2   9  18   13.89    3.49
  -3  -9 -18   -3.07    2.51
  -3  -9 -18    3.19    1.16
  -3  -9 -18    0.57    1.22
   3   9  18   -3.49    1.93
   3   9  18   -0.46    1.54
  -3 -10  18    0.43    1.09
   3 -10 -18    1.40    1.09
  -3 -10  18   -1.56    2.10
  -3  10  18   -1.25    1.54
  -3  10  18    1.77    1.32
  -2 -10  18   30.05    2.18
   2 -10 -18   28.49    2.14
  -2 -10  18   33.59    3.96
  -2  10  18   26.21    3.24
  -2  10  18   28.87    2.52
  -2  10  18   30.83    2.30
  -1 -10  18   12.05    1.29
  -1 -10  18   12.48    2.43
   1 -10 -18   10.27    1.31
  -1  10  18    7.25    2.12
  -1  10  18   10.64    1.41
  -1  10  18    7.87    1.55
   0 -10  18   47.38    2.39
   0 -10 -18   56.25    3.49
   0 -10 -18   37.51    2.38
   0  10  18   42.82    2.57
   0  10  18   39.24    4.19
   0  10  18   43.46    2.98
   0  10  18   47.99    4.12
  -1 -10 -18   20.61    2.04
  -1 -10 -18   18.68    1.94
   1  10  18   22.07    2.19
   1  10  18   24.82    3.44
   1  10  18   21.52    2.63
   1  10  18   26.18    3.54
  -2 -10 -18   22.66    2.20
  -2 -10 -18   18.56    2.04
  -2 -10 -18   20.95    2.20
   2  10  18   17.94    3.70
   2  10  18   16.78    2.35
   2  10  18   21.43    4.05
   2  10  18   20.88    2.41
   3 -11 -18    1.76    1.21
  -3 -11  18    3.42    1.28
  -3 -11  18    2.72    2.44
  -3  11  18    1.60    1.49
  -3  11  18    1.80    1.93
  -2 -11  18    3.53    3.03
  -2 -11  18    1.80    1.13
   2 -11 -18    6.01    1.16
  -2  11  18    4.20    1.33
  -2  11  18    1.76    1.83
  -2  11  18    4.57    1.45
  -1 -11  18   -0.91    1.02
   1 -11 -18   -0.37    0.92
  -1  11  18   -1.07    1.23
  -1  11  18    0.40    1.85
  -1  11  18    0.35    1.11
   0 -11 -18   14.33    1.82
   0  11  18   19.31    2.92
   0  11  18   16.18    1.98
   0  11  18   14.57    1.63
   0  11  18   18.13    3.09
  -1 -11 -18   -1.11    1.21
  -1 -11 -18    1.43    1.01
   1  11  18    2.89    2.99
   1  11  18   -2.06    2.44
   1  11  18   -1.10    1.44
   1  11  18    1.40    1.28
  -2 -12  18   17.47    2.17
   2 -12 -18   22.70    2.27
  -2  12  18   15.02    2.59
  -2  12  18   23.30    2.74
   1 -12 -18    3.68    1.14
  -1  12  18    3.98    1.42
  -1  12  18    3.15    2.41
  -1  12  18    0.22    2.03
  -1  12  18    1.55    1.46
   0 -12 -18   24.71    2.24
   0  12  18   28.33    3.04
   0  12  18   25.22    3.30
   0  12  18   22.18    2.46
   0  12  18   24.62    3.52
  -1 -12 -18   11.63    1.53
   1  12  18   11.12    1.76
   1  12  18   13.43    2.30
   1  12  18   14.26    3.24
   1  12  18   11.47    3.79
  -5   0  19   19.67    2.30
  -5   0  19   22.85    3.30
  -5   0  19   24.11    2.48
  -4   0  19    0.97    1.91
   4   0 -19    0.38    1.15
  -4   0  19   -0.74    0.96
  -4   0  19    1.77    1.28
  -3   0  19    3.87    1.17
  -3   0  19    1.10    0.77
  -3   0  19    0.78    1.83
  -2   0  19    0.63    0.96
  -2   0  19    0.42    0.66
  -2   0  19    2.87    1.70
  -1   0  19   22.96    2.41
  -1   0  19   27.11    2.16
  -1   0  19   24.91    2.66
   0   0  19    0.25    0.80
   0   0  19    0.38    1.68
   0   0  19    0.78    1.04
   1   0  19   92.84    3.64
   1   0  19  100.28    5.88
   1   0  19   97.18    4.28
   2   0  19   -0.11    0.82
   2   0  19   -0.67    2.19
   3   0  19   74.69    3.37
   3   0  19   74.02    4.90
   4   0  19   -0.19    1.45
  -5  -1  19    3.08    2.61
  -5  -1  19    6.42    1.80
  -5  -1  19    4.85    1.42
  -5   1  19    7.66    1.52
  -5   1  19    7.21    2.43
  -5   1  19    4.40    1.72
  -4  -1  19    6.20    1.19
  -4  -1  19    9.23    2.47
  -4  -1  19    7.71    1.61
   4  -1 -19    9.63    1.32
  -4   1  19    9.28    2.24
  -4   1  19    9.33    1.60
  -4   1  19    8.54    1.31
  -3  -1  19    5.87    2.02
  -3  -1  19    3.32    0.83
  -3  -1  19    4.11    1.26
   3  -1 -19    3.35    1.58
   3   1 -19    5.79    1.19
  -3   1  19    4.44    0.95
  -3   1  19    5.56    1.84
  -3   1  19    6.49    1.22
   2  -1 -19   24.01    2.16
  -2  -1  19   30.21    3.62
  -2  -1  19   25.84    1.69
  -2  -1  19   25.78    2.20
  -2   1  19   26.73    2.21
  -2   1  19   26.84    1.71
  -2   1  19   22.88    3.16
  -1  -1  19    0.30    1.02
  -1  -1  19    2.32    1.02
  -1  -1  19   -0.09    1.64
  -1   1  19    0.94    1.52
  -1   1  19    2.77    1.45
   0  -1  19   13.88    1.71
   0  -1  19   15.06    1.93
   0  -1  19   15.69    2.47
   0   1  19   15.93    2.49
   0   1  19   12.87    1.37
   0   1  19   12.33    1.65
   1  -1  19   16.34    2.21
   1  -1  19   19.03    1.56
   1   1  19   21.47    2.24
   1   1  19   21.36    1.58
   1   1  19   19.21    2.76
   2  -1  19    1.93    0.89
   2  -1  19    1.27    1.66
   2   1  19    0.09    1.47
   2   1  19    0.90    0.82
   3  -1  19   25.90    2.20
   3  -1  19   25.76    4.21
   3   1  19   29.60    3.13
   3   1  19   23.35    2.21
  -4  -1 -19    0.27    2.04
   4   1  19   -0.66    1.44
  -5  -2  19    3.10    1.82
  -5  -2  19    3.61    2.65
  -5  -2  19    5.31    1.43
  -5   2  19    3.24    1.61
  -5   2  19    4.29    1.49
  -5   2  19    1.23    2.30
   4  -2 -19    9.43    1.32
  -4  -2  19   14.87    1.61
  -4  -2  19   12.32    2.71
  -4  -2  19   13.11    1.91
  -4   2  19   10.22    2.20
  -4   2  19   13.49    1.55
  -4   2  19   11.62    1.70
  -3  -2  19    1.83    2.10
   3  -2 -19    1.22    0.83
  -3  -2  19    3.20    1.19
  -3  -2  19    4.10    0.95
  -3   2  19    2.15    1.03
  -3   2  19    1.93    1.76
  -3   2  19    1.48    0.85
  -2  -2  19    5.01    2.02
  -2  -2  19    3.97    0.82
  -2  -2  19    3.67    1.13
  -2   2  19    4.43    1.06
  -2   2  19    4.28    0.80
  -2   2  19    5.10    1.67
  -1  -2  19   30.07    2.40
  -1  -2  19   29.39    1.76
  -1  -2  19   33.19    3.55
  -1   2  19   31.34    3.17
  -1   2  19   25.02    2.43
  -1   2  19   30.46    2.50
   0  -2  19    0.30    1.07
   0  -2  19    0.49    0.75
   0  -2  19   -1.59    1.69
   0   2  19    0.35    0.59
   0   2  19    2.42    1.89
   0   2  19    0.59    1.56
   1  -2  19   40.48    2.80
   1  -2  19   33.93    1.96
   1   2  19   35.08    1.98
   1   2  19   34.33    4.20
   1   2  19   29.90    3.78
   2  -2  19   21.83    2.33
   2  -2  19   17.89    1.70
   2   2  19   17.77    2.16
   2   2  19   19.30    1.76
   3  -2  19    4.55    1.24
   3   2  19    9.89    2.23
   3   2  19    7.40    1.29
  -4  -2 -19   17.47    2.17
  -4  -2 -19   14.06    2.60
   4   2  19   19.34    1.94
  -5  -3  19   19.18    2.51
  -5  -3  19   14.34    3.41
  -5  -3  19   17.39    1.90
  -5   3  19   17.07    2.76
  -5   3  19   17.90    2.08
  -5   3  19   23.57    2.75
   4  -3 -19    1.37    1.10
  -4  -3  19    2.91    1.54
  -4  -3  19    2.52    1.05
  -4  -3  19    0.26    2.40
  -4   3  19    0.35    1.09
  -4   3  19    0.31    1.19
  -4   3  19   -2.58    1.79
  -3  -3  19   52.33    5.55
  -3  -3  19   53.48    3.22
  -3  -3  19   52.19    2.58
   3  -3 -19   56.42    2.62
  -3   3  19   52.31    3.92
  -3   3  19   52.64    2.58
  -3   3  19   47.98    2.88
   2  -3 -19    9.02    1.07
  -2  -3  19    8.48    1.05
  -2  -3  19   13.83    2.56
  -2  -3  19    9.61    1.58
  -2   3  19    9.22    2.06
  -2   3  19    8.96    1.38
  -2   3  19   10.74    1.35
  -1  -3  19   47.69    2.85
  -1  -3  19   46.17    4.14
  -1  -3  19   44.01    2.16
   1  -3 -19   45.79    2.25
  -1   3  19   49.52    3.63
  -1   3  19   44.94    2.32
  -1   3  19   43.41    2.59
   0  -3  19   10.74    1.23
   0  -3  19    7.54    2.19
   0  -3  19    8.53    1.43
   0   3  19    6.39    0.94
   0   3  19    7.52    1.43
   0   3  19    6.05    1.97
   1  -3  19    4.27    1.47
   1  -3  19    6.80    0.99
   1   3  19    5.84    1.40
   1   3  19    6.20    1.05
   1   3  19    6.11    2.31
   2  -3  19    0.45    0.86
   2  -3  19    2.96    1.78
   2   3  19    1.19    0.89
   2   3  19    0.05    1.36
  -3  -3 -19    9.69    1.25
   3  -3  19    6.69    1.36
   3   3  19    5.20    2.22
   3   3  19    7.81    1.35
  -4  -4  19    3.19    2.91
   4  -4 -19    2.69    1.17
  -4  -4  19    1.99    1.56
  -4  -4  19    2.48    1.07
  -4   4  19    1.65    1.16
  -4   4  19    5.57    1.86
  -4   4  19    3.50    1.31
  -3  -4  19   14.27    1.91
   3  -4 -19   12.63    1.58
  -3  -4  19   12.88    4.63
  -3  -4  19   14.65    1.46
  -3   4  19    9.28    1.49
  -3   4  19   11.30    2.02
  -3   4  19   12.86    1.39
  -2  -4  19   -1.13    2.07
  -2  -4  19    1.83    0.78
   2  -4 -19    0.44    0.79
  -2  -4  19    2.39    1.25
  -2   4  19   -0.42    0.98
  -2   4  19    3.40    1.53
  -2   4  19    0.44    0.74
  -1  -4  19    3.25    2.26
   1  -4 -19    6.71    0.99
  -1  -4  19    7.54    0.97
  -1  -4  19    7.59    1.53
  -1   4  19    5.59    1.18
  -1   4  19    7.87    1.05
  -1   4  19    8.39    1.90
   0  -4  19    1.83    0.76
   0  -4 -19    1.03    0.70
   0  -4  19    2.87    1.26
   0   4  19    1.70    0.74
   0   4  19    2.06    1.09
   0   4  19    1.94    1.82
   1  -4  19    1.19    1.39
  -1  -4 -19   -0.63    0.69
   1  -4  19    1.01    0.75
   1   4  19    2.83    2.25
   1   4  19   -0.16    1.17
   1   4  19    1.26    0.77
   2  -4  19    6.07    1.90
  -2  -4 -19    4.33    0.97
   2  -4  19    3.49    0.99
   2   4  19    3.90    1.04
   2   4  19    0.64    4.21
   2   4  19    5.36    1.62
  -3  -4 -19   -0.19    1.06
  -3  -4 -19    0.52    2.02
   3   4  19    0.43    1.14
   3   4  19    1.61    2.03
  -4  -5  19    3.38    1.74
  -4  -5  19    2.37    1.12
  -4  -5  19    3.25    3.08
   4  -5 -19    3.52    1.22
  -4   5  19    2.74    1.78
  -4   5  19    4.28    1.29
  -4   5  19    0.88    1.27
  -3  -5  19   27.23    1.97
  -3  -5  19   25.05    5.77
  -3  -5  19   27.10    2.77
   3  -5 -19   27.05    1.95
  -3   5  19   26.63    2.06
  -3   5  19   27.09    2.36
  -3   5  19   23.98    3.17
  -2  -5  19   15.00    1.51
  -2  -5  19   14.39    1.82
   2  -5 -19   14.43    1.57
  -2  -5  19   18.04    2.97
  -2   5  19   12.88    1.51
  -2   5  19   17.41    2.29
  -2   5  19   15.05    1.57
  -1  -5  19   21.76    1.56
   1  -5 -19   18.34    1.63
  -1  -5  19   21.98    2.72
  -1   5  19   20.59    1.98
  -1   5  19   21.74    1.69
  -1   5  19   27.97    3.23
   0  -5  19   23.48    2.48
   0  -5 -19   21.98    1.68
   0  -5  19   22.10    1.62
   0   5  19   21.64    2.09
   0   5  19   26.22    3.49
   0   5  19   23.18    1.75
  -1  -5 -19    2.83    0.84
   1  -5  19    1.80    0.85
   1  -5  19    3.40    1.66
   1   5  19    1.15    2.17
   1   5  19    1.51    1.19
   1   5  19    2.35    0.83
   2  -5  19   10.81    1.27
  -2  -5 -19    9.26    1.27
   2   5  19   11.19    2.07
   2   5  19    7.98    3.33
   2   5  19    9.83    1.30
  -3  -5 -19    8.32    1.32
  -3  -5 -19   14.45    2.51
   3   5  19   10.31    1.55
   3   5  19   12.66    2.43
  -4  -6  19    4.95    1.24
  -4  -6  19    4.84    1.98
   4  -6 -19    6.00    1.37
  -4  -6  19    6.06    3.36
  -4   6  19    8.20    1.94
  -4   6  19    7.52    1.40
  -4   6  19    6.74    1.47
  -3  -6  19    1.63    0.90
   3  -6 -19    2.82    0.95
  -3  -6  19   -0.50    1.63
  -3  -6  19   -0.13    5.02
  -3   6  19    0.20    1.51
  -3   6  19    1.22    0.98
  -3   6  19    0.35    1.10
  -2  -6  19    2.08    0.82
  -2  -6  19    2.19    1.39
   2  -6 -19   -0.13    0.78
  -2   6  19   -0.28    0.98
  -2   6  19   -2.20    1.36
  -2   6  19    1.44    0.81
  -1  -6  19   19.74    1.58
   1  -6 -19   21.31    1.69
  -1   6  19   18.66    1.66
  -1   6  19   20.76    2.00
  -1   6  19   22.05    2.61
   0  -6  19    2.98    1.54
   0  -6 -19    4.69    0.96
   0  -6  19    3.60    0.88
   0   6  19    2.68    1.13
   0   6  19    3.70    0.89
   0   6  19    4.65    1.96
   1  -6  19   46.81    3.51
   1  -6  19   48.14    2.33
  -1  -6 -19   42.94    2.41
   1   6  19   41.09    2.90
   1   6  19   55.57    4.84
   1   6  19   45.61    2.47
   2  -6  19   15.95    1.51
  -2  -6 -19   16.74    1.81
   2   6  19   21.26    3.88
   2   6  19   16.87    1.97
   2   6  19   15.88    2.18
  -3  -6 -19   31.76    3.88
  -3  -6 -19   30.29    2.30
   3   6  19   31.02    2.61
   3   6  19   34.18    3.97
  -4  -7  19    1.47    1.20
  -4  -7  19   -0.87    1.94
   4  -7 -19    0.25    1.25
  -4   7  19    2.95    1.37
  -4   7  19    1.29    1.77
  -3  -7  19    2.82    1.85
   3  -7 -19    1.04    0.96
  -3  -7  19    0.40    0.96
  -3   7  19    3.67    1.29
  -3   7  19    1.35    1.11
  -3   7  19   -0.68    1.57
  -2  -7  19    3.13    0.90
   2  -7 -19    2.78    0.83
  -2  -7  19    6.34    1.72
  -2   7  19    1.50    1.03
  -2   7  19    1.69    1.17
  -2   7  19    1.93    1.65
  -1  -7  19    9.47    1.11
   1  -7 -19    7.52    1.06
  -1  -7  19    7.12    1.81
  -1   7  19   11.21    1.27
  -1   7  19    7.96    1.90
  -1   7  19   12.86    1.65
   0  -7 -19    1.96    0.83
   0  -7  19   -0.03    1.68
   0  -7  19    0.68    0.78
   0   7  19    1.66    1.88
   0   7  19    0.62    0.81
   0   7  19   -0.07    1.07
   1  -7  19   27.69    1.94
  -1  -7 -19   29.61    2.07
   1   7  19   27.88    2.10
   1   7  19   29.07    3.97
   1   7  19   24.70    3.22
   1   7  19   23.50    2.48
  -2  -7 -19    0.20    2.21
  -2  -7 -19   -0.69    0.95
   2   7  19    1.11    1.64
   2   7  19   -2.18    3.13
   2   7  19    0.98    1.11
  -3  -7 -19   21.22    2.12
  -3  -7 -19   17.22    2.23
  -3  -7 -19   20.47    3.00
   3   7  19   22.27    2.82
   3   7  19   15.16    1.91
   3  -8 -19    0.64    1.07
  -3  -8  19    2.23    1.03
  -3  -8  19    2.39    1.97
  -3   8  19    1.00    1.61
  -3   8  19   -0.50    1.21
  -3   8  19    2.02    1.24
  -2  -8  19    3.21    0.95
   2  -8 -19    2.31    0.94
  -2  -8  19   -1.38    1.60
  -2   8  19    3.36    1.09
  -2   8  19    0.85    1.22
  -2   8  19    0.36    1.62
  -1  -8  19   25.70    3.14
   1  -8 -19   20.38    2.20
   1  -8 -19   19.83    1.77
  -1  -8  19   19.01    1.75
  -1   8  19   16.99    2.37
  -1   8  19   21.66    1.86
  -1   8  19   18.84    2.08
   0  -8  19    1.35    1.87
   0  -8  19   -0.23    0.85
   0  -8 -19    1.12    0.85
   0   8  19   -0.69    1.11
   0   8  19    0.70    0.94
   0   8  19   -3.09    1.91
  -1  -8 -19   55.28    4.55
   1  -8  19   63.34    2.75
  -1  -8 -19   53.89    2.80
   1   8  19   54.52    3.55
   1   8  19   64.50    5.39
   1   8  19   61.74    5.04
   1   8  19   58.67    2.98
  -2  -8 -19    0.16    1.00
  -2  -8 -19    2.01    2.49
  -2  -8 -19   -0.65    1.06
   2   8  19    0.03    1.70
   2   8  19   -1.44    3.19
   2   8  19    0.15    1.17
  -3  -9  19    6.12    2.34
   3  -9 -19   10.48    1.71
  -3  -9  19   10.64    1.38
  -3   9  19    9.14    1.60
  -3   9  19    7.82    2.04
  -2  -9  19   21.57    2.00
  -2  -9  19   23.05    2.69
   2  -9 -19   18.83    1.94
  -2   9  19   21.75    2.40
  -2   9  19   24.79    2.15
  -2   9  19   23.86    2.80
  -1  -9  19    4.05    1.06
   1  -9 -19    5.55    1.08
  -1  -9  19    9.38    2.18
  -1   9  19    4.00    1.95
  -1   9  19    4.10    1.14
  -1   9  19    7.27    1.52
   0  -9 -19   14.72    1.51
   0  -9  19   17.48    1.86
   0  -9 -19   16.03    1.47
   0   9  19   17.59    2.03
   0   9  19   16.60    2.67
   0   9  19   14.50    1.55
  -1  -9 -19   -1.85    0.89
  -1  -9 -19    0.90    1.09
   1   9  19   -0.75    1.43
   1   9  19   -0.81    2.48
   1   9  19    0.35    2.72
   1   9  19    2.95    1.09
  -2  -9 -19    2.10    1.14
  -2  -9 -19    0.07    1.06
  -2  -9 -19   -0.47    2.59
   2   9  19    2.29    1.32
   2   9  19    7.56    3.69
   2   9  19   -0.07    1.81
  -3 -10  19    0.43    1.30
  -3 -10  19    2.87    2.27
  -3  10  19    2.46    2.02
   2 -10 -19    4.59    1.20
  -2 -10  19    7.28    1.25
  -2 -10  19    6.88    2.28
  -2  10  19    3.21    1.88
  -2  10  19    5.05    1.45
  -2  10  19    6.56    1.40
  -1 -10  19   18.92    1.97
   1 -10 -19   13.23    1.53
  -1  10  19   10.17    2.26
  -1  10  19   14.44    1.85
  -1  10  19   16.70    2.09
   0 -10  19    1.49    1.18
   0 -10 -19   -1.02    0.89
   0  10  19   -2.08    2.09
   0  10  19    1.23    1.12
   0  10  19   -0.06    1.41
   0  10  19   -2.65    2.16
  -1 -10 -19    4.96    1.19
  -1 -10 -19    4.95    1.32
   1  10  19    7.50    1.75
   1  10  19    4.51    3.21
   1  10  19    4.96    2.78
   1  10  19    5.83    1.34
   2 -11 -19    3.40    1.24
  -2 -11  19    0.18    1.20
  -2  11  19   -0.71    2.01
  -2  11  19   -1.22    1.48
  -2  11  19   -2.57    1.27
   1 -11 -19   28.42    2.30
  -1 -11  19   32.50    2.36
  -1  11  19   31.65    2.62
  -1  11  19   26.16    3.20
  -1  11  19   25.92    2.83
   0 -11 -19    0.26    1.00
   0  11  19   -2.93    2.60
   0  11  19   -0.60    1.18
   0  11  19    0.03    1.54
   0  11  19   -3.12    2.42
  -1 -11 -19    1.20    1.14
   1  11  19    0.62    3.32
   1  11  19    0.50    1.37
   1  11  19    2.55    1.76
   1  11  19    4.01    2.92
  -4   0  20    5.93    2.41
  -4   0  20    5.32    1.26
  -4   0  20    4.96    1.60
   3   0 -20    0.77    0.97
  -3   0  20    1.03    0.89
  -3   0  20    0.64    1.16
  -3   0  20    2.33    1.98
  -2   0  20    8.40    1.50
  -2   0  20   12.40    1.47
  -1   0  20   -0.03    0.68
  -1   0  20   -0.92    1.03
  -1   0  20    0.45    1.79
   0   0  20   12.28    1.72
   0   0  20   12.67    2.61
   0   0  20   10.40    1.19
   1   0  20   -0.21    1.37
   1   0  20    0.58    0.74
   2   0  20    9.81    2.11
   2   0  20    6.27    1.16
   3   0  20   -0.87    1.19
   3   0  20   -3.39    3.61
  -4  -1  20    9.80    1.43
  -4  -1  20    8.11    2.75
   4  -1 -20   11.32    1.51
  -4  -1  20    7.61    1.75
  -4   1  20    8.76    2.55
  -4   1  20    6.97    1.38
  -4   1  20   11.31    1.80
  -3  -1  20    3.64    1.39
   3  -1 -20    3.72    1.03
  -3  -1  20    3.81    0.96
  -3  -1  20    4.39    2.19
  -3   1  20    4.61    1.34
   3   1 -20    3.08    1.08
  -3   1  20    2.39    1.98
  -3   1  20    2.66    0.99
   2  -1 -20   59.58    2.75
  -2  -1  20   59.36    4.72
  -2  -1  20   61.18    2.70
  -2  -1  20   60.27    3.32
  -2   1  20   54.97    3.14
  -2   1  20   69.10    4.41
  -2   1  20   55.35    2.64
  -1  -1  20   30.60    3.94
  -1  -1  20   30.57    1.82
  -1  -1  20   30.63    2.44
  -1   1  20   28.90    2.30
  -1   1  20   30.78    3.70
  -1   1  20   27.69    1.78
   0  -1  20   83.22    5.49
   0  -1  20   92.24    4.17
   0  -1  20   93.66    3.54
   0   1  20   88.89    3.54
   0   1  20   89.22    4.16
   0   1  20   90.97    5.58
   1  -1  20   23.69    1.74
   1  -1  20   23.40    2.58
   1   1  20   20.70    2.57
   1   1  20   23.19    3.45
   1   1  20   22.76    1.77
   2  -1  20   19.53    2.53
   2  -1  20   18.09    1.91
   2   1  20   20.63    2.38
   2   1  20   17.85    1.90
   3  -1  20    0.18    1.31
   3   1  20    4.75    2.42
   3   1  20    2.91    1.27
  -4  -2  20    7.82    2.75
   4  -2 -20    6.22    1.33
  -4  -2  20    4.39    1.72
  -4  -2  20    4.19    1.18
  -4   2  20    7.77    1.61
  -4   2  20    8.58    2.52
  -4   2  20    8.20    1.43
  -3  -2  20   21.46    1.88
   3  -2 -20   20.51    1.88
  -3  -2  20   18.26    2.14
  -3  -2  20   26.40    3.22
  -3   2  20   21.55    1.88
  -3   2  20   20.59    2.26
  -3   2  20   20.76    2.76
   2  -2 -20   -0.05    0.82
  -2  -2  20   -0.57    1.99
  -2  -2  20   -1.26    0.71
  -2  -2  20   -2.00    1.09
  -2   2  20    0.55    1.05
  -2   2  20    2.97    1.74
  -2   2  20    0.86    0.77
  -1  -2  20    7.27    2.36
  -1  -2  20    6.29    0.91
   1  -2 -20    6.67    1.05
  -1  -2  20    7.45    1.49
  -1   2  20    6.54    1.96
  -1   2  20    6.45    1.02
  -1   2  20    5.51    1.23
   0  -2  20   10.88    1.20
   0  -2  20    9.03    2.48
   0  -2  20    7.74    1.55
   0   2  20   10.50    1.53
   0   2  20    9.55    1.13
   0   2  20   13.04    2.59
   1  -2  20    9.20    1.16
   1   2  20   10.17    1.74
   1   2  20    8.44    1.12
   1   2  20    8.48    2.76
   2  -2  20   19.87    2.53
   2  -2  20   25.67    2.07
   2   2  20   26.37    2.09
   2   2  20   26.84    3.05
   3  -2  20   25.17    2.38
   3   2  20   25.36    2.45
   3   2  20   28.23    3.33
  -4  -3  20    9.81    1.95
  -4  -3  20   10.81    3.27
   4  -3 -20   16.51    2.09
  -4  -3  20    9.47    1.46
  -4   3  20    8.57    1.62
  -4   3  20    8.88    2.30
  -4   3  20   14.67    1.60
   3  -3 -20    1.47    0.97
  -3  -3  20    3.16    1.50
  -3  -3  20   -0.26    2.45
  -3  -3  20    2.12    0.86
  -3   3  20    4.78    1.91
  -3   3  20    1.77    1.12
  -3   3  20    0.78    0.95
  -2  -3  20    2.30    1.34
  -2  -3  20    0.60    2.28
  -2  -3  20    3.37    0.86
   2  -3 -20    4.22    0.96
  -2   3  20    4.86    1.86
  -2   3  20    0.07    1.10
  -2   3  20    3.66    0.96
  -1  -3  20    2.81    2.17
   1  -3 -20    4.00    0.86
  -1  -3  20    3.34    0.84
  -1  -3  20    2.53    1.35
  -1   3  20    3.72    1.22
  -1   3  20    2.82    0.88
  -1   3  20   -1.21    2.32
   0  -3 -20    0.21    0.72
   0  -3  20    0.30    1.59
   0  -3  20    2.70    0.87
   0   3  20    2.26    0.74
   0   3  20    2.85    2.17
   0   3  20    1.68    1.28
   1  -3  20    0.64    0.83
   1   3  20    1.90    0.88
   1   3  20    1.47    1.37
   1   3  20    1.01    2.56
   2  -3  20    6.35    1.20
   2  -3  20    5.54    2.18
   2   3  20    6.00    1.20
   2   3  20    7.69    1.87
  -3  -3 -20    2.48    1.13
   3  -3  20    1.14    1.43
   3   3  20    2.74    2.35
   3   3  20   -0.42    1.29
  -4  -4  20   74.45    6.58
  -4  -4  20   50.73    3.88
  -4  -4  20   57.88    3.16
   4  -4 -20   66.06    3.13
  -4   4  20   54.67    3.43
  -4   4  20   57.85    4.59
  -4   4  20   59.56    3.18
   3  -4 -20    2.36    1.00
  -3  -4  20    3.41    1.53
  -3  -4  20   -0.85    2.69
  -3  -4  20    4.28    1.07
  -3   4  20    4.98    1.37
  -3   4  20    3.34    1.82
  -3   4  20    1.24    0.98
  -2  -4  20   23.21    3.20
  -2  -4  20   20.52    1.74
  -2  -4  20   19.90    2.20
   2  -4 -20   19.54    1.76
  -2   4  20   25.98    3.26
  -2   4  20   20.45    2.21
  -2   4  20   19.06    1.75
   1  -4 -20    0.17    0.81
  -1  -4  20   -0.10    0.71
  -1  -4  20   -1.75    1.28
  -1   4  20    1.38    1.82
  -1   4  20    0.23    1.03
  -1   4  20    0.48    0.80
   0  -4  20   15.38    1.53
   0  -4  20   11.22    2.12
   0  -4 -20   11.77    1.32
   0   4  20   10.72    1.58
   0   4  20   10.09    1.19
  -1  -4 -20   -0.25    0.77
   1  -4  20    2.34    0.87
   1   4  20   -0.26    0.99
   1   4  20    4.55    2.83
   1   4  20    1.66    1.34
   2  -4  20   69.11    3.06
  -2  -4 -20   63.74    3.10
   2   4  20   63.74    3.20
   2   4  20   65.16    4.12
  -3  -4 -20   -1.55    2.14
  -3  -4 -20    0.53    1.10
   3   4  20    4.91    2.40
   3   4  20   -1.82    1.25
   4  -5 -20    6.34    1.42
  -4  -5  20    4.03    3.41
  -4  -5  20    6.02    2.07
  -4  -5  20    8.44    1.48
  -4   5  20   10.61    1.66
  -4   5  20    8.29    2.15
  -4   5  20    7.59    1.49
  -3  -5  20    7.55    1.87
  -3  -5  20    5.30    3.07
   3  -5 -20    7.32    1.19
  -3  -5  20    6.02    1.11
  -3   5  20    7.29    1.25
  -3   5  20    7.54    2.01
  -3   5  20    3.97    1.46
   2  -5 -20   16.12    1.75
  -2  -5  20   17.16    1.66
  -2  -5  20   14.50    2.07
  -2   5  20   15.33    1.79
  -2   5  20   18.97    2.48
  -2   5  20   14.72    1.70
  -1  -5  20   25.21    2.80
   1  -5 -20   24.03    1.90
  -1  -5  20   26.00    1.83
  -1   5  20   31.01    2.02
  -1   5  20   35.88    3.77
  -1   5  20   25.10    2.36
   0  -5 -20    4.22    0.97
   0  -5  20    5.53    0.96
   0  -5  20    3.82    1.73
   0   5  20    4.56    2.20
   0   5  20    2.64    1.31
   0   5  20    4.14    0.94
   1  -5  20   23.50    1.84
  -1  -5 -20   21.53    1.85
   1   5  20   25.44    3.52
   1   5  20   23.00    1.92
   1   5  20   20.91    2.49
  -2  -5 -20    0.35    0.91
   2  -5  20    1.72    1.18
   2   5  20    1.63    1.82
   2   5  20    0.73    1.15
  -3  -5 -20    1.90    1.18
  -3  -5 -20    4.27    2.46
   3   5  20    3.22    2.31
   3   5  20   -0.01    1.40
  -4  -6  20    3.79    2.12
   4  -6 -20   -0.77    1.25
  -4  -6  20   -2.23    1.22
  -4   6  20    0.14    1.50
  -4   6  20    0.10    1.98
  -4   6  20    4.15    1.45
  -3  -6  20   14.09    1.52
  -3  -6  20   16.68    2.34
   3  -6 -20   14.81    1.57
  -3   6  20   13.53    1.79
  -3   6  20   14.59    2.29
  -3   6  20   15.72    1.57
  -2  -6  20    9.69    1.21
   2  -6 -20    6.55    1.11
  -2  -6  20    6.66    1.87
  -2   6  20   12.03    1.42
  -2   6  20    7.89    1.50
  -2   6  20   13.71    2.35
  -1  -6  20    6.69    1.81
   1  -6 -20    6.25    1.16
  -1  -6  20    7.63    1.09
  -1   6  20   11.20    2.26
  -1   6  20    5.61    1.09
  -1   6  20    5.99    1.37
   0  -6  20   13.41    2.07
   0  -6 -20   10.16    1.28
   0  -6  20   13.77    1.62
   0   6  20   12.44    2.59
   0   6  20    9.36    1.21
   0   6  20    8.37    1.56
  -1  -6 -20    2.36    0.97
   1  -6  20    2.71    1.02
   1   6  20    1.35    1.42
   1   6  20    4.91    1.13
   1   6  20    2.22    2.73
  -2  -6 -20    3.29    1.08
  -2  -6 -20    3.18    2.32
   2   6  20    3.46    1.79
   2   6  20    5.02    1.27
  -3  -7  20    2.85    1.10
  -3  -7  20    2.59    1.98
   3  -7 -20    0.52    1.09
  -3   7  20    1.32    1.41
  -3   7  20    0.94    1.83
  -3   7  20    1.88    1.25
  -2  -7  20   65.85    3.17
   2  -7 -20   79.71    3.34
  -2   7  20   72.61    3.65
  -2   7  20   79.00    3.41
  -2   7  20   75.25    4.76
  -1  -7  20    5.02    1.02
   1  -7 -20    4.13    0.96
  -1  -7  20    1.85    1.85
  -1   7  20    6.26    1.15
  -1   7  20    5.16    2.09
  -1   7  20    5.31    1.37
   0  -7 -20   82.82    3.55
   0  -7  20   83.23    3.41
   0  -7  20   94.98    4.70
   0   7  20   84.77    3.64
   0   7  20   78.15    3.99
   0   7  20   82.89    5.58
   1  -7  20    3.59    1.17
  -1  -7 -20    2.31    1.07
   1   7  20    2.35    2.49
   1   7  20    3.44    2.98
   1   7  20    0.62    1.49
   1   7  20    3.39    1.06
  -2  -7 -20   21.59    2.06
  -2  -7 -20   22.22    3.19
   2   7  20   20.44    2.28
   2   7  20   19.01    2.56
  -3  -8  20    9.43    1.41
  -3  -8  20   16.58    2.57
   3  -8 -20    6.41    1.37
  -3   8  20   11.44    1.66
  -3   8  20    6.63    1.61
  -3   8  20    3.15    1.94
  -2  -8  20    3.44    1.14
   2  -8 -20    4.64    1.18
  -2  -8  20    1.95    2.17
  -2   8  20    5.10    1.45
  -2   8  20    4.48    1.93
  -2   8  20    4.57    1.24
  -1  -8  20   -0.64    1.94
   1  -8 -20    0.93    0.88
  -1  -8  20    1.98    1.01
  -1   8  20    2.10    2.07
  -1   8  20   -0.15    1.05
  -1   8  20    0.83    1.24
   0  -8  20    7.50    1.22
   0  -8 -20    8.04    1.19
   0   8  20    4.30    1.22
   0   8  20    9.65    1.66
   0   8  20    3.17    2.37
  -1  -8 -20    2.86    1.06
   1  -8  20    4.70    1.99
  -1  -8 -20    5.20    3.03
   1   8  20    3.10    1.56
   1   8  20    3.10    1.22
   1   8  20    6.06    3.05
   1   8  20    2.50    3.10
  -2  -8 -20    4.30    2.65
  -2  -8 -20    4.29    1.23
  -2  -8 -20    2.48    1.30
   2   8  20    6.36    1.47
   2   8  20    3.93    2.09
   2  -9 -20   14.09    1.57
  -2  -9  20   13.60    2.60
  -2  -9  20   13.20    1.48
  -2   9  20   14.73    2.48
  -2   9  20   16.05    1.76
  -2   9  20   11.35    1.73
   1  -9 -20   16.09    1.88
  -1  -9  20   15.13    1.94
  -1  -9  20   16.71    3.11
  -1   9  20   15.57    2.78
  -1   9  20   13.46    1.63
  -1   9  20   17.12    1.99
   0  -9  20   18.95    2.07
   0  -9 -20   14.71    1.90
   0  -9 -20   17.76    2.15
   0   9  20   18.03    2.18
   0   9  20   13.20    3.00
   0   9  20   20.09    2.15
  -1  -9 -20   17.89    2.02
  -1  -9 -20   21.46    2.23
   1   9  20   21.90    2.33
   1   9  20   27.72    3.80
   1   9  20   16.77    3.55
   1   9  20   19.00    2.38
   2 -10 -20    4.39    1.37
  -2 -10  20    9.91    3.16
  -2 -10  20    3.58    1.32
  -2  10  20    8.26    1.70
  -2  10  20    6.70    2.31
  -2  10  20    9.12    1.58
  -1 -10  20   -1.01    1.11
   1 -10 -20   -0.14    1.04
  -1  10  20   -3.58    2.15
  -1  10  20    1.74    1.31
  -1  10  20    0.14    1.52
   0 -10 -20    2.97    1.15
   0  10  20    2.54    1.69
   0  10  20    8.37    2.80
   0  10  20    3.49    1.26
   0  10  20    5.02    2.70
  -4   0  21    0.73    1.15
  -4   0  21    3.48    1.63
  -4   0  21    4.78    2.66
  -3   0  21   49.92    3.30
   3   0 -21   49.73    2.82
  -3   0  21   46.86    2.66
  -3   0  21   59.33    5.18
  -2   0  21   -0.89    0.79
  -2   0  21    0.90    1.27
  -2   0  21   -1.62    2.06
  -1   0  21   16.09    1.62
  -1   0  21   24.87    3.41
  -1   0  21   20.66    2.26
   0   0  21    2.40    1.37
   0   0  21    1.20    2.65
   0   0  21    0.36    0.77
   1   0  21   -2.22    1.47
   1   0  21    2.74    0.94
   2   0  21    0.15    1.07
   2   0  21   -0.30    1.92
   3   0  21   27.05    2.54
  -4  -1  21   -0.46    1.66
  -4  -1  21   -0.52    1.15
  -4  -1  21   -2.16    2.70
  -4   1  21   -0.78    1.22
  -4   1  21   -1.43    1.54
  -4   1  21    0.91    2.56
   3  -1 -21    6.31    1.26
  -3  -1  21   10.05    2.84
  -3  -1  21    7.63    1.70
  -3  -1  21    6.84    1.25
   3   1 -21    5.88    1.26
  -3   1  21    5.29    1.42
  -3   1  21    8.26    1.27
  -3   1  21    6.34    2.40
   2  -1 -21    0.06    0.90
  -2  -1  21    3.46    2.21
  -2  -1  21    1.39    1.22
  -2  -1  21    2.30    0.90
  -2   1  21    2.99    1.30
  -2   1  21    3.50    2.06
  -2   1  21    1.67    0.87
  -1  -1  21    9.30    1.57
  -1  -1  21    4.57    2.49
  -1  -1  21    8.62    1.11
  -1   1  21    7.11    2.41
  -1   1  21    6.66    1.02
  -1   1  21    8.80    1.51
   0  -1  21    6.51    1.58
   0  -1  21    3.91    0.95
   0   1  21    6.64    1.56
   0   1  21    4.87    1.02
   0   1  21    1.53    2.63
   1  -1  21    1.98    0.89
   1  -1  21    3.87    1.67
   1   1  21    2.35    0.99
   1   1  21    2.57    1.53
   2  -1  21   10.68    2.38
   2  -1  21    9.98    1.42
   2   1  21    7.38    1.31
   2   1  21    9.15    2.26
   3  -1  21    2.85    1.39
   3   1  21   -1.20    1.35
  -4  -2  21   10.93    3.18
  -4  -2  21   10.32    2.08
  -4  -2  21    8.48    1.47
  -4   2  21    7.13    1.47
  -4   2  21    7.82    2.66
  -4   2  21    7.05    1.74
  -3  -2  21   12.14    2.97
   3  -2 -21   10.51    1.35
  -3  -2  21   12.19    1.87
  -3  -2  21   10.18    1.38
  -3   2  21    9.01    1.65
  -3   2  21   16.59    2.68
  -3   2  21    9.67    1.41
   3   2 -21    9.19    1.41
  -2  -2  21   25.15    2.65
   2  -2 -21   24.79    1.98
  -2  -2  21   24.48    3.38
  -2  -2  21   20.27    1.79
  -2   2  21   18.39    2.89
  -2   2  21   21.94    2.37
  -2   2  21   20.08    1.86
   1  -2 -21    2.13    0.84
  -1  -2  21    2.45    1.31
  -1  -2  21    5.33    2.52
  -1  -2  21    0.37    0.79
  -1   2  21    2.41    1.21
  -1   2  21    4.28    2.04
  -1   2  21    3.32    0.93
   0  -2  21    7.91    1.68
   0  -2  21    7.00    1.09
   0   2  21    8.87    1.20
   0   2  21    7.86    3.42
   0   2  21    7.62    1.59
   1  -2  21    3.35    1.78
   1  -2  21    4.99    1.01
   1   2  21    1.42    1.45
   1   2  21    2.01    1.00
   2  -2  21   -1.33    2.05
   2  -2  21    1.98    1.21
   2   2  21    1.07    1.10
   2   2  21    1.49    1.85
   3  -2  21   15.19    1.73
   3   2  21   12.09    2.85
   3   2  21    9.44    1.67
  -4  -3  21    2.47    1.83
  -4  -3  21    0.43    3.04
  -4  -3  21    0.42    1.24
  -4   3  21    0.75    1.30
  -4   3  21    2.25    2.33
   3  -3 -21   -0.27    1.09
  -3  -3  21    4.53    2.96
  -3  -3  21    2.12    1.00
  -3  -3  21    0.06    1.53
  -3   3  21    0.81    1.03
  -3   3  21    2.75    2.12
  -3   3  21    5.32    1.46
  -2  -3  21    0.65    0.86
   2  -3 -21    1.75    1.01
  -2  -3  21    2.57    1.46
  -2  -3  21   -0.13    2.76
  -2   3  21    1.75    0.93
  -2   3  21    3.12    1.91
  -2   3  21    2.59    1.31
   1  -3 -21   31.52    2.10
  -1  -3  21   29.03    2.92
  -1  -3  21   31.46    1.99
  -1   3  21   31.07    2.13
  -1   3  21   32.89    4.24
  -1   3  21   24.73    2.62
   0  -3  21    3.70    1.03
   0  -3  21    6.75    1.64
   0  -3 -21    2.19    0.94
   0   3  21    0.65    2.35
   0   3  21    3.90    1.02
   0   3  21    2.31    1.33
  -1  -3 -21   56.42    2.79
   1  -3  21   56.48    2.75
   1  -3  21   58.98    3.96
   1   3  21   50.14    5.72
   1   3  21   60.47    3.61
   1   3  21   56.58    2.90
   2  -3  21    8.11    1.40
  -2  -3 -21    5.48    1.18
   2   3  21    8.97    2.15
   2   3  21    6.64    1.30
  -4  -4  21    5.12    3.41
  -4  -4  21   -0.23    1.31
  -4  -4  21    2.13    2.05
  -4   4  21    3.85    1.43
  -3  -4  21    2.00    3.20
   3  -4 -21    0.18    1.03
  -3  -4  21    0.75    1.07
  -3  -4  21    2.64    1.80
  -3   4  21    2.01    2.04
  -3   4  21    2.65    1.14
  -3   4  21    1.63    1.37
  -2  -4  21    2.95    0.95
  -2  -4  21    3.46    1.61
   2  -4 -21    1.41    0.92
  -2   4  21    2.25    1.31
  -2   4  21    1.21    2.02
  -2   4  21    3.11    1.01
  -1  -4  21   -0.15    0.82
   1  -4 -21    1.26    0.93
  -1  -4  21   -1.52    1.43
  -1   4  21    0.63    0.94
  -1   4  21    1.08    1.26
  -1   4  21   -2.89    2.00
   0  -4 -21    1.37    0.89
   0  -4  21    2.83    1.64
   0  -4  21   -1.64    0.85
   0   4  21   -0.26    0.81
   0   4  21    2.59    2.41
   0   4  21    1.81    1.26
   1  -4  21    9.43    1.22
   1  -4  21    9.69    2.26
  -1  -4 -21   11.35    1.40
   1   4  21   10.37    1.87
   1   4  21   17.03    3.69
   1   4  21   10.07    1.34
   2  -4  21    4.07    1.34
  -2  -4 -21    1.43    1.05
   2   4  21   -0.36    1.11
   2   4  21    1.01    1.93
   3  -5 -21    0.31    1.07
  -3  -5  21   -1.88    1.08
  -3  -5  21   -1.40    1.79
  -3   5  21    1.05    2.03
  -3   5  21    1.57    1.26
  -3   5  21   -0.22    1.42
  -2  -5  21    1.35    0.96
   2  -5 -21    2.02    1.00
  -2  -5  21    1.34    1.68
  -2   5  21    3.39    1.37
  -2   5  21   -1.58    1.90
  -2   5  21    1.17    1.04
   1  -5 -21   35.22    2.22
  -1  -5  21   29.47    2.08
  -1  -5  21   36.84    3.30
  -1   5  21   27.25    3.27
  -1   5  21   26.60    2.68
  -1   5  21   33.48    2.23
   0  -5 -21    6.21    1.18
   0  -5  21    9.13    1.97
   0  -5  21    7.20    1.12
   0   5  21    7.12    2.70
   0   5  21    5.84    1.50
   0   5  21    5.24    1.08
  -1  -5 -21   42.27    2.43
   1  -5  21   36.03    3.87
   1  -5  21   34.84    2.33
   1   5  21   32.77    4.08
   1   5  21   38.31    2.49
   1   5  21   27.02    2.99
  -2  -5 -21    6.39    1.32
   2  -5  21   12.20    1.54
   2   5  21    9.42    1.44
   2   5  21   10.04    2.38
  -3  -6  21   27.30    3.26
   3  -6 -21   22.56    2.20
  -3  -6  21   17.33    2.20
  -3   6  21   20.51    2.64
  -3   6  21   18.43    2.31
  -3   6  21   18.01    2.70
  -2  -6  21   14.51    2.28
  -2  -6  21   12.02    1.41
   2  -6 -21   11.90    1.43
  -2   6  21   15.76    1.90
  -2   6  21   13.97    1.60
  -2   6  21   11.23    2.48
  -1  -6  21   10.45    1.31
   1  -6 -21    7.85    1.22
  -1  -6  21    9.77    2.16
  -1   6  21    7.50    1.25
  -1   6  21    4.91    2.23
  -1   6  21    6.89    1.54
   0  -6  21    5.59    1.18
   0  -6 -21    5.98    1.21
   0  -6  21    7.75    2.10
   0   6  21    4.66    2.57
   0   6  21    9.35    1.32
   0   6  21    6.98    1.58
   1  -6  21    4.39    1.22
  -1  -6 -21    1.04    1.02
   1   6  21    4.60    1.13
   1   6  21    3.88    3.30
   1   6  21    4.53    1.58
  -2  -6 -21   -3.77    2.46
  -2  -6 -21   -0.55    1.12
   2   6  21   -0.76    1.28
   2   6  21   -3.75    1.93
  -3  -7  21    2.83    2.11
   3  -7 -21    1.52    1.23
  -3  -7  21    3.79    1.27
  -3   7  21    0.76    1.40
  -3   7  21    2.56    1.56
  -3   7  21    2.62    2.06
  -2  -7  21   -0.22    1.00
   2  -7 -21    1.10    1.02
  -2  -7  21    3.88    2.04
  -2   7  21    0.82    1.17
  -2   7  21    0.00    1.36
  -2   7  21    1.90    2.03
  -1  -7  21    1.61    2.10
   1  -7 -21    1.02    0.94
  -1  -7  21    1.85    1.07
  -1   7  21    3.72    1.15
  -1   7  21    1.03    2.18
  -1   7  21    3.42    1.43
   0  -7 -21    0.11    0.93
   0  -7  21   -1.68    2.63
   0  -7  21    1.28    1.06
   0   7  21    7.32    2.71
   0   7  21    1.18    1.50
   0   7  21   -0.83    1.02
  -1  -7 -21   -0.60    1.01
   1  -7  21   -0.98    1.21
   1   7  21   -2.33    1.68
   1   7  21    2.32    1.14
   1   7  21    0.47    2.82
   1   7  21   -5.80    2.98
  -2  -8  21    0.53    2.19
   2  -8 -21    1.67    1.16
  -2  -8  21    1.80    1.19
  -2   8  21    0.85    2.13
  -2   8  21    0.09    1.22
  -2   8  21    2.05    1.51
  -1  -8  21   16.03    2.61
  -1  -8  21   11.35    1.39
   1  -8 -21   12.82    1.42
  -1   8  21   11.64    1.77
  -1   8  21   13.01    1.51
  -1   8  21   15.56    2.90
   0  -8  21    3.69    1.21
   0  -8 -21    6.56    1.18
   0   8  21    4.23    1.22
   0   8  21    4.88    1.66
   0   8  21    1.55    2.76
  -1  -8 -21    2.25    1.25
   1   8  21    2.52    1.35
   1   8  21    4.65    3.27
   1   8  21   -4.95    3.14
   1   8  21    0.42    1.75
   1  -9 -21   12.86    1.57
  -1  -9  21   14.56    1.53
  -1   9  21   13.74    1.73
  -1   9  21    9.98    2.81
  -1   9  21   11.26    1.92
   0  -9 -21    7.25    1.33
   0  -9  21   12.20    1.48
   0   9  21   10.92    1.53
   0   9  21    8.42    1.94
   0   9  21    9.70    3.20
   0   9  21   12.16    2.97
  -3   0  22   -0.79    1.02
  -3   0  22    0.48    1.45
   3   0 -22    2.33    1.24
  -3   0  22    1.47    2.79
  -2   0  22   -0.65    2.66
  -2   0  22    1.68    0.93
   2   0 -22    1.30    0.98
  -2   0  22   -2.97    1.28
  -1   0  22    0.03    0.94
  -1   0  22    4.88    2.60
  -1   0  22    1.07    1.40
   0   0  22    9.14    1.89
   0   0  22    8.00    1.15
   1   0  22    1.15    1.81
   1   0  22    0.79    1.01
   2   0  22    5.61    2.39
   2   0  22    8.92    1.52
  -3  -1  22    3.21    1.52
   3  -1 -22    2.49    1.30
  -3  -1  22    3.61    3.00
  -3  -1  22    5.20    1.25
  -3   1  22    0.27    2.31
  -3   1  22    3.53    1.15
  -3   1  22    2.20    1.55
   3   1 -22    3.03    1.35
  -2  -1  22    0.68    0.91
   2  -1 -22   -0.72    1.05
  -2  -1  22    0.79    2.74
  -2  -1  22    1.98    1.47
  -2   1  22   -0.71    2.30
  -2   1  22    0.60    1.33
  -2   1  22   -0.41    0.89
  -1  -1  22   -0.57    0.88
  -1  -1  22   -1.52    2.64
  -1  -1  22   -0.90    1.39
  -1   1  22   -0.19    1.39
  -1   1  22   -2.43    2.47
  -1   1  22    0.35    0.92
   0  -1  22   27.49    3.05
   0  -1  22   24.23    2.00
   0   1  22   31.56    3.94
   0   1  22   21.35    1.96
   0   1  22   30.99    2.86
   1  -1  22    4.74    1.19
   1  -1  22    6.87    1.98
   1   1  22    2.88    1.09
   1   1  22    8.65    2.05
   2  -1  22   51.13    2.90
   2  -1  22   55.26    4.46
   2   1  22   39.92    2.92
  -3  -2  22    9.76    3.38
  -3  -2  22    8.67    1.89
  -3  -2  22   10.48    1.51
   3  -2 -22   14.76    1.69
   3   2 -22   11.59    1.58
  -3   2  22    9.65    2.78
  -3   2  22   12.86    1.52
  -3   2  22    8.90    1.78
  -2  -2  22   24.50    3.56
   2  -2 -22   24.12    2.14
  -2  -2  22   21.03    1.98
  -2  -2  22   24.87    2.94
  -2   2  22   23.22    2.56
  -2   2  22   20.30    2.92
  -2   2  22   19.27    2.00
  -1  -2  22   32.40    2.90
  -1  -2  22   24.83    2.01
   1  -2 -22   27.13    2.11
  -1   2  22   20.48    2.75
  -1   2  22   26.76    3.33
  -1   2  22   27.90    2.14
   0  -2  22   18.30    2.33
   0  -2  22   18.46    1.89
   0   2  22   16.47    1.87
   0   2  22   15.85    2.12
   0   2  22   18.36    3.35
   1  -2  22    8.81    2.25
   1  -2  22    9.97    1.36
   1   2  22   13.00    1.49
   1   2  22   10.58    2.09
   2  -2  22    2.66    1.34
   2   2  22   -0.27    2.07
   2   2  22    2.91    1.34
   3  -3 -22    0.23    1.13
  -3  -3  22    2.95    1.20
  -3  -3  22    6.93    3.44
  -3  -3  22    0.05    1.71
  -3   3  22    2.21    1.18
  -3   3  22    2.88    1.62
  -3   3  22   -1.41    2.11
  -2  -3  22    3.63    1.66
  -2  -3  22    3.99    1.08
   2  -3 -22    6.98    1.33
  -2   3  22    7.85    1.62
  -2   3  22    8.03    1.34
  -2   3  22    3.76    2.36
   1  -3 -22    3.69    1.13
  -1  -3  22    4.78    1.75
  -1  -3  22    1.82    0.95
  -1   3  22    0.57    1.45
  -1   3  22    1.94    1.01
  -1   3  22    2.77    2.46
   0  -3 -22    6.04    1.12
   0  -3  22    4.26    1.85
   0  -3  22    6.09    1.15
   0   3  22    6.26    2.97
   0   3  22    7.60    1.26
   0   3  22    3.26    1.56
   1  -3  22    0.69    1.08
  -1  -3 -22    1.84    1.06
   1  -3  22    2.38    2.19
   1   3  22   -1.62    1.62
   1   3  22   -1.10    1.02
  -2  -3 -22   -1.13    1.07
   2  -3  22    1.68    1.34
   2   3  22    1.16    2.11
   2   3  22    0.76    1.34
   3  -4 -22    0.46    1.13
  -3  -4  22   -1.57    1.17
  -3  -4  22    1.98    1.95
  -3   4  22    0.56    1.25
  -3   4  22   -1.11    1.55
  -3   4  22   -1.91    2.17
  -2  -4  22   60.25    3.96
   2  -4 -22   59.69    3.03
  -2  -4  22   55.82    2.90
  -2   4  22   58.53    3.03
  -2   4  22   60.82    5.20
  -2   4  22   58.96    3.60
   1  -4 -22    2.60    1.09
  -1  -4  22    3.14    1.00
  -1  -4  22    4.77    1.80
  -1   4  22   -0.08    2.43
  -1   4  22    3.37    1.11
  -1   4  22    1.53    1.46
   0  -4  22   52.33    3.74
   0  -4 -22   53.28    2.82
   0  -4  22   46.92    2.67
   0   4  22   64.03    5.76
   0   4  22   45.98    2.69
   0   4  22   50.89    3.55
   1  -4  22    2.19    1.12
  -1  -4 -22    1.75    1.09
   1  -4  22    0.19    2.02
   1   4  22    3.01    1.20
   1   4  22    2.41    1.71
   2  -4  22    6.95    1.46
  -2  -4 -22    5.22    1.33
   2   4  22    6.38    1.65
   2   4  22    6.91    2.39
  -3  -5  22    8.61    2.25
   3  -5 -22    7.62    1.40
  -3  -5  22    8.56    1.56
  -3   5  22    7.21    1.49
  -3   5  22   10.79    1.96
  -3   5  22    6.56    2.48
  -2  -5  22    1.23    1.02
  -2  -5  22    4.19    1.89
   2  -5 -22    1.23    1.06
  -2   5  22    1.67    2.20
  -2   5  22    2.08    1.16
  -2   5  22    3.70    1.51
  -1  -5  22   -0.84    1.91
   1  -5 -22    0.30    0.97
  -1  -5  22    1.58    0.98
  -1   5  22    3.41    2.37
  -1   5  22    1.19    1.47
  -1   5  22   -0.24    1.03
   0  -5  22    9.97    2.16
   0  -5 -22    5.81    1.18
   0  -5  22    5.99    1.21
   0   5  22    7.71    1.77
   0   5  22    5.17    3.03
   0   5  22    3.79    1.24
  -1  -5 -22    9.27    1.42
   1  -5  22   11.17    1.45
   1   5  22    8.11    1.38
   1   5  22   10.19    2.07
  -2  -6  22    2.19    1.10
   2  -6 -22    1.66    1.19
  -2  -6  22    2.81    1.99
  -2   6  22    2.51    1.55
  -2   6  22    0.38    1.22
  -2   6  22    3.02    2.37
  -1  -6  22   11.41    1.36
   1  -6 -22   10.70    1.40
  -1  -6  22   12.90    2.41
  -1   6  22   13.73    1.91
  -1   6  22   12.45    1.49
  -1   6  22    7.85    2.72
   0  -6  22    2.85    1.13
   0  -6 -22   -0.80    1.01
   0  -6  22    1.99    2.09
   0   6  22    0.23    1.52
   0   6  22    0.11    2.84
   0   6  22    0.99    1.13
  -1  -6 -22    5.08    1.30
   1  -6  22    8.62    1.40
   1   6  22    7.14    4.21
   1   6  22    3.63    1.27
   1   6  22    5.17    2.05
  -2  -7  22   -0.04    1.22
  -2  -7  22   -5.50    2.02
  -2   7  22    0.52    1.33
  -2   7  22    5.09    2.40
  -1  -7  22   -5.75    2.05
   1  -7 -22    0.62    1.09
  -1  -7  22    0.62    1.14
  -1   7  22    1.20    1.23
  -1   7  22    1.69    2.60
  -1   7  22    0.30    1.48
   0  -7 -22   22.39    2.24
   0  -7  22   24.16    2.24
   0   7  22   22.54    2.90
   0   7  22   26.20    2.52
   0   7  22   20.83    3.65
  -2   0  23    3.97    2.89
   2   0 -23    0.71    1.18
  -2   0  23   -2.04    1.05
  -2   0  23    1.61    1.52
  -1   0  23   61.41    3.03
  -1   0  23   56.34    3.86
  -1   0  23   61.98    6.64
   0   0  23    0.42    1.02
   0   0  23    0.33    1.65
   1   0  23   58.15    3.10
   1   0  23   57.66    4.36
  -2  -1  23    9.23    1.39
  -2  -1  23    8.03    1.87
  -2  -1  23    2.34    3.19
   2  -1 -23    6.16    1.26
  -2   1  23    5.21    1.19
  -2   1  23    6.57    3.04
  -2   1  23    5.10    1.73
  -1  -1  23   -0.83    1.62
  -1  -1  23    2.62    1.13
   1  -1 -23    0.71    1.03
  -1   1  23   -0.39    2.96
  -1   1  23   -1.26    1.58
  -1   1  23    0.50    1.01
   0  -1  23    2.92    1.87
   0  -1  23   -0.43    1.03
   0   1  23    0.03    1.01
   0   1  23    1.12    1.79
   1  -1  23    1.37    1.19
   1  -1  23   -2.69    1.97
   1   1  23   -0.70    1.96
   1   1  23   -0.47    1.20
   2  -2 -23   10.67    1.46
  -2  -2  23   10.93    1.44
  -2  -2  23    9.28    1.92
  -2   2  23   10.50    1.46
  -2   2  23   16.14    3.22
  -2   2  23    9.35    1.80
   1  -2 -23   12.41    1.57
  -1  -2  23   12.30    2.04
  -1  -2  23   17.79    1.98
  -1   2  23    9.21    1.39
  -1   2  23    9.71    3.27
  -1   2  23   12.92    2.07
   0  -2  23   16.01    2.04
   0  -2  23   20.25    2.56
   0  -2 -23   18.37    1.99
   0   2  23   16.41    2.00
   0   2  23   17.82    2.33
   1  -2  23    5.64    2.35
  -1  -2 -23    3.60    1.22
   1  -2  23    3.67    1.32
   1   2  23    9.33    2.20
   1   2  23    6.21    1.35
   2  -3 -23    4.97    1.34
  -2  -3  23    5.18    1.26
  -2  -3  23    3.13    1.89
  -2   3  23    7.25    2.75
  -2   3  23    7.32    1.36
  -2   3  23    4.11    1.75
  -1  -3  23    2.92    1.89
  -1  -3  23    5.61    1.20
   1  -3 -23    9.23    1.35
  -1   3  23    9.18    1.39
  -1   3  23    5.88    3.00
  -1   3  23    7.37    1.85
   0  -3  23    2.71    2.09
   0  -3 -23   -0.77    1.08
   0  -3  23    1.41    1.12
   0   3  23    0.65    1.63
   0   3  23    1.32    1.04
   0   3  23   -1.56    3.22
   1  -3  23    7.89    2.41
  -1  -3 -23    6.33    1.40
   1  -3  23    7.40    1.44
   1   3  23    9.36    1.44
   1   3  23    8.33    2.15
  -2  -4  23    0.93    1.21
  -2  -4  23   -0.74    1.88
   2  -4 -23    1.16    1.24
  -2   4  23    0.72    1.26
  -2   4  23   -2.62    2.62
  -2   4  23    1.51    1.65
  -1  -4  23    2.68    1.86
   1  -4 -23   -0.36    1.13
  -1  -4  23   -3.03    1.06
  -1   4  23   -4.81    2.78
  -1   4  23   -1.60    1.55
  -1   4  23    1.02    1.13
   0  -4 -23    6.42    1.30
   0  -4  23    4.57    1.22
   0  -4  23    2.58    2.15
   0   4  23    2.70    1.27
   0   4  23    0.66    3.27
   0   4  23    4.30    1.78
  -1  -5  23    8.16    2.18
   1  -5 -23   -1.74    1.14
  -1  -5  23    1.25    1.22
  -1   5  23   -1.78    1.67
  -1   5  23   -0.79    2.88
  -1   5  23   -0.35    1.24
   0  -5  23    2.76    2.25
   0  -5  23    2.25    1.23
   0  -5 -23   -1.03    1.15
   0   5  23   -2.13    3.05
   0   5  23    0.79    1.76
   0   5  23   -2.22    1.21
  -1   0  24   -1.14    1.85
  -1   0  24   -0.50    1.22
   0   0  24   -1.30    1.33
   0   0  24    1.10    2.03
  -1  -1  24    2.65    2.00
  -1  -1  24    4.80    1.32
   1  -1 -24    4.00    1.35
  -1   1  24    4.89    1.43
  -1   1  24    1.39    1.94
   0   0   0    0.00    0.00
;
_shelx_hkl_checksum              88746
loop_
_space_group_symop_operation_xyz
'x, y, z'
'-x+1/2, y+1/2, -z+1/2'
'-x, -y, -z'
'x-1/2, -y-1/2, z-1/2'
loop_
_atom_site_label
_atom_site_type_symbol
_atom_site_fract_x
_atom_site_fract_y
_atom_site_fract_z
_atom_site_U_iso_or_equiv
_atom_site_adp_type
_atom_site_occupancy
_atom_site_site_symmetry_order
_atom_site_calc_flag
_atom_site_refinement_flags_posn
_atom_site_refinement_flags_adp
_atom_site_refinement_flags_occupancy
_atom_site_disorder_assembly
_atom_site_disorder_group
Sn1 Sn 0.19404(3) 0.25385(2) 0.35717(2) 0.00961(3) Uani 1 1 d . . . . .
Sn2 Sn -0.19369(3) 0.38785(2) 0.16182(2) 0.01036(3) Uani 1 1 d . . . . .
O1 O -0.3462(3) 0.52719(13) 0.25719(11) 0.0080(2) Uani 1 1 d . . . . .
O2 O -0.2180(3) 0.24447(12) 0.26335(12) 0.0093(2) Uani 1 1 d . . . . .
O3 O 0.3581(3) 0.10764(12) 0.26347(11) 0.0076(2) Uani 1 1 d . . . . .
O4 O -0.6585(3) 0.52092(14) 0.38834(11) 0.0109(3) Uani 1 1 d . . . . .
O5 O -0.7672(3) 0.39269(13) 0.25035(13) 0.0111(3) Uani 1 1 d . . . . .
O6 O -0.4170(3) 0.15468(14) 0.11728(11) 0.0103(3) Uani 1 1 d . . . . .
O7 O -0.1916(4) 0.39031(15) 0.46885(12) 0.0145(3) Uani 1 1 d D . . . .
B1 B -0.6586(5) 0.51326(19) 0.28384(17) 0.0076(3) Uani 1 1 d . . . . .
B2 B -0.3558(5) 0.13434(19) 0.22053(17) 0.0073(3) Uani 1 1 d . . . . .
B3 B -0.1486(5) 0.4057(2) 0.56677(17) 0.0095(4) Uani 1 1 d . . . . .
H1 H -0.339(7) 0.431(3) 0.447(3) 0.049(13) Uiso 1 1 d D . . . .
loop_
_atom_site_aniso_label
_atom_site_aniso_U_11
_atom_site_aniso_U_22
_atom_site_aniso_U_33
_atom_site_aniso_U_23
_atom_site_aniso_U_13
_atom_site_aniso_U_12
Sn1 0.00996(6) 0.00789(6) 0.01065(6) -0.00051(4) -0.00077(4) 0.00055(4)
Sn2 0.01293(6) 0.00823(6) 0.00976(6) 0.00001(4) 0.00021(4) 0.00059(4)
O1 0.0044(5) 0.0060(5) 0.0139(7) -0.0014(5) 0.0025(5) -0.0012(4)
O2 0.0078(6) 0.0064(6) 0.0134(7) -0.0011(5) -0.0015(5) -0.0007(5)
O3 0.0041(5) 0.0056(5) 0.0133(7) -0.0026(5) 0.0027(5) -0.0009(4)
O4 0.0086(6) 0.0127(6) 0.0115(7) 0.0026(5) 0.0019(5) 0.0048(5)
O5 0.0081(6) 0.0059(6) 0.0191(8) 0.0000(5) -0.0004(5) -0.0010(5)
O6 0.0082(6) 0.0110(6) 0.0115(7) 0.0014(5) -0.0006(5) -0.0034(5)
O7 0.0143(7) 0.0182(7) 0.0102(7) -0.0031(6) -0.0021(5) 0.0065(6)
B1 0.0053(7) 0.0060(8) 0.0117(9) 0.0017(6) 0.0017(6) 0.0008(6)
B2 0.0053(7) 0.0064(8) 0.0105(9) -0.0009(6) 0.0025(6) 0.0003(6)
B3 0.0092(8) 0.0081(8) 0.0110(9) -0.0009(7) -0.0003(7) -0.0003(7)
loop_
_atom_type_symbol
_atom_type_description
_atom_type_scat_dispersion_real
_atom_type_scat_dispersion_imag
_atom_type_scat_source
B B 0.0013 0.0007 'International Tables Vol C Tables 4.2.6.8 and 6.1.1.4'
H H 0.0000 0.0000 'International Tables Vol C Tables 4.2.6.8 and 6.1.1.4'
O O 0.0106 0.0060 'International Tables Vol C Tables 4.2.6.8 and 6.1.1.4'
Sn Sn -0.6537 1.4246 'International Tables Vol C Tables 4.2.6.8 and 6.1.1.4'
loop_
_geom_angle_atom_site_label_1
_geom_angle_atom_site_label_2
_geom_angle_atom_site_label_3
_geom_angle
_geom_angle_site_symmetry_1
_geom_angle_site_symmetry_3
O2 Sn1 O5 74.35(6) . 1_655
O2 Sn1 O3 85.02(5) . .
O5 Sn1 O3 93.20(6) 1_655 .
O2 Sn2 O5 74.56(6) . 1_655
O2 Sn2 O1 94.50(6) . .
O5 Sn2 O1 86.43(6) 1_655 .
B1 O1 B2 125.95(15) . 2_455
B1 O1 Sn2 115.60(12) . .
B2 O1 Sn2 117.98(11) 2_455 .
B2 O2 Sn2 112.87(13) . .
B2 O2 Sn1 126.05(12) . .
Sn2 O2 Sn1 106.07(6) . .
B1 O3 B2 117.22(15) 2_445 1_655
B1 O3 Sn1 123.60(11) 2_445 .
B2 O3 Sn1 115.46(11) 1_655 .
B3 O4 B1 123.25(17) 3_466 .
B1 O5 Sn1 117.72(13) . 1_455
B1 O5 Sn2 116.50(12) . 1_455
Sn1 O5 Sn2 104.87(6) 1_455 1_455
B3 O6 B2 119.88(16) 4_565 .
B3 O7 H1 109(3) . .
O4 B1 O5 109.78(16) . .
O4 B1 O1 109.41(16) . .
O5 B1 O1 107.48(15) . .
O4 B1 O3 110.47(16) . 2_455
O5 B1 O3 109.12(17) . 2_455
O1 B1 O3 110.51(15) . 2_455
O6 B2 O2 107.99(16) . .
O6 B2 O3 110.00(16) . 1_455
O2 B2 O3 109.90(15) . 1_455
O6 B2 O1 112.30(16) . 2_445
O2 B2 O1 110.55(16) . 2_445
O3 B2 O1 106.09(15) 1_455 2_445
O6 B3 O4 121.6(2) 4_666 3_466
O6 B3 O7 118.88(19) 4_666 .
O4 B3 O7 119.55(19) 3_466 .
loop_
_geom_bond_atom_site_label_1
_geom_bond_atom_site_label_2
_geom_bond_distance
_geom_bond_site_symmetry_2
Sn1 O2 2.1503(15) .
Sn1 O5 2.1553(16) 1_655
Sn1 O3 2.2397(14) .
Sn2 O2 2.1329(15) .
Sn2 O5 2.1623(16) 1_655
Sn2 O1 2.1813(14) .
O1 B1 1.476(2) .
O1 B2 1.498(3) 2_455
O2 B2 1.462(3) .
O3 B1 1.481(3) 2_445
O3 B2 1.482(2) 1_655
O4 B3 1.371(3) 3_466
O4 B1 1.462(3) .
O5 B1 1.475(3) .
O5 Sn1 2.1554(16) 1_455
O5 Sn2 2.1624(16) 1_455
O6 B3 1.364(3) 4_565
O6 B2 1.460(3) .
O7 B3 1.373(3) .
O7 H1 0.828(18) .
B1 O3 1.481(3) 2_455
B2 O3 1.482(2) 1_455
B2 O1 1.498(2) 2_445
B3 O6 1.364(3) 4_666
B3 O4 1.371(3) 3_466
loop_
_geom_hbond_atom_site_label_D
_geom_hbond_atom_site_label_H
_geom_hbond_atom_site_label_A
_geom_hbond_distance_DH
_geom_hbond_distance_HA
_geom_hbond_distance_DA
_geom_hbond_angle_DHA
_geom_hbond_site_symmetry_A
O7 H1 O4 0.828(18) 1.856(19) 2.682(2) 176(4) .
