#------------------------------------------------------------------------------
#$Date: 2021-04-18 01:53:51 +0300 (Sun, 18 Apr 2021) $
#$Revision: 264280 $
#$URL: file:///home/coder/svn-repositories/cod/cif/1/56/18/1561877.cif $
#------------------------------------------------------------------------------
#
# This file is available in the Crystallography Open Database (COD),
# http://www.crystallography.net/
#
# All data on this site have been placed in the public domain by the
# contributors.
#
data_1561877
loop_
_publ_author_name
'Gou, Yi'
'Chen, MeiRong'
'Li, Shanhe'
'Deng, JunGang'
'Li, Jinlong'
'Fang, GuiHua'
'Yang, Feng'
'Huang, GuoJin'
_publ_section_title
;
 Dithiocarbazate-Copper Complexes for Bioimaging and Treatment of
 Pancreatic Cancer.
;
_journal_name_full               'Journal of medicinal chemistry'
_journal_paper_doi               10.1021/acs.jmedchem.0c01936
_journal_year                    2021
_chemical_formula_moiety         'C26 H22 Cu2 N10 O6 S4'
_chemical_formula_sum            'C26 H22 Cu2 N10 O6 S4'
_chemical_formula_weight         825.86
_space_group_crystal_system      triclinic
_space_group_IT_number           2
_space_group_name_Hall           '-P 1'
_space_group_name_H-M_alt        'P -1'
_atom_sites_solution_hydrogens   geom
_atom_sites_solution_primary     direct
_atom_sites_solution_secondary   difmap
_audit_creation_date             2019-09-30
_audit_creation_method
;
Olex2 1.2
(compiled 2016.08.25 svn.r3337 for OlexSys, GUI svn.r5221)
;
_cell_angle_alpha                76.501(5)
_cell_angle_beta                 85.908(6)
_cell_angle_gamma                73.399(5)
_cell_formula_units_Z            1
_cell_length_a                   7.9731(9)
_cell_length_b                   9.8264(11)
_cell_length_c                   10.9176(14)
_cell_measurement_reflns_used    11116
_cell_measurement_temperature    296
_cell_measurement_theta_max      26.31
_cell_measurement_theta_min      3.23
_cell_volume                     797.05(16)
_computing_molecular_graphics    'Olex2 (Dolomanov et al., 2009)'
_computing_publication_material  'Olex2 (Dolomanov et al., 2009)'
_computing_structure_refinement  'XL (Sheldrick, 2008)'
_computing_structure_solution    'ShelXS (Sheldrick, 2008)'
_diffrn_ambient_temperature      296
_diffrn_measured_fraction_theta_full 0.998
_diffrn_measured_fraction_theta_max 0.998
_diffrn_measurement_device_type  'SuperNova, Single source at offset), Eos'
_diffrn_radiation_monochromator  graphite
_diffrn_radiation_type           MoK\a
_diffrn_radiation_wavelength     0.70932
_diffrn_reflns_av_R_equivalents  0.0356
_diffrn_reflns_av_unetI/netI     0.0366
_diffrn_reflns_limit_h_max       9
_diffrn_reflns_limit_h_min       -9
_diffrn_reflns_limit_k_max       12
_diffrn_reflns_limit_k_min       -12
_diffrn_reflns_limit_l_max       13
_diffrn_reflns_limit_l_min       -13
_diffrn_reflns_number            11116
_diffrn_reflns_theta_full        26.31
_diffrn_reflns_theta_max         26.31
_diffrn_reflns_theta_min         3.23
_diffrn_source                   'fine-focus sealed tube'
_exptl_absorpt_coefficient_mu    1.655
_exptl_absorpt_correction_T_max  0.7225
_exptl_absorpt_correction_T_min  0.6543
_exptl_crystal_colour            'dark blue'
_exptl_crystal_colour_modifier   dark
_exptl_crystal_colour_primary    blue
_exptl_crystal_density_diffrn    1.721
_exptl_crystal_density_method    'not measured'
_exptl_crystal_description       block
_exptl_crystal_F_000             418
_exptl_crystal_size_max          0.28
_exptl_crystal_size_mid          0.25
_exptl_crystal_size_min          0.21
_refine_diff_density_max         0.323
_refine_diff_density_min         -0.618
_refine_diff_density_rms         0.071
_refine_ls_extinction_method     none
_refine_ls_goodness_of_fit_ref   1.119
_refine_ls_hydrogen_treatment    constr
_refine_ls_matrix_type           full
_refine_ls_number_parameters     218
_refine_ls_number_reflns         3256
_refine_ls_number_restraints     0
_refine_ls_restrained_S_all      1.119
_refine_ls_R_factor_all          0.0385
_refine_ls_R_factor_gt           0.0348
_refine_ls_shift/su_max          0.000
_refine_ls_shift/su_mean         0.000
_refine_ls_structure_factor_coef Fsqd
_refine_ls_weighting_details
'calc w=1/[\s^2^(Fo^2^)+(0.0397P)^2^+0.5084P] where P=(Fo^2^+2Fc^2^)/3'
_refine_ls_weighting_scheme      calc
_refine_ls_wR_factor_gt          0.0870
_refine_ls_wR_factor_ref         0.0887
_reflns_number_gt                3002
_reflns_number_total             3256
_reflns_threshold_expression     >2sigma(I)
_iucr_refine_instructions_details
;
TITL shelx in P-1 #2
REM reset to P-1 #2
CELL 0.70932 7.97313 9.82635 10.91755 76.5007 85.9078 73.3986
ZERR 1 0.00091 0.00114 0.00139 0.0054 0.0061 0.0052
LATT 1
SFAC C H Cu N O S
UNIT 26 22 2 10 6 4
 
L.S. 14
PLAN  20
SIZE 0.21 0.25 0.28
TEMP 22.85
BOND
fmap 2
acta
SHEL 999 0.8
REM <olex2.extras>
REM <HklSrc "%.\\shelx.hkl">
REM </olex2.extras>
 
WGHT    0.039700    0.508400
FVAR       0.40830
CU1   3    0.248777    0.420763    0.645073    11.00000    0.04596    0.02695 =
         0.02218    0.00044    0.00535   -0.01358
S1    6    0.199069    0.257851    0.546192    11.00000    0.07041    0.03459 =
         0.03507   -0.00289    0.00498   -0.02738
S2    6    0.223719    0.262059    0.279606    11.00000    0.05887    0.04716 =
         0.04525   -0.02023   -0.00281   -0.01703
N2    4    0.289848    0.524213    0.472951    11.00000    0.03551    0.02688 =
         0.02119   -0.00237    0.00135   -0.00840
O1    5    0.122891    0.383182    0.807148    11.00000    0.05512    0.03220 =
         0.03526   -0.00161    0.01686   -0.01633
C3    1    0.308312    0.653241    0.459213    11.00000    0.03014    0.02491 =
         0.02324   -0.00064    0.00184   -0.00534
N1    4    0.284657    0.471675    0.367125    11.00000    0.04084    0.03165 =
         0.02330   -0.00401   -0.00023   -0.01149
C9    1    0.296649    0.704686    0.576604    11.00000    0.02941    0.02638 =
         0.02417   -0.00292    0.00136   -0.00547
N4    4    0.259141    0.611085    0.680320    11.00000    0.03943    0.03101 =
         0.02332   -0.00126    0.00393   -0.01004
N5    4    0.093720    0.261262    0.864475    11.00000    0.04575    0.03744 =
         0.02569    0.00316    0.00151   -0.01573
C8    1    0.322515    0.748601    0.333268    11.00000    0.03641    0.02544 =
         0.02210    0.00009    0.00082   -0.01081
C2    1    0.242060    0.349258    0.397048    11.00000    0.03458    0.03223 =
         0.03180   -0.00540   -0.00192   -0.00732
O3    5   -0.002544    0.262899    0.957367    11.00000    0.08336    0.05662 =
         0.04012   -0.00235    0.02896   -0.02992
C10   1    0.318911    0.836817    0.583149    11.00000    0.04795    0.02848 =
         0.03186   -0.00303    0.00214   -0.01167
AFIX  43
H10   2    0.345533    0.899279    0.511161    11.00000   -1.20000
AFIX   0
O2    5    0.165299    0.149780    0.827759    11.00000    0.06927    0.03400 =
         0.04349   -0.00294    0.00485   -0.01493
C5    1    0.338070    0.907139    0.096695    11.00000    0.05463    0.04492 =
         0.02488    0.01156   -0.00796   -0.02320
AFIX  43
H5    2    0.346696    0.958133    0.014331    11.00000   -1.20000
AFIX   0
C4    1    0.473378    0.790883    0.150152    11.00000    0.04348    0.05352 =
         0.02408    0.00165    0.00433   -0.01648
AFIX  43
H4    2    0.572990    0.765524    0.101380    11.00000   -1.20000
AFIX   0
C12   1    0.258981    0.781281    0.803064    11.00000    0.05503    0.04786 =
         0.03063   -0.01627    0.00514   -0.01268
AFIX  43
H12   2    0.243841    0.805751    0.881217    11.00000   -1.20000
AFIX   0
C7    1    0.182845    0.865862    0.287867    11.00000    0.04031    0.03620 =
         0.03629    0.00448    0.00148   -0.00445
AFIX  43
H7    2    0.084536    0.890559    0.337996    11.00000   -1.20000
AFIX   0
C11   1    0.300955    0.875097    0.698878    11.00000    0.05668    0.03218 =
         0.04109   -0.01139    0.00022   -0.01221
AFIX  43
H11   2    0.317100    0.963040    0.705866    11.00000   -1.20000
AFIX   0
C13   1    0.239709    0.650866    0.790128    11.00000    0.04947    0.04069 =
         0.02344   -0.00499    0.00593   -0.01474
AFIX  43
H13   2    0.211900    0.587657    0.861107    11.00000   -1.20000
AFIX   0
C6    1    0.190841    0.946553    0.166419    11.00000    0.04708    0.03667 =
         0.04124    0.01167   -0.01152   -0.00990
AFIX  43
H6    2    0.097856    1.025857    0.133165    11.00000   -1.20000
AFIX   0
N3    4    0.471717    0.711542    0.267680    11.00000    0.03851    0.03491 =
         0.02258    0.00071    0.00080   -0.00865
C1    1    0.266604    0.382473    0.137768    11.00000    0.06784    0.06982 =
         0.03413   -0.01780   -0.00138   -0.00960
AFIX 137
H1A   2    0.247069    0.347892    0.066211    11.00000   -1.50000
H1B   2    0.385925    0.385500    0.137428    11.00000   -1.50000
H1C   2    0.189779    0.478496    0.133727    11.00000   -1.50000
HKLF 4
 
REM  shelx in P-1 #2
REM R1 =  0.0348 for   3002 Fo > 4sig(Fo)  and  0.0385 for all   3256 data
REM    218 parameters refined using      0 restraints
 
END  
     
WGHT      0.0397      0.5084 
REM Highest difference peak  0.323,  deepest hole -0.618,  1-sigma level  0.071
Q1    1   0.5568  0.6245  0.3000  11.00000  0.05    0.32
Q2    1   0.1586  0.4997  0.6208  11.00000  0.05    0.30
Q3    1   0.1728  0.4017  0.5772  11.00000  0.05    0.29
Q4    1   0.2775  0.2822  0.6156  11.00000  0.05    0.29
Q5    1   0.2233  0.5582  0.6780  11.00000  0.05    0.28
Q6    1   0.2720  0.4320  0.5546  11.00000  0.05    0.27
Q7    1   0.2655  0.6168  0.7232  11.00000  0.05    0.26
Q8    1   0.3567  0.3224  0.6840  11.00000  0.05    0.26
Q9    1   0.3242  0.6935  0.3959  11.00000  0.05    0.24
Q10   1   0.4188  0.4141  0.5953  11.00000  0.05    0.24
Q11   1   0.3561  0.5404  0.6849  11.00000  0.05    0.23
Q12   1   0.4807  0.5633  0.7089  11.00000  0.05    0.23
Q13   1   0.0248  0.4750  0.4788  11.00000  0.05    0.22
Q14   1   0.3117  0.1798  0.3044  11.00000  0.05    0.22
Q15   1   0.2798  0.6554  0.6408  11.00000  0.05    0.22
Q16   1   0.0000  0.5000  0.5000  10.50000  0.05    0.21
Q17   1   0.4715  0.7192  0.2119  11.00000  0.05    0.21
Q18   1   0.0025  0.5049  0.5771  11.00000  0.05    0.21
Q19   1   0.2770  0.6755  0.5202  11.00000  0.05    0.21
Q20   1   0.0102  0.2898  0.5085  11.00000  0.05    0.21

  REM The information below was added by Olex2.
  REM
  REM R1 = 0.0348 for 3002 Fo > 4sig(Fo) and 0.0385 for all 12267 data
  REM n/a parameters refined using n/a restraints
  REM Highest difference peak 0.32, deepest hole -0.62
  REM Mean Shift 0, Max Shift 0.000.
  
  REM +++ Tabular Listing of Refinement Information +++
  REM R1_all = 0.0385
  REM R1_gt = 0.0348
  REM wR_ref = 0.0887
  REM GOOF = 1.119
  REM Shift_max = 0.000
  REM Shift_mean = 0
  REM Reflections_all = 12267
  REM Reflections_gt = 3002
  REM Parameters = n/a
  REM Hole = -0.62
  REM Peak = 0.32
  REM Flack = n/a
  
  
;
_cod_data_source_file            jm0c01936_si_004.cif
_cod_data_source_block           shelx
_cod_original_cell_volume        797.04(16)
_cod_database_code               1561877
_olex2_refinement_description
;
1. Fixed Uiso
 At 1.2 times of:
  All C(H) groups
 At 1.5 times of:
  All C(H,H,H) groups
2.a Aromatic/amide H refined with riding coordinates:
 C10(H10), C5(H5), C4(H4), C12(H12), C7(H7), C11(H11), C13(H13), C6(H6)
2.b Idealised Me refined as rotating group:
 C1(H1a,H1b,H1c)
;
_olex2_submission_special_instructions 'No special instructions were received'
loop_
_space_group_symop_id
_space_group_symop_operation_xyz
1 'x, y, z'
2 '-x, -y, -z'
loop_
_atom_site_label
_atom_site_type_symbol
_atom_site_fract_x
_atom_site_fract_y
_atom_site_fract_z
_atom_site_U_iso_or_equiv
_atom_site_adp_type
_atom_site_occupancy
_atom_site_calc_flag
_atom_site_disorder_assembly
_atom_site_disorder_group
_atom_site_refinement_flags_posn
Cu1 Cu 0.24878(4) 0.42076(3) 0.64507(2) 0.03226(11) Uani 1 d . . .
S1 S 0.19907(11) 0.25785(7) 0.54619(6) 0.04507(18) Uani 1 d . . .
S2 S 0.22372(10) 0.26206(8) 0.27961(7) 0.04810(19) Uani 1 d . . .
N2 N 0.2898(3) 0.5242(2) 0.47295(17) 0.0285(4) Uani 1 d . . .
O1 O 0.1229(3) 0.38318(19) 0.80715(17) 0.0418(4) Uani 1 d . . .
C3 C 0.3083(3) 0.6532(2) 0.4592(2) 0.0275(5) Uani 1 d . . .
N1 N 0.2847(3) 0.4717(2) 0.36712(18) 0.0320(4) Uani 1 d . . .
C9 C 0.2966(3) 0.7047(2) 0.5766(2) 0.0277(5) Uani 1 d . . .
N4 N 0.2591(3) 0.6111(2) 0.68032(18) 0.0322(4) Uani 1 d . . .
N5 N 0.0937(3) 0.2613(2) 0.86448(18) 0.0372(5) Uani 1 d . . .
C8 C 0.3225(3) 0.7486(2) 0.3333(2) 0.0285(5) Uani 1 d . . .
C2 C 0.2421(3) 0.3493(3) 0.3970(2) 0.0335(5) Uani 1 d . . .
O3 O -0.0025(3) 0.2629(2) 0.95737(19) 0.0607(6) Uani 1 d . . .
C10 C 0.3189(3) 0.8368(3) 0.5831(2) 0.0366(5) Uani 1 d . . .
H10 H 0.3455 0.8993 0.5112 0.044 Uiso 1 calc . . R
O2 O 0.1653(3) 0.1498(2) 0.82776(18) 0.0500(5) Uani 1 d . . .
C5 C 0.3381(4) 0.9071(3) 0.0967(2) 0.0424(6) Uani 1 d . . .
H5 H 0.3467 0.9581 0.0143 0.051 Uiso 1 calc . . R
C4 C 0.4734(4) 0.7909(3) 0.1502(2) 0.0417(6) Uani 1 d . . .
H4 H 0.5730 0.7655 0.1014 0.050 Uiso 1 calc . . R
C12 C 0.2590(4) 0.7813(3) 0.8031(2) 0.0438(6) Uani 1 d . . .
H12 H 0.2438 0.8058 0.8812 0.053 Uiso 1 calc . . R
C7 C 0.1828(4) 0.8659(3) 0.2879(2) 0.0411(6) Uani 1 d . . .
H7 H 0.0845 0.8906 0.3380 0.049 Uiso 1 calc . . R
C11 C 0.3010(4) 0.8751(3) 0.6989(3) 0.0428(6) Uani 1 d . . .
H11 H 0.3171 0.9630 0.7059 0.051 Uiso 1 calc . . R
C13 C 0.2397(4) 0.6509(3) 0.7901(2) 0.0381(6) Uani 1 d . . .
H13 H 0.2119 0.5877 0.8611 0.046 Uiso 1 calc . . R
C6 C 0.1908(4) 0.9466(3) 0.1664(3) 0.0449(6) Uani 1 d . . .
H6 H 0.0979 1.0259 0.1332 0.054 Uiso 1 calc . . R
N3 N 0.4717(3) 0.7115(2) 0.26768(18) 0.0336(4) Uani 1 d . . .
C1 C 0.2666(5) 0.3825(4) 0.1378(3) 0.0582(8) Uani 1 d . . .
H1A H 0.2471 0.3479 0.0662 0.087 Uiso 1 calc . . GR
H1B H 0.3859 0.3855 0.1374 0.087 Uiso 1 calc . . GR
H1C H 0.1898 0.4785 0.1337 0.087 Uiso 1 calc . . GR
loop_
_atom_site_aniso_label
_atom_site_aniso_U_11
_atom_site_aniso_U_22
_atom_site_aniso_U_33
_atom_site_aniso_U_23
_atom_site_aniso_U_13
_atom_site_aniso_U_12
Cu1 0.0460(2) 0.02695(17) 0.02218(16) 0.00044(11) 0.00535(12) -0.01358(13)
S1 0.0704(5) 0.0346(3) 0.0351(3) -0.0029(3) 0.0050(3) -0.0274(3)
S2 0.0589(4) 0.0472(4) 0.0452(4) -0.0202(3) -0.0028(3) -0.0170(3)
N2 0.0355(10) 0.0269(9) 0.0212(9) -0.0024(7) 0.0013(7) -0.0084(8)
O1 0.0551(11) 0.0322(9) 0.0353(9) -0.0016(7) 0.0169(8) -0.0163(8)
C3 0.0301(11) 0.0249(10) 0.0232(10) -0.0006(8) 0.0018(8) -0.0053(9)
N1 0.0408(11) 0.0316(10) 0.0233(9) -0.0040(8) -0.0002(8) -0.0115(9)
C9 0.0294(11) 0.0264(10) 0.0242(10) -0.0029(8) 0.0014(8) -0.0055(9)
N4 0.0394(11) 0.0310(10) 0.0233(9) -0.0013(8) 0.0039(8) -0.0100(9)
N5 0.0458(12) 0.0374(11) 0.0257(10) 0.0032(8) 0.0015(9) -0.0157(10)
C8 0.0364(12) 0.0254(10) 0.0221(10) 0.0001(8) 0.0008(9) -0.0108(9)
C2 0.0346(12) 0.0322(12) 0.0318(12) -0.0054(9) -0.0019(10) -0.0073(10)
O3 0.0834(16) 0.0566(13) 0.0401(11) -0.0023(9) 0.0290(11) -0.0299(12)
C10 0.0480(14) 0.0285(12) 0.0319(12) -0.0030(9) 0.0021(11) -0.0117(11)
O2 0.0693(13) 0.0340(10) 0.0435(11) -0.0029(8) 0.0049(10) -0.0149(10)
C5 0.0546(16) 0.0449(14) 0.0249(12) 0.0116(10) -0.0080(11) -0.0232(13)
C4 0.0435(14) 0.0535(16) 0.0241(12) 0.0017(11) 0.0043(10) -0.0165(12)
C12 0.0550(16) 0.0479(15) 0.0306(13) -0.0163(11) 0.0051(11) -0.0127(13)
C7 0.0403(14) 0.0362(13) 0.0363(13) 0.0045(11) 0.0015(11) -0.0045(11)
C11 0.0567(17) 0.0322(13) 0.0411(14) -0.0114(11) 0.0002(12) -0.0122(12)
C13 0.0495(15) 0.0407(13) 0.0234(11) -0.0050(10) 0.0059(10) -0.0147(12)
C6 0.0471(15) 0.0367(13) 0.0412(14) 0.0117(11) -0.0115(12) -0.0099(12)
N3 0.0385(11) 0.0349(10) 0.0226(9) 0.0007(8) 0.0008(8) -0.0086(9)
C1 0.068(2) 0.070(2) 0.0341(15) -0.0178(14) -0.0014(14) -0.0096(17)
loop_
_atom_type_symbol
_atom_type_description
_atom_type_scat_dispersion_real
_atom_type_scat_dispersion_imag
_atom_type_scat_source
C C 0.0033 0.0016 'International Tables Vol C Tables 4.2.6.8 and 6.1.1.4'
H H 0.0000 0.0000 'International Tables Vol C Tables 4.2.6.8 and 6.1.1.4'
Cu Cu 0.3201 1.2651 'International Tables Vol C Tables 4.2.6.8 and 6.1.1.4'
N N 0.0061 0.0033 'International Tables Vol C Tables 4.2.6.8 and 6.1.1.4'
O O 0.0106 0.0060 'International Tables Vol C Tables 4.2.6.8 and 6.1.1.4'
S S 0.1246 0.1234 'International Tables Vol C Tables 4.2.6.8 and 6.1.1.4'
loop_
_geom_angle_atom_site_label_1
_geom_angle_atom_site_label_2
_geom_angle_atom_site_label_3
_geom_angle
_geom_angle_site_symmetry_1
_geom_angle_site_symmetry_3
_geom_angle_publ_flag
S1 Cu1 N3 99.97(6) . 2_666 ?
N2 Cu1 S1 83.81(6) . . ?
N2 Cu1 O1 157.10(8) . . ?
N2 Cu1 N4 80.27(8) . . ?
N2 Cu1 N3 106.61(7) . 2_666 ?
O1 Cu1 S1 102.38(6) . . ?
O1 Cu1 N4 88.79(8) . . ?
O1 Cu1 N3 94.14(7) . 2_666 ?
N4 Cu1 S1 161.14(6) . . ?
N4 Cu1 N3 94.24(8) . 2_666 ?
C2 S1 Cu1 94.80(9) . . ?
C2 S2 C1 103.55(14) . . ?
C3 N2 Cu1 117.27(15) . . ?
C3 N2 N1 118.88(18) . . ?
N1 N2 Cu1 123.60(14) . . ?
N5 O1 Cu1 126.64(16) . . ?
N2 C3 C9 114.86(19) . . ?
N2 C3 C8 122.6(2) . . ?
C9 C3 C8 122.27(19) . . ?
C2 N1 N2 110.63(19) . . ?
N4 C9 C3 114.2(2) . . ?
N4 C9 C10 121.7(2) . . ?
C10 C9 C3 124.0(2) . . ?
C9 N4 Cu1 113.22(15) . . ?
C13 N4 Cu1 128.32(17) . . ?
C13 N4 C9 118.4(2) . . ?
O3 N5 O1 117.1(2) . . ?
O2 N5 O1 119.9(2) . . ?
O2 N5 O3 122.9(2) . . ?
C7 C8 C3 119.3(2) . . ?
N3 C8 C3 117.39(19) . . ?
N3 C8 C7 123.3(2) . . ?
S1 C2 S2 113.35(14) . . ?
N1 C2 S1 127.09(19) . . ?
N1 C2 S2 119.56(18) . . ?
C9 C10 C11 118.9(2) . . ?
C6 C5 C4 118.8(2) . . ?
N3 C4 C5 124.5(2) . . ?
C13 C12 C11 119.0(2) . . ?
C8 C7 C6 119.0(2) . . ?
C12 C11 C10 119.1(2) . . ?
N4 C13 C12 122.8(2) . . ?
C5 C6 C7 118.5(2) . . ?
C8 N3 Cu1 125.86(15) . 2_666 ?
C4 N3 Cu1 115.26(17) . 2_666 ?
C4 N3 C8 115.8(2) . . ?
loop_
_geom_bond_atom_site_label_1
_geom_bond_atom_site_label_2
_geom_bond_distance
_geom_bond_site_symmetry_2
_geom_bond_publ_flag
Cu1 S1 2.2618(8) . ?
Cu1 N2 1.9704(18) . ?
Cu1 O1 1.9819(17) . ?
Cu1 N4 2.020(2) . ?
Cu1 N3 2.373(2) 2_666 ?
S1 C2 1.729(2) . ?
S2 C2 1.735(3) . ?
S2 C1 1.793(3) . ?
N2 C3 1.291(3) . ?
N2 N1 1.379(3) . ?
O1 N5 1.292(3) . ?
C3 C9 1.472(3) . ?
C3 C8 1.489(3) . ?
N1 C2 1.305(3) . ?
C9 N4 1.357(3) . ?
C9 C10 1.378(3) . ?
N4 C13 1.331(3) . ?
N5 O3 1.228(3) . ?
N5 O2 1.225(3) . ?
C8 C7 1.376(3) . ?
C8 N3 1.347(3) . ?
C10 C11 1.387(4) . ?
C5 C4 1.373(4) . ?
C5 C6 1.363(4) . ?
C4 N3 1.338(3) . ?
C12 C11 1.374(4) . ?
C12 C13 1.373(4) . ?
C7 C6 1.384(4) . ?
N3 Cu1 2.373(2) 2_666 ?
loop_
_refln_index_h
_refln_index_k
_refln_index_l
_refln_F_squared_meas
_refln_F_squared_sigma
0 0 2 479.03 20.59
0 0 2 489.03 21.1
0 0 -2 484.54 20.88
0 0 -2 467.66 20.15
0 0 3 10.15 0.49
0 0 3 10.97 0.51
0 0 -3 9.97 0.46
0 0 -3 10.14 0.46
0 0 4 304.59 10.75
0 0 4 308.44 11
0 0 -4 291.15 10.38
0 0 -4 292.01 10.36
0 0 5 9.43 0.63
0 0 5 9.63 0.68
0 0 -5 8.91 0.6
0 0 -5 9.14 0.61
0 0 6 222.2 7.37
0 0 6 224.39 7.62
0 0 -6 210.65 7.12
0 0 -6 208.01 6.98
0 0 7 1.71 0.67
0 0 7 -0.7 0.75
0 0 -7 0.24 0.64
0 0 -7 0.85 0.66
0 0 8 3.5 0.56
0 0 8 3.54 0.63
0 0 -8 3.34 0.93
0 0 -8 3.63 0.54
0 0 9 1.93 0.94
0 0 9 2.24 1.07
0 0 -9 2.46 0.91
0 0 -9 1.78 0.92
0 0 10 98.43 3.51
0 0 10 97.56 3.8
0 0 -10 91.76 4.45
0 0 -10 90.73 3.44
0 0 11 106.64 5.58
0 0 11 108.12 6.24
0 0 -11 93.69 3.87
0 0 -11 96.7 5.47
0 0 12 23.41 2.4
0 0 12 24.77 2.77
0 0 -12 22.36 2.26
0 0 -12 22.94 1.51
0 0 13 14.08 1.27
0 0 13 13.73 2.39
0 0 -13 12.12 1.22
0 0 -13 14.23 2.1
0 1 -13 14.22 1.4
0 1 -13 18.09 2.35
0 -1 13 17.54 2.36
0 -1 13 16.89 1.67
0 1 -12 1.84 1.43
0 1 -12 0.17 0.89
0 -1 12 3.39 1.54
0 -1 12 1.33 1.74
0 1 -11 1.6 1.34
0 -1 11 3.11 1.44
0 -1 11 1.36 1.58
0 1 -10 119.61 6.17
0 1 -10 115.61 4.53
0 -1 10 128.86 6.23
0 -1 10 123.41 5
0 1 -9 289.68 15.1
0 1 -9 278.45 12.49
0 -1 9 301.13 13.33
0 -1 9 304.52 16.07
0 1 -8 7.26 0.68
0 1 -8 7.59 1.05
0 -1 8 8.9 1.13
0 -1 8 7.67 1.22
0 1 -7 13.47 0.7
0 1 -7 13.68 0.66
0 -1 7 13.54 0.72
0 -1 7 15.34 0.77
0 1 -6 87.05 2.99
0 1 -6 80 2.17
0 -1 6 86.04 2.3
0 -1 6 86.54 2.42
0 1 -5 2 0.55
0 1 -5 0.94 0.29
0 -1 5 0.77 0.56
0 -1 5 0.49 0.58
0 1 -4 232.16 8.37
0 1 -4 231.77 7.58
0 -1 4 247.19 8.73
0 -1 4 251.28 8.92
0 1 -3 1015.22 74.97
0 1 -3 1019.01 74.64
0 -1 3 1024.28 75.35
0 -1 3 1039.55 75.31
0 1 -2 44.59 0.88
0 1 -2 45.18 1.03
0 -1 2 45.89 1.11
0 -1 2 45.49 0.85
0 1 -1 266.28 8.13
0 1 -1 268.91 8.1
0 -1 1 266.5 8.29
0 -1 1 281.95 8.69
0 1 2 51.54 0.89
0 1 2 52.59 0.99
0 -1 -2 53.94 0.84
0 -1 -2 51.98 0.98
0 1 3 7.39 0.22
0 1 3 7.9 0.4
0 -1 -3 8.07 0.32
0 -1 -3 7.3 0.37
0 1 4 93.66 2.02
0 1 4 97.19 2.47
0 -1 -4 91.97 2.22
0 -1 -4 92.51 2.31
0 1 5 108.53 2.63
0 1 5 113.99 3.3
0 -1 -5 109.31 3.02
0 -1 -5 110.33 3.13
0 1 6 105.72 2.73
0 1 6 109.9 3.53
0 -1 -6 101.36 3.11
0 -1 -6 102.52 3.22
0 1 7 791.51 52.34
0 1 7 850.66 59.9
0 -1 -7 752.83 53.09
0 -1 -7 781.8 54.9
0 1 8 312.32 14.45
0 1 8 313.73 13.32
0 -1 -8 283.31 12.01
0 -1 -8 293.38 12.43
0 1 9 76.98 3.09
0 1 9 77.1 2.59
0 -1 -9 68.76 2.88
0 -1 -9 70.89 3.15
0 1 10 30.7 1.29
0 1 10 31.05 2.29
0 -1 -10 28.42 1.85
0 -1 -10 29.64 2.03
0 1 11 104.28 5.05
0 1 11 101.88 4.22
0 -1 -11 94.72 3.71
0 -1 -11 97.52 3.87
0 1 12 40.31 2.78
0 1 12 42.26 3.26
0 -1 -12 38.32 2.61
0 -1 -12 38.57 2.88
0 1 13 4.15 0.86
0 1 13 3.86 1.71
0 -1 -13 4.35 0.83
0 -1 -13 2.82 1.57
0 2 -13 7.99 2.16
0 2 -13 8.32 2.14
0 -2 13 10.27 2.24
0 -2 13 9.49 1.47
0 2 -12 55.16 2.96
0 2 -12 55.75 4.3
0 -2 12 62.36 3.04
0 -2 12 59.15 4.9
0 2 -11 -0.06 0.79
0 2 -11 0.17 0.73
0 -2 11 -1.52 1.37
0 -2 11 2.19 1.44
0 2 -10 7.98 1.54
0 2 -10 6.54 1.38
0 -2 10 10.5 1.57
0 -2 10 8.59 1.01
0 2 -9 80.3 4.11
0 2 -9 78.46 3.84
0 -2 9 87.24 3.15
0 -2 9 84.36 4.45
0 2 -8 3.47 0.64
0 2 -8 4.31 0.58
0 -2 8 3.9 0.65
0 -2 8 4.77 1.11
0 2 -7 184.71 6.65
0 2 -7 173.17 6.1
0 -2 7 192.1 7.84
0 -2 7 189.3 8.04
0 2 -6 338.48 16.05
0 2 -6 316.29 13.58
0 -2 6 365.78 16.87
0 -2 6 358.81 16.88
0 2 -5 3.58 0.67
0 2 -5 2.75 0.35
0 -2 5 3.32 0.65
0 -2 5 1.52 0.69
0 2 -4 152.63 4.61
0 2 -4 158.41 5.22
0 -2 4 163.6 5.52
0 -2 4 163.83 5.59
0 2 -3 176.74 5.23
0 2 -3 188.63 5.84
0 -2 3 189.4 6.03
0 -2 3 188.35 5.98
0 2 -2 391.58 16.09
0 2 -2 403.17 16.26
0 -2 2 419.57 17.65
0 -2 2 414.64 17.43
0 2 -1 10.53 0.42
0 2 -1 10.7 0.36
0 -2 1 10.51 0.43
0 -2 1 10.83 0.26
0 2 0 840.82 51.48
0 2 0 802.44 48.4
0 -2 0 824.97 49.88
0 -2 0 866.79 52.83
0 2 1 3.16 0.17
0 2 1 3.03 0.19
0 -2 -1 2.87 0.11
0 2 2 702.07 39.01
0 2 2 732.22 40.93
0 -2 -2 711.29 39.72
0 -2 -2 772.14 43.41
0 2 3 65.38 1.14
0 2 3 65.13 1.23
0 -2 -3 65.48 1.31
0 -2 -3 62.08 1.17
0 2 4 438.08 18.79
0 2 4 423.78 18.19
0 -2 -4 445.6 19.39
0 -2 -4 430.54 19.01
0 2 5 33.82 0.9
0 2 5 34.91 1.06
0 -2 -5 32.79 0.7
0 -2 -5 33.22 1.02
0 2 6 11.88 0.5
0 -2 -6 11.67 0.62
0 -2 -6 11.21 0.44
0 2 7 528.85 27.67
0 2 7 544.43 29.15
0 -2 -7 520.08 27.65
0 -2 -7 528.47 30.07
0 2 8 406.42 18.83
0 2 8 394.7 18.88
0 -2 -8 377.7 17.91
0 -2 -8 403.34 21.03
0 2 9 37.1 1.19
0 2 9 36.78 1.34
0 -2 -9 33.65 1.14
0 -2 -9 34.53 1.82
0 2 10 6.48 0.64
0 2 10 6.39 0.76
0 -2 -10 5.21 0.96
0 -2 -10 5.99 0.69
0 2 11 16.03 1.45
0 2 11 13.65 1.71
0 -2 -11 13.53 1.35
0 -2 -11 13.65 1.01
0 2 12 17.03 1.66
0 2 12 14.98 1.95
0 -2 -12 12.88 0.97
0 -2 -12 15.36 1.78
0 2 13 9.61 0.99
0 2 13 9.86 1.18
0 -2 -13 9.03 1.54
0 -2 -13 9.63 1.78
0 2 14 7.47 1.06
0 2 14 10.23 2.1
0 -2 -14 7.53 1.65
0 -2 -14 8.89 1.18
0 3 -12 70 5.46
0 3 -12 67.03 5.08
0 -3 12 75.34 3.75
0 -3 12 67.97 3.86
0 3 -11 1.17 1.51
0 3 -11 1.23 0.81
0 -3 11 -0.77 1.54
0 -3 11 1.13 0.96
0 3 -10 44.19 3.29
0 3 -10 44.38 2
0 -3 10 53.11 3.3
0 -3 10 46.42 3.44
0 3 -9 0.45 0.67
0 3 -9 -0.02 1
0 -3 9 1.62 0.69
0 -3 9 0.7 1.2
0 3 -8 16.41 1.03
0 3 -8 13.74 1.38
0 -3 8 16.57 1.02
0 -3 8 15.84 1.62
0 3 -7 27.18 1.88
0 3 -7 25.59 1.64
0 -3 7 28.51 1.2
0 -3 7 26.17 1.97
0 3 -6 263.06 12
0 3 -6 245.25 9.66
0 -3 6 269.31 10.55
0 -3 6 274 12.3
0 3 -5 181.19 7.13
0 3 -5 180.52 5.92
0 -3 5 187.9 6.22
0 -3 5 196.53 7.52
0 3 -4 0.37 0.52
0 -3 4 -0.51 0.6
0 -3 4 0.81 0.35
0 3 -3 22 0.65
0 3 -3 24.29 0.87
0 -3 3 23.94 0.67
0 -3 3 23.7 0.93
0 3 -2 101.19 2.42
0 3 -2 108.1 2.76
0 -3 2 110.77 2.95
0 -3 2 104.84 2.46
0 3 -1 118.43 3.09
0 3 -1 119.44 2.72
0 -3 1 128.26 3.27
0 -3 1 125.64 3.18
0 3 0 9.14 0.36
0 3 0 8.56 0.34
0 -3 0 9.14 0.37
0 -3 0 8.68 0.35
0 3 1 227.85 6.76
0 3 1 243.73 7.5
0 -3 -1 248.63 7.55
0 -3 -1 249.77 7.74
0 3 2 136.22 3.17
0 3 2 137.36 3.26
0 -3 -2 134.77 3.34
0 -3 -2 139.8 3.47
0 3 3 108.16 2.35
0 3 3 106.03 2.51
0 -3 -3 99.54 2.07
0 -3 -3 99.84 2.18
0 3 4 101.1 2.37
0 3 4 96.05 2.21
0 -3 -4 99.07 2.43
0 -3 -4 95.2 2.53
0 3 5 109.59 2.78
0 3 5 110.57 3.17
0 -3 -5 101.64 2.43
0 -3 -5 101.11 2.53
0 3 6 66.19 1.77
0 3 6 63.4 1.57
0 -3 -6 59.95 1.7
0 -3 -6 58.44 1.45
0 3 7 3 0.76
0 -3 -7 2.37 0.58
0 -3 -7 2.51 0.71
0 3 8 44.26 1.72
0 3 8 47.85 1.48
0 -3 -8 45.89 1.75
0 -3 -8 44.5 1.96
0 3 9 7.77 0.83
0 3 9 7.42 1.03
0 -3 -9 6.7 0.79
0 -3 -9 7.34 0.96
0 3 10 72 3.02
0 3 10 74.19 3.53
0 -3 -10 67.79 2.88
0 -3 -10 71.41 3.35
0 3 11 5.26 1.04
0 3 11 5.49 0.76
0 -3 -11 3.96 0.97
0 -3 -11 2.53 1.18
0 3 12 79.57 4.2
0 3 12 80.82 3.47
0 -3 -12 70.93 3.89
0 3 13 6.2 1.34
0 3 13 6.21 1.72
0 -3 -13 5.74 1.27
0 -3 -13 4.8 1.62
0 3 14 10.31 1.07
0 3 14 10.01 2.16
0 -3 -14 7.67 1.01
0 -3 -14 9.92 1.22
0 4 -11 2.82 1.1
0 4 -11 4.99 1.69
0 -4 11 5.83 1.92
0 -4 11 4.71 1.96
0 4 -10 30.97 2.93
0 4 -10 27.93 1.68
0 -4 10 32.47 2.99
0 -4 10 29.32 2.97
0 4 -9 21.11 2.13
0 4 -9 15.87 1.13
0 -4 9 18.71 2.09
0 -4 9 20.37 1.33
0 4 -8 24.03 2.13
0 4 -8 21.88 1.15
0 -4 8 23.84 1.33
0 4 -7 69.35 3.49
0 4 -7 65.28 2.3
0 -4 7 72.57 2.57
0 -4 7 67.17 2.54
0 4 -6 9.23 0.79
0 4 -6 10.34 1.11
0 -4 6 11.11 1.27
0 -4 6 9.87 0.77
0 4 -5 252.25 10.16
0 4 -5 259.79 10.16
0 -4 5 281.89 12.42
0 -4 5 282.68 12.63
0 4 -4 189.89 7.34
0 4 -4 183.69 6.83
0 -4 4 193.81 6.42
0 -4 4 190.82 6.39
0 4 -3 4.5 0.64
0 4 -3 3.92 0.53
0 -4 3 4.71 0.39
0 -4 3 6.16 0.64
0 4 -2 15.85 0.75
0 4 -2 16.26 0.47
0 -4 2 16.93 0.53
0 -4 2 16.9 0.75
0 4 -1 54.85 1.47
0 4 -1 56.02 1.43
0 -4 1 57.78 1.53
0 -4 1 56.39 1.21
0 4 0 3.49 0.37
0 4 0 4.28 0.36
0 -4 0 4.97 0.39
0 -4 0 4.65 0.23
0 4 1 141.88 3.56
0 4 1 152 3.8
0 -4 -1 144.56 3.59
0 -4 -1 157.37 4.33
0 4 2 646.01 35.01
0 4 2 620.75 33.28
0 -4 -2 636.8 34.29
0 -4 -2 669.73 36.88
0 4 3 25.68 0.62
0 4 3 26.06 0.65
0 -4 -3 25.45 0.79
0 -4 -3 25.05 0.79
0 4 4 85.84 2.02
0 -4 -4 82.62 1.94
0 4 5 27.89 0.78
0 4 5 26.99 0.99
0 -4 -5 24.62 0.78
0 -4 -5 26.32 0.97
0 4 6 240.4 8.25
0 4 6 231.24 7.95
0 -4 -6 227.97 8.19
0 -4 -6 217.19 7.59
0 4 7 64.33 1.9
0 4 7 59.7 1.67
0 -4 -7 55.96 1.45
0 -4 -7 58.7 2.12
0 4 8 34.21 0.93
0 4 8 36.54 1.64
0 -4 -8 33 1.31
0 -4 -8 31.4 1.05
0 4 9 63.88 2.41
0 4 9 62.46 2.05
0 -4 -9 61.38 2.34
0 -4 -9 61.06 2.66
0 4 10 4.12 0.81
0 4 10 5.18 1.05
0 -4 -10 3.1 0.75
0 -4 -10 4.01 0.97
0 4 11 26.11 1.74
0 4 11 30.71 2.2
0 -4 -11 24.29 1.62
0 -4 -11 28.99 2.06
0 4 12 42.82 2.63
0 4 12 46.35 3.18
0 -4 -12 36.73 2.35
0 -4 -12 42.36 3
0 4 13 6.88 1.34
0 4 13 8.06 1.72
0 -4 -13 6.7 1.23
0 -4 -13 8.81 1.61
0 4 14 0.89 1.22
0 4 14 1.39 1.6
0 -4 -14 1.52 1.17
0 -4 -14 0.48 0.92
0 5 -11 11.4 2.44
0 5 -11 10.18 2.2
0 -5 11 8.79 2.5
0 -5 11 9.86 1.52
0 5 -10 39.59 2.42
0 5 -10 39.87 3.39
0 -5 10 43.78 3.91
0 -5 10 41.44 3.92
0 5 -9 9.02 1.22
0 5 -9 9.74 1.69
0 -5 9 13.06 1.98
0 -5 9 10.59 1.97
0 5 -8 65.07 3.98
0 5 -8 60.62 3.5
0 -5 8 67.73 3.98
0 -5 8 62.77 4.02
0 5 -7 149 7.53
0 5 -7 142.18 6.87
0 -5 7 161.54 7.81
0 -5 7 151.95 7.56
0 5 -6 66.51 3.29
0 5 -6 62.2 2.15
0 -5 6 71.22 3.36
0 -5 6 67.09 3.39
0 5 -5 105 4.57
0 5 -5 102.83 4.16
0 -5 5 109.06 3.58
0 -5 5 105.68 3.55
0 5 -4 123.5 4.91
0 5 -4 122.98 3.79
0 -5 4 134.2 5.1
0 -5 4 129.3 5.03
0 5 -3 81.61 2.34
0 5 -3 83.26 2.78
0 -5 3 91.06 3.13
0 -5 3 88.4 2.46
0 5 -2 7.05 0.68
0 5 -2 6.23 0.61
0 -5 2 7.07 0.68
0 -5 2 6.7 0.67
0 5 -1 65.84 1.59
0 -5 1 68.79 1.65
0 -5 1 69.53 1.69
0 5 0 16.46 0.49
0 5 0 17.02 0.49
0 -5 0 17.66 0.51
0 -5 0 17.8 0.78
0 5 1 72.02 1.92
0 5 1 71.62 2.01
0 -5 -1 69.56 1.57
0 -5 -1 73.02 1.72
0 5 2 314.1 12.03
0 5 2 304.32 11.31
0 -5 -2 319.02 12.2
0 -5 -2 313.42 11.76
0 5 3 510.08 25.06
0 5 3 518.18 25.65
0 -5 -3 502.09 24.81
0 -5 -3 527.01 25.95
0 5 4 241.42 8.12
0 5 4 241.71 8.3
0 -5 -4 246.25 9.08
0 -5 -4 249.62 9.16
0 5 5 12.59 0.5
0 5 5 11.1 0.49
0 -5 -5 11.15 0.68
0 -5 -5 10.93 0.67
0 5 6 257.46 9.12
0 5 6 252.91 9.79
0 -5 -6 227.44 7.81
0 -5 -6 223.15 8.16
0 5 7 37.87 1.19
0 5 7 39.46 1.54
0 -5 -7 34.19 1.19
0 -5 -7 35.39 1.07
0 5 8 60.08 2.04
0 5 8 64.06 2.55
0 -5 -8 54.93 1.98
0 -5 -8 58.62 2.41
0 5 9 132.84 4.88
0 5 9 138.21 4.69
0 -5 -9 124.36 4.84
0 -5 -9 126.7 4.5
0 5 10 0.12 0.65
0 5 10 1.43 0.91
0 -5 -10 1.35 0.64
0 -5 -10 0.12 0.85
0 5 11 8.81 1.09
0 5 11 9.78 1.45
0 -5 -11 6.86 1.04
0 -5 -11 8.81 1.38
0 5 12 0.91 0.98
0 5 12 1.72 0.79
0 -5 -12 0.05 0.92
0 -5 -12 1.71 1.29
0 5 13 7.7 0.77
0 5 13 6.65 0.96
0 -5 -13 5.03 0.7
0 -5 -13 6.98 1.54
0 6 -10 44.87 4.13
0 6 -10 42.42 3.64
0 -6 10 48.59 4.32
0 -6 10 43.02 2.75
0 6 -9 6.54 1.23
0 6 -9 6.04 1.69
0 -6 9 7.54 2.03
0 -6 9 7.07 1.22
0 6 -8 17.46 1.43
0 6 -8 17.31 1.99
0 -6 8 22.24 2.36
0 -6 8 18.73 1.46
0 6 -7 26.91 2.4
0 6 -7 26.96 1.34
0 -6 7 30.91 2.36
0 -6 7 26.98 1.56
0 6 -6 50.19 2.92
0 6 -6 48.15 2.63
0 -6 6 51.33 2.05
0 -6 6 50.25 2.09
0 6 -5 33.18 2.04
0 6 -5 29.38 1.18
0 -6 5 32.24 1.35
0 -6 5 31.92 2.02
0 6 -4 80.52 3.63
0 6 -4 78.34 3.27
0 -6 4 88.93 3.71
0 -6 4 84.84 3.66
0 6 -3 105.35 3.35
0 6 -3 103.9 4.01
0 -6 3 116.91 4.52
0 -6 3 110.19 3.49
0 6 -2 12.65 0.63
0 6 -2 12.6 0.58
0 -6 2 14.3 1
0 -6 2 12.4 0.99
0 6 -1 62.8 2.13
0 6 -1 59.93 2.05
0 -6 1 65.19 1.72
0 -6 1 62.77 2.27
0 6 0 473.08 24.3
0 6 0 452.79 23.47
0 -6 0 482.17 24.77
0 -6 0 482.18 25.23
0 6 1 7.06 0.57
0 -6 -1 8.03 0.57
0 -6 -1 8.58 0.4
0 6 2 26.95 0.89
0 6 2 27 0.99
0 -6 -2 28.05 0.94
0 -6 -2 26.82 1.07
0 6 3 201.13 6.15
0 6 3 195.69 6.09
0 -6 -3 201.25 7.1
0 -6 -3 225.53 7.87
0 6 4 21.82 0.7
0 -6 -4 20.52 0.63
0 -6 -4 21.65 0.66
0 6 5 45.3 1.21
0 -6 -5 47.09 1.59
0 -6 -5 45.7 1.21
0 6 6 41.71 1.19
0 6 6 38.18 1.16
0 -6 -6 40.5 1.51
0 -6 -6 37.43 1.47
0 6 7 6.66 0.54
0 6 7 6.2 0.34
0 -6 -7 6.06 0.77
0 6 8 3.26 0.55
0 6 8 2.74 0.81
0 -6 -8 1.57 0.34
0 -6 -8 2.06 0.79
0 6 9 30.17 1.03
0 6 9 34.89 1.34
0 -6 -9 30.84 1.28
0 6 10 55.59 2.4
0 -6 -10 49.61 2.16
0 -6 -10 55.7 2.82
0 6 11 48.36 1.91
0 -6 -11 44.34 2.29
0 -6 -11 54.06 3.08
0 6 12 9.39 0.76
0 6 12 10.92 1.56
0 -6 -12 7.13 1.08
0 -6 -12 8.25 1.52
0 6 13 7.06 1.19
0 6 13 10.69 1.63
0 -6 -13 6.64 1.11
0 -6 -13 10.05 1.57
0 7 -9 4.23 1.18
0 7 -9 2.95 0.97
0 -7 9 5.12 1.95
0 -7 9 5.4 1.16
0 7 -8 3.29 1.04
0 7 -8 3.71 0.86
0 -7 8 4.4 1.72
0 -7 8 4.57 1.03
0 7 -7 2.54 1.48
0 7 -7 1.17 1.27
0 -7 7 4.02 1.47
0 -7 7 2.34 0.85
0 7 -6 32.79 2.49
0 7 -6 30 2.19
0 -7 6 32.92 1.64
0 -7 6 31.42 1.65
0 7 -5 7.46 1.39
0 7 -5 7.05 0.73
0 -7 5 8.78 1.42
0 -7 5 6.53 1.37
0 7 -4 48.59 2.66
0 7 -4 44.36 1.69
0 -7 4 50.05 1.91
0 -7 4 47.33 2.68
0 7 -3 440.81 25.89
0 7 -3 416.03 22.02
0 -7 3 462.52 27.11
0 -7 3 446.34 23.84
0 7 -2 74.33 2.35
0 7 -2 71.78 2.27
0 -7 2 77.93 3.33
0 -7 2 78.35 3.33
0 7 -1 16.11 0.7
0 7 -1 16.63 1.05
0 -7 1 16.16 0.72
0 -7 1 16.56 0.75
0 7 0 162.58 5.96
0 7 0 156.35 5.9
0 -7 0 162.91 6.08
0 -7 0 164.64 5.4
0 7 1 127.29 4.26
0 7 1 125.47 4.37
0 -7 -1 131.78 4.51
0 -7 -1 129.77 4.62
0 7 2 0.63 0.27
0 7 2 1.07 0.51
0 -7 -2 0.78 0.27
0 -7 -2 1.16 0.32
0 7 3 6.96 0.34
0 -7 -3 6.9 0.43
0 7 4 0.7 0.35
0 7 4 0.6 0.38
0 -7 -4 1.11 0.5
0 -7 -4 0.08 0.3
0 7 5 1 0.38
0 7 5 1.26 0.39
0 -7 -5 0.63 0.55
0 -7 -5 1.89 0.35
0 7 6 18.6 0.73
0 7 6 17.52 0.74
0 -7 -6 17.34 1.05
0 -7 -6 18.24 1.05
0 7 7 2.38 0.45
0 7 7 2.07 0.29
0 -7 -7 2.02 0.69
0 -7 -7 2.64 0.42
0 7 8 76.2 2.19
0 7 8 74.32 2.65
0 -7 -8 80.82 3.52
0 -7 -8 76.46 2.69
0 7 9 7.83 0.5
0 7 9 6.06 0.72
0 -7 -9 6.66 0.66
0 -7 -9 8.17 0.68
0 7 10 60.44 2.73
0 -7 -10 63.35 3.35
0 7 11 42.58 2.44
0 7 11 51.48 2.11
0 -7 -11 50.03 2.91
0 7 12 4.37 0.9
0 7 12 4.68 1.26
0 -7 -12 3.81 0.81
0 -7 -12 4.27 1.21
0 7 13 7.74 1.15
0 7 13 10.21 1.58
0 -7 -13 5.82 1.02
0 -7 -13 8.67 0.95
0 8 -8 3.39 1.13
0 8 -8 3.51 0.96
0 -8 8 2.23 1.88
0 -8 8 4.46 1.09
0 8 -7 15.78 2.32
0 8 -7 15.09 2.05
0 -8 7 16 2.38
0 -8 7 15.16 1.41
0 8 -6 71.15 4.35
0 8 -6 64.63 2.83
0 -8 6 71.58 3.21
0 -8 6 68.33 3.18
0 8 -5 6.96 1.49
0 8 -5 7.08 1.33
0 -8 5 8 1.56
0 -8 5 6.72 1.51
0 8 -4 36.32 2.41
0 8 -4 32.03 1.43
0 -8 4 34.44 1.59
0 -8 4 34.25 2.41
0 8 -3 22.6 1.67
0 8 -3 18.39 0.96
0 -8 3 21.3 1.69
0 -8 3 20.3 1.68
0 8 -2 15.33 1.33
0 8 -2 13.07 0.77
0 -8 2 14.54 1.34
0 -8 2 14.84 0.86
0 8 -1 55.31 2.38
0 8 -1 51.37 2.31
0 -8 1 53.5 1.81
0 -8 1 52.88 2.53
0 8 0 41.38 1.3
0 8 0 40.87 1.39
0 -8 0 42.79 1.94
0 -8 0 43.3 2.07
0 8 1 61.06 2.19
0 8 1 57.51 2.3
0 -8 -1 61.24 2.33
0 -8 -1 53.46 1.79
0 8 2 24.63 1.11
0 8 2 25.4 1.26
0 -8 -2 24.8 1.18
0 -8 -2 21.49 1.3
0 8 3 9.51 0.68
0 -8 -3 9.12 0.84
0 8 4 64.25 1.96
0 8 4 62.56 2.12
0 -8 -4 58.66 2.49
0 8 5 196.28 7.23
0 8 5 188.37 7.04
0 -8 -5 199.12 8.13
0 -8 -5 170.42 6.99
0 8 6 72.85 2.28
0 8 6 69.48 2.32
0 -8 -6 69.19 3.1
0 8 7 64.19 2.43
0 8 7 65.45 2.23
0 -8 -7 54.87 3.02
0 -8 -7 66.38 2.33
0 8 8 75.5 2.54
0 8 8 77.7 2.8
0 -8 -8 90.97 3.81
0 -8 -8 81.74 2.96
0 8 9 6.21 0.44
0 8 9 4.99 0.41
0 -8 -9 5.47 0.63
0 -8 -9 6.92 0.63
0 8 10 0.65 0.59
0 8 10 0.48 0.55
0 -8 -10 0.37 0.88
0 -8 -10 0.87 0.92
0 8 11 2.17 0.66
0 8 11 1.23 0.38
0 -8 -11 1.24 1
0 -8 -11 2.54 1.03
0 8 12 0.68 0.69
0 8 12 0.3 0.61
0 -8 -12 1 0.59
0 -8 -12 0.01 0.6
0 -9 7 62.78 3.48
0 9 -6 49.42 3.81
0 9 -6 45.24 2.37
0 -9 6 49.39 2.68
0 -9 6 46.9 2.61
0 9 -5 56.52 2.53
0 9 -5 48.39 3.35
0 -9 5 57.41 3.93
0 -9 5 54.15 2.58
0 9 -4 27.56 1.53
0 9 -4 23.58 2.13
0 -9 4 28.11 1.6
0 -9 4 27.48 2.42
0 9 -3 2 0.7
0 -9 3 2.87 1.19
0 -9 3 2.69 1.21
0 9 -2 27.84 1.22
0 9 -2 23.67 1.14
0 -9 2 26.35 1.91
0 -9 2 26.86 1.93
0 9 -1 30.23 1.21
0 9 -1 27.71 1.77
0 -9 1 29.93 1.81
0 -9 1 30.02 1.31
0 9 0 18.89 0.85
0 9 0 16.38 1.38
0 -9 0 18.15 0.89
0 -9 0 18.43 1.45
0 9 1 40.67 1.83
0 9 1 39.51 1.99
0 -9 -1 41.98 1.98
0 -9 -1 37.02 1.44
0 9 2 61.99 2.37
0 9 2 61.33 2.01
0 -9 -2 61.85 2.5
0 -9 -2 55.71 2.68
0 9 3 14.56 0.62
0 -9 -3 14.17 0.77
0 9 4 118.45 4.25
0 9 4 123.58 4.45
0 -9 -4 118.55 5.15
0 -9 -4 111.86 5.08
0 9 5 81 2.99
0 9 5 82.94 2.9
0 -9 -5 67.24 3.64
0 -9 -5 82.87 3.61
0 9 6 23.66 1.09
0 9 6 24.68 1.1
0 -9 -6 18.74 1.55
0 -9 -6 24.84 1.52
0 9 7 0.51 0.31
0 9 7 0.29 0.48
0 -9 -7 0.6 0.47
0 -9 -7 0.75 0.48
0 9 8 2.12 0.52
0 9 8 1.9 0.5
0 -9 -8 2.21 0.85
0 -9 -8 2.67 0.84
0 9 9 1.25 0.51
0 9 9 1.08 0.48
0 -9 -9 -0.43 0.85
0 -9 -9 2.48 0.85
0 9 10 7.53 0.76
0 -9 -10 6.21 0.72
0 -9 -10 6.57 0.73
0 9 11 1.04 0.59
0 9 11 0.02 0.53
0 -9 -11 -0.35 0.93
0 -9 -11 0.04 0.95
0 10 -5 28.88 2.76
0 10 -5 25.26 2.51
0 -10 5 29.02 2.89
0 -10 5 26.07 1.82
0 10 -4 37.48 2.92
0 10 -4 31.73 2.63
0 -10 4 36.16 2.01
0 -10 4 35.69 1.97
0 10 -3 1.94 1.21
0 10 -3 1.56 0.66
0 -10 3 0.54 1.25
0 -10 3 2.25 0.76
0 10 -2 37.35 2.28
0 10 -2 29.82 1.49
0 -10 2 35.09 2.33
0 -10 2 32.9 2.41
0 10 -1 7.43 1.17
0 10 -1 6.67 0.73
0 -10 1 6.37 1.18
0 -10 1 7.21 1.28
0 10 0 20.77 1.51
0 10 0 18.49 1.63
0 -10 0 20.3 1.06
0 -10 0 18.81 1.65
0 10 1 49.5 2.34
0 10 1 45.59 2.54
0 -10 -1 50.25 2.54
0 -10 -1 43.85 1.87
0 10 2 80.3 3.31
0 10 2 74.62 3.66
0 -10 -2 77.51 2.67
0 10 3 12.4 0.98
0 -10 -3 11.24 0.78
0 10 4 9.31 0.82
0 10 4 7.49 0.81
0 -10 -4 6.95 1.11
0 -10 -4 8.02 1.12
0 10 5 28.69 1.34
0 10 5 26.6 1.31
0 -10 -5 21.79 1.74
0 -10 -5 30.3 1.81
0 10 6 13.25 0.87
0 10 6 13.27 0.86
0 -10 -6 11.04 0.84
0 -10 -6 14.95 0.84
0 10 7 23.14 1.1
0 10 7 17.56 1.04
0 -10 -7 17.08 1.58
0 -10 -7 24.47 1.6
0 10 8 0.45 0.47
0 10 8 0.47 0.48
0 -10 -8 1.02 0.85
0 -10 -8 0.14 0.79
0 10 9 11.96 0.83
0 -10 -9 10.77 0.91
0 -10 -9 14.09 1.32
0 -10 -10 0.17 0.87
0 -10 -10 -0.25 0.85
0 11 -3 2.03 0.79
0 11 -3 1.09 0.75
0 -11 3 2.16 1.31
0 -11 3 0.6 1.39
0 11 -2 6.15 1.33
0 11 -2 4.58 0.81
0 -11 2 3.98 1.36
0 -11 2 5.58 1.43
0 11 -1 19.09 1.64
0 11 -1 14.49 1.1
0 -11 1 14.08 1.74
0 -11 1 16.14 1.78
0 11 0 0.71 0.94
0 11 0 -0.4 1.05
0 -11 0 1.32 1
0 -11 0 0.56 0.64
0 11 1 9.53 1.16
0 11 1 7.12 1.32
0 -11 -1 7.15 0.82
0 -11 -1 7.24 1.41
0 11 2 41.81 2.09
0 11 2 34.33 2.35
0 -11 -2 32.72 2.03
0 -11 -2 36.52 2.41
0 11 3 45.35 1.73
0 11 3 48.41 2.28
0 -11 -3 47.53 2.81
0 11 4 7.16 0.81
0 11 4 7.05 0.83
0 -11 -4 5.73 1.16
0 -11 -4 5.94 0.69
0 11 5 6.86 0.74
0 11 5 6.4 0.75
0 -11 -5 6.26 1.15
0 -11 -5 5.09 1.1
0 11 6 16.89 0.98
0 11 6 16.99 0.99
0 -11 -6 13.8 1.07
0 -11 -6 18.66 1.43
0 11 7 0.94 0.48
0 11 7 0.46 0.5
0 -11 -7 -0.16 0.85
0 -11 -7 -0.02 0.81
0 11 8 12.02 0.83
0 -11 -8 10.04 0.88
0 -11 -8 12.86 1.33
0 12 1 11.79 1.3
0 12 1 9.35 0.94
0 -12 -1 10.9 1.49
0 -12 -1 10.86 1.58
0 12 2 0.89 0.84
0 -12 -2 0.86 1.05
0 12 3 31.22 1.8
0 12 3 27.5 1.73
0 -12 -3 27.65 2.11
0 12 4 4.62 0.77
0 12 4 3.45 0.78
0 -12 -4 3.05 0.69
0 12 5 2.3 0.62
0 12 5 1.12 0.39
0 -12 -5 2.24 0.96
0 -12 -5 0.68 0.54
1 -11 -7 -0.18 0.58
1 -11 -7 0.73 0.96
1 -11 -6 2.25 1.06
1 -11 -6 0.51 1.06
1 -11 -5 1.21 1.07
1 -11 -5 6.04 1.18
1 -11 -4 12.18 1.55
1 -11 -4 15.6 1.61
-1 11 4 13.31 0.85
-1 11 4 13.59 0.93
1 -11 -3 8.59 1.36
1 -11 -3 9.09 1.45
-1 11 3 7.38 0.79
-1 11 3 7.67 0.87
1 -11 -2 10.32 1.65
-1 11 2 10.34 0.68
-1 11 2 10.37 0.97
1 -11 -1 38.89 2.3
1 -11 -1 47.15 2.26
-1 11 1 48.18 2.45
-1 11 1 45.62 2.2
1 -11 0 28.19 2.12
1 -11 0 29.73 1.72
-1 11 0 32.67 2
-1 11 0 26.48 2.49
1 -11 1 -0.73 1
1 -11 1 0.22 1.28
-1 11 -1 2.13 0.98
-1 11 -1 0.17 1.22
1 -11 2 15.83 1.86
1 -11 2 19.11 2.23
-1 11 -2 18.73 1.18
-1 11 -2 16.14 2.14
1 -10 -9 7.64 0.87
1 -10 -9 9.65 0.89
1 -10 -8 0.38 1
1 -10 -8 1.67 0.99
1 -10 -7 32.76 1.79
1 -10 -7 42.36 2.58
1 -10 -6 1.05 1.08
1 -10 -6 3.8 1.1
-1 10 6 2.38 0.43
-1 10 6 1.83 0.47
1 -10 -5 11.71 0.93
1 -10 -5 16.86 0.98
-1 10 5 13.31 0.74
-1 10 5 14.47 0.82
1 -10 -4 42.82 2.57
1 -10 -4 51.99 2.73
-1 10 4 40.64 1.61
-1 10 4 41.56 1.67
1 -10 -3 21.44 1.77
-1 10 3 21.05 1.13
1 -10 -2 18.6 1.79
-1 10 2 18.83 0.8
-1 10 2 19.96 1.78
1 -10 -1 41.62 2.32
1 -10 -1 41.97 1.95
-1 10 1 45.27 1.56
-1 10 1 44.48 2.85
1 -10 0 1.22 0.84
1 -10 0 0.96 1.08
-1 10 0 0.97 0.83
-1 10 0 0.65 0.61
1 -10 1 2.69 0.89
1 -10 1 -0.51 1.14
-1 10 -1 0.29 0.91
-1 10 -1 0.32 0.64
1 -10 2 2.24 1.09
1 -10 2 3.55 1.36
-1 10 -2 3.68 1.14
-1 10 -2 2.56 0.76
1 -10 3 27.06 2.22
1 -10 3 24.8 1.66
-1 10 -3 30.2 2.27
-1 10 -3 25.13 1.55
1 -10 4 7.91 1.67
1 -10 4 7.7 1.19
-1 10 -4 8.51 1.05
-1 10 -4 8.06 1.77
1 -9 -11 1.74 1.13
1 -9 -11 1.18 1.22
1 -9 -10 15.63 1.12
1 -9 -10 16.28 1.76
1 -9 -9 10.29 1.4
1 -9 -9 13.42 1.46
1 -9 -8 1.87 0.55
1 -9 -8 1.41 0.58
-1 9 8 0.65 0.38
-1 9 8 0.23 0.36
1 -9 -7 77.07 4.02
1 -9 -7 72.26 3
1 -9 -6 56.36 3.4
1 -9 -6 66.49 3.36
-1 9 6 53.75 1.93
-1 9 6 58.06 1.93
1 -9 -5 2.46 0.57
1 -9 -5 1.58 1.02
-1 9 5 2.52 0.44
-1 9 5 3.37 0.48
1 -9 -4 0.68 0.83
1 -9 -4 1.01 0.52
-1 9 4 1.02 0.42
-1 9 4 1.14 0.47
1 -9 -3 1.91 0.87
-1 9 3 1.17 0.51
1 -9 -2 5.4 0.66
1 -9 -2 6.75 1.07
-1 9 2 7.56 0.72
-1 9 2 7.33 1.05
1 -9 -1 4.06 0.76
1 -9 -1 3.7 0.62
-1 9 1 3.34 0.74
-1 9 1 3.62 1.02
1 -9 0 15.25 1.19
1 -9 0 16.54 1.59
-1 9 0 17.73 1.22
-1 9 0 16.54 1.51
1 -9 1 0.69 0.82
1 -9 1 0.97 0.63
-1 9 -1 2.37 0.52
-1 9 -1 1.09 0.59
1 -9 2 2.13 0.58
1 -9 2 1.71 1.19
-1 9 -2 2.03 0.6
-1 9 -2 1.86 0.66
1 -9 3 66.79 3.53
1 -9 3 61.46 3.84
-1 9 -3 64.99 3.48
-1 9 -3 57.62 2.53
1 -9 4 43.3 2.92
1 -9 4 39.88 3.19
-1 9 -4 42.07 2.87
-1 9 -4 37.87 2.93
1 -9 5 2.78 0.87
1 -9 5 4.06 0.97
-1 9 -5 3.75 1.49
-1 9 -5 2.78 1.48
1 -9 6 18.03 2.33
1 -9 6 16.64 1.58
-1 9 -6 16.58 1.47
-1 9 -6 15.25 1.45
1 -8 -12 3.22 0.76
1 -8 -12 2.04 1.31
1 -8 -11 16.51 1.81
1 -8 -11 18.15 1.94
1 -8 -10 23.24 1.97
1 -8 -10 23.59 2.09
1 -8 -9 14.22 0.98
1 -8 -9 16.51 1.57
-1 8 9 13.33 0.76
1 -8 -8 0.67 0.91
1 -8 -8 0.47 0.95
-1 8 8 0.72 0.38
-1 8 8 0.81 0.35
1 -8 -7 18.98 1.04
1 -8 -7 21.02 1.59
-1 8 7 18.35 0.76
-1 8 7 16.7 0.73
1 -8 -6 34.92 1.5
1 -8 -6 40.18 2.15
-1 8 6 39.92 1.39
-1 8 6 35.61 1.13
1 -8 -5 28.86 1.86
1 -8 -5 29.64 1.26
-1 8 5 31.42 1
-1 8 5 31.24 1.03
1 -8 -4 17.46 1.31
1 -8 -4 19.88 1.37
-1 8 4 19.59 0.76
1 -8 -3 1.04 0.43
-1 8 3 0.44 0.43
1 -8 -2 49.64 1.64
1 -8 -2 49.04 2.37
-1 8 2 53.86 1.78
-1 8 2 53.33 1.69
1 -8 -1 17.63 1.04
1 -8 -1 18.19 1.42
-1 8 1 18.75 1.02
-1 8 1 18.02 1.35
1 -8 0 176.57 7.21
1 -8 0 178.71 8.06
-1 8 0 179.13 7.22
-1 8 0 163.73 6.32
1 -8 1 54.86 2.42
1 -8 1 52.52 2.82
-1 8 -1 54.63 2.44
-1 8 -1 47.81 2.68
1 -8 2 13.6 0.79
1 -8 2 13.35 1.49
-1 8 -2 13.73 1.3
-1 8 -2 11.28 1.35
1 -8 3 23.32 1.15
1 -8 3 21.72 1.27
-1 8 -3 22.7 1.8
-1 8 -3 21 1.15
1 -8 4 16.76 1.66
1 -8 4 13.7 1.8
-1 8 -4 15.57 1.69
-1 8 -4 12.81 1.68
1 -8 5 11.16 1.65
1 -8 5 11.93 1.81
-1 8 -5 11 1.02
-1 8 -5 9.19 1.6
1 -8 6 2.02 1.34
1 -8 6 -1.19 1.44
-1 8 -6 0.07 0.79
-1 8 -6 1.33 0.78
1 -8 7 4 1.03
1 -8 7 3.86 1.89
-1 8 -7 5.78 1.75
-1 8 -7 2.16 1.61
1 -7 -12 0.07 1.12
-1 7 12 0.14 0.67
1 -7 -11 0.72 1.14
-1 7 11 1.33 0.65
1 -7 -10 8.26 0.85
1 -7 -10 10.2 0.87
-1 7 10 9.03 0.76
1 -7 -9 61.88 3.13
1 -7 -9 57.91 3.12
-1 7 9 51.37 1.99
1 -7 -8 23.98 1.12
1 -7 -8 25.74 1.8
-1 7 8 25.25 0.96
-1 7 8 21.81 0.84
1 -7 -7 46.39 2.26
1 -7 -7 46.31 2.34
-1 7 7 44.77 1.51
1 -7 -6 1.73 0.71
1 -7 -6 0.63 0.43
-1 7 6 0.5 0.3
-1 7 6 0.85 0.29
1 -7 -5 35.8 1.68
1 -7 -5 39.41 1.73
-1 7 5 35.18 0.93
-1 7 5 34 1.16
1 -7 -4 1.29 0.39
1 -7 -4 2.18 0.41
-1 7 4 2.06 0.31
-1 7 4 1.88 0.34
1 -7 -3 105.17 3.94
-1 7 3 100.36 2.91
1 -7 -2 70.59 2.04
1 -7 -2 67.99 2.67
-1 7 2 66.96 1.96
-1 7 2 65.77 1.93
1 -7 -1 3.6 0.33
1 -7 -1 4.14 0.48
-1 7 1 4.69 0.56
-1 7 1 3.98 0.46
1 -7 0 62.62 2.19
1 -7 0 59.92 1.95
-1 7 0 58.18 1.61
-1 7 0 57.32 2.46
1 -7 1 219.62 8.17
1 -7 1 229.22 10.27
-1 7 -1 221.94 9.29
-1 7 -1 209.35 9.49
1 -7 2 87.61 3.52
1 -7 2 85.34 3.87
-1 7 -2 83.49 3.5
-1 7 -2 77.5 3.54
1 -7 3 222.62 10.28
1 -7 3 218.31 10.79
-1 7 -3 213.34 10.29
-1 7 -3 198 9.71
1 -7 4 26.36 1.26
1 -7 4 26.76 1.37
-1 7 -4 27.63 1.94
-1 7 -4 25.62 2.01
1 -7 5 52.53 3.01
1 -7 5 51.33 3.2
-1 7 -5 51.91 2.1
-1 7 -5 48.12 2.91
1 -7 6 12.14 1.71
1 -7 6 13.21 1.8
-1 7 -6 12.95 1.04
-1 7 -6 9.42 0.98
1 -7 7 3.13 0.89
1 -7 7 2.46 1.6
-1 7 -7 4.62 1.52
-1 7 -7 2.34 1.39
1 -7 8 16.37 1.48
1 -7 8 15.38 2.5
-1 7 -8 17.93 2.4
-1 7 -8 13.83 2.17
1 -7 9 35.2 2.2
1 -7 9 31.36 3.62
-1 7 -9 33.22 2.24
-1 7 -9 28.72 2.02
1 -6 -13 1.82 0.71
1 -6 -13 1.61 1.37
-1 6 13 1.59 0.89
-1 6 13 3.67 1.46
1 -6 -12 42.04 3.16
-1 6 12 46.53 3.41
1 -6 -11 20.07 1.15
1 -6 -11 21.08 1.3
-1 6 11 18.88 1.39
-1 6 11 24.28 1.41
1 -6 -10 0.42 0.48
1 -6 -10 1.06 0.57
-1 6 10 0.72 0.57
-1 6 10 0.95 1.03
1 -6 -9 67.96 3.45
-1 6 9 69.98 2.53
-1 6 9 73.31 2.65
1 -6 -8 139.78 5.35
-1 6 8 151.32 5.1
1 -6 -7 22.03 1.35
1 -6 -7 22.93 1.4
-1 6 7 20.74 0.71
1 -6 -6 7.81 0.86
1 -6 -6 9.09 0.56
-1 6 6 8.64 0.42
-1 6 6 7.8 0.39
1 -6 -5 50.73 1.96
-1 6 5 53.58 1.24
-1 6 5 47.88 1.37
1 -6 -4 1.78 0.56
1 -6 -4 1.79 0.36
-1 6 4 2.12 0.27
-1 6 4 2.07 0.39
1 -6 -3 56.13 1.56
1 -6 -3 59.25 1.67
-1 6 3 57.73 1.38
-1 6 3 60.67 1.5
1 -6 -2 207.24 6.71
1 -6 -2 201.45 6.78
-1 6 2 189.14 6.27
-1 6 2 191.94 6.44
1 -6 -1 47.73 1.4
-1 6 1 48.41 1.77
1 -6 0 70.31 2.18
1 -6 0 72.51 2.01
-1 6 0 67.78 2.14
-1 6 0 67.58 2.45
1 -6 1 20.34 1.02
1 -6 1 20.59 0.81
-1 6 -1 20.27 0.69
-1 6 -1 19.48 0.75
1 -6 2 199.63 7.75
1 -6 2 197.41 7.07
-1 6 -2 188.43 7.58
-1 6 -2 187.56 7.62
1 -6 3 43.46 1.94
1 -6 3 42.89 2.14
-1 6 -3 40.35 1.99
-1 6 -3 39.36 1.37
1 -6 4 3.01 0.9
1 -6 4 2.42 0.58
-1 6 -4 0.79 0.92
-1 6 -4 0.77 0.52
1 -6 5 7.41 1.2
1 -6 5 6.3 1.26
-1 6 -5 6.56 0.74
-1 6 -5 6.03 1.13
1 -6 6 49.04 1.95
1 -6 6 46.47 2.96
-1 6 -6 43.79 1.89
-1 6 -6 42.75 1.83
1 -6 7 4.64 1.45
1 -6 7 4.77 0.94
-1 6 -7 3.48 1.5
-1 6 -7 3.96 1.33
1 -6 8 76.91 4.74
1 -6 8 71.55 3.43
-1 6 -8 74.79 4.97
-1 6 -8 68.18 3.09
1 -6 9 63.27 4.44
1 -6 9 56.38 3.06
-1 6 -9 54.42 2.97
-1 6 -9 53.89 2.75
1 -6 10 50.19 2.94
1 -6 10 48.16 3.04
-1 6 -10 48.22 2.94
-1 6 -10 43.58 2.67
1 -5 -13 2.63 0.86
1 -5 -13 3.67 1.5
-1 5 13 2.9 1.03
-1 5 13 3.81 0.95
1 -5 -12 103.75 4.75
1 -5 -12 109.34 4.96
-1 5 12 108.96 5.79
-1 5 12 125.23 5.33
1 -5 -11 80.02 3.29
-1 5 11 77.79 3.79
-1 5 11 91.22 4.91
1 -5 -10 2.93 0.58
1 -5 -10 2.66 0.61
-1 5 10 2.46 0.66
-1 5 10 4.48 1.09
1 -5 -9 1.42 0.49
1 -5 -9 0.8 0.9
-1 5 9 2.43 0.57
1 -5 -8 55.22 1.93
-1 5 8 61.56 1.86
-1 5 8 60.42 2.75
1 -5 -7 2.89 0.38
1 -5 -7 3.08 0.75
-1 5 7 3.54 0.4
-1 5 7 4.02 0.78
1 -5 -6 98.72 3.65
-1 5 6 106.51 2.77
1 -5 -5 28.78 1.23
1 -5 -5 29.71 1.27
-1 5 5 27.72 0.67
1 -5 -4 23.21 1.04
1 -5 -4 22.34 0.74
-1 5 4 23.6 0.58
1 -5 -3 284.26 11.85
1 -5 -3 300.84 11.54
-1 5 3 291.78 10.33
-1 5 3 301.69 10.86
1 -5 -2 62.01 1.5
1 -5 -2 62.99 2.15
-1 5 2 60.62 1.5
-1 5 2 64.33 2.07
1 -5 -1 1309.33 114.8
1 -5 -1 1305.61 116.39
-1 5 1 1271.1 112.38
-1 5 1 1252.86 113.82
1 -5 0 361.3 14.89
1 -5 0 340.99 15.13
-1 5 0 323.24 13.61
-1 5 0 335.05 14.75
1 -5 1 7.34 0.6
-1 5 -1 6.81 0.37
-1 5 -1 6.83 0.41
1 -5 2 208.97 6.98
1 -5 2 223.4 8.56
-1 5 -2 207.33 7.92
-1 5 -2 211.89 8.07
1 -5 3 40.45 1.2
1 -5 3 41.45 1.8
-1 5 -3 41.09 1.75
-1 5 -3 39.45 1.17
1 -5 4 85.47 3.25
1 -5 4 79.54 2.51
-1 5 -4 76.79 3.18
-1 5 -4 75.14 2.34
1 -5 5 189.89 6.9
1 -5 5 185.04 8.38
-1 5 -5 182.2 8.2
-1 5 -5 171.75 6.36
1 -5 6 14.3 1.48
1 -5 6 13.01 0.95
-1 5 -6 12.37 0.92
-1 5 -6 12.13 1.34
1 -5 7 3.45 1.34
1 -5 7 3.12 0.82
-1 5 -7 3.82 0.8
-1 5 -7 2.61 0.72
1 -5 8 21.8 2.14
1 -5 8 19.48 1.4
-1 5 -8 20.46 2.17
-1 5 -8 18.03 1.22
1 -5 9 25.83 2.52
1 -5 9 20.35 1.61
-1 5 -9 22.47 2.49
-1 5 -9 22.08 2.2
1 -5 10 48.45 4.1
1 -5 10 42.49 2.68
-1 5 -10 46.37 2.64
-1 5 -10 42.87 3.57
1 -5 11 29.39 2.26
-1 5 -11 28.46 3.52
-1 5 -11 25.55 3.11
1 -4 -13 9.83 1.19
1 -4 -13 11.8 1.16
-1 4 13 10.95 1.42
-1 4 13 9.85 1.98
1 -4 -12 1.14 0.83
1 -4 -12 2.71 0.8
-1 4 12 -0.36 0.99
-1 4 12 3.76 1.44
1 -4 -11 46.73 2.18
1 -4 -11 50.71 2.16
-1 4 11 55.41 2.64
-1 4 11 57.08 3.4
1 -4 -10 11.58 0.89
1 -4 -10 12.89 0.88
-1 4 10 13.65 0.99
-1 4 10 14.5 0.94
1 -4 -9 1.48 0.52
1 -4 -9 2.62 0.86
-1 4 9 1.79 0.55
-1 4 9 2.04 0.94
1 -4 -8 17.2 0.79
1 -4 -8 16.85 1.23
-1 4 8 19.8 1.32
1 -4 -7 323.91 13.57
1 -4 -7 306.4 13.5
-1 4 7 328.05 13.73
-1 4 7 345.61 16.4
1 -4 -6 21.73 0.69
1 -4 -6 20.38 0.75
-1 4 6 21.84 0.67
-1 4 6 23.27 1.21
1 -4 -5 402.49 17.75
1 -4 -5 408.6 18.97
-1 4 5 456.11 19.69
-1 4 5 433.13 20.02
1 -4 -4 716.02 45.15
1 -4 -4 705.94 44.84
-1 4 4 741.58 42.39
-1 4 4 673.44 38.76
1 -4 -3 291.26 11.29
1 -4 -3 288.7 10.59
-1 4 3 301.4 10.36
-1 4 3 291.26 9.87
1 -4 -2 24.22 0.59
1 -4 -2 25.6 0.91
-1 4 2 25.4 0.54
-1 4 2 25.56 0.62
1 -4 -1 432.83 18.26
1 -4 -1 426.3 19.47
-1 4 1 411.92 17.64
-1 4 1 412.27 17.86
1 -4 0 221.08 6.91
1 -4 0 215.04 7.33
-1 4 0 200.02 6.43
-1 4 0 211.7 6.57
1 -4 1 53.02 1.38
1 -4 1 51.44 1.23
-1 4 -1 48.53 1.36
-1 4 -1 51.53 1.52
1 -4 2 300.85 11.45
1 -4 2 325.18 13.36
-1 4 -2 304.81 12.67
-1 4 -2 310.02 12.6
1 -4 3 1.79 0.58
1 -4 3 1.61 0.61
-1 4 -3 1.26 0.61
-1 4 -3 1.96 0.34
1 -4 4 14.32 1.06
1 -4 4 12.88 1.1
-1 4 -4 13.48 1.08
-1 4 -4 13.46 0.98
1 -4 5 24.34 1.5
1 -4 5 23.55 1
-1 4 -5 22.09 1.51
-1 4 -5 21.58 0.9
1 -4 6 249.09 10.03
1 -4 6 247.3 10.18
-1 4 -6 243.31 11.84
-1 4 -6 236.33 11.06
1 -4 7 56.68 2.13
1 -4 7 57.07 3.18
-1 4 -7 53.41 2.16
-1 4 -7 51.4 1.95
1 -4 8 13.46 1.66
1 -4 8 9.67 1.69
-1 4 -8 10.85 0.98
-1 4 -8 9.41 1.44
1 -4 9 5.96 1.57
1 -4 9 6.45 1.6
-1 4 -9 5.89 1.57
-1 4 -9 5.73 1.34
1 -4 10 31.2 2.86
1 -4 10 26.59 2.96
-1 4 -10 26.71 2.84
-1 4 -10 26.17 2.46
1 -4 11 17.62 1.58
1 -4 11 14.89 2.58
-1 4 -11 14.29 1.59
-1 4 -11 12.16 2.27
1 -3 -13 19.22 1.65
1 -3 -13 19.85 1.46
-1 3 13 19.75 1.18
-1 3 13 25.73 2.55
1 -3 -12 13.07 1.35
1 -3 -12 14.65 1.2
-1 3 12 15.13 1.45
-1 3 12 17.79 2.13
1 -3 -11 2.4 0.48
1 -3 -11 2.39 0.69
-1 3 11 2.53 0.86
-1 3 11 2.97 0.76
1 -3 -10 77.31 2.42
1 -3 -10 74.97 2.81
-1 3 10 82.45 3.26
-1 3 10 86.96 4.29
1 -3 -9 1.3 0.55
1 -3 -9 1.54 0.5
-1 3 9 1.14 0.6
-1 3 9 2.04 0.95
1 -3 -8 203.48 6.94
1 -3 -8 196.12 7.36
-1 3 8 206.48 7.69
-1 3 8 224.6 9.59
1 -3 -7 592.39 33.2
1 -3 -7 538.53 32.95
-1 3 7 561.32 31.62
-1 3 7 594.3 36.1
1 -3 -6 152.13 4.39
1 -3 -6 138.7 4.89
-1 3 6 142.82 4.13
-1 3 6 146.7 4.41
1 -3 -5 153.32 4.18
1 -3 -5 143.42 4.76
-1 3 5 149.44 4.03
-1 3 5 156.32 5.17
1 -3 -4 943.76 64.39
1 -3 -4 930.68 67.5
-1 3 4 945.22 64.77
-1 3 4 936.51 66.38
1 -3 -3 5.25 0.43
1 -3 -3 5.37 0.43
-1 3 3 5.14 0.17
1 -3 -2 3.55 0.22
1 -3 -2 3.94 0.36
-1 3 2 3.89 0.15
1 -3 -1 92.31 1.85
1 -3 -1 92.74 2.3
-1 3 1 92.37 1.89
-1 3 1 96.39 2.34
1 -3 0 17.17 0.43
1 -3 0 16.54 0.59
-1 3 0 15.25 0.43
-1 3 0 16.98 0.58
1 -3 1 125.87 3.21
1 -3 1 125.03 3.41
-1 3 -1 113.46 2.74
-1 3 -1 123.22 3.29
1 -3 2 9.58 0.36
1 -3 2 9.91 0.6
-1 3 -2 9.61 0.59
-1 3 -2 11.02 0.57
1 -3 3 384.67 16.87
1 -3 3 376.63 16.62
-1 3 -3 360.51 16.24
-1 3 -3 349.47 15.33
1 -3 4 456.37 21.86
1 -3 4 474.02 24.42
-1 3 -4 455.83 23.93
-1 3 -4 442.7 22.63
1 -3 5 457.51 24.02
1 -3 5 461.68 24.47
-1 3 -5 434.27 23.68
-1 3 -5 439.35 23.04
1 -3 6 124.66 4.97
1 -3 6 122.42 5.08
-1 3 -6 115.71 3.98
-1 3 -6 113.36 3.68
1 -3 7 260.36 12.41
1 -3 7 252.74 10.57
-1 3 -7 241 12.03
-1 3 -7 237.99 11.44
1 -3 8 1.82 0.65
1 -3 8 1 0.68
-1 3 -8 2.52 1.12
-1 3 -8 1.34 0.96
1 -3 9 15.35 1.11
1 -3 9 14.57 1.1
-1 3 -9 12.55 1.09
-1 3 -9 12.42 1.54
1 -3 10 8.38 1.7
1 -3 10 6.36 1.05
-1 3 -10 7.79 1.73
-1 3 -10 8.31 1.49
1 -3 11 6.75 1.13
1 -3 11 6.09 1.16
-1 3 -11 6.99 1.91
-1 3 -11 5.73 1.69
1 -3 12 1.3 1.93
1 -3 12 3.21 2.01
-1 3 -12 2.28 1.16
-1 3 -12 2.53 1.79
1 -2 -13 18.24 1.14
1 -2 -13 20.53 1.46
-1 2 13 19.7 1.83
-1 2 13 21.7 1.62
1 -2 -12 0.91 0.92
1 -2 -12 0.31 1.24
-1 2 12 1.42 0.58
-1 2 12 1.64 0.83
1 -2 -11 9.06 0.7
1 -2 -11 9.17 1.48
-1 2 11 9.53 1.19
-1 2 11 12.73 1.69
1 -2 -10 31.91 1.63
1 -2 -10 32.23 2.16
-1 2 10 34.86 1.75
-1 2 10 33.48 2.38
1 -2 -9 3.25 0.67
1 -2 -9 1.59 0.93
-1 2 9 3.32 0.44
-1 2 9 4.15 1.05
1 -2 -8 45.25 1.75
1 -2 -8 46.73 2.21
-1 2 8 47.91 1.84
-1 2 8 48.18 2.46
1 -2 -7 152.04 5.27
1 -2 -7 144.43 4.81
-1 2 7 163.33 5.62
-1 2 7 161.03 5.35
1 -2 -6 147.65 4.42
1 -2 -6 141.62 4.81
-1 2 6 145.4 4.35
-1 2 6 154.64 5.29
1 -2 -5 140.82 3.79
1 -2 -5 138 3.8
-1 2 5 136.8 3.73
-1 2 5 148.68 4.64
1 -2 -4 88.31 1.87
1 -2 -4 85.84 2.29
-1 2 4 85.91 1.83
-1 2 4 83.6 1.95
1 -2 -3 18.92 0.32
1 -2 -3 18.89 0.42
-1 2 3 19.12 0.39
-1 2 3 18.99 0.44
1 -2 -2 28.61 0.53
1 -2 -2 28.89 0.54
1 -2 -1 0.59 0.09
1 -2 -1 0.4 0.26
-1 2 1 0.16 0.26
1 -2 0 1198.58 89.92
1 -2 0 1142.44 86.95
-1 2 0 1103.68 84.08
-1 2 0 1126.81 85.62
1 -2 1 57.07 1.23
1 -2 1 57.6 1.31
-1 2 -1 54.6 1.26
-1 2 -1 55.72 1.07
1 -2 2 80.97 1.98
1 -2 2 78.77 1.67
-1 2 -2 74.52 1.64
-1 2 -2 76.56 1.6
1 -2 3 720.9 41.87
1 -2 3 738.68 44.11
-1 2 -3 649.55 38.69
-1 2 -3 699.01 40.42
1 -2 4 1499.92 146.75
1 -2 4 1526.47 149.62
-1 2 -4 1442.51 143.51
-1 2 -4 1448.51 141.75
1 -2 5 139.47 4.83
1 -2 5 138.05 4.85
-1 2 -5 139.08 5.04
-1 2 -5 131.06 3.83
1 -2 6 9.47 0.61
1 -2 6 8.95 1.01
-1 2 -6 7.6 0.62
-1 2 -6 9.36 0.88
1 -2 7 7.22 0.67
1 -2 7 6.76 0.67
-1 2 -7 7.28 1.11
-1 2 -7 6.7 0.58
1 -2 8 39.81 2.29
1 -2 8 35.56 1.51
-1 2 -8 34.71 1.47
-1 2 -8 34.84 1.33
1 -2 9 2.91 0.76
1 -2 9 3.06 0.76
-1 2 -9 2.61 0.76
-1 2 -9 3.25 0.65
1 -2 10 14.58 1.82
1 -2 10 13.2 1.86
-1 2 -10 13.58 1.83
-1 2 -10 12.28 0.99
1 -2 11 43.51 2.24
1 -2 11 43.81 3.57
-1 2 -11 40.71 2.27
-1 2 -11 41.13 3.17
1 -2 12 34.09 3.4
1 -2 12 35.28 3.51
-1 2 -12 30.88 3.31
-1 2 -12 29.76 3.07
1 -1 -13 11.9 1.58
1 -1 -13 12 1.24
-1 1 13 11.99 1.65
-1 1 13 13.38 1.4
1 -1 -12 5.8 0.79
1 -1 -12 5.76 1.61
-1 1 12 6.1 1.28
-1 1 12 7.96 1.8
1 -1 -11 18.28 1.65
1 -1 -11 18.15 2.02
-1 1 11 20.29 1.72
-1 1 11 20.14 2.29
1 -1 -10 43.17 1.53
1 -1 -10 41.91 1.76
-1 1 10 46.68 2.28
-1 1 10 45.11 1.96
1 -1 -9 1.66 0.7
1 -1 -9 1.91 0.52
-1 1 9 1.22 0.44
-1 1 9 1.44 0.59
1 -1 -8 1.88 0.41
1 -1 -8 1.19 0.53
-1 1 8 3.59 0.74
-1 1 8 1.98 0.6
1 -1 -7 84.29 2.78
1 -1 -7 76.99 2.31
-1 1 7 83.31 2.21
-1 1 7 84.33 2.55
1 -1 -6 330.95 13.15
1 -1 -6 321.53 13.07
-1 1 6 354.92 14.85
-1 1 6 343.18 14.09
1 -1 -5 232.63 7.91
1 -1 -5 233.57 8.43
-1 1 5 241.92 8.26
-1 1 5 241.68 8.85
1 -1 -4 2.72 0.26
1 -1 -4 2.63 0.4
-1 1 4 2.13 0.29
-1 1 4 2.23 0.43
1 -1 -3 63.58 1.2
1 -1 -3 63.79 1.47
-1 1 3 61.28 1.22
-1 1 3 65.07 1.3
1 -1 -2 16.31 0.26
1 -1 -2 16.31 0.49
-1 1 2 15.79 0.35
1 -1 -1 56.08 1.08
1 -1 -1 58.4 1.12
1 -1 0 160.57 3.71
1 -1 0 161.45 3.81
-1 1 0 161.51 3.73
-1 1 0 166.35 4.1
1 -1 1 637.53 33.59
1 -1 1 667.01 34.99
-1 1 -1 641.2 34.01
-1 1 -1 624.95 32.28
-1 1 -2 8.27 0.46
-1 1 -2 8.45 0.25
1 -1 3 38.14 0.82
1 -1 3 39.01 0.8
-1 1 -3 37.02 0.8
-1 1 -3 36.95 0.76
1 -1 4 106.78 3.14
1 -1 4 102.77 2.56
-1 1 -4 97.76 2.98
-1 1 -4 101 2.87
1 -1 5 130.69 4.23
1 -1 5 133.19 4.29
-1 1 -5 122.52 4.11
-1 1 -5 119.45 3.28
1 -1 6 90.41 2.5
1 -1 6 89.28 2.48
-1 1 -6 83.74 2.44
-1 1 -6 81.7 2.78
1 -1 7 29.7 1.63
1 -1 7 28.66 1.08
-1 1 -7 27.71 1.57
-1 1 -7 26.55 1.37
1 -1 8 192.51 7.09
1 -1 8 189.39 7.08
-1 1 -8 177.73 6.82
-1 1 -8 172.39 7.63
1 -1 9 31.25 2.25
1 -1 9 32.23 2.27
-1 1 -9 27.1 2.18
-1 1 -9 29.04 1.97
1 -1 10 106.25 4.21
1 -1 10 104.83 5.78
-1 1 -10 100.12 5.5
-1 1 -10 102.4 3.92
1 -1 11 111.23 6.32
1 -1 11 107.85 6.59
-1 1 -11 102.3 6.11
-1 1 -11 104.48 5.79
1 -1 12 87.89 5.78
1 -1 12 86.21 4.14
-1 1 -12 81.64 5.49
-1 1 -12 80.23 5.32
1 -1 13 8.35 1.22
1 -1 13 10.28 2.18
-1 1 -13 7.55 1.23
-1 1 -13 6.17 1.14
1 0 -13 12.31 1.82
1 0 -13 12.02 1.31
-1 0 13 15.21 1.17
-1 0 13 14.15 1.54
1 0 -12 77.16 3.22
1 0 -12 76.42 5.02
-1 0 12 83.26 4.65
-1 0 12 86.75 5.76
1 0 -11 28.63 2.26
1 0 -11 28.36 1.64
-1 0 11 31.46 1.55
-1 0 11 30.23 1.94
1 0 -10 21.28 1.65
1 0 -10 21.31 1.23
-1 0 10 23.16 1.74
-1 0 10 25.65 2.22
1 0 -9 10.59 0.72
1 0 -9 12.04 1.29
-1 0 9 12.61 1.2
-1 0 9 12.85 1.5
1 0 -8 104.37 3.25
1 0 -8 103.81 3.36
-1 0 8 110.61 3.37
-1 0 8 114.48 3.79
1 0 -7 126.37 4.5
1 0 -7 124.18 3.83
-1 0 7 133.41 4.61
-1 0 7 134.88 4.24
1 0 -6 131.67 4.26
1 0 -6 124.7 3.62
-1 0 6 139.09 4.44
-1 0 6 138.56 4.83
1 0 -5 347.94 14.58
1 0 -5 337.74 14.33
-1 0 5 350.93 14.64
-1 0 5 351.9 14.21
1 0 -4 192.15 5.88
1 0 -4 187.3 5.44
-1 0 4 192.14 5.89
-1 0 4 198.9 5.86
1 0 -3 190.71 5.25
1 0 -3 197.22 5.87
-1 0 3 193.72 5.62
-1 0 3 204.59 6.2
1 0 -2 290.07 9.57
1 0 -2 291.61 9.57
-1 0 2 285.07 9.38
-1 0 2 305.12 10.48
1 0 -1 16.41 0.24
1 0 -1 16.78 0.33
-1 0 1 17.27 0.26
1 0 1 629.42 31.81
1 0 1 642.43 32.28
-1 0 -1 664.43 33.32
-1 0 -1 613.39 30.82
1 0 2 202.21 5.82
1 0 2 208.12 5.85
-1 0 -2 199.28 5.77
-1 0 -2 188.21 5.05
1 0 3 18.29 0.61
1 0 3 18.8 0.58
-1 0 -3 17.3 0.41
-1 0 -3 17.88 0.38
1 0 4 121.81 3.32
1 0 4 122.1 3.33
-1 0 -4 112.09 3.18
-1 0 -4 112.62 2.74
1 0 5 61.6 1.84
1 0 5 63.45 1.87
-1 0 -5 57.04 1.76
-1 0 -5 57.19 1.33
1 0 6 337.93 13.73
1 0 6 357.21 15.77
-1 0 -6 323.17 13.45
-1 0 -6 319.49 14
1 0 7 90.27 2.59
1 0 7 94.41 3.51
-1 0 -7 84.42 2.55
-1 0 -7 84.07 2.41
1 0 8 289.57 13.71
1 0 8 286.64 13.73
-1 0 -8 271.19 13.21
-1 0 -8 266.46 11.05
1 0 9 4.28 1.06
1 0 9 3.62 0.65
-1 0 -9 2.4 0.58
-1 0 -9 2.01 0.94
1 0 10 17.07 1.09
1 0 10 17.05 1.81
-1 0 -10 15.96 1.66
-1 0 -10 14.41 1.57
1 0 11 29.63 2.51
1 0 11 28.26 2.67
-1 0 -11 27.87 2.53
-1 0 -11 26.8 1.5
1 0 12 12.54 1.2
1 0 12 12.42 1.23
-1 0 -12 10.09 1.2
-1 0 -12 11.41 1.85
1 0 13 18.03 1.46
1 0 13 18.5 2.47
-1 0 -13 14.84 2.26
-1 0 -13 16.39 1.4
1 1 -13 0.51 1.25
1 1 -13 -1.01 1.47
-1 -1 13 0.29 0.8
-1 -1 13 -0.22 1.02
1 1 -12 91.9 4.08
1 1 -12 95.21 6
-1 -1 12 98.85 5.84
-1 -1 12 103.43 6.96
1 1 -11 140.26 5.83
1 1 -11 133.66 5.91
-1 -1 11 150.16 6.11
-1 -1 11 150.93 6.79
1 1 -10 21.43 1.84
1 1 -10 18.43 1.95
-1 -1 10 24.48 1.89
-1 -1 10 25.04 2.29
1 1 -9 22.53 1.71
1 1 -9 24.03 1.17
-1 -1 9 26.62 1.78
-1 -1 9 26 1.37
1 1 -8 185.6 8
1 1 -8 184.91 8.11
-1 -1 8 199.38 7.18
-1 -1 8 203.08 9.07
1 1 -7 7.52 0.54
1 1 -7 6.76 0.54
-1 -1 7 7.01 0.53
-1 -1 7 7.34 0.62
1 1 -6 21.43 0.73
1 1 -6 22.17 1.08
-1 -1 6 22.05 0.73
-1 -1 6 23.91 0.84
1 1 -5 290.68 11.73
1 1 -5 283.7 10.59
-1 -1 5 297.09 11.08
-1 -1 5 312.8 12.81
1 1 -4 481.9 23.64
1 1 -4 478.35 23.49
-1 -1 4 493.19 24.05
-1 -1 4 491.06 23.34
1 1 -3 112.72 2.94
1 1 -3 113.28 2.99
-1 -1 3 116.85 3.03
-1 -1 3 117.94 2.81
1 1 -2 148.38 3.88
1 1 -2 147.4 3.6
-1 -1 2 151.74 3.97
-1 -1 2 152.68 3.77
1 1 -1 188.38 4.93
1 1 -1 178.63 4.45
-1 -1 1 184.64 4.83
-1 -1 1 190.36 4.94
1 1 1 132.71 2.93
1 1 1 137.35 2.74
-1 -1 -1 135.58 3.03
1 1 2 113.02 2.35
1 1 2 114.2 2.46
-1 -1 -2 116.48 2.69
-1 -1 -2 106.27 2.28
1 1 3 133.77 3.14
1 1 3 136.44 3.47
-1 -1 -3 135.48 3.25
1 1 4 120.33 3.13
1 1 4 119.1 3.09
-1 -1 -4 115.87 3.12
-1 -1 -4 107.37 2.54
1 1 5 262.94 8.91
1 1 5 263.45 9.03
-1 -1 -5 255.73 8.9
-1 -1 -5 258.25 9.39
1 1 6 73.58 1.85
1 1 6 78.68 2.44
-1 -1 -6 71.52 1.87
-1 -1 -6 72.74 2.19
1 1 7 9.51 0.65
1 1 7 11.77 1.1
-1 -1 -7 10.5 0.64
-1 -1 -7 10.51 0.58
1 1 8 14.83 0.85
1 1 8 15.36 0.89
-1 -1 -8 14.32 0.85
-1 -1 -8 16.32 1.28
1 1 9 4.04 0.58
1 1 9 4.16 1.01
-1 -1 -9 4.13 0.58
-1 -1 -9 3.72 0.54
1 1 10 61.68 3.08
1 1 10 58.55 2.21
-1 -1 -10 55.33 2.96
-1 -1 -10 57.76 2.88
1 1 11 3.01 1.27
1 1 11 2.73 1.31
-1 -1 -11 2.17 0.69
-1 -1 -11 2.65 1.17
1 1 12 7.86 0.98
1 1 12 8.37 1.04
-1 -1 -12 7.57 0.94
-1 -1 -12 8.33 1.53
1 1 13 4.35 0.94
1 1 13 2.85 1.66
-1 -1 -13 3.14 1.51
-1 -1 -13 5.29 1.5
1 2 -13 10.59 1.3
1 2 -13 11.93 2.26
-1 -2 13 14.11 2.24
-1 -2 13 12.04 2.61
1 2 -12 2.15 0.97
1 2 -12 3.72 1
-1 -2 12 4.52 1.67
-1 -2 12 5.53 2.03
1 2 -11 58.43 3.84
1 2 -11 53.76 3.89
-1 -2 11 62.56 2.7
-1 -2 11 59.68 2.96
1 2 -10 0.33 1.11
1 2 -10 0.41 0.65
-1 -2 10 2.12 1.16
-1 -2 10 1.11 1.29
1 2 -9 12.52 1.42
1 2 -9 11.84 1.41
-1 -2 9 11.91 1.45
-1 -2 9 12.04 1.02
1 2 -8 21.23 1.6
1 2 -8 20.64 1.47
-1 -2 8 21.99 1.57
-1 -2 8 21.51 1.75
1 2 -7 5.19 0.94
1 2 -7 4.36 0.53
-1 -2 7 4.31 0.94
-1 -2 7 4.58 1.03
1 2 -6 1.45 0.74
1 2 -6 1.32 0.67
-1 -2 6 2.12 0.73
-1 -2 6 2.11 0.48
1 2 -5 100.01 3.34
1 2 -5 98.36 3.11
-1 -2 5 101.44 3.3
-1 -2 5 103.96 3.51
1 2 -4 2096.04 257.93
1 2 -4 2150.05 268.47
-1 -2 4 2209.2 271.48
-1 -2 4 2245.83 281.59
1 2 -3 1204.06 99.59
1 2 -3 1220.75 102.55
-1 -2 3 1250.13 103.35
-1 -2 3 1280.35 106.52
1 2 -2 11.81 0.49
1 2 -2 12.05 0.3
-1 -2 2 12.19 0.34
-1 -2 2 13.19 0.51
1 2 -1 289.67 9.75
1 2 -1 293.89 9.91
-1 -2 1 298.51 10.02
-1 -2 1 304.52 10.11
1 2 0 754.68 43.81
1 2 0 710.23 40.27
-1 -2 0 855.29 49.97
-1 -2 0 793.36 45.09
1 2 1 9.24 0.22
-1 -2 -1 8.19 0.13
1 2 2 1536.04 146.95
1 2 2 1659.76 156.32
-1 -2 -2 1643.23 159
-1 -2 -2 1630.66 153.5
1 2 3 43.75 0.81
1 2 3 44.89 0.89
-1 -2 -3 45.84 1.06
1 2 4 76.26 1.57
1 2 4 73.25 1.49
-1 -2 -4 74.13 1.9
-1 -2 -4 71.39 1.67
1 2 5 28.94 0.93
1 2 5 29.51 0.92
-1 -2 -5 27.89 0.69
-1 -2 -5 27.63 0.86
1 2 6 30.19 0.78
1 2 6 30.73 1.09
-1 -2 -6 29.39 1.12
-1 -2 -6 29.08 1.03
1 2 7 114.75 3.99
1 2 7 119.03 4.19
-1 -2 -7 110.03 3.32
-1 -2 -7 108.57 3.16
1 2 8 151.83 6.12
1 2 8 150.74 5.1
-1 -2 -8 141.44 5.96
-1 -2 -8 154.13 6.13
1 2 9 0.1 0.79
1 2 9 0.66 0.49
-1 -2 -9 1.07 0.74
-1 -2 -9 1.28 0.74
1 2 10 43.37 2.26
1 2 10 44.24 2.42
-1 -2 -10 37.86 1.49
-1 -2 -10 39.73 1.51
1 2 11 8.28 1.34
1 2 11 8.78 0.87
-1 -2 -11 7.31 0.78
-1 -2 -11 9.31 1.28
1 2 12 25.28 1.45
1 2 12 30.27 2.4
-1 -2 -12 25.25 2.11
-1 -2 -12 25.28 1.39
1 2 13 26.69 1.6
1 2 13 27.65 2.63
-1 -2 -13 24 2.39
-1 -2 -13 26.52 2.48
1 2 14 7.63 1.87
1 2 14 7.69 1.95
-1 -2 -14 6.83 1.08
-1 -2 -14 6.51 1.83
1 3 -12 9.23 2.16
1 3 -12 9.77 1.3
-1 -3 12 13.56 1.38
-1 -3 12 10.23 1.5
1 3 -11 11.54 2.07
1 3 -11 12.37 1.93
-1 -3 11 14.39 1.27
-1 -3 11 10.1 2.31
1 3 -10 45.08 2.14
1 3 -10 43.12 3
-1 -3 10 49.64 3.26
-1 -3 10 46.21 3.56
1 3 -9 1.09 0.64
1 3 -9 0.16 0.58
-1 -3 9 0.47 1.12
-1 -3 9 0.26 0.69
1 3 -8 28.13 1.28
1 3 -8 26.56 1.18
-1 -3 8 30.08 2.03
-1 -3 8 29.63 2.08
1 3 -7 281.41 12.15
1 3 -7 270.69 12.92
-1 -3 7 305.42 14.63
-1 -3 7 297.3 14.56
1 3 -6 89.2 2.79
1 3 -6 87.58 3.31
-1 -3 6 100.61 3.77
-1 -3 6 97.57 2.99
1 3 -5 123.02 4.38
1 3 -5 113.91 3.91
-1 -3 5 123.75 3.64
-1 -3 5 124.55 3.71
1 3 -4 305.62 12.16
1 3 -4 306.5 11.97
-1 -3 4 329.25 13.97
-1 -3 4 331.88 13.19
1 3 -3 13.8 0.74
1 3 -3 15.43 0.66
-1 -3 3 15.59 0.79
-1 -3 3 14.95 0.75
1 3 -2 200.64 6.04
1 3 -2 208.69 6.42
-1 -3 2 210.62 6.31
-1 -3 2 210.56 6.68
1 3 -1 1.08 0.33
1 3 -1 1.73 0.14
-1 -3 1 1.79 0.35
-1 -3 1 1.49 0.16
1 3 0 12.99 0.48
1 3 0 13.01 0.3
-1 -3 0 13.32 0.48
-1 -3 0 13.12 0.32
1 3 1 77.42 1.74
1 3 1 81.94 1.51
-1 -3 -1 80.52 1.61
-1 -3 -1 81.59 1.53
1 3 2 1.78 0.26
1 3 2 2.19 0.28
-1 -3 -2 1.88 0.15
-1 -3 -2 1.52 0.15
1 3 3 1137.77 88.99
1 3 3 1204.26 92.29
-1 -3 -3 1097.96 85.96
-1 -3 -3 1145.03 87.47
1 3 4 730.84 43.09
1 3 4 763.32 45.51
-1 -3 -4 728.54 45.04
-1 -3 -4 729.7 43.39
1 3 5 457.13 21.51
1 3 5 462.75 21.57
-1 -3 -5 443.03 21.37
-1 -3 -5 443.43 20.67
1 3 6 100.34 2.91
1 3 6 100.98 2.9
-1 -3 -6 90.5 2.36
-1 -3 -6 92.36 2.32
1 3 7 453.45 22.56
1 3 7 452.09 22.79
-1 -3 -7 423.29 21.95
-1 -3 -7 403.36 19.35
1 3 8 144.19 4.46
1 3 8 145.4 4.53
-1 -3 -8 137.28 4.42
-1 -3 -8 137.42 4.39
1 3 9 18.14 1.22
1 3 9 19.02 0.82
-1 -3 -9 14.83 1.17
-1 -3 -9 17.27 0.77
1 3 10 29.04 1.69
1 3 10 29.15 1.81
-1 -3 -10 23.5 1.64
-1 -3 -10 28.92 1.74
1 3 11 4.79 1.06
1 3 11 2.71 1.12
-1 -3 -11 2.45 0.99
-1 -3 -11 2.41 1.08
1 3 12 12.21 1.64
1 3 12 11.58 1.75
-1 -3 -12 9.51 1.56
-1 -3 -12 11.41 1.02
1 3 13 38.85 1.96
1 3 13 39.02 2.04
-1 -3 -13 33.86 1.85
-1 -3 -13 41.49 2.92
1 3 14 19.27 1.54
1 3 14 23.11 2.58
-1 -3 -14 16.62 2.29
-1 -3 -14 23.02 2.46
1 4 -12 3.92 1.19
1 4 -12 3.92 1.85
-1 -4 12 5.67 1.2
-1 -4 12 4.06 2.14
1 4 -11 16.41 1.47
1 4 -11 13.48 1.34
-1 -4 11 13.84 2.49
-1 -4 11 17.32 2.59
1 4 -10 110.98 6.93
1 4 -10 104.9 4.56
-1 -4 10 124.57 7.01
-1 -4 10 113.12 5.16
1 4 -9 9.25 1.66
1 4 -9 9.58 1.45
-1 -4 9 8.73 1.72
-1 -4 9 7.42 1.76
1 4 -8 9.65 1.52
1 4 -8 9.47 1.32
-1 -4 8 10.56 1.56
-1 -4 8 10.25 1.53
1 4 -7 80.59 3.89
1 4 -7 77.7 3.48
-1 -4 7 87.54 4.07
-1 -4 7 83.9 4
1 4 -6 197.92 8.78
1 4 -6 188.79 7.93
-1 -4 6 210.47 9.05
-1 -4 6 202.76 7.58
1 4 -5 48.91 1.57
1 4 -5 49.02 1.42
-1 -4 5 54.24 1.63
-1 -4 5 54.21 1.61
1 4 -4 2.56 0.72
1 4 -4 3.23 0.61
-1 -4 4 4.4 0.75
-1 -4 4 3.12 0.71
1 4 -3 17.71 0.62
1 4 -3 18.61 0.54
-1 -4 3 18.78 0.96
-1 -4 3 18.59 0.89
1 4 -2 60.31 1.45
1 4 -2 64.88 1.67
-1 -4 2 65.51 1.55
-1 -4 2 64.54 1.78
1 4 -1 287.43 10.34
1 4 -1 293.02 10.55
-1 -4 1 309.97 11.12
-1 -4 1 299.1 11.05
1 4 0 350.53 13.63
1 4 0 354.81 13.25
-1 -4 0 370.61 15.05
-1 -4 0 364.74 14.29
1 4 1 629.17 34.78
1 4 1 677.28 36.83
-1 -4 -1 682.68 37.8
-1 -4 -1 691.42 37.82
1 4 2 391.4 16.79
-1 -4 -2 420.97 17.09
1 4 3 900.47 60.48
1 4 3 902.22 62.13
-1 -4 -3 900.66 60.61
-1 -4 -3 933.64 62.88
1 4 4 1060.09 77.94
1 4 4 1023.16 74.92
-1 -4 -4 945.38 70.04
-1 -4 -4 988.63 72.35
1 4 5 144.99 4.25
1 4 5 144.39 4.13
-1 -4 -5 131.23 4.11
-1 -4 -5 143.43 4.08
1 4 6 0.85 0.46
1 4 6 1.1 0.44
-1 -4 -6 0.52 0.47
-1 -4 -6 1.53 0.43
1 4 7 115.77 3.66
1 4 7 119.02 3.8
-1 -4 -7 104.37 3
-1 -4 -7 100.95 2.86
1 4 8 24.02 1.16
1 4 8 24.85 1.21
-1 -4 -8 21.59 1.19
-1 -4 -8 22.71 1.14
1 4 9 31.6 1.13
1 4 9 36.53 1.76
-1 -4 -9 31.09 1.64
-1 -4 -9 32.39 1.66
1 4 10 15.84 0.83
1 4 10 16.48 1.34
-1 -4 -10 13.44 1.21
-1 -4 -10 17.42 1.29
1 4 11 24.33 1.73
1 4 11 23.62 1.89
-1 -4 -11 19.66 1.69
-1 -4 -11 24.55 1.83
1 4 12 37.53 2.65
1 4 12 39.92 2.87
-1 -4 -12 33.66 2.47
-1 -4 -12 37.42 1.84
1 4 13 4.75 1.38
1 4 13 6.22 1.51
-1 -4 -13 5.07 1.32
-1 -4 -13 6.36 1.45
1 4 14 41.94 3.29
1 4 14 43.48 3.51
-1 -4 -14 34.82 3.1
-1 -4 -14 40.67 3.44
1 5 -11 7.62 1.3
1 5 -11 4.87 1.95
-1 -5 11 8.14 2.2
-1 -5 11 7.39 2.23
1 5 -10 88.84 4.34
1 5 -10 81.84 3.89
-1 -5 10 97.65 6.39
-1 -5 10 92.35 6.24
1 5 -9 99.21 4.28
1 5 -9 91.29 3.83
-1 -5 9 106.94 6.16
-1 -5 9 102.9 5.99
1 5 -8 35.09 1.86
1 5 -8 35.21 1.64
-1 -5 8 42.21 2.95
-1 -5 8 38.57 1.89
1 5 -7 10.16 0.92
1 5 -7 9.48 0.78
-1 -5 7 11.12 1.59
-1 -5 7 11.19 0.93
1 5 -6 62.93 2.24
1 5 -6 62.85 2.76
-1 -5 6 66.38 2.31
-1 -5 6 64.84 2.27
1 5 -5 131.74 4.44
1 5 -5 135.64 5.17
-1 -5 5 139.71 4.7
-1 -5 5 138.98 4.64
1 5 -4 18.65 1.22
1 5 -4 18.08 1.06
-1 -5 4 18.98 0.83
-1 -5 4 19.07 0.79
1 5 -3 289.79 11.62
1 5 -3 295.18 12.4
-1 -5 3 312.97 13.71
-1 -5 3 314.95 13.6
1 5 -2 86.39 2.8
1 5 -2 86.41 2.49
-1 -5 2 87.21 2.34
-1 -5 2 88.63 2.26
1 5 -1 0.31 0.47
1 5 -1 0.53 0.34
-1 -5 1 1.18 0.48
-1 -5 1 0.62 0.22
1 5 0 318.06 13
1 5 0 323.43 12.55
-1 -5 0 332.67 13.67
-1 -5 0 329.69 13.1
1 5 1 918.97 66.78
1 5 1 946.4 67.23
-1 -5 -1 1003.95 73.29
-1 -5 -1 950.98 68.09
1 5 2 126.09 3.29
1 5 2 132.39 3.47
-1 -5 -2 142.53 4.12
-1 -5 -2 141.09 3.74
1 5 3 49.96 1.38
1 5 3 48.37 1.39
-1 -5 -3 49.72 1.25
-1 -5 -3 51.56 1.28
1 5 4 83.18 2.16
1 5 4 77.97 2.15
-1 -5 -4 79.49 2.02
-1 -5 -4 75.17 1.67
1 5 5 0.58 0.4
-1 -5 -5 2.68 0.23
1 5 6 81.87 2.04
1 5 6 89.01 2.56
-1 -5 -6 84.8 2.55
1 5 7 0.78 0.29
1 5 7 0.91 0.51
-1 -5 -7 1.1 0.5
-1 -5 -7 1.35 0.48
1 5 8 124.99 3.8
1 5 8 132.4 4.77
-1 -5 -8 114.82 4.45
-1 -5 -8 121.69 4.53
1 5 9 17.86 1.24
1 5 9 20.06 1.29
-1 -5 -9 15.8 0.82
-1 -5 -9 16.82 0.8
1 5 10 12.3 0.7
1 5 10 12.6 1.21
-1 -5 -10 10.11 1.11
-1 -5 -10 11.29 0.73
1 5 11 35.57 2.13
1 5 11 36.19 1.56
-1 -5 -11 29.12 2.02
-1 -5 -11 31.99 1.48
1 5 12 122.85 6.54
1 5 12 136.47 5.56
-1 -5 -12 111.97 4.9
-1 -5 -12 133.8 5.43
1 5 13 3.75 1.24
1 5 13 4.54 0.84
-1 -5 -13 3.55 0.72
-1 -5 -13 4.05 0.83
1 6 -10 5.79 1.32
1 6 -10 5.33 1.82
-1 -6 10 8.78 2.21
-1 -6 10 7.12 1.27
1 6 -9 111.77 5.17
1 6 -9 106.44 6.18
-1 -6 9 122.75 7.49
-1 -6 9 112.64 7.18
1 6 -8 60.1 2.78
1 6 -8 56.84 3.58
-1 -6 8 63.97 4.22
-1 -6 8 60.02 4.02
1 6 -7 3.4 0.8
1 6 -7 3.46 1.11
-1 -6 7 3.02 1.39
-1 -6 7 3.98 1.32
1 6 -6 42.06 1.8
1 6 -6 42.29 1.57
-1 -6 6 45.92 1.91
-1 -6 6 44.24 2.62
1 6 -5 43.8 1.65
1 6 -5 43.6 2.07
-1 -6 5 47.44 2.59
-1 -6 5 47.5 2.4
1 6 -4 12.74 1.27
1 6 -4 12.79 0.65
-1 -6 4 14.45 0.84
-1 -6 4 13.43 1.21
1 6 -3 312.86 14.73
1 6 -3 291.57 12.16
-1 -6 3 328.58 15.65
-1 -6 3 322.9 13.77
1 6 -2 494.45 26.06
1 6 -2 496.6 27.22
-1 -6 2 531.36 28.16
-1 -6 2 542.92 30.49
1 6 -1 44.32 1.21
1 6 -1 43.95 1.06
-1 -6 1 45.74 1.74
-1 -6 1 44.97 1.52
1 6 0 0.98 0.53
1 6 0 1.03 0.4
-1 -6 0 0.67 0.32
-1 -6 0 1.39 0.42
1 6 1 22.7 0.64
1 6 1 24.23 0.77
-1 -6 -1 25.39 1
-1 -6 -1 23.67 0.59
1 6 2 76.65 1.87
1 6 2 81.04 2.09
-1 -6 -2 80.53 1.99
-1 -6 -2 85.36 2.21
1 6 3 266.53 9.89
1 6 3 250.64 9.43
-1 -6 -3 251.36 9.13
-1 -6 -3 254.37 8.69
1 6 4 1.71 0.42
1 6 4 1.52 0.43
-1 -6 -4 1.62 0.36
-1 -6 -4 0.74 0.37
1 6 5 106.43 2.78
1 6 5 109.72 3.39
-1 -6 -5 109.4 3.31
-1 -6 -5 110.12 3.3
1 6 6 0.46 0.43
1 6 6 0.76 0.46
-1 -6 -6 0.77 0.43
-1 -6 -6 0.29 0.41
1 6 7 135.53 4.65
1 6 7 131.92 3.93
-1 -6 -7 137.71 4.73
1 6 8 166.99 6.54
1 6 8 182.33 7
-1 -6 -8 156.34 6.44
-1 -6 -8 168.54 6.77
1 6 9 125.25 4.96
1 6 9 131.11 4.28
-1 -6 -9 111.86 4.8
-1 -6 -9 117.67 5.04
1 6 10 1.33 0.47
1 6 10 0.78 0.88
-1 -6 -10 0.89 0.79
-1 -6 -10 1.87 0.5
1 6 11 34.28 2.12
1 6 11 38.82 1.62
-1 -6 -11 30.87 2.11
-1 -6 -11 34.5 1.55
1 6 12 0.96 0.92
1 6 12 1.35 1.05
-1 -6 -12 0.39 0.56
-1 -6 -12 1.12 0.61
1 6 13 7.19 1.32
1 6 13 10.81 1.5
-1 -6 -13 5.99 1.3
-1 -6 -13 10.17 0.93
1 7 -9 11.05 1.39
1 7 -9 12.19 1.9
-1 -7 9 11.65 2.4
-1 -7 9 11.7 1.36
1 7 -8 23.36 1.68
1 7 -8 22.25 2.22
-1 -7 8 27.13 2.8
-1 -7 8 23.07 1.64
1 7 -7 6.64 0.99
1 7 -7 6.16 0.81
-1 -7 7 6.5 1.7
-1 -7 7 7.34 1.55
1 7 -6 4.97 0.89
1 7 -6 4.87 1.16
-1 -7 6 6.45 0.9
-1 -7 6 7.35 1.35
1 7 -5 92.33 3.41
1 7 -5 85.42 3.87
-1 -7 5 101.7 4.95
-1 -7 5 95.84 4.6
1 7 -4 0.59 0.59
1 7 -4 0.59 0.77
-1 -7 4 0.7 0.61
-1 -7 4 0.53 0.55
1 7 -3 342.18 17.87
1 7 -3 314.24 16.1
-1 -7 3 355.9 19.1
-1 -7 3 342.79 16.06
1 7 -2 315.84 15.42
1 7 -2 304.75 14.54
-1 -7 2 331.8 16.57
-1 -7 2 329.32 15.92
1 7 -1 141.73 5.37
1 7 -1 134.34 4.75
-1 -7 1 144.08 4.66
-1 -7 1 148.81 5.34
1 7 0 202.96 7.89
1 7 0 197.83 7.3
-1 -7 0 207.84 8.29
-1 -7 0 213.21 7.21
1 7 1 7.33 0.73
1 7 1 6.71 0.59
-1 -7 -1 8.54 0.79
-1 -7 -1 6.86 0.62
1 7 2 92.62 2.93
1 7 2 94.16 2.77
-1 -7 -2 92.64 3.07
-1 -7 -2 95.89 2.88
1 7 3 25.36 0.99
-1 -7 -3 21.92 0.87
-1 -7 -3 24.39 0.65
1 7 4 7.59 0.58
1 7 4 7.23 0.61
-1 -7 -4 7.57 0.55
1 7 5 157.85 5.32
1 7 5 149.92 5.22
-1 -7 -5 151.96 5.22
-1 -7 -5 166.23 5.54
1 7 6 23.2 0.96
1 7 6 23.72 1.07
-1 -7 -6 20.21 0.99
-1 -7 -6 22.42 1
1 7 7 16.79 0.96
-1 -7 -7 14.93 0.95
-1 -7 -7 14.05 0.9
1 7 8 29.36 1.38
1 7 8 27.45 1.41
-1 -7 -8 23.99 0.95
-1 -7 -8 25.05 1.36
1 7 9 31.08 1.52
-1 -7 -9 31.62 1.68
1 7 10 33.92 1.34
1 7 10 39.15 2.07
-1 -7 -10 33.98 1.39
1 7 11 0.77 0.81
1 7 11 1.08 0.56
-1 -7 -11 0.73 0.82
-1 -7 -11 1.97 0.91
1 7 12 1.88 0.59
1 7 12 2.63 1.03
-1 -7 -12 2.66 0.55
-1 -7 -12 3.85 1.02
1 7 13 -0.25 0.9
1 7 13 -0.19 1.04
-1 -7 -13 1.27 0.89
-1 -7 -13 -0.21 1.04
1 8 -8 6.76 1.24
1 8 -8 5.45 0.99
-1 -8 8 7.91 2.15
-1 -8 8 6.83 1.14
1 8 -7 3.95 1.02
1 8 -7 3.4 1.39
-1 -8 7 4.84 1.79
-1 -8 7 2.78 0.96
1 8 -6 0.79 0.84
1 8 -6 2.4 1.1
-1 -8 6 1.53 0.84
-1 -8 6 1.13 0.77
1 8 -5 7.66 0.93
1 8 -5 7.13 1.21
-1 -8 5 7.81 1.56
-1 -8 5 7.64 0.89
1 8 -4 122.35 4.64
1 8 -4 114.72 4.21
-1 -8 4 134.38 6.59
-1 -8 4 128.3 4.82
1 8 -3 17.55 1
1 8 -3 14.75 1.27
-1 -8 3 16.01 1.66
-1 -8 3 18.96 0.98
1 8 -2 58.73 2.7
1 8 -2 55.27 1.73
-1 -8 2 60.71 2.9
-1 -8 2 63.02 2.74
1 8 -1 44.44 2.07
1 8 -1 41.17 1.74
-1 -8 1 43.05 2.16
-1 -8 1 42.84 1.4
1 8 0 50.2 1.51
1 8 0 47.17 1.39
-1 -8 0 49.58 1.59
-1 -8 0 50.4 2.01
1 8 1 0.01 0.63
1 8 1 1.38 0.53
-1 -8 -1 1.3 0.69
-1 -8 -1 -0.31 0.57
1 8 2 160.99 5.41
1 8 2 169.98 6.22
-1 -8 -2 175.08 6.89
-1 -8 -2 187.19 6.69
1 8 3 7.83 0.76
-1 -8 -3 8.97 0.7
1 8 4 95.45 3.15
1 8 4 95.01 3.25
-1 -8 -4 80.53 3.04
-1 -8 -4 88.63 3.15
1 8 5 54.72 1.5
1 8 5 50.17 1.47
-1 -8 -5 50.62 1.96
1 8 6 101.01 3.55
1 8 6 98.71 3.48
-1 -8 -6 89.99 3.61
1 8 7 171.09 6.61
1 8 7 143.41 5.34
-1 -8 -7 141.16 6.38
-1 -8 -7 140.24 5.51
1 8 8 5.05 0.73
1 8 8 3.96 0.77
-1 -8 -8 4.01 0.49
-1 -8 -8 4.56 0.79
1 8 9 31.62 1.55
1 8 9 25.71 1.63
-1 -8 -9 31.33 1.69
-1 -8 -9 33.33 1.68
1 8 10 28.97 1.67
-1 -8 -10 29.3 1.25
-1 -8 -10 28.3 1.74
1 8 11 14.25 1.23
-1 -8 -11 15.85 1.42
-1 -8 -11 12.6 0.85
1 8 12 3.19 0.91
-1 -8 -12 2.86 1.08
1 9 -7 38.51 3.51
1 9 -7 30.83 2.9
-1 -9 7 36.79 3.7
-1 -9 7 31.59 2.18
1 9 -6 10.26 2.09
1 9 -6 9.06 1.02
-1 -9 6 9.37 2.25
-1 -9 6 10.7 1.17
1 9 -5 1.94 1.41
1 9 -5 0.14 1.13
-1 -9 5 2.25 0.9
-1 -9 5 2.61 0.82
1 9 -4 35.49 2.57
1 9 -4 31.63 2.18
-1 -9 4 34.84 2.75
-1 -9 4 34.15 1.66
1 9 -3 165.07 8.19
1 9 -3 149.94 5.95
-1 -9 3 171.66 8.86
-1 -9 3 172.06 6.96
1 9 -2 30.3 1.95
1 9 -2 26.47 1.1
-1 -9 2 28.53 2.11
-1 -9 2 29.57 1.92
1 9 -1 64.35 2.94
1 9 -1 59.65 2.6
-1 -9 1 66.19 3.17
-1 -9 1 62.36 2.95
1 9 0 1.21 0.47
1 9 0 0.28 0.39
-1 -9 0 1.13 0.86
-1 -9 0 1.46 0.43
1 9 1 1.37 0.76
1 9 1 1.82 0.63
-1 -9 -1 1.2 0.82
-1 -9 -1 1.03 0.68
1 9 2 0.47 0.66
1 9 2 0.11 0.57
-1 -9 -2 0.69 0.43
-1 -9 -2 0.54 0.6
1 9 3 45.43 1.89
-1 -9 -3 42.01 1.35
1 9 4 2.34 0.66
1 9 4 2.39 0.67
-1 -9 -4 2.53 0.64
1 9 5 4.04 0.67
1 9 5 2.79 0.42
-1 -9 -5 2.75 0.65
-1 -9 -5 3.9 0.67
1 9 6 29.48 1.38
1 9 6 29.6 1.43
-1 -9 -6 29.98 1.46
1 9 7 75.05 2.58
1 9 7 68.76 3.17
-1 -9 -7 84.21 3.46
-1 -9 -7 79.07 3.4
1 9 8 20.43 1.2
-1 -9 -8 16.93 1.35
-1 -9 -8 20.74 1.25
1 9 9 22.72 1.37
-1 -9 -9 20.9 1.55
-1 -9 -9 23.51 1.46
1 9 10 20.34 1.35
-1 -9 -10 19.99 1.58
-1 -9 -10 20 1.44
1 9 11 0.85 0.7
1 9 11 0.43 0.69
-1 -9 -11 -0.19 0.87
-1 -9 -11 0.44 0.47
1 10 -5 2.57 1
1 10 -5 3.29 1.29
-1 -10 5 4.01 1.03
-1 -10 5 4.37 1.56
1 10 -4 1.54 0.79
1 10 -4 1.1 1.07
-1 -10 4 0.72 1.44
-1 -10 4 0.88 1.26
1 10 -3 0.68 0.7
1 10 -3 0.45 0.94
-1 -10 3 1.35 1.25
-1 -10 3 1.33 1.11
1 10 -2 17.59 1.05
1 10 -2 15.04 1.39
-1 -10 2 14.98 1.11
-1 -10 2 15.67 1.05
1 10 -1 -0.17 0.55
1 10 -1 0.65 0.79
-1 -10 1 0.85 0.59
-1 -10 1 0.69 0.53
1 10 0 26.89 1.18
1 10 0 25.92 1.61
-1 -10 0 27.6 2.06
-1 -10 0 25.47 1.78
1 10 1 36.07 2
1 10 1 31.21 1.82
-1 -10 -1 36.02 2.2
-1 -10 -1 32.35 1.91
1 10 2 40.77 2.09
1 10 2 41.88 1.97
-1 -10 -2 42.7 2.34
-1 -10 -2 38.25 2.08
1 10 3 54.92 2.52
-1 -10 -3 52.05 2.48
1 10 4 142.4 5.93
1 10 4 115.33 4.45
-1 -10 -4 128.46 5.75
1 10 5 7.6 0.83
1 10 5 7.69 0.85
-1 -10 -5 7.58 0.54
1 10 6 7.44 0.82
1 10 6 6.17 0.79
-1 -10 -6 5.44 0.86
-1 -10 -6 7.48 0.81
1 10 7 9.86 0.86
1 10 7 7.76 0.83
-1 -10 -7 7.73 0.94
-1 -10 -7 8.53 0.59
1 10 8 1.13 0.61
1 10 8 1.03 0.58
-1 -10 -8 0.9 0.71
-1 -10 -8 0.13 0.64
1 10 9 6.02 0.79
1 10 9 3.77 0.73
-1 -10 -9 4.71 0.97
-1 -10 -9 5.33 0.89
1 10 10 3.23 0.46
1 10 10 2.25 0.71
-1 -10 -10 2.7 0.93
-1 -10 -10 3.21 0.84
1 11 -3 15.69 1.9
1 11 -3 11.5 1.55
-1 -11 3 13.44 2
-1 -11 3 12.55 1.84
1 11 -2 6.36 1.37
1 11 -2 5.87 1.16
-1 -11 2 4.53 0.89
-1 -11 2 5.63 1.35
1 11 -1 -0.48 1.02
1 11 -1 -1.12 0.9
-1 -11 1 0.59 0.68
-1 -11 1 1.06 0.97
1 11 0 59.1 3.13
1 11 0 47.36 2.82
-1 -11 0 59.24 2.59
-1 -11 0 49.59 3.03
1 11 1 84.57 4.11
1 11 1 78.38 4.07
-1 -11 -1 93.28 4.7
1 11 2 8.85 1.21
1 11 2 10.88 1.16
-1 -11 -2 10.29 1.32
-1 -11 -2 10.38 1.17
1 11 3 2.93 0.58
1 11 3 2.72 0.89
-1 -11 -3 4.1 0.9
-1 -11 -3 3.44 0.85
1 11 4 13.35 1.14
1 11 4 11.07 1.05
-1 -11 -4 10.83 0.7
1 11 5 0.15 0.68
1 11 5 0.64 0.65
-1 -11 -5 0.08 0.7
-1 -11 -5 1.23 0.66
1 11 6 0.57 0.63
1 11 6 -0.19 0.62
-1 -11 -6 1.22 0.7
-1 -11 -6 1.34 0.65
1 11 7 1.26 0.64
1 11 7 2.12 0.63
-1 -11 -7 0.67 0.74
-1 -11 -7 1.63 0.7
1 11 8 0.85 0.64
1 11 8 1.19 0.62
-1 -11 -8 1.05 0.75
-1 -11 -8 -0.13 0.71
1 11 9 4.32 0.77
1 11 9 3.53 0.76
-1 -11 -9 4.77 0.99
-1 -11 -9 5.05 0.89
1 12 0 6.39 1.33
1 12 0 5.15 1.28
-1 -12 0 7.4 1.52
-1 -12 0 6.25 0.8
1 12 1 16.06 1.53
1 12 1 12.97 1.49
-1 -12 -1 13.04 1.11
-1 -12 -1 13.27 1.51
1 12 2 9.41 1.22
-1 -12 -2 9.78 1.22
1 12 3 5.48 1.02
1 12 3 4.98 0.97
-1 -12 -3 4.48 1.08
-1 -12 -3 4.43 0.98
1 12 4 -0.05 0.73
1 12 4 0.96 0.72
-1 -12 -4 0.54 0.79
-1 -12 -4 -0.6 0.75
1 12 5 2.94 0.81
1 12 5 1.71 0.74
-1 -12 -5 1.62 0.52
-1 -12 -5 2.53 0.48
1 12 6 2.95 0.76
1 12 6 2.7 0.74
-1 -12 -6 2.89 0.85
-1 -12 -6 2.83 0.8
1 12 7 0.87 0.64
1 12 7 0.61 0.65
-1 -12 -7 0.56 0.75
-1 -12 -7 0.78 0.7
2 -11 -5 4.48 0.82
2 -11 -5 4.21 0.86
2 -11 -4 1.57 0.75
2 -11 -4 6.35 1.38
2 -11 -3 12.93 1.96
2 -11 -3 22.57 2.09
2 -11 -2 22.18 2.46
2 -11 -1 9.33 1.97
-2 11 1 10.76 1.13
-2 11 1 15.6 2.02
2 -11 0 1.14 0.71
-2 11 0 0.59 0.52
-2 11 0 -3.59 1.4
2 -10 -8 0.93 1.16
2 -10 -8 0.52 0.67
2 -10 -7 13.53 2.01
2 -10 -7 19.32 1.26
2 -10 -6 13.68 1.72
2 -10 -6 15.99 1.15
2 -10 -5 11.01 1.04
2 -10 -5 16.14 1.09
2 -10 -4 12.11 1.66
2 -10 -4 15.02 1.09
2 -10 -3 1.85 1.04
2 -10 -3 0.34 0.64
-2 10 3 -0.01 0.39
-2 10 3 0.91 0.51
2 -10 -2 18.47 1.81
-2 10 2 14.4 1.02
-2 10 2 13.15 1.1
-2 10 1 34.01 1.71
-2 10 1 30.49 1.73
2 -10 0 0.29 0.73
-2 10 0 1 0.76
-2 10 0 -1.55 1.23
2 -10 1 12.78 1.32
2 -10 1 13.63 1.23
-2 10 -1 15.52 0.9
-2 10 -1 14.27 1.94
2 -10 2 15.99 1.05
2 -10 2 18.39 1.41
-2 10 -2 19.65 1.63
-2 10 -2 15.38 2.19
2 -10 3 2.09 1.22
2 -10 3 3.44 1.69
-2 10 -3 3.06 0.75
-2 10 -3 2.87 0.94
2 -9 -10 5.79 1.53
2 -9 -10 6.67 1
2 -9 -9 6.24 1.42
2 -9 -9 7.03 1.51
2 -9 -8 9 1.5
2 -9 -8 9.47 1.52
2 -9 -7 6.04 0.88
2 -9 -7 6.62 1.46
2 -9 -6 41.39 2.87
2 -9 -6 42.3 2.9
2 -9 -5 80.11 3.29
2 -9 -5 79.87 4.55
-2 9 5 75.41 2.59
2 -9 -4 43.67 2.58
-2 9 4 38.85 1.15
-2 9 4 41.89 1.63
2 -9 -3 9.92 0.84
2 -9 -3 13.24 0.9
-2 9 3 10.66 0.57
-2 9 3 12.67 0.73
2 -9 -2 9.81 1.41
-2 9 2 10.26 0.78
-2 9 2 12.39 1.42
2 -9 -1 17.39 1.71
-2 9 1 17.82 1.1
-2 9 1 16.65 1.7
2 -9 0 6.88 0.92
2 -9 0 8.02 0.92
-2 9 0 10.24 0.98
-2 9 0 8.34 0.89
2 -9 1 48.91 1.8
2 -9 1 45.25 2.19
-2 9 -1 51.66 2.48
-2 9 -1 45.42 2.15
2 -9 2 19.35 1.55
2 -9 2 18.71 2.08
-2 9 -2 21.01 1.6
-2 9 -2 16.51 1.27
2 -9 3 5.73 1.2
2 -9 3 5.05 1.65
-2 9 -3 6.25 1.25
-2 9 -3 4.16 0.94
2 -9 4 16.1 1.12
2 -9 4 14.66 1.42
-2 9 -4 16.98 1.85
-2 9 -4 13.51 2.12
2 -9 5 25.86 2.44
2 -9 5 26.5 1.89
-2 9 -5 27.38 1.67
-2 9 -5 23.08 2.77
2 -8 -11 2.25 0.85
2 -8 -11 3.83 0.9
2 -8 -10 5.82 1.42
2 -8 -10 5.35 1.52
2 -8 -9 5.73 1.27
2 -8 -9 3.66 0.81
2 -8 -8 66.74 2.88
2 -8 -8 75.5 3.08
2 -8 -7 56.94 3.5
2 -8 -7 62.9 2.48
2 -8 -6 32.44 2.38
2 -8 -6 34.14 1.62
2 -8 -5 209.43 10.42
2 -8 -5 219.55 8.95
-2 8 5 191.06 6.24
-2 8 5 190.91 6.5
2 -8 -4 4.12 1.02
2 -8 -4 2.37 1.08
-2 8 4 3.74 0.41
-2 8 4 3.8 0.51
2 -8 -3 5.02 0.61
2 -8 -3 7.34 1.09
-2 8 3 6.38 0.63
2 -8 -2 8.53 1.18
-2 8 2 7.78 0.62
-2 8 2 6.66 1.12
2 -8 -1 22.79 1.09
2 -8 -1 23.77 1.76
-2 8 1 26.21 1.14
-2 8 1 22.11 1.12
2 -8 0 1.19 0.64
2 -8 0 1.92 0.63
-2 8 0 1.75 0.7
-2 8 0 3.83 1.07
2 -8 1 28.06 1.54
2 -8 1 27.9 2.19
-2 8 -1 31.32 1.63
-2 8 -1 29.05 2.12
2 -8 2 10 1.07
2 -8 2 9.39 0.91
-2 8 -2 9.57 0.73
-2 8 -2 7.6 1.43
2 -8 3 53.98 2.75
2 -8 3 50.2 2.33
-2 8 -3 51.51 2.82
-2 8 -3 44.45 3.02
2 -8 4 83.6 4.31
2 -8 4 81.45 5.05
-2 8 -4 84.59 4.43
-2 8 -4 76.86 4.6
2 -8 5 3.84 1.35
2 -8 5 5.15 1.69
-2 8 -5 4.56 0.86
-2 8 -5 3.28 0.9
2 -8 6 47.24 2.35
2 -8 6 45.85 2.66
-2 8 -6 49.05 3.59
-2 8 -6 41.36 3.54
2 -8 7 2.11 1.42
2 -8 7 0.36 0.99
-2 8 -7 -0.83 0.86
-2 8 -7 0.19 0.88
2 -7 -12 6.61 1.59
2 -7 -12 5.26 0.97
2 -7 -11 35.57 2.95
2 -7 -11 40.26 3.11
2 -7 -10 27.42 2.44
2 -7 -10 32.03 1.69
2 -7 -9 2.06 0.63
2 -7 -9 -0.19 1.12
-2 7 9 0.9 0.36
-2 7 9 0.33 0.32
2 -7 -8 25.21 1.96
2 -7 -8 27.93 2.11
-2 7 8 23.37 0.91
2 -7 -7 1.32 0.52
2 -7 -7 -0.01 0.92
-2 7 7 0.4 0.29
-2 7 7 0.03 0.18
2 -7 -6 2.33 0.92
2 -7 -6 4.06 0.97
-2 7 6 2.44 0.21
-2 7 6 2.3 0.27
2 -7 -5 4.14 0.89
2 -7 -5 3.74 0.93
-2 7 5 3.18 0.3
-2 7 5 3.47 0.34
2 -7 -4 14.88 0.81
2 -7 -4 15.07 0.82
-2 7 4 15.18 0.52
-2 7 4 15.93 0.5
2 -7 -3 3.93 0.54
2 -7 -3 4.09 0.95
-2 7 3 4.25 0.31
-2 7 3 4.94 0.38
2 -7 -2 7.89 0.45
2 -7 -2 8.29 0.67
-2 7 2 9.48 0.53
-2 7 2 9.79 1.05
2 -7 -1 40.22 1.33
2 -7 -1 40.15 2.13
-2 7 1 42.1 1.41
-2 7 1 41.31 2.11
2 -7 0 138.34 4.77
2 -7 0 133.96 5.93
-2 7 0 136.82 4.93
-2 7 0 129.91 5.79
2 -7 1 21.97 1.19
2 -7 1 20.43 1.75
-2 7 -1 20.25 0.83
-2 7 -1 19.91 1.07
2 -7 2 117.22 3.85
2 -7 2 120.16 5.87
-2 7 -2 116.35 4.93
-2 7 -2 109.62 5.47
2 -7 3 139.14 5.02
2 -7 3 145.75 7.32
-2 7 -3 142.48 6.46
-2 7 -3 129.4 6.65
2 -7 4 56.97 2.87
2 -7 4 53.8 2.34
-2 7 -4 51.7 2.07
-2 7 -4 50.1 3.12
2 -7 5 1.54 0.64
2 -7 5 0.69 1.3
-2 7 -5 0.3 1.15
-2 7 -5 0.92 0.68
2 -7 6 39.58 2.79
2 -7 6 38.4 3.23
-2 7 -6 43.76 2.95
-2 7 -6 37.38 2.94
2 -7 7 12.53 1.99
2 -7 7 12.62 1.36
-2 7 -7 13.15 1.21
-2 7 -7 11.55 1.25
2 -7 8 8.23 1.94
2 -7 8 7.13 1.33
-2 7 -8 7.41 1.91
-2 7 -8 6.18 1.96
2 -6 -12 7.69 1.71
-2 6 12 6.66 1.83
2 -6 -11 36.43 2.06
-2 6 11 45.73 2.22
2 -6 -10 1.53 0.67
-2 6 10 2.64 0.51
2 -6 -9 11.02 1.38
2 -6 -9 9.43 0.86
-2 6 9 8.7 0.59
2 -6 -8 10.93 0.84
2 -6 -8 12.72 1.4
-2 6 8 10.25 0.66
2 -6 -7 11.85 1.18
2 -6 -7 11.99 1.24
-2 6 7 10.34 0.4
2 -6 -6 34.19 1.28
2 -6 -6 35.86 1.88
-2 6 6 31.59 0.8
2 -6 -5 31.81 1.13
2 -6 -5 35.13 1.26
-2 6 5 31.76 0.62
2 -6 -4 73.52 2.98
2 -6 -4 77.84 3.17
-2 6 4 71.35 1.62
2 -6 -3 270.19 12.62
2 -6 -3 282.76 11.67
-2 6 3 276.36 10.03
-2 6 3 275.55 9.95
2 -6 -2 46.11 2.11
-2 6 2 45.14 2
2 -6 -1 19.61 0.71
2 -6 -1 19.94 1.3
-2 6 1 20.14 0.74
-2 6 1 20.01 1.25
2 -6 0 76.11 2.29
2 -6 0 74.1 3.01
-2 6 0 70.54 2.26
-2 6 0 70.51 2.2
2 -6 1 77.03 2.49
2 -6 1 77.07 2.44
-2 6 -1 71.16 2.52
-2 6 -1 73.41 3.08
2 -6 2 35.97 1.51
2 -6 2 34.95 1.34
-2 6 -2 33.18 1.61
-2 6 -2 31.22 1.22
2 -6 3 28.32 1.51
2 -6 3 26 1.88
-2 6 -3 27.41 1.59
-2 6 -3 25.07 1.76
2 -6 4 10.18 0.7
2 -6 4 8.28 0.84
-2 6 -4 8.84 1.2
-2 6 -4 6.04 1.27
2 -6 5 -0.5 0.95
2 -6 5 0.84 1.09
-2 6 -5 0.71 0.61
-2 6 -5 0.58 0.61
2 -6 6 38.88 2.55
2 -6 6 37.56 2.87
-2 6 -6 36.62 2.55
-2 6 -6 35.79 2.54
2 -6 7 52.61 2.36
2 -6 7 52.5 3.72
-2 6 -7 50.96 2.34
-2 6 -7 48.39 2.28
2 -6 8 26.36 1.76
2 -6 8 26.81 1.9
-2 6 -8 26.31 2.68
-2 6 -8 24.81 2.67
2 -6 9 10.37 1.31
2 -6 9 8.83 1.4
-2 6 -9 7.51 2.11
-2 6 -9 7.12 2.07
2 -5 -13 9.07 0.85
2 -5 -13 12.63 1.94
-2 5 13 7.86 1.17
2 -5 -12 3.4 0.69
2 -5 -12 3.92 0.94
-2 5 12 4.15 0.89
-2 5 12 7.22 1.72
2 -5 -11 0.19 0.5
2 -5 -11 1.92 0.73
-2 5 11 0.88 0.64
-2 5 11 1.06 1.36
2 -5 -10 0.92 0.39
2 -5 -10 0.41 0.59
-2 5 10 -0.46 0.49
-2 5 10 0.75 0.64
2 -5 -9 3.45 0.39
2 -5 -9 4.14 1.06
-2 5 9 3.6 0.65
-2 5 9 4.15 1.16
2 -5 -8 31.26 1.32
-2 5 8 31.75 1.2
-2 5 8 33.6 1.35
2 -5 -7 35.34 1.87
-2 5 7 34.46 1.05
2 -5 -6 147.68 5.88
2 -5 -6 149.4 5.01
-2 5 6 135.71 3.81
2 -5 -5 0.6 0.39
2 -5 -5 0.64 0.41
-2 5 5 0.31 0.13
-2 5 5 0.33 0.18
2 -5 -4 205.06 7.31
2 -5 -4 221.09 9.02
-2 5 4 204.96 5.88
2 -5 -3 167.19 6.32
2 -5 -3 174.04 6.65
-2 5 3 165.41 4.4
-2 5 3 166.41 4.59
2 -5 -2 225.87 7.07
2 -5 -2 240.49 9.76
-2 5 2 237.91 8.02
-2 5 2 240.36 9.56
2 -5 -1 35.64 0.91
2 -5 -1 34.95 1.58
-2 5 1 33.46 0.94
-2 5 1 35.77 1.53
2 -5 0 17.69 0.66
2 -5 0 15.69 1.08
-2 5 0 16.03 0.68
-2 5 0 16.44 1.05
2 -5 1 22.13 0.85
2 -5 1 23.4 1.24
-2 5 -1 20.34 0.89
-2 5 -1 20.48 1.15
2 -5 2 11.6 0.73
2 -5 2 10.73 1
-2 5 -2 10.2 0.8
-2 5 -2 10.24 0.59
2 -5 3 4.7 0.71
2 -5 3 4.54 0.54
-2 5 -3 3.58 0.46
-2 5 -3 3.19 0.5
2 -5 4 20.29 1.32
2 -5 4 19.81 1.53
-2 5 -4 18.69 1.39
-2 5 -4 17.41 1.42
2 -5 5 149.55 5.28
2 -5 5 145.35 6.74
-2 5 -5 143.26 5.33
-2 5 -5 136.46 5.06
2 -5 6 3.05 1.16
2 -5 6 2.79 1.29
-2 5 -6 2.63 1.16
-2 5 -6 3.47 1.17
2 -5 7 136.07 6.82
2 -5 7 126.16 5.22
-2 5 -7 126.21 6.68
-2 5 -7 114.89 6.26
2 -5 8 41.41 2
2 -5 8 41.24 2.18
-2 5 -8 40.32 2.07
-2 5 -8 36.41 2.88
2 -5 9 2.69 0.88
2 -5 9 2.27 0.95
-2 5 -9 0.25 1.54
-2 5 -9 0.71 0.84
2 -5 10 13.9 1.44
2 -5 10 11.16 1.5
-2 5 -10 12.85 1.49
-2 5 -10 8.78 1.32
2 -4 -13 3.4 0.84
2 -4 -13 3.9 0.97
-2 4 13 2.37 1.01
-2 4 13 6.52 1.72
2 -4 -12 39.16 1.93
2 -4 -12 41.53 2.13
-2 4 12 40.55 2.28
-2 4 12 44.88 2.32
2 -4 -11 21.72 1.18
2 -4 -11 23.39 1.36
-2 4 11 22.6 1.36
-2 4 11 25.7 1.5
2 -4 -10 29.48 1.48
-2 4 10 33.66 1.45
-2 4 10 36.06 2.46
2 -4 -9 18.15 1.57
-2 4 9 19.45 0.91
-2 4 9 21.58 1.73
2 -4 -8 0.41 0.31
2 -4 -8 0.48 0.48
-2 4 8 0.07 0.37
-2 4 8 0.92 0.53
2 -4 -7 22.79 1.57
-2 4 7 24.79 0.77
-2 4 7 25.56 1.1
2 -4 -6 152.85 4.05
2 -4 -6 153.71 5.13
-2 4 6 155.11 4.27
-2 4 6 165.56 5.44
2 -4 -5 47.62 1.36
2 -4 -5 46.86 1.38
-2 4 5 44.7 0.93
2 -4 -4 12.77 0.58
2 -4 -4 14.03 0.99
2 -4 -3 36.04 1.36
2 -4 -3 36.71 1.43
2 -4 -2 55.32 1.01
-2 4 2 58.82 1.17
-2 4 2 58.47 1.41
2 -4 -1 223.15 6.65
2 -4 -1 215.7 7.25
-2 4 1 212.14 6.58
-2 4 1 217.74 7.93
2 -4 0 64.34 1.5
2 -4 0 64.98 2.14
-2 4 0 59.98 1.54
-2 4 0 65.03 2.05
2 -4 1 33.78 0.75
2 -4 1 36.26 0.97
-2 4 -1 33.8 1.06
-2 4 -1 34.11 1.28
2 -4 2 19.09 0.81
2 -4 2 17.8 0.68
-2 4 -2 16.66 0.84
-2 4 -2 17.56 0.96
2 -4 3 99.64 2.71
2 -4 3 101.3 2.95
-2 4 -3 98.4 3.45
-2 4 -3 94.22 2.77
2 -4 4 142.8 5.26
2 -4 4 138.94 5.5
-2 4 -4 134.75 4.49
-2 4 -4 129.58 5.11
2 -4 5 18.26 1.31
2 -4 5 18.27 1.39
-2 4 -5 17.2 1.34
-2 4 -5 15.95 0.84
2 -4 6 79.12 3.58
2 -4 6 74.66 2.72
-2 4 -6 72.23 2.62
-2 4 -6 70.48 2.49
2 -4 7 0.24 1.12
2 -4 7 0.42 0.69
-2 4 -7 0.69 1.13
-2 4 -7 0.48 1.03
2 -4 8 41.17 2.76
2 -4 8 36.06 2.84
-2 4 -8 35.89 2.73
-2 4 -8 35.54 2.52
2 -4 9 2.48 1.36
2 -4 9 -0.11 1.46
-2 4 -9 2.31 0.83
-2 4 -9 1.71 0.73
2 -4 10 7.79 1.13
2 -4 10 5.45 1.95
-2 4 -10 6.95 1.93
-2 4 -10 6.96 1.01
2 -4 11 -0.88 1.69
2 -4 11 0.28 1.73
-2 4 -11 -1.08 0.99
-2 4 -11 0.76 0.87
2 -3 -13 5.94 1.02
2 -3 -13 6.64 1.05
-2 3 13 6 0.74
-2 3 13 7.57 1.94
2 -3 -12 42.84 2.17
2 -3 -12 45.8 2.26
-2 3 12 48.11 2.52
-2 3 12 52.87 3.79
2 -3 -11 13.15 1.03
-2 3 11 12.3 1.13
-2 3 11 15.75 1.87
2 -3 -10 69.75 2.54
2 -3 -10 69.77 2.72
-2 3 10 75.56 2.93
-2 3 10 79.14 4.19
2 -3 -9 67.98 2.21
2 -3 -9 65.99 3.28
-2 3 9 68.14 2.37
-2 3 9 72.87 2.62
2 -3 -8 1.59 0.42
2 -3 -8 0.63 0.91
-2 3 8 1.8 0.49
-2 3 8 0.39 1.01
2 -3 -7 38.51 1.12
2 -3 -7 37.72 1.36
-2 3 7 39.55 1.2
-2 3 7 40.46 1.45
2 -3 -6 24.11 0.74
2 -3 -6 22.38 1.29
-2 3 6 24.73 0.68
-2 3 6 25.79 0.92
2 -3 -5 22.19 0.45
2 -3 -5 21.05 1.04
-2 3 5 21.52 0.57
-2 3 5 20.86 0.74
2 -3 -4 68.55 1.68
-2 3 4 64.58 1.16
2 -3 -3 23.07 0.9
2 -3 -3 24.07 0.96
2 -3 -2 52.55 1.18
2 -3 -2 53.6 1.2
2 -3 -1 229.29 6.62
2 -3 -1 236.2 8.31
-2 3 1 233.12 7.06
-2 3 1 242.26 7.77
2 -3 0 37.61 0.8
2 -3 0 36.82 1.2
-2 3 0 38.66 1.22
2 -3 1 591.94 30.54
2 -3 1 575.79 31.24
-2 3 -1 540.33 28.99
-2 3 -1 556.06 28.77
2 -3 2 60.92 1.65
2 -3 2 59.73 1.9
-2 3 -2 55.43 1.32
-2 3 -2 55.29 1.72
2 -3 3 1.72 0.55
2 -3 3 1.93 0.37
-2 3 -3 1.54 0.58
-2 3 -3 2 0.35
2 -3 4 104.1 3.62
2 -3 4 102.23 2.98
-2 3 -4 95.08 2.87
-2 3 -4 95.11 3.47
2 -3 5 22.78 1.34
2 -3 5 21.4 1.39
-2 3 -5 20.46 1.34
-2 3 -5 18.47 1.22
2 -3 6 37.78 1.94
2 -3 6 34.33 1.31
-2 3 -6 34.02 1.31
-2 3 -6 33.54 1.2
2 -3 7 78.81 2.79
2 -3 7 77.7 3.98
-2 3 -7 72.09 3.83
-2 3 -7 73.94 3.53
2 -3 8 0.81 0.66
2 -3 8 1.42 1.15
-2 3 -8 0.32 0.65
-2 3 -8 0.21 1.01
2 -3 9 16.44 1.85
2 -3 9 13.98 1.15
-2 3 -9 14.31 1.86
-2 3 -9 11.71 0.99
2 -3 10 1.08 0.79
2 -3 10 -0.33 0.82
-2 3 -10 0.83 0.8
-2 3 -10 -0.07 0.68
2 -3 11 1.55 0.95
2 -3 11 1 0.97
-2 3 -11 1.65 1.64
-2 3 -11 0.54 0.82
2 -3 12 42.28 4.1
2 -3 12 40.38 4.01
-2 3 -12 36.88 2.59
-2 3 -12 36.82 2.37
2 -2 -13 2.31 0.97
2 -2 -13 1.82 0.9
-2 2 13 1.2 1.05
-2 2 13 4.21 1.76
2 -2 -12 18.1 1.42
2 -2 -12 18.14 1.36
-2 2 12 20.54 1.07
-2 2 12 21.73 2.49
2 -2 -11 34.15 1.86
2 -2 -11 32.25 1.69
-2 2 11 36.54 1.93
-2 2 11 38.22 1.95
2 -2 -10 23.9 1.37
2 -2 -10 24.28 1.3
-2 2 10 25.68 0.97
-2 2 10 28.83 1.48
2 -2 -9 142.09 4.48
2 -2 -9 134.52 5.04
-2 2 9 148.1 5.5
-2 2 9 151.51 7.08
2 -2 -8 348.28 16.23
2 -2 -8 327.56 15.49
-2 2 8 356.65 16.77
-2 2 8 374.11 19.88
2 -2 -7 350.51 15.14
2 -2 -7 329.99 16.37
-2 2 7 336.68 13.87
-2 2 7 355.19 15.92
2 -2 -6 75.42 1.84
2 -2 -6 67.96 1.93
-2 2 6 72.39 1.87
-2 2 6 74.16 2.7
2 -2 -5 158.5 4.33
2 -2 -5 140.04 4.13
-2 2 5 146.62 3.93
-2 2 5 158.34 5.33
2 -2 -4 54.76 1.3
-2 2 4 55.49 1.1
-2 2 4 57.01 1.37
2 -2 -3 0.46 0.06
2 -2 -3 0.67 0.39
-2 2 3 0.24 0.24
2 -2 -2 131.56 3.62
2 -2 -2 133.3 3.71
2 -2 -1 1.31 0.13
2 -2 -1 1.68 0.35
-2 2 1 1.53 0.1
-2 2 1 1 0.21
2 -2 0 44.04 0.82
2 -2 0 44.29 0.92
-2 2 0 43.19 0.81
-2 2 0 45.12 1.21
2 -2 1 18.52 0.55
2 -2 1 18.65 0.73
2 -2 2 137.41 3.52
2 -2 2 141.09 4.15
-2 2 -2 127.57 3.71
-2 2 -2 138.99 3.6
2 -2 3 256.99 8.68
2 -2 3 256.96 9.51
-2 2 -3 230.02 8.76
-2 2 -3 240.63 8.19
2 -2 4 56.15 1.49
2 -2 4 57.96 2.02
-2 2 -4 53.03 1.48
-2 2 -4 54.75 1.88
2 -2 5 64.42 2.32
2 -2 5 60.3 2.27
-2 2 -5 55.64 2.25
-2 2 -5 58.4 2.09
2 -2 6 130.87 4.01
2 -2 6 124.82 3.95
-2 2 -6 120.52 4.87
-2 2 -6 115.18 3.61
2 -2 7 6.45 0.68
2 -2 7 6.86 0.69
-2 2 -7 6.54 0.69
-2 2 -7 7.08 1.01
2 -2 8 8.87 1.4
2 -2 8 8.58 1.37
-2 2 -8 8.37 1.35
-2 2 -8 6.74 0.74
2 -2 9 65.58 2.58
2 -2 9 60.82 3.66
-2 2 -9 59.87 2.56
-2 2 -9 57.66 2.31
2 -2 10 41.66 3.02
2 -2 10 39.32 3.05
-2 2 -10 38.54 2.98
-2 2 -10 35.38 1.74
2 -2 11 10.94 1.25
2 -2 11 11.07 2.06
-2 2 -11 9.14 1.24
-2 2 -11 7.49 1.09
2 -2 12 7.84 2.11
2 -2 12 8.32 2.1
-2 2 -12 4.24 2.12
-2 2 -12 5.17 1.11
2 -1 -13 9.31 1.35
2 -1 -13 8.43 1.17
-2 1 13 7.96 0.85
-2 1 13 9.4 2.2
2 -1 -12 28.04 1.95
2 -1 -12 26.74 1.65
-2 1 12 27.9 2
-2 1 12 30.17 1.92
2 -1 -11 113.32 4.17
2 -1 -11 111.92 6.42
-2 1 11 121.99 4.47
-2 1 11 122.95 5.33
2 -1 -10 76.69 3.29
2 -1 -10 75.37 4.1
-2 1 10 80.12 3.41
-2 1 10 81 4.53
2 -1 -9 -0.03 0.63
2 -1 -9 0.42 0.93
-2 1 9 0.09 0.68
-2 1 9 1.76 1.04
2 -1 -8 318.42 13.46
2 -1 -8 309.02 15.76
-2 1 8 333.2 15.35
-2 1 8 327.3 14.92
2 -1 -7 120.32 3.84
2 -1 -7 109.57 4.31
-2 1 7 117.93 3.81
-2 1 7 119.59 3.83
2 -1 -6 75.01 2.01
2 -1 -6 71.05 1.92
-2 1 6 76.14 2.08
-2 1 6 78.6 2.79
2 -1 -5 94.18 2.37
2 -1 -5 95.04 2.96
-2 1 5 96.17 2.42
-2 1 5 102.86 3.29
2 -1 -4 232.26 7.18
2 -1 -4 232.41 8.15
-2 1 4 226.58 6.98
-2 1 4 243 8.69
2 -1 -3 48.07 0.83
2 -1 -3 47.56 1
-2 1 3 48.3 0.89
-2 1 3 48.61 1.04
2 -1 -2 66.06 1.06
2 -1 -2 64.54 1.29
-2 1 2 69.37 1.64
2 -1 -1 3.11 0.12
2 -1 -1 3.08 0.2
2 -1 -1 2.76 0.34
2 -1 0 2741.93 381.06
2 -1 0 2779.81 395.68
-2 1 0 2770.64 389.14
-2 1 0 2759.92 392.53
2 -1 1 2374.65 304.16
2 -1 1 2347.93 301.49
-2 1 -1 2398.71 312.15
-2 1 -1 2489.32 321.16
2 -1 2 40.72 1.06
2 -1 2 39.84 0.81
-2 1 -2 38.1 1.02
-2 1 -2 38.33 0.79
2 -1 3 287.98 9.97
2 -1 3 289.39 10.04
-2 1 -3 268.1 9.57
-2 1 -3 275.46 10.09
2 -1 4 244.12 8.76
2 -1 4 237.49 8.47
-2 1 -4 213.49 8
-2 1 -4 225.45 7.39
2 -1 5 22.2 1.09
2 -1 5 23.04 1.06
-2 1 -5 20.2 1.07
-2 1 -5 21.26 0.65
2 -1 6 155.48 4.83
2 -1 6 154.09 4.86
-2 1 -6 139.92 4.66
-2 1 -6 146.52 5.3
2 -1 7 17.59 1.38
2 -1 7 17.6 0.84
-2 1 -7 16.69 0.84
-2 1 -7 16.13 0.74
2 -1 8 112.97 3.95
2 -1 8 110.73 5.06
-2 1 -8 101.24 4.95
-2 1 -8 101.85 4.53
2 -1 9 118.25 5.71
2 -1 9 113.63 5.58
-2 1 -9 104.37 4.14
-2 1 -9 101.53 4.91
2 -1 10 83.63 4.67
2 -1 10 80.85 4.62
-2 1 -10 75.2 4.54
-2 1 -10 73.68 4.07
2 -1 11 1.19 0.91
2 -1 11 2.24 0.9
-2 1 -11 1.43 1.59
-2 1 -11 1.36 0.8
2 -1 12 1.65 1.69
2 -1 12 1.46 0.95
-2 1 -12 1.12 1.02
-2 1 -12 1.43 0.85
2 -1 13 0.91 1.06
2 -1 13 1.36 1.73
-2 1 -13 3.79 1.77
-2 1 -13 0.9 1.57
2 0 -13 3.28 0.78
2 0 -13 4.37 1
-2 0 13 4.79 1.35
-2 0 13 7.23 2
2 0 -12 5.98 1.32
2 0 -12 6.9 1.77
-2 0 12 6.42 1.38
-2 0 12 4.69 1.24
2 0 -11 93.18 4.82
2 0 -11 94.62 5.7
-2 0 11 101.28 5.1
-2 0 11 99.76 6.5
2 0 -10 42.34 2.19
2 0 -10 38.53 1.76
-2 0 10 44.31 2.29
-2 0 10 43.29 3
2 0 -9 113.18 3.7
2 0 -9 106 3.84
-2 0 9 119.01 4.76
-2 0 9 117.91 5.7
2 0 -8 57.66 2.28
2 0 -8 53.89 1.88
-2 0 8 60.27 2.32
-2 0 8 58.59 2.08
2 0 -7 3.6 0.63
2 0 -7 3.22 0.45
-2 0 7 2.93 0.62
-2 0 7 3.34 0.52
2 0 -6 84.45 2.13
2 0 -6 84.97 2.29
-2 0 6 92.88 2.74
-2 0 6 92.52 3.22
2 0 -5 11.72 0.58
2 0 -5 11.33 0.48
-2 0 5 12.2 0.39
-2 0 5 13.07 0.53
2 0 -4 682.58 38.81
2 0 -4 681.57 40.64
-2 0 4 677.49 38.21
-2 0 4 723.89 43.52
2 0 -3 404.97 16.71
2 0 -3 409.97 17.77
-2 0 3 407.33 16.72
-2 0 3 419.36 17.61
2 0 -2 1.69 0.17
2 0 -2 1.34 0.3
-2 0 2 1.59 0.17
-2 0 2 1.07 0.19
2 0 -1 991.31 67
2 0 -1 1010.59 70.11
-2 0 1 930.31 62.89
-2 0 1 1021.76 71.26
2 0 0 4479.94 879.45
2 0 0 4455.5 882.51
-2 0 0 4561.09 902.82
-2 0 0 4353.8 858.01
2 0 1 2131.06 251.54
2 0 1 2307.09 274.5
-2 0 -1 2200.97 266.21
-2 0 -1 2117.82 250.22
2 0 2 528.25 24.86
2 0 2 522.55 24.5
-2 0 -2 501.54 23.44
-2 0 -2 494.71 23.16
2 0 3 12.62 0.56
2 0 3 11.94 0.47
-2 0 -3 11.49 0.53
-2 0 -3 11.65 0.45
2 0 4 12.84 0.43
2 0 4 11.82 0.39
-2 0 -4 12.56 0.56
2 0 5 6.21 0.41
2 0 5 6.39 0.61
-2 0 -5 6.17 0.65
-2 0 -5 6.26 0.55
2 0 6 121.13 3.5
2 0 6 127.86 4.35
-2 0 -6 114.6 4.18
-2 0 -6 115.86 3.29
2 0 7 148.57 5.97
2 0 7 146.42 5.81
-2 0 -7 135.98 5.78
-2 0 -7 136.84 5.23
2 0 8 39.24 2.38
2 0 8 36.93 2.27
-2 0 -8 39.22 2.36
-2 0 -8 34.57 1.98
2 0 9 1.26 1.01
2 0 9 -0.43 0.94
-2 0 -9 -0.05 0.58
-2 0 -9 0.61 0.81
2 0 10 12.31 1.02
2 0 10 10.82 1.54
-2 0 -10 8.42 1.59
-2 0 -10 12.18 1.34
2 0 11 75.44 4.51
2 0 11 71.19 3.07
-2 0 -11 66.78 4.43
-2 0 -11 68.54 2.79
2 0 12 14.65 2.14
2 0 12 13.16 1.23
-2 0 -12 13.19 1.3
-2 0 -12 11.95 1.14
2 0 13 5.86 1.15
2 0 13 7.46 1.81
-2 0 -13 5.75 1.9
-2 0 -13 4.84 1.67
2 1 -13 7.64 1.02
2 1 -13 6.75 1.21
-2 -1 13 9.85 1.69
-2 -1 13 7.79 2.31
2 1 -12 1.87 1.31
2 1 -12 2.19 1.57
-2 -1 12 2.48 0.8
-2 -1 12 2.05 1.1
2 1 -11 1.22 1.12
2 1 -11 -1.06 0.78
-2 -1 11 1.83 1.18
-2 -1 11 0.27 1.58
2 1 -10 90.07 4.23
2 1 -10 86.9 4.69
-2 -1 10 97.39 4.51
-2 -1 10 91.51 3.85
2 1 -9 89.18 3.98
2 1 -9 89.89 4.39
-2 -1 9 97.61 3.28
-2 -1 9 98.51 3.72
2 1 -8 19.69 1.37
2 1 -8 20.06 0.96
-2 -1 8 20.85 0.9
-2 -1 8 21.38 1.74
2 1 -7 72.77 2.68
2 1 -7 70.86 2.15
-2 -1 7 78.19 2.8
-2 -1 7 79.65 3.28
2 1 -6 99.94 3.3
2 1 -6 97.99 3.44
-2 -1 6 104.21 3.41
-2 -1 6 107.19 3.91
2 1 -5 21.75 0.61
2 1 -5 20.87 0.95
-2 -1 5 22.9 0.63
-2 -1 5 24.18 1.11
2 1 -4 560.32 29
2 1 -4 566.35 30.73
-2 -1 4 578.86 29.93
-2 -1 4 594.56 32.71
2 1 -3 1029.6 77.35
2 1 -3 1045.94 77.74
-2 -1 3 1059.66 79.59
-2 -1 3 1107.67 84.42
2 1 -2 252.12 8.15
2 1 -2 248.45 7.79
-2 -1 2 263.53 8.5
-2 -1 2 256.48 8.12
2 1 -1 563.66 26.98
2 1 -1 535.54 25.1
-2 -1 1 538.49 25.29
-2 -1 1 561.51 27.13
2 1 0 17.16 0.32
2 1 0 16.93 0.44
2 1 0 17.52 0.34
2 1 1 12.81 0.28
2 1 1 13.58 0.27
2 1 2 367.82 13.68
2 1 2 355.24 13.11
-2 -1 -2 359.15 13.67
-2 -1 -2 352.59 12.88
2 1 3 174.45 4.61
2 1 3 171.51 4.67
-2 -1 -3 166.71 4.58
-2 -1 -3 163.11 4.38
2 1 4 39.07 0.87
2 1 4 38.84 1.04
-2 -1 -4 37.17 1.18
-2 -1 -4 37.28 0.96
2 1 5 100.01 2.98
2 1 5 92.52 2.28
-2 -1 -5 93.23 2.91
-2 -1 -5 91.8 2.54
2 1 6 52.86 1.37
2 1 6 53.51 1.36
-2 -1 -6 49.33 1.86
-2 -1 -6 49.48 1.24
2 1 7 758.68 48.04
2 1 7 745.5 47.41
-2 -1 -7 673.62 44.26
-2 -1 -7 666.61 42.61
2 1 8 643.45 39.29
2 1 8 658.72 40.32
-2 -1 -8 580.72 36.96
-2 -1 -8 599.62 36.86
2 1 9 25.26 1.12
2 1 9 23.93 1.63
-2 -1 -9 20.68 1.09
-2 -1 -9 21.73 0.94
2 1 10 8.66 1.37
2 1 10 8.43 1.29
-2 -1 -10 7.64 1.33
-2 -1 -10 7.91 1.13
2 1 11 18.31 1.95
2 1 11 18 1.83
-2 -1 -11 16.02 1.95
-2 -1 -11 16.88 1.65
2 1 12 16.57 2.03
2 1 12 13.88 1.16
-2 -1 -12 13.98 1.23
-2 -1 -12 13.21 1.07
2 1 13 -0.43 0.87
2 1 13 -0.8 1.38
-2 -1 -13 1.14 1.42
-2 -1 -13 2.29 1.25
2 2 -12 52.97 3.79
2 2 -12 50.56 4.06
-2 -2 12 57.85 3.91
-2 -2 12 56.72 3.2
2 2 -11 8.79 1.57
2 2 -11 7.74 1.04
-2 -2 11 8.9 1.66
-2 -2 11 9.29 2.08
2 2 -10 68.58 3.79
2 2 -10 67.56 3.91
-2 -2 10 78.03 2.94
-2 -2 10 75.3 3.27
2 2 -9 13.68 1.4
2 2 -9 11.45 0.89
-2 -2 9 11.67 0.89
-2 -2 9 14.47 1.71
2 2 -8 4.36 0.94
2 2 -8 3.45 0.95
-2 -2 8 3.83 0.6
-2 -2 8 3.38 1.15
2 2 -7 137.85 5.49
2 2 -7 133.21 4.46
-2 -2 7 139.87 4.56
-2 -2 7 141.59 4.83
2 2 -6 367.54 17.82
2 2 -6 360.74 17.49
-2 -2 6 377.15 18.2
-2 -2 6 379.23 18.87
2 2 -5 41.33 1.47
2 2 -5 39.64 1.05
-2 -2 5 41.34 1.08
-2 -2 5 42.89 1.65
2 2 -4 104.33 2.72
2 2 -4 109.28 3.37
-2 -2 4 107.26 2.82
-2 -2 4 108.47 3.52
2 2 -3 275.17 10.1
2 2 -3 267.72 9.28
-2 -2 3 287.35 10.59
-2 -2 3 281.18 10.57
2 2 -2 304.96 11.23
2 2 -2 297.15 10.82
-2 -2 2 320.02 11.81
-2 -2 2 309.94 11.38
2 2 -1 53.74 1.24
2 2 -1 53.39 1.05
-2 -2 1 55.31 1.26
-2 -2 1 55.88 1.11
2 2 0 13.82 0.46
2 2 0 15.05 0.32
-2 -2 0 15.42 0.5
-2 -2 0 15.45 0.28
2 2 1 475.64 19.77
2 2 1 455.14 19.02
2 2 1 423.64 16.27
2 2 1 433.13 16.52
2 2 2 736.27 42.49
2 2 2 752.29 41.91
-2 -2 -2 755.97 44.37
-2 -2 -2 724.75 40.01
2 2 3 29.76 0.84
2 2 3 29.61 0.58
-2 -2 -3 27.7 0.86
-2 -2 -3 27.83 0.53
2 2 4 895.14 59.14
2 2 4 884.29 58.92
-2 -2 -4 867.28 60.26
-2 -2 -4 852.01 56.56
2 2 5 24.29 0.64
2 2 5 24.13 0.79
-2 -2 -5 22.25 0.67
-2 -2 -5 22.66 0.74
2 2 6 0.31 0.32
2 2 6 1.22 0.44
-2 -2 -6 0.31 0.55
-2 -2 -6 0.94 0.24
2 2 7 91.05 2.61
2 2 7 95.09 3.27
-2 -2 -7 85.69 2.7
-2 -2 -7 86.71 2.96
2 2 8 370.03 19
2 2 8 362.4 16.61
-2 -2 -8 341.1 18.69
-2 -2 -8 356.32 17.89
2 2 9 39.83 2.12
2 2 9 40.56 1.99
-2 -2 -9 36.6 2.08
-2 -2 -9 38.03 1.81
2 2 10 2.9 1.05
2 2 10 1.94 0.59
-2 -2 -10 1.9 1.05
-2 -2 -10 2.79 0.53
2 2 11 -0.79 1.08
2 2 11 1.3 1
-2 -2 -11 -0.12 0.61
-2 -2 -11 0.32 0.88
2 2 12 6.3 1.59
2 2 12 6.92 0.9
-2 -2 -12 6.16 0.95
-2 -2 -12 6.73 0.84
2 2 13 4.28 0.98
2 2 13 3.73 1.55
-2 -2 -13 2.9 1.58
-2 -2 -13 3.29 1.42
2 3 -12 25.36 2.71
2 3 -12 24.84 1.79
-2 -3 12 27.29 2.86
-2 -3 12 26.64 3.35
2 3 -11 4.23 0.93
2 3 -11 3.49 1.57
-2 -3 11 6.27 1
-2 -3 11 5.18 1.14
2 3 -10 103.6 4.3
2 3 -10 99.58 4.15
-2 -3 10 110.37 4.49
-2 -3 10 110.9 6.51
2 3 -9 55.48 2.22
2 3 -9 56.77 3.13
-2 -3 9 61.09 2.37
-2 -3 9 59.48 3.61
2 3 -8 5.53 0.7
2 3 -8 5.6 1.11
-2 -3 8 6.15 0.73
-2 -3 8 7.28 1.31
2 3 -7 1.14 0.89
2 3 -7 1.41 0.5
-2 -3 7 1.98 0.56
-2 -3 7 1.42 1.02
2 3 -6 145.87 5.74
2 3 -6 136.65 5.33
-2 -3 6 151.87 5.88
-2 -3 6 152.08 6.12
2 3 -5 278.11 10.87
2 3 -5 280.04 11.85
-2 -3 5 291.23 11.36
-2 -3 5 305.99 13.23
2 3 -4 120.66 3.99
2 3 -4 120.79 3.81
-2 -3 4 123.63 3.47
-2 -3 4 131.4 4.34
2 3 -3 41.88 1.35
2 3 -3 43.72 1.24
-2 -3 3 45.94 1.1
-2 -3 3 44.22 1.36
2 3 -2 14.02 0.64
2 3 -2 13.65 0.49
-2 -3 2 14.42 0.45
-2 -3 2 14.55 0.56
2 3 -1 170.48 4.69
2 3 -1 175.67 4.72
-2 -3 1 180.21 4.97
-2 -3 1 175.27 4.85
2 3 0 103.88 2.65
2 3 0 101.96 2.05
-2 -3 0 114.61 2.9
-2 -3 0 107.73 2.23
2 3 1 845.84 53.82
2 3 1 790.31 45.94
-2 -3 -1 863.96 54.07
2 3 2 2.86 0.36
2 3 2 3.34 0.37
2 3 3 29.05 0.87
2 3 3 27.36 0.46
-2 -3 -3 27.67 0.91
2 3 4 103.92 2.94
2 3 4 101.09 2.34
-2 -3 -4 100.72 3.02
-2 -3 -4 97.4 2.5
2 3 5 56.06 1.69
2 3 5 58.03 1.42
-2 -3 -5 52.16 1.35
-2 -3 -5 54.76 1.34
2 3 6 78.34 2.41
2 3 6 78.31 2.19
-2 -3 -6 73.35 2.55
-2 -3 -6 75.79 2.12
2 3 7 36.8 1.59
2 3 7 36.08 0.99
-2 -3 -7 32.59 1.12
-2 -3 -7 35.07 1.3
2 3 8 1.8 0.46
2 3 8 2.26 0.66
-2 -3 -8 1.5 0.77
2 3 9 96.88 3.18
2 3 9 103.38 4.06
-2 -3 -9 89.71 4.09
-2 -3 -9 95.73 3.71
2 3 10 13.15 1.42
2 3 10 14.52 1.32
-2 -3 -10 11.24 0.85
-2 -3 -10 14.28 0.77
2 3 11 37.55 2.48
2 3 11 38.74 1.64
-2 -3 -11 38.76 2.27
2 3 12 84.57 4.87
2 3 12 86.45 4.74
-2 -3 -12 73.28 4.75
-2 -3 -12 84.78 3.34
2 3 13 -0.25 0.81
2 3 13 1.12 0.75
-2 -3 -13 0.89 1.31
-2 -3 -13 2.56 1.2
2 3 14 14.93 1.46
2 3 14 14.92 2.19
-2 -3 -14 12.01 2.18
-2 -3 -14 14.15 1.28
2 4 -11 1.21 1.67
2 4 -11 1.04 0.9
-2 -4 11 3.41 1.01
-2 -4 11 3.43 1.07
2 4 -10 0.52 1.47
2 4 -10 0.33 1.36
-2 -4 10 3.37 1.55
-2 -4 10 2.77 1.63
2 4 -9 116.04 6.09
-2 -4 9 128.15 6.86
-2 -4 9 129.81 5.38
2 4 -8 48.48 2.91
2 4 -8 46.32 1.87
-2 -4 8 54.31 3.09
-2 -4 8 52.86 3.15
2 4 -7 24.28 1.81
2 4 -7 23.13 1.56
-2 -4 7 26.93 1.23
-2 -4 7 25.96 1.88
2 4 -6 23.95 1.03
2 4 -6 24.26 1.36
-2 -4 6 27 1.66
-2 -4 6 25.88 1.07
2 4 -5 91.64 3.38
2 4 -5 85.95 3.05
-2 -4 5 94.41 2.84
-2 -4 5 97.52 3.57
2 4 -4 449.77 22.16
2 4 -4 448.79 21.91
-2 -4 4 491.53 25.86
-2 -4 4 492.44 25.85
2 4 -3 1.97 0.59
2 4 -3 1.27 0.44
-2 -4 3 1.42 0.61
2 4 -2 409.15 18.04
2 4 -2 419.61 18.54
-2 -4 2 415.21 18.43
-2 -4 2 421.76 18.46
2 4 -1 1.71 0.45
2 4 -1 1.74 0.25
-2 -4 1 2.14 0.29
-2 -4 1 1.99 0.31
2 4 0 51.77 1.14
2 4 0 52.39 0.97
-2 -4 0 57.98 1.59
-2 -4 0 53.16 1.06
2 4 1 529.59 26.96
2 4 1 577.61 27.38
-2 -4 -1 619.79 32.78
-2 -4 -1 567.65 27.16
2 4 2 1376.66 119.65
2 4 2 1243.57 106.63
-2 -4 -2 1242.71 101.62
-2 -4 -2 1349.43 110.31
2 4 3 83.79 2.27
2 4 3 78.56 2.25
-2 -4 -3 80.53 1.71
-2 -4 -3 84.19 1.75
2 4 4 0.67 0.48
2 4 4 1.03 0.21
-2 -4 -4 1.4 0.49
-2 -4 -4 1.18 0.23
2 4 5 15 0.73
2 4 5 14.95 0.49
-2 -4 -5 12.31 0.78
-2 -4 -5 14.15 0.48
2 4 6 117.38 3.23
2 4 6 122.1 3.47
-2 -4 -6 119.44 4.09
-2 -4 -6 123.89 3.53
2 4 7 32.63 1.35
2 4 7 34.01 1.14
-2 -4 -7 28.89 1.42
-2 -4 -7 32.43 1.14
2 4 8 30.4 1.45
2 4 8 27.96 0.86
-2 -4 -8 26.92 1.49
-2 -4 -8 28.5 1.22
2 4 9 86.76 3.75
2 4 9 89.1 3.37
-2 -4 -9 79.35 2.8
-2 -4 -9 85.37 2.62
2 4 10 2.92 0.58
2 4 10 2.84 0.87
-2 -4 -10 2.76 0.59
-2 -4 -10 2.36 0.82
2 4 11 73.93 3.9
2 4 11 70.17 2.61
-2 -4 -11 64.53 3.73
-2 -4 -11 74.3 3.55
2 4 12 37.65 2.83
2 4 12 39.64 2.68
-2 -4 -12 34.74 2.77
-2 -4 -12 38.86 1.76
2 4 13 12.82 1.78
2 4 13 10.48 1.65
-2 -4 -13 9.57 1.76
-2 -4 -13 11.55 1.58
2 4 14 2.68 1.59
2 4 14 3.72 1.47
-2 -4 -14 1.67 0.93
-2 -4 -14 1.55 1.43
2 5 -11 15.27 1.62
2 5 -11 13.97 1.42
-2 -5 11 18.73 2.67
-2 -5 11 15.81 2.67
2 5 -10 37.39 2.17
2 5 -10 36.31 2.01
-2 -5 10 42.03 3.61
-2 -5 10 39.57 2.32
2 5 -9 0.05 0.82
2 5 -9 0.49 1.2
-2 -5 9 -0.14 1.44
-2 -5 9 1.44 1.4
2 5 -8 219.24 9.98
2 5 -8 219.45 11.58
-2 -5 8 243.24 13.25
-2 -5 8 240.14 13.01
2 5 -7 56.61 2.23
2 5 -7 54.27 2.73
-2 -5 7 59.62 2.38
-2 -5 7 59.33 2.25
2 5 -6 14.6 0.86
2 5 -6 12.46 1.11
-2 -5 6 14.62 0.92
-2 -5 6 13.73 0.83
2 5 -5 2.25 0.86
2 5 -5 1.98 0.41
-2 -5 5 2.27 0.92
-2 -5 5 2.69 0.82
2 5 -4 8.31 0.74
-2 -5 4 10.95 1.03
-2 -5 4 8.16 0.88
2 5 -3 2.11 0.69
2 5 -3 1.2 0.29
-2 -5 3 1.37 0.74
-2 -5 3 0.91 0.59
2 5 -2 79.02 2.7
2 5 -2 79.45 2.21
-2 -5 2 82.74 2.84
-2 -5 2 84 2.48
2 5 -1 48.04 1.58
2 5 -1 45.94 0.91
-2 -5 1 48.71 1.65
-2 -5 1 46.86 1.25
2 5 0 138.71 4.39
2 5 0 140.3 3.64
-2 -5 0 144.68 4.6
-2 -5 0 140.1 3.83
2 5 1 6.48 0.37
2 5 1 7.27 0.37
-2 -5 -1 7.67 0.67
-2 -5 -1 6.63 0.3
2 5 2 348.08 15.13
-2 -5 -2 382.79 14.66
2 5 3 972.59 69.54
2 5 3 948.65 68.23
-2 -5 -3 901.26 62.2
-2 -5 -3 1001.48 69.74
2 5 4 118.51 3.47
2 5 4 108.71 2.91
-2 -5 -4 116 2.8
-2 -5 -4 117.68 3.08
2 5 5 110.79 2.92
2 5 5 115.6 2.9
-2 -5 -5 116.22 3.02
2 5 6 80.87 2.56
2 5 6 83.48 2.18
-2 -5 -6 74.24 2.6
-2 -5 -6 78.58 2.14
2 5 7 18.87 0.99
2 5 7 19.16 0.78
-2 -5 -7 16.76 1.04
-2 -5 -7 18.93 0.79
2 5 8 91.45 2.73
2 5 8 98.24 3.3
-2 -5 -8 83.78 3.55
-2 -5 -8 88.8 3.19
2 5 9 130.89 5.5
2 5 9 133.27 5.05
-2 -5 -9 112.01 4.15
-2 -5 -9 121.63 4.92
2 5 10 15.85 0.89
2 5 10 16.36 0.79
-2 -5 -10 14.08 1.41
-2 -5 -10 15.87 1.24
2 5 11 1.18 1.04
2 5 11 -0.15 0.55
-2 -5 -11 0.78 1.05
-2 -5 -11 1.72 0.94
2 5 12 3.49 1.28
2 5 12 2.34 0.69
-2 -5 -12 2.91 1.24
-2 -5 -12 2.7 0.69
2 5 13 4.85 1.38
2 5 13 5.93 0.8
-2 -5 -13 4.05 0.84
-2 -5 -13 6.28 1.27
2 6 -10 30.39 2.06
2 6 -10 28.93 2.83
-2 -6 10 33.43 3.42
-2 -6 10 30.51 3.25
2 6 -9 13.18 1.31
2 6 -9 12.58 1.12
-2 -6 9 13.53 2.32
-2 -6 9 12.51 2.1
2 6 -8 14.91 1.3
2 6 -8 13.09 1.06
-2 -6 8 15.96 2.25
-2 -6 8 16.47 1.22
2 6 -7 35.22 1.72
2 6 -7 33.08 1.44
-2 -6 7 37.28 2.82
-2 -6 7 36.83 2.52
2 6 -6 8.34 0.83
2 6 -6 7.19 1.05
-2 -6 6 7.92 0.88
-2 -6 6 8.78 1.25
2 6 -5 0.62 0.92
2 6 -5 1.21 0.69
-2 -6 5 0.3 1
-2 -6 5 1.41 0.85
2 6 -4 29.11 1.14
2 6 -4 29.06 1.38
-2 -6 4 30.27 1.23
-2 -6 4 30.1 1.59
2 6 -3 156.23 6.37
2 6 -3 147.86 4.67
-2 -6 3 161.36 5.59
-2 -6 3 161.9 6.22
2 6 -2 48.83 1.53
2 6 -2 47.2 1.59
-2 -6 2 48.04 1.59
-2 -6 2 52.3 1.86
2 6 -1 131.3 4.63
2 6 -1 131.44 3.91
-2 -6 1 135.32 4.9
-2 -6 1 136.4 3.81
2 6 0 312.2 13.47
2 6 0 322.37 12.55
-2 -6 0 325.12 14.24
-2 -6 0 307.86 11.88
2 6 1 157.2 5.46
2 6 1 165.68 4.69
-2 -6 -1 172.62 6.05
-2 -6 -1 165.97 4.82
2 6 2 7.37 0.62
2 6 2 6.33 0.32
-2 -6 -2 6.95 0.64
-2 -6 -2 6.13 0.32
2 6 3 62.04 1.51
2 6 3 58.74 1.84
-2 -6 -3 57.57 1.32
-2 -6 -3 64.57 1.43
2 6 4 84.97 2.59
2 6 4 85.23 2.72
-2 -6 -4 84.36 2.29
-2 -6 -4 88.19 2.14
2 6 5 190.72 6.9
2 6 5 184.2 6.84
-2 -6 -5 192.27 6.13
-2 -6 -5 187.02 5.98
2 6 6 79.05 2.07
2 6 6 73.39 2.06
-2 -6 -6 80.23 2.22
2 6 7 7.78 0.49
2 6 7 7.99 0.55
-2 -6 -7 7.26 0.52
-2 -6 -7 7.64 0.6
2 6 8 1.47 0.74
2 6 8 1.2 0.54
-2 -6 -8 1.86 0.47
-2 -6 -8 1.14 0.33
2 6 9 11.69 1.12
2 6 9 11.78 0.61
-2 -6 -9 9.35 0.75
-2 -6 -9 11.49 0.96
2 6 10 82.03 2.89
2 6 10 81.27 3.45
-2 -6 -10 73.35 3.69
-2 -6 -10 77.33 3.47
2 6 11 85.02 4.47
2 6 11 87.99 3.27
-2 -6 -11 81.75 4.48
-2 -6 -11 88.81 4.36
2 6 12 8.44 1.33
2 6 12 7.28 0.73
-2 -6 -12 7.34 0.81
-2 -6 -12 6.91 0.76
2 6 13 6.76 1.35
2 6 13 6.01 1.23
-2 -6 -13 5.74 1.34
-2 -6 -13 5.57 1.28
2 7 -9 11.22 1.33
2 7 -9 7.85 1.69
-2 -7 9 9.18 1.4
-2 -7 9 10.41 2.04
2 7 -8 1.72 0.91
2 7 -8 1.98 1.18
-2 -7 8 0.06 1.69
-2 -7 8 1.35 1.41
2 7 -7 12.37 1.17
2 7 -7 9.08 1.43
-2 -7 7 12.96 2.01
-2 -7 7 10.76 1.04
2 7 -6 46.08 2.02
2 7 -6 45.01 1.7
-2 -7 6 46.99 2.17
-2 -7 6 45.23 1.98
2 7 -5 8.04 1.37
2 7 -5 7.36 1.03
-2 -7 5 9.74 1.51
-2 -7 5 8.22 0.75
2 7 -4 138.39 6.22
2 7 -4 131.67 4.44
-2 -7 4 145.48 5.46
-2 -7 4 145.55 6.17
2 7 -3 282.57 12.05
2 7 -3 266.57 11.02
-2 -7 3 301.54 15.1
-2 -7 3 297.62 12.79
2 7 -2 38.99 2
2 7 -2 38.42 1.46
-2 -7 2 40.97 1.48
-2 -7 2 38.67 1.25
2 7 -1 71.86 2.13
2 7 -1 70.71 1.81
-2 -7 1 74.8 2.29
-2 -7 1 79.41 2.57
2 7 0 5.4 0.79
2 7 0 4.74 0.48
-2 -7 0 6.19 0.86
-2 -7 0 5.93 0.53
2 7 1 45.19 1.72
2 7 1 46.99 1.27
-2 -7 -1 49.35 1.95
-2 -7 -1 49.37 1.37
2 7 2 13.41 0.57
2 7 2 15.18 0.56
-2 -7 -2 14.59 0.97
-2 -7 -2 13.34 0.56
2 7 3 16.53 0.89
2 7 3 13.68 0.55
-2 -7 -3 14.37 0.53
2 7 4 1.61 0.54
2 7 4 1.69 0.55
-2 -7 -4 1.27 0.31
-2 -7 -4 1.55 0.31
2 7 5 27.8 1.22
2 7 5 28.13 1.29
-2 -7 -5 25.19 0.86
2 7 6 8.99 0.48
2 7 6 9.02 0.53
-2 -7 -6 7.92 0.56
-2 -7 -6 8.1 0.53
2 7 7 6.18 0.47
2 7 7 6.38 0.49
-2 -7 -7 5.58 0.55
-2 -7 -7 5.28 0.53
2 7 8 115.57 4.71
-2 -7 -8 115.78 4.19
2 7 9 16.3 1.22
2 7 9 15.93 0.95
-2 -7 -9 15.02 0.68
2 7 10 32.29 1.36
2 7 10 33.71 1.65
-2 -7 -10 29.91 2.01
-2 -7 -10 34.22 1.88
2 7 11 38.76 2.29
2 7 11 40.03 2.08
-2 -7 -11 33.22 1.6
-2 -7 -11 39.3 2.27
2 7 12 0.98 0.91
2 7 12 0.06 0.5
-2 -7 -12 0.29 0.95
-2 -7 -12 1.85 0.91
2 7 13 6.49 0.8
2 7 13 5.96 1.19
-2 -7 -13 5.76 1.3
-2 -7 -13 4.86 0.78
2 8 -8 2.7 1.08
2 8 -8 2.65 0.82
-2 -8 8 3.15 1.14
-2 -8 8 3.26 1.62
2 8 -7 79.5 3.76
2 8 -7 74.82 3.18
-2 -8 7 87.3 5.85
-2 -8 7 79.73 5.03
2 8 -6 100.74 4.35
2 8 -6 93.92 4.89
-2 -8 6 108.42 6.47
-2 -8 6 104.12 5.66
2 8 -5 43.91 1.93
2 8 -5 38.95 1.54
-2 -8 5 43.26 2.08
-2 -8 5 43.06 1.85
2 8 -4 4.78 0.78
2 8 -4 3.69 0.89
-2 -8 4 5.5 1.39
-2 -8 4 5.14 0.68
2 8 -3 17.28 1.57
2 8 -3 15.24 1.1
-2 -8 3 17.85 1.69
-2 -8 3 17.48 0.9
2 8 -2 10.55 1.2
2 8 -2 10.24 0.81
-2 -8 2 9.67 1.3
-2 -8 2 10.59 0.99
2 8 -1 32.35 1.18
2 8 -1 32.23 1.28
-2 -8 1 35.13 1.91
-2 -8 1 34.16 1.52
2 8 0 32.3 1.61
2 8 0 31.54 1.17
-2 -8 0 33.83 1.26
-2 -8 0 32.33 1.34
2 8 1 0.87 0.4
2 8 1 0.83 0.42
-2 -8 -1 1.23 0.78
-2 -8 -1 0.93 0.28
2 8 2 97.86 3.71
2 8 2 105.99 3.21
-2 -8 -2 102.91 4.13
-2 -8 -2 105.56 3.19
2 8 3 21.65 0.81
2 8 3 20.32 1.19
-2 -8 -3 20.96 0.81
2 8 4 171.09 5.78
2 8 4 157.1 6.3
-2 -8 -4 165.46 5.49
2 8 5 215.57 7.95
2 8 5 207.66 8.91
-2 -8 -5 194 7.22
-2 -8 -5 218.81 8.04
2 8 6 42.3 1.93
-2 -8 -6 36.46 1.42
-2 -8 -6 36.72 1.38
2 8 7 68.14 2.2
2 8 7 68 2.32
-2 -8 -7 67.65 2.53
-2 -8 -7 59.42 2.32
2 8 8 64.88 2.64
2 8 8 52.32 2.07
-2 -8 -8 62.09 2.36
-2 -8 -8 53.52 2.17
2 8 9 0.07 0.69
2 8 9 0.11 0.43
-2 -8 -9 0.14 0.6
-2 -8 -9 0.26 0.52
2 8 10 0.48 0.44
2 8 10 0.88 0.79
-2 -8 -10 0.86 0.71
-2 -8 -10 0.58 0.61
2 8 11 0.84 0.82
-2 -8 -11 0.59 0.79
2 8 12 0.23 0.51
2 8 12 0.02 0.44
-2 -8 -12 0.39 0.86
2 9 -7 43.45 3.99
2 9 -7 36.56 2.96
-2 -9 7 43.69 2.74
-2 -9 7 41.13 3.49
2 9 -6 95.45 5.98
2 9 -6 83.08 3.53
-2 -9 6 96.24 6.4
-2 -9 6 93.97 5.57
2 9 -5 53.37 3.62
2 9 -5 50.18 2.79
-2 -9 5 53.02 2.64
-2 -9 5 51.3 3.34
2 9 -4 77.08 4.2
2 9 -4 67.86 2.49
-2 -9 4 75.12 4.57
-2 -9 4 74.77 4.02
2 9 -3 2.76 0.72
2 9 -3 2.67 0.5
-2 -9 3 1.3 1.35
-2 -9 3 3.56 1.08
2 9 -2 42.8 1.67
2 9 -2 38.95 1.82
-2 -9 2 42.67 1.84
-2 -9 2 44.99 2.24
2 9 -1 19.31 1.52
2 9 -1 16.67 1.04
-2 -9 1 17.47 1.03
-2 -9 1 19.82 1.26
2 9 0 13.79 1.22
2 9 0 10.97 0.86
-2 -9 0 13.52 1.42
-2 -9 0 12.73 0.64
2 9 1 56.8 1.85
2 9 1 55.95 1.99
-2 -9 -1 61.4 2.91
-2 -9 -1 61.62 2.21
2 9 2 72.72 2.95
2 9 2 71.58 2.45
-2 -9 -2 75.37 3.32
-2 -9 -2 67.82 2.55
2 9 3 1.06 0.75
-2 -9 -3 1.62 0.48
-2 -9 -3 1.63 0.49
2 9 4 93.92 3
-2 -9 -4 91.08 3.21
2 9 5 96.49 3.76
2 9 5 86.69 3.66
2 9 6 25.87 1.38
2 9 6 21.37 1.39
-2 -9 -6 22.42 1.03
2 9 7 2.43 0.79
2 9 7 4.08 0.49
-2 -9 -7 2.63 0.63
-2 -9 -7 3.51 0.55
2 9 8 1.17 0.66
2 9 8 0.39 0.44
-2 -9 -8 0.13 0.54
-2 -9 -8 0.67 0.3
2 9 9 2.53 0.71
2 9 9 1.22 0.48
-2 -9 -9 0.92 0.64
-2 -9 -9 1 0.58
2 9 10 1.41 0.76
2 9 10 0.82 0.51
-2 -9 -10 0.11 0.7
-2 -9 -10 1.81 0.63
2 9 11 3.92 0.58
2 9 11 1.86 0.98
-2 -9 -11 2.74 0.9
-2 -9 -11 3.44 0.78
2 9 12 23.77 1.95
-2 -9 -12 22.64 1.95
2 10 -5 26.55 2.69
2 10 -5 23.08 2
-2 -10 5 26.57 3.02
-2 -10 5 27.92 2.47
2 10 -4 46.65 3.3
2 10 -4 41.35 2.48
-2 -10 4 49.85 3.69
-2 -10 4 45.19 2.16
2 10 -3 4.61 1.32
2 10 -3 2.68 0.92
-2 -10 3 2.47 0.87
-2 -10 3 3.92 0.72
2 10 -2 71.23 3.76
2 10 -2 64.08 2.98
-2 -10 2 71.17 4.18
-2 -10 2 69.57 3.59
2 10 -1 17.82 1.58
2 10 -1 14.3 1.14
-2 -10 1 16.96 1.85
-2 -10 1 15.26 1.38
2 10 0 53.86 2.86
2 10 0 52.23 2.39
-2 -10 0 58.97 2.4
-2 -10 0 51.74 2.58
2 10 1 114.57 4.09
2 10 1 115.78 4.7
-2 -10 -1 124.81 4.8
-2 -10 -1 104.82 4.05
2 10 2 59.22 2.11
2 10 2 62.1 2.59
-2 -10 -2 67.77 3.35
-2 -10 -2 61.89 2.6
2 10 3 63.45 2.27
2 10 3 57.59 2.81
2 10 4 2 0.91
2 10 4 2.71 0.84
-2 -10 -4 1.22 0.57
-2 -10 -4 1.01 0.57
2 10 5 21.04 1.31
2 10 5 17.74 1.34
-2 -10 -5 16.81 0.94
2 10 6 23.51 0.96
2 10 6 20.11 0.94
-2 -10 -6 20.87 1.06
2 10 7 15.05 0.77
2 10 7 14.52 1.16
-2 -10 -7 13.43 0.88
2 10 8 0.63 0.68
2 10 8 0.44 0.7
-2 -10 -8 1.19 0.57
-2 -10 -8 0.93 0.51
2 10 9 25.91 1.76
-2 -10 -9 22.37 1.63
-2 -10 -9 28.61 1.51
2 10 10 1.46 0.47
2 10 10 0.57 0.49
-2 -10 -10 1.29 0.71
-2 -10 -10 0.91 0.62
2 10 11 26.83 1.72
2 10 11 18.22 1.82
-2 -10 -11 20.5 1.71
-2 -10 -11 21.86 1.56
2 11 -4 16.26 2.23
2 11 -4 15.22 1.68
-2 -11 4 16.32 1.53
-2 -11 4 14.75 1.3
2 11 -3 0.32 1.3
2 11 -3 0.28 0.94
-2 -11 3 0.75 1.45
-2 -11 3 0.97 0.69
2 11 -2 19.66 1.91
2 11 -2 15.55 1.49
-2 -11 2 16.08 2.15
-2 -11 2 16.72 1.67
2 11 -1 66.4 3.59
2 11 -1 57.51 3.06
-2 -11 1 71.04 4.34
-2 -11 1 58.74 2.58
2 11 0 19.35 1.8
2 11 0 17.48 1.41
-2 -11 0 18.27 2.12
-2 -11 0 18.02 1.03
2 11 1 15.49 0.97
2 11 1 14.24 0.87
-2 -11 -1 15.21 1.83
-2 -11 -1 14.35 1.29
2 11 2 26.83 1.25
-2 -11 -2 30.42 1.45
-2 -11 -2 24.99 1.52
2 11 3 50.82 1.93
-2 -11 -3 48.84 2.23
2 11 4 17.41 1.4
-2 -11 -4 17.34 1.05
2 11 5 9.86 1.06
2 11 5 8.77 1.04
-2 -11 -5 8.24 0.77
2 11 6 9.97 0.66
2 11 6 8.19 1.04
-2 -11 -6 9.13 0.77
2 11 7 1.81 0.75
2 11 7 0.31 0.74
-2 -11 -7 0.46 0.34
-2 -11 -7 0.91 0.52
2 11 8 18.51 1.32
2 11 8 14.16 1.28
-2 -11 -8 14.79 1.04
2 11 9 16.46 0.91
2 11 9 13.94 1.32
-2 -11 -9 12.71 1.16
-2 -11 -9 14.34 1.1
2 12 -1 16.93 1.18
2 12 -1 13.61 0.96
-2 -12 1 15.48 1.39
-2 -12 1 13.54 1.64
2 12 0 44.7 2.03
2 12 0 37.77 2.47
-2 -12 0 49.56 2.48
-2 -12 0 43.18 2.62
2 12 1 32.56 2.21
2 12 1 24.93 1.95
-2 -12 -1 28.6 1.73
-2 -12 -1 28.12 1.87
2 12 2 1.23 1.01
-2 -12 -2 1.54 0.79
2 12 3 21.44 1.83
2 12 3 17.42 1.56
-2 -12 -3 17.52 0.86
2 12 4 5.77 1.12
2 12 4 2.73 0.98
-2 -12 -4 3.7 0.74
-2 -12 -4 3.54 0.74
2 12 5 11.48 1.24
2 12 5 10.25 1.14
-2 -12 -5 9.81 0.89
2 12 6 8.33 0.67
2 12 6 6.47 1.02
-2 -12 -6 6.6 0.51
2 12 7 1.31 0.77
2 12 7 1.65 0.76
-2 -12 -7 0.25 0.61
-2 -12 -7 0.97 0.58
3 -10 -6 6.19 1.62
3 -10 -6 7.27 1.04
3 -10 -5 5.29 1.56
3 -10 -5 5.44 0.97
3 -10 -4 9.85 1.11
3 -10 -4 12.87 1.15
3 -10 -3 5.26 1.51
3 -10 -3 5.57 0.92
3 -10 -2 7.99 1.02
3 -10 -1 16.06 2.2
-3 10 1 15.75 2.16
3 -10 0 1.13 0.37
3 -10 0 3.06 1.49
-3 10 0 3.03 0.82
-3 10 0 0.62 1.52
3 -10 1 0.73 0.67
3 -10 1 0.53 1.47
-3 10 -1 1.04 0.84
-3 10 -1 0.75 1.45
3 -9 -9 7.3 1.67
3 -9 -9 6.87 1.79
3 -9 -8 2.34 0.77
3 -9 -8 1.76 0.85
3 -9 -7 16.3 1.28
3 -9 -7 19 2.11
3 -9 -6 28.64 2.56
3 -9 -6 31.42 2.67
3 -9 -5 2.19 0.83
3 -9 -5 11.34 1.52
3 -9 -4 0.35 0.68
3 -9 -4 1 0.7
3 -9 -3 1.82 1.09
3 -9 -3 1.05 0.69
3 -9 -2 3.09 0.76
-3 9 2 3.28 0.56
3 -9 -1 4.08 1.31
-3 9 1 2.04 0.63
-3 9 1 1.21 0.75
3 -9 0 26.6 2.49
-3 9 0 26.93 1.08
-3 9 0 25.52 1.6
3 -9 1 9.62 1.87
-3 9 -1 9.25 1.12
-3 9 -1 6.55 1.07
3 -9 2 7.86 1.16
3 -9 2 11.46 1.19
-3 9 -2 9.96 1.24
-3 9 -2 7.46 1.12
3 -9 3 6.42 1.23
3 -9 3 6.41 1.16
-3 9 -3 7.18 0.79
-3 9 -3 5.77 1.06
3 -9 4 4.79 0.82
3 -9 4 4.98 1.94
-3 9 -4 6.09 1.35
-3 9 -4 6.68 1.8
3 -8 -10 13.49 1.31
3 -8 -10 16.54 2.18
3 -8 -9 7.5 1.03
3 -8 -9 9.12 1.1
3 -8 -8 -0.99 1.13
3 -8 -8 0.8 1.26
3 -8 -7 3.96 0.75
3 -8 -7 3.99 1.39
3 -8 -6 0.39 1.05
3 -8 -6 -0.66 1.12
3 -8 -5 3.89 1.2
3 -8 -5 3.17 1.22
3 -8 -4 0.74 0.59
3 -8 -4 -0.2 1.03
3 -8 -3 8.16 1.23
3 -8 -3 7.67 0.8
-3 8 3 5.88 0.51
3 -8 -2 19.48 1.18
-3 8 2 19.6 0.84
-3 8 2 18.64 1.12
3 -8 -1 9.29 1.45
-3 8 1 7.72 0.7
3 -8 0 30.16 1.49
3 -8 0 35.9 2.64
-3 8 0 36.81 1.63
-3 8 0 34.83 2.6
3 -8 1 127.88 5.09
3 -8 1 118.55 5.06
-3 8 -1 116.54 5.2
-3 8 -1 110.82 6.45
3 -8 2 6.46 0.94
3 -8 2 5.82 1.6
-3 8 -2 5.14 1.05
-3 8 -2 1.56 1.56
3 -8 3 3.65 1.03
3 -8 3 4.25 1.6
-3 8 -3 3.46 1.08
-3 8 -3 3.61 1.47
3 -8 4 6.21 1.22
3 -8 4 6.41 1.07
-3 8 -4 5.12 1.27
-3 8 -4 4.48 1.66
3 -8 5 1.62 0.67
3 -8 5 1.28 0.94
-3 8 -5 0.55 1.19
-3 8 -5 0.41 0.84
3 -8 6 0.15 1.23
3 -8 6 0 0.95
-3 8 -6 0.64 0.77
-3 8 -6 0.19 1.52
3 -7 -11 0.3 0.86
3 -7 -11 1.18 1.51
3 -7 -10 8.99 1.78
3 -7 -10 9.33 1.84
3 -7 -9 27.07 2.42
3 -7 -9 31.33 2.6
3 -7 -8 35.51 1.79
3 -7 -8 37.86 1.87
3 -7 -7 9.17 1.36
3 -7 -7 9.8 0.93
3 -7 -6 0.72 0.56
3 -7 -6 0.05 0.59
3 -7 -5 1.96 1.04
3 -7 -5 3.5 0.66
3 -7 -4 4.17 0.65
3 -7 -4 1.22 1.12
3 -7 -3 45.47 2.52
3 -7 -3 48.14 2.65
3 -7 -2 49.95 1.94
-3 7 2 50.79 1.66
-3 7 2 47.13 1.81
3 -7 -1 2.82 1.04
-3 7 1 1.5 0.46
-3 7 1 2.5 1.01
3 -7 0 1.31 0.51
3 -7 0 2.25 0.64
-3 7 0 2.36 0.58
-3 7 0 1.76 0.62
3 -7 1 27.67 1.33
3 -7 1 24.93 2.2
-3 7 -1 27.72 1.42
-3 7 -1 24.88 1.36
3 -7 2 109.87 4.34
3 -7 2 108.08 5.84
-3 7 -2 104.64 4.66
-3 7 -2 98.14 5.47
3 -7 3 23.92 1.58
3 -7 3 24.4 1.51
-3 7 -3 24.26 1.68
-3 7 -3 24.64 2.16
3 -7 4 1.82 0.54
3 -7 4 0.72 1.34
-3 7 -4 1.06 0.99
-3 7 -4 0.92 0.73
3 -7 5 11.5 1.47
3 -7 5 11.88 2
-3 7 -5 12.03 1.56
-3 7 -5 12.23 1.11
3 -7 6 -0.67 1.12
3 -7 6 0.44 0.87
-3 7 -6 0.33 0.69
-3 7 -6 -0.08 1.33
3 -7 7 4.42 0.91
3 -7 7 4.11 1.16
-3 7 -7 5.86 1.57
-3 7 -7 2.52 1.05
3 -6 -12 19.95 2.53
3 -6 -11 51.86 3.98
3 -6 -11 53.75 2.81
3 -6 -10 0.35 1.17
3 -6 -10 -0.28 1.19
3 -6 -9 24.93 1.39
3 -6 -9 26.24 1.44
3 -6 -8 42.27 2.68
3 -6 -8 47.53 2.91
3 -6 -7 12.89 0.89
3 -6 -7 14.9 1.59
3 -6 -6 56.34 2.94
3 -6 -6 59.32 3.15
3 -6 -5 67.77 2.44
3 -6 -5 73.53 3.53
3 -6 -4 6.41 1.13
3 -6 -4 6.6 0.71
3 -6 -3 56.49 2.74
3 -6 -3 57.34 2.77
3 -6 -2 22.45 1.03
-3 6 2 22.06 0.71
-3 6 2 23.86 1.01
3 -6 -1 104.94 2.8
3 -6 -1 98.11 4.38
-3 6 1 95.03 2.85
-3 6 1 96.39 4.28
3 -6 0 60.07 1.76
3 -6 0 56.62 2.04
-3 6 0 55.96 1.85
-3 6 0 55.26 1.96
3 -6 1 9.25 0.71
3 -6 1 9.11 1.28
-3 6 -1 9.19 0.8
-3 6 -1 9.23 1.24
3 -6 2 63.07 2.31
3 -6 2 62.77 2.29
-3 6 -2 59.59 2.45
-3 6 -2 58.48 2.2
3 -6 3 27.62 1.05
3 -6 3 30.21 2.18
-3 6 -3 26.58 1.11
-3 6 -3 26.43 1.32
3 -6 4 14.18 1.25
3 -6 4 12.44 1.05
-3 6 -4 12.87 1.31
-3 6 -4 10.08 0.95
3 -6 5 33.83 1.4
3 -6 5 32.51 2.61
-3 6 -5 31.35 2.17
-3 6 -5 29.66 2.36
3 -6 6 25.68 2.06
3 -6 6 27.38 2.58
-3 6 -6 23.8 2.12
-3 6 -6 23.63 2.3
3 -6 7 7.98 1.61
3 -6 7 7.21 1.17
-3 6 -7 7.56 1.64
-3 6 -7 7.48 1.77
3 -6 8 50.2 3.71
3 -6 8 44.85 2.72
-3 6 -8 44.22 3.68
-3 6 -8 43.43 2.58
3 -6 9 24.46 2.87
-3 6 -9 21.02 2.8
3 -5 -12 20.94 2.53
-3 5 12 23.66 2.8
3 -5 -11 34.36 2.89
-3 5 11 36.74 3.19
3 -5 -10 0.89 0.24
3 -5 -10 1.69 0.67
-3 5 10 1.4 0.4
-3 5 10 2.02 0.75
3 -5 -9 -0.73 1.03
-3 5 9 0.72 0.35
3 -5 -8 0.76 0.94
3 -5 -8 0.87 0.58
-3 5 8 0.26 0.2
-3 5 8 0.28 0.12
3 -5 -7 38.24 1.57
3 -5 -7 41.59 1.67
3 -5 -6 3.1 1
3 -5 -6 3.67 0.65
3 -5 -5 81.25 3.6
3 -5 -5 83.81 2.85
3 -5 -4 153.11 5.54
3 -5 -4 169.03 7.31
3 -5 -3 58.01 1.88
3 -5 -3 60.97 2
3 -5 -2 27 1.56
-3 5 2 24.81 0.55
-3 5 2 24.7 0.97
3 -5 -1 340.4 13.29
3 -5 -1 337.26 16.57
-3 5 1 320.42 13.05
-3 5 1 336.65 16.55
3 -5 0 174.17 5.46
3 -5 0 169.9 5.96
-3 5 0 157.62 5.31
-3 5 0 174.75 7.09
3 -5 1 23.53 0.89
3 -5 1 23.68 0.97
-3 5 -1 21.52 0.94
-3 5 -1 21.61 0.95
3 -5 2 85.73 2.79
3 -5 2 85.5 3.59
-3 5 -2 79.44 2.86
-3 5 -2 81.6 3.44
3 -5 3 18.88 0.75
3 -5 3 19.15 1.56
-3 5 -3 17.39 1.19
-3 5 -3 17.41 1.47
3 -5 4 56.49 2.4
3 -5 4 53.53 2.06
-3 5 -4 46.72 2.47
-3 5 -4 47.35 2.71
3 -5 5 70.14 3.24
3 -5 5 66.45 3.69
-3 5 -5 64.11 2.43
-3 5 -5 62.14 3.48
3 -5 6 43.76 2.5
3 -5 6 40.81 2.96
-3 5 -6 40.69 2.56
-3 5 -6 38.94 1.77
3 -5 7 12.39 1.65
3 -5 7 10.5 1.16
-3 5 -7 9.92 1.05
-3 5 -7 9.88 1.71
3 -5 8 4.37 1.6
3 -5 8 5.12 1.05
-3 5 -8 4.07 1.59
-3 5 -8 4.82 0.97
3 -5 9 16.11 2.25
3 -5 9 14.89 2.44
-3 5 -9 13.32 1.35
-3 5 -9 14.83 2.18
3 -5 10 5.26 2.04
-3 5 -10 5.69 1.98
3 -4 -12 1.21 0.48
3 -4 -12 1.13 0.82
-3 4 12 0.75 0.69
-3 4 12 0.08 0.94
3 -4 -11 2.25 0.48
3 -4 -11 2.97 0.81
-3 4 11 2.57 0.68
-3 4 11 3.96 0.92
3 -4 -10 16.38 1.07
-3 4 10 14.27 0.9
-3 4 10 17.97 1.95
3 -4 -9 1.38 0.3
3 -4 -9 1.78 1.08
-3 4 9 1.32 0.41
-3 4 9 1.79 0.71
3 -4 -8 29.84 2.03
-3 4 8 29.22 1.03
-3 4 8 34.5 2.24
3 -4 -7 146.67 5.26
-3 4 7 137.96 3.82
3 -4 -6 135.15 4.69
3 -4 -6 139.45 4.9
3 -4 -5 135.16 5.53
3 -4 -5 141.9 5.96
3 -4 -4 547.35 33.31
3 -4 -4 565.81 34.8
3 -4 -3 205.69 8.42
3 -4 -3 213.35 8.84
3 -4 -2 22.51 0.82
3 -4 -1 33.32 0.66
3 -4 -1 33.02 1.03
-3 4 1 33.97 0.78
-3 4 1 33.42 1.47
3 -4 0 49.26 1.15
3 -4 0 48.28 1.92
-3 4 0 44.58 1.11
-3 4 0 47.12 1.84
3 -4 1 17.17 0.66
3 -4 1 15.93 1.1
-3 4 -1 13.99 0.67
-3 4 -1 16.48 1.07
3 -4 2 105.53 3.22
3 -4 2 102.24 3.09
-3 4 -2 96.62 2.92
3 -4 3 26.14 0.82
3 -4 3 25.58 1.04
-3 4 -3 23.27 1.23
-3 4 -3 24.59 1.48
3 -4 4 13.42 1.09
3 -4 4 14.41 1.35
-3 4 -4 11.58 1.13
-3 4 -4 12.68 1.23
3 -4 5 6.54 1.03
3 -4 5 6.2 1.2
-3 4 -5 5.43 1.07
-3 4 -5 4.35 1.13
3 -4 6 78.48 3.72
3 -4 6 75.04 4.01
-3 4 -6 71.22 2.75
-3 4 -6 70.34 2.67
3 -4 7 101.26 4.99
3 -4 7 93.47 3.83
-3 4 -7 94.9 5.08
-3 4 -7 87.58 4.84
3 -4 8 3.8 0.84
3 -4 8 4.54 1.46
-3 4 -8 3.07 0.82
-3 4 -8 2.78 0.78
3 -4 9 13.34 1.22
3 -4 9 15.59 2.12
-3 4 -9 13.69 2
-3 4 -9 11 1.86
3 -4 10 19.89 2.41
3 -4 10 16.33 2.56
-3 4 -10 16.82 2.43
-3 4 -10 15.6 2.23
3 -3 -13 18.92 1.55
-3 3 13 15.92 1.59
-3 3 13 22.73 2.78
3 -3 -12 1.14 0.64
3 -3 -12 0.68 0.82
-3 3 12 2.13 0.47
-3 3 12 1.32 1.6
3 -3 -11 6.32 0.68
3 -3 -11 6.13 0.89
-3 3 11 6.46 0.87
-3 3 11 7.26 1.04
3 -3 -10 23.6 1.03
3 -3 -10 24.74 1.33
-3 3 10 26.65 1.32
-3 3 10 26.43 1.54
3 -3 -9 1.65 0.42
3 -3 -9 2.49 1.1
-3 3 9 2.33 0.53
-3 3 9 3.66 1.25
3 -3 -8 259.25 9.52
3 -3 -8 237.99 12.53
-3 3 8 255.53 10.04
-3 3 8 258.02 11.43
3 -3 -7 159.65 4.85
3 -3 -7 160.13 5.97
-3 3 7 168.02 5.08
-3 3 7 178.68 8.02
3 -3 -6 114.64 2.66
3 -3 -6 109.84 4.45
-3 3 6 114.29 2.82
-3 3 6 119.88 4.87
3 -3 -5 0.67 0.67
3 -3 -4 123.82 4.45
3 -3 -4 126.75 3.85
3 -3 -3 28.48 1.21
3 -3 -3 29.79 1.29
3 -3 -2 10.72 0.72
3 -3 -2 10.57 0.77
3 -3 -1 1.14 0.17
3 -3 -1 0.9 0.31
-3 3 1 1.03 0.18
-3 3 1 1.97 0.31
3 -3 0 42.03 1.06
3 -3 0 41.4 1.09
-3 3 0 38.91 1.01
3 -3 1 174.12 5.18
3 -3 1 170.64 6.02
-3 3 -1 155.27 4.84
-3 3 -1 163.99 5.77
3 -3 2 2.08 0.45
3 -3 2 1.34 0.38
-3 3 -2 1.25 0.44
-3 3 -2 0.73 0.6
3 -3 3 242.94 9.37
3 -3 3 242.06 8.87
-3 3 -3 215.89 8.96
-3 3 -3 225.93 8.29
3 -3 4 460.26 23.99
3 -3 4 450.49 24.3
-3 3 -4 403.18 22.32
-3 3 -4 415.82 20.8
3 -3 5 169.92 6.72
3 -3 5 161.88 6.82
-3 3 -5 153.03 6.59
-3 3 -5 146.73 5.26
3 -3 6 1.27 0.57
-3 3 -6 -1.56 0.9
-3 3 -6 0.7 0.52
3 -3 7 151.51 5.66
3 -3 7 149.08 7.3
-3 3 -7 138.15 5.56
-3 3 -7 137.45 6.72
3 -3 8 2.77 1.33
3 -3 8 3.38 1.37
-3 3 -8 3.64 1.31
-3 3 -8 3.18 0.72
3 -3 9 18.38 1.25
3 -3 9 15.82 1.3
-3 3 -9 15.07 2.03
-3 3 -9 15.06 1.78
3 -3 10 12.34 2.01
3 -3 10 10.3 1.25
-3 3 -10 11.11 1.21
-3 3 -10 10.51 1.75
3 -3 11 3.7 1.9
3 -3 11 3.72 1.13
-3 3 -11 2.99 1.88
-3 3 -11 2.77 1.63
3 -2 -13 5.23 0.99
3 -2 -13 5.73 1.07
-3 2 13 5.66 1.15
-3 2 13 6.14 2.05
3 -2 -12 0.93 0.72
3 -2 -12 0.73 0.81
-3 2 12 1.23 0.85
-3 2 12 2.11 1.57
3 -2 -11 48.26 2.04
3 -2 -11 44.74 2.15
-3 2 11 45.51 1.8
-3 2 11 52.39 3.72
3 -2 -10 43.36 1.8
3 -2 -10 42.55 1.91
-3 2 10 48.72 2.17
-3 2 10 49.59 3.33
3 -2 -9 3.43 0.52
3 -2 -9 1.93 0.66
-3 2 9 3.57 0.65
-3 2 9 2.51 0.75
3 -2 -8 52.42 1.65
3 -2 -8 50.06 2.9
-3 2 8 52.57 1.82
-3 2 8 53.71 3.21
3 -2 -7 67.4 1.8
3 -2 -7 64.03 3.02
-3 2 7 70.01 1.95
-3 2 7 69.18 3.29
3 -2 -6 38 0.86
3 -2 -6 36.69 1.19
-3 2 6 39.32 0.91
-3 2 6 40.36 1.89
3 -2 -5 214.35 6.06
3 -2 -5 187.89 6.53
-3 2 5 210.6 6.26
-3 2 5 209.11 8.32
3 -2 -4 59.3 0.92
3 -2 -4 53.23 1.4
-3 2 4 56.95 1.53
3 -2 -3 39.58 0.98
3 -2 -3 41.98 1.44
3 -2 -2 80.67 2.37
3 -2 -2 79.3 1.95
3 -2 -1 125.11 2.77
3 -2 -1 124.9 3.8
-3 2 1 126.63 2.8
-3 2 1 120.67 3.19
3 -2 0 373.32 14.88
3 -2 0 374.62 15.82
-3 2 0 399.94 16.06
-3 2 0 382.62 16.04
3 -2 1 225.77 7.38
3 -2 1 226.55 7.47
-3 2 -1 219.68 7.32
-3 2 -1 226.36 8.21
-3 2 -2 0.59 0.37
-3 2 -2 0.16 0.49
3 -2 3 89.47 2.75
3 -2 3 89.27 2.38
-3 2 -3 77.62 2.55
3 -2 4 416.97 19.12
3 -2 4 429.89 19.97
-3 2 -4 387.69 20.1
-3 2 -4 401.76 18.73
3 -2 5 19.22 1.2
3 -2 5 17.33 0.77
-3 2 -5 16.64 1.14
-3 2 -5 16.82 0.72
3 -2 6 3.56 0.55
3 -2 6 3.39 0.91
-3 2 -6 2.9 0.85
-3 2 -6 3.48 0.48
3 -2 7 25.33 1.71
3 -2 7 20.95 1.06
-3 2 -7 18.53 1.67
-3 2 -7 19.74 1.49
3 -2 8 105.98 3.88
3 -2 8 100.57 3.88
-3 2 -8 93.63 3.76
-3 2 -8 93.08 3.56
3 -2 9 18.92 2.06
3 -2 9 20.09 2.02
-3 2 -9 15.26 2.08
-3 2 -9 15.05 1.79
3 -2 10 40.53 2.13
3 -2 10 39.94 3.18
-3 2 -10 39.83 3.31
-3 2 -10 37.67 2.87
3 -2 11 70.26 4.97
3 -2 11 66.25 4.82
-3 2 -11 62.39 3.43
-3 2 -11 59.04 4.26
3 -2 12 34.79 2.33
3 -2 12 32.16 3.47
-3 2 -12 30.24 3.71
-3 2 -12 28.44 3.18
3 -1 -13 6.66 1.15
3 -1 -13 6.19 1.12
-3 1 13 6.1 0.78
-3 1 13 6.07 2.19
3 -1 -12 14.95 1.33
3 -1 -12 14.28 1.3
-3 1 12 16.67 1.57
-3 1 12 16.71 2.5
3 -1 -11 1.33 0.83
3 -1 -11 1.74 1.45
-3 1 11 0.22 1.02
-3 1 11 3.03 1.7
3 -1 -10 76.83 2.43
3 -1 -10 72.73 4.13
-3 1 10 79.34 3.43
-3 1 10 81.9 4.9
3 -1 -9 0.79 0.59
3 -1 -9 0.67 1
-3 1 9 1.48 0.65
-3 1 9 1.51 1.15
3 -1 -8 1.57 0.57
3 -1 -8 3.68 0.59
-3 1 8 1.61 0.6
-3 1 8 2.18 1.16
3 -1 -7 13.39 0.67
3 -1 -7 11.36 0.72
-3 1 7 13.38 0.71
-3 1 7 13.54 0.83
3 -1 -6 25.14 0.75
3 -1 -6 22.08 1.25
-3 1 6 24.41 0.76
-3 1 6 24.05 1.39
3 -1 -5 225.38 7.25
3 -1 -5 211.8 7.38
-3 1 5 227.64 7.26
-3 1 5 226.88 9.02
3 -1 -4 41.8 0.83
3 -1 -4 38.89 1.01
-3 1 4 42 1.53
3 -1 -3 97.02 2.03
3 -1 -3 89.35 2.22
-3 1 3 96.09 1.91
-3 1 3 95.65 2.9
3 -1 -2 134.92 2.94
3 -1 -2 130.66 2.91
3 -1 -2 129.66 3.77
3 -1 -2 129.06 3.81
3 -1 -1 15.19 0.35
3 -1 -1 13.95 0.34
3 -1 -1 14.39 0.62
3 -1 -1 13.77 0.65
3 -1 0 125.98 2.92
3 -1 0 117.6 3.37
-3 1 0 122.26 2.96
-3 1 0 120.28 3.02
3 -1 1 886.7 58.01
3 -1 1 853.97 56.55
-3 1 -1 848.57 56.96
-3 1 -1 842.03 55.59
3 -1 2 158.7 4.25
3 -1 2 159.02 4.95
-3 1 -2 155.88 4.77
-3 1 -2 159.59 4.44
3 -1 3 32.61 0.8
3 -1 3 32.68 0.82
-3 1 -3 29.92 1.06
-3 1 -3 32 0.81
3 -1 4 3.27 0.59
3 -1 4 3.71 0.58
-3 1 -4 2.81 0.35
-3 1 -4 2.55 0.32
3 -1 5 47.81 1.74
3 -1 5 47.5 1.72
-3 1 -5 43 1.74
-3 1 -5 41.7 1.15
3 -1 6 1.48 0.44
3 -1 6 0.63 0.42
-3 1 -6 0.79 0.73
-3 1 -6 0.39 0.36
3 -1 7 9.84 1.19
3 -1 7 7.06 1.13
-3 1 -7 9.18 1.17
-3 1 -7 8.06 1
3 -1 8 67.28 3.42
3 -1 8 62.9 2.33
-3 1 -8 57.15 2.39
-3 1 -8 59.87 2.15
3 -1 9 54.8 2.34
3 -1 9 50.11 2.19
-3 1 -9 48.48 2.32
-3 1 -9 48.38 2.85
3 -1 10 47.4 3.3
3 -1 10 41.83 2.06
-3 1 -10 40.25 3.37
-3 1 -10 39.75 2.73
3 -1 11 115.23 7.1
3 -1 11 108.28 4.86
-3 1 -11 100.67 7
-3 1 -11 99.83 5.96
3 -1 12 33.4 2.19
3 -1 12 32.43 1.99
-3 1 -12 26.83 2.21
-3 1 -12 28.76 2.81
3 0 -13 10.75 1.43
3 0 -13 9.32 1.31
-3 0 13 10.78 1.54
-3 0 13 8.48 2.5
3 0 -12 46.41 1.94
3 0 -12 47.9 3.71
-3 0 12 48.1 2.11
-3 0 12 55.55 4.36
3 0 -11 106.07 5.15
3 0 -11 97.96 6.24
-3 0 11 113.84 5.56
-3 0 11 110.23 5.16
3 0 -10 11.92 1.19
3 0 -10 9.24 1.64
-3 0 10 12.65 1.32
-3 0 10 12.58 1.19
3 0 -9 57.94 2.38
3 0 -9 52.2 2.99
-3 0 9 59.73 2.52
-3 0 9 57.44 2.38
3 0 -8 147.61 5.57
3 0 -8 130.38 4.76
-3 0 8 146.95 5.61
-3 0 8 143.92 5.39
3 0 -7 1.04 0.53
3 0 -7 0.48 0.77
-3 0 7 1.56 0.54
-3 0 7 1.45 0.89
3 0 -6 69.01 2.04
3 0 -6 68.02 2.49
-3 0 6 68.48 1.66
-3 0 6 72.58 2.81
3 0 -5 108.74 2.99
3 0 -5 100.29 2.78
-3 0 5 108.28 2.97
-3 0 5 112.12 3.8
3 0 -4 1.28 0.31
3 0 -4 1.25 0.53
-3 0 4 1.26 0.32
-3 0 4 0.77 0.59
3 0 -3 321.97 11.81
3 0 -3 313.74 12.81
-3 0 3 340.62 12.5
-3 0 3 316.4 12.33
3 0 -2 4.36 0.24
3 0 -2 4.38 0.41
-3 0 2 4.53 0.23
-3 0 2 4.39 0.27
3 0 -1 22.61 0.45
3 0 -1 22.48 0.66
3 0 -1 21.54 0.67
3 0 0 11.78 0.35
3 0 0 11.79 0.31
-3 0 0 11.63 0.37
-3 0 0 11.17 0.47
3 0 1 169.04 4.66
3 0 1 161.81 4.66
-3 0 -1 162.1 4.7
-3 0 -1 166.99 4.8
3 0 2 1136.97 87.33
3 0 2 1131.81 89.4
-3 0 -2 1113.93 89.64
-3 0 -2 1100.51 85.07
3 0 3 42.1 1.26
3 0 3 41.18 1.14
-3 0 -3 38.39 0.93
-3 0 -3 39.77 1.11
3 0 4 81.89 1.98
3 0 4 79.17 2.25
-3 0 -4 74.57 1.96
-3 0 -4 73.98 2.1
3 0 5 56.87 1.48
3 0 5 59.81 1.89
-3 0 -5 54.37 2
-3 0 -5 52.21 1.66
3 0 6 143.89 4.37
3 0 6 140.92 4.98
-3 0 -6 125.47 4.15
-3 0 -6 130.36 3.92
3 0 7 120.85 3.91
3 0 7 124.05 4.88
-3 0 -7 105.88 3.83
-3 0 -7 114.5 4.43
3 0 8 151 5.48
3 0 8 147.05 5.34
-3 0 -8 131.64 5.28
-3 0 -8 140.25 5.01
3 0 9 3.52 1.22
3 0 9 2.53 0.63
-3 0 -9 1.67 0.7
-3 0 -9 1.56 0.91
3 0 10 0.63 1.2
3 0 10 0.31 0.63
-3 0 -10 -0 1.19
-3 0 -10 1 0.94
3 0 11 0.98 0.89
3 0 11 1.59 0.77
-3 0 -11 1.35 1.52
-3 0 -11 1.97 1.16
3 0 12 14.51 2.18
3 0 12 11.46 1.17
-3 0 -12 9.41 1.33
-3 0 -12 11.24 1.07
3 0 13 3.31 1.83
3 0 13 3.88 1.57
-3 0 -13 1.44 1.08
-3 0 -13 1.54 0.87
3 1 -12 18.91 1.2
3 1 -12 16.67 2.41
-3 -1 12 19.13 1.96
-3 -1 12 18.06 2.86
3 1 -11 71.45 2.78
3 1 -11 69.53 4.61
-3 -1 11 76.75 4.12
-3 -1 11 74.07 3.66
3 1 -10 23.95 1.14
3 1 -10 22.75 1.35
-3 -1 10 26.23 1.86
-3 -1 10 25.99 1.57
3 1 -9 41.51 1.5
3 1 -9 39.59 2.46
-3 -1 9 43.4 2.22
-3 -1 9 41.07 2.8
3 1 -8 181.79 7.65
3 1 -8 177.91 8.22
-3 -1 8 192.81 8.18
-3 -1 8 187.68 9
3 1 -7 0.86 0.63
3 1 -7 0.38 0.78
-3 -1 7 1.44 0.63
-3 -1 7 0.57 0.88
3 1 -6 314.2 12.8
3 1 -6 305.57 14.06
-3 -1 6 321.49 14.13
-3 -1 6 323.71 13.83
3 1 -5 36.97 1.19
3 1 -5 36.15 1.39
-3 -1 5 37.94 1.24
-3 -1 5 38.85 1.58
3 1 -4 633.62 35.85
3 1 -4 650.01 37.54
-3 -1 4 674.73 39.52
-3 -1 4 673.16 39.67
3 1 -3 262.72 9.02
3 1 -3 278.37 10.57
-3 -1 3 287.31 9.82
-3 -1 3 280.71 10.97
3 1 -2 131.59 3.4
3 1 -2 129.36 3.53
-3 -1 2 134.58 3.46
-3 -1 2 130.45 3.29
3 1 -1 28.32 0.66
3 1 -1 28.41 0.69
-3 -1 1 27.93 0.51
-3 -1 1 28.13 0.71
3 1 0 16.78 0.47
3 1 0 16.68 0.48
3 1 0 16.76 0.43
3 1 0 17.44 0.44
3 1 1 105.81 2.28
3 1 1 105.89 2.34
-3 -1 -1 103.6 2.63
-3 -1 -1 103.3 2.32
3 1 2 187.67 5.19
3 1 2 183.52 5.14
-3 -1 -2 184.41 5.8
-3 -1 -2 181.63 5.07
3 1 3 243.69 8.43
3 1 3 237.07 7.81
-3 -1 -3 238.08 8.66
-3 -1 -3 231.82 7.59
3 1 4 552.78 29
3 1 4 545.18 28.25
-3 -1 -4 511.28 26.7
-3 -1 -4 519.83 26.5
3 1 5 228.65 7.62
3 1 5 226.47 8.16
-3 -1 -5 216.37 8.62
-3 -1 -5 214.44 7.63
3 1 6 38.29 1.11
3 1 6 35.2 0.97
-3 -1 -6 35.05 1.62
-3 -1 -6 35.06 1.25
3 1 7 1.82 0.88
3 1 7 0.93 0.73
-3 -1 -7 0.97 0.89
-3 -1 -7 0.75 0.37
3 1 8 15.25 1.64
3 1 8 14.39 1.36
-3 -1 -8 11.51 1.59
-3 -1 -8 12.93 1.18
3 1 9 10.78 0.87
3 1 9 10.6 1.22
-3 -1 -9 8.21 1.4
-3 -1 -9 9.16 1.06
3 1 10 3.62 0.78
3 1 10 4.68 1.12
-3 -1 -10 3.47 1.29
-3 -1 -10 3.59 0.96
3 1 11 7.53 0.95
3 1 11 6.52 0.84
-3 -1 -11 5.04 1.59
-3 -1 -11 5.03 1.21
3 1 12 13.71 2.14
3 1 12 12.78 1.12
-3 -1 -12 12.38 2.14
-3 -1 -12 12.77 1.01
3 1 13 8.15 2.09
3 1 13 6.73 1.74
-3 -1 -13 7.24 1.24
-3 -1 -13 7.4 0.99
3 2 -12 5.33 0.87
3 2 -12 1.7 1.74
-3 -2 12 3.32 0.91
-3 -2 12 2.86 2.05
3 2 -11 2.73 0.74
3 2 -11 2.84 0.85
-3 -2 11 2.61 0.78
-3 -2 11 3.1 1.05
3 2 -10 11.65 0.97
3 2 -10 11.24 1.73
-3 -2 10 13.71 1.01
-3 -2 10 14.06 1.24
3 2 -9 16.78 0.95
3 2 -9 18.03 1.08
-3 -2 9 17.57 1.02
-3 -2 9 18.81 1.97
3 2 -8 4.2 0.9
3 2 -8 2.85 0.6
-3 -2 8 2.5 0.57
-3 -2 8 2.56 1.19
3 2 -7 97.21 3.79
3 2 -7 89.53 3.83
-3 -2 7 97.8 3.91
-3 -2 7 96.83 4.36
3 2 -6 32.94 1.04
3 2 -6 32.84 1.62
-3 -2 6 35.69 1.1
-3 -2 6 35.3 1.84
3 2 -5 258.8 10.28
3 2 -5 250.37 9.36
-3 -2 5 266.1 10.71
-3 -2 5 274.9 11.56
3 2 -4 845.12 59.14
3 2 -4 827.18 56.62
-3 -2 4 885.15 60.59
-3 -2 4 895.44 64.78
3 2 -3 633.4 36.47
3 2 -3 620.23 34.6
-3 -2 3 666.77 38.7
-3 -2 3 651.15 38.43
3 2 -2 64.59 1.66
3 2 -2 64.55 1.56
-3 -2 2 65.2 1.41
-3 -2 2 66.23 1.66
3 2 -1 193.29 5.59
3 2 -1 199.55 5.81
-3 -2 1 209.04 6.06
-3 -2 1 208.7 6.19
3 2 0 15.32 0.52
3 2 0 16.5 0.35
3 2 1 141.38 3.78
3 2 1 137.66 3.77
3 2 1 135.32 3.02
3 2 1 142.87 3.15
3 2 2 75.33 1.6
3 2 2 75.47 1.41
-3 -2 -2 76.54 2.04
-3 -2 -2 75.9 1.41
3 2 3 274.73 9.85
3 2 3 260.05 8.51
-3 -2 -3 255.15 9.71
-3 -2 -3 258.03 8.31
3 2 4 41.4 1.47
3 2 4 39.53 1.04
-3 -2 -4 38.71 1.53
3 2 5 2.44 0.63
3 2 5 2.74 0.26
-3 -2 -5 3.47 0.66
-3 -2 -5 3.2 0.39
3 2 6 7.51 0.5
3 2 6 8.13 0.61
-3 -2 -6 7.71 0.81
-3 -2 -6 7.8 0.55
3 2 7 87.47 3.32
3 2 7 82.16 2.85
-3 -2 -7 73.89 2.48
-3 -2 -7 76.96 2.58
3 2 8 107.64 4.62
3 2 8 103.4 3.25
-3 -2 -8 94.8 4.55
-3 -2 -8 98.27 3.72
3 2 9 5.6 1.25
3 2 9 6.45 0.59
-3 -2 -9 4.83 1.19
-3 -2 -9 6.46 0.86
3 2 10 34.05 2.4
3 2 10 36.95 2.07
-3 -2 -10 31.91 2.36
-3 -2 -10 34.47 1.85
3 2 11 2.19 1.24
3 2 11 1.81 1.04
-3 -2 -11 1.77 1.22
-3 -2 -11 0.35 0.92
3 2 12 11.83 1.97
3 2 12 12.66 1.03
-3 -2 -12 9.27 1.97
-3 -2 -12 11.41 0.96
3 2 13 41.85 3.48
3 2 13 39.01 3.05
-3 -2 -13 34.35 2.31
-3 -2 -13 38.85 2.86
3 3 -12 1.2 1.39
3 3 -12 -0.09 0.9
-3 -3 12 1.52 1.47
-3 -3 12 1.55 1.82
3 3 -11 4.1 1.54
3 3 -11 5.97 1.59
-3 -3 11 2.89 1.62
-3 -3 11 6.24 1.95
3 3 -10 46.05 2.99
3 3 -10 42.05 2.07
-3 -3 10 47.62 3.26
-3 -3 10 49.42 2.46
3 3 -9 2.89 1.16
3 3 -9 2.78 1.19
-3 -3 9 1.9 1.24
-3 -3 9 3.29 1.43
3 3 -8 97.34 3.41
3 3 -8 95.56 3.39
-3 -3 8 104.21 4.78
-3 -3 8 105.49 5.19
3 3 -7 70.34 3.14
3 3 -7 69.71 3.12
-3 -3 7 75.4 2.49
-3 -3 7 74.85 2.61
3 3 -6 255.42 11.44
3 3 -6 256.56 10.29
-3 -3 6 281.9 12.54
-3 -3 6 274.16 12.7
3 3 -5 13.89 0.94
3 3 -5 13.92 0.9
-3 -3 5 14.43 0.66
-3 -3 5 13.87 1.05
3 3 -4 142.38 4.87
3 3 -4 140.26 4.09
-3 -3 4 147.83 5.12
-3 -3 4 150.53 5.18
3 3 -3 2.25 0.52
3 3 -3 1.75 0.42
-3 -3 3 3.13 0.55
-3 -3 3 1.68 0.28
3 3 -2 0.77 0.25
3 3 -2 1.12 0.18
-3 -3 2 0.9 0.46
-3 -3 2 1.1 0.34
3 3 -1 42.77 0.95
3 3 -1 42.82 0.91
-3 -3 1 46.52 1.03
-3 -3 1 46.16 0.99
3 3 0 5.27 0.27
3 3 0 5.34 0.19
-3 -3 0 6.31 0.48
3 3 1 4.06 0.45
3 3 1 4.3 0.28
3 3 1 4.35 0.1
3 3 2 58.77 1.56
3 3 2 55.95 1.23
3 3 3 379.67 15.48
3 3 3 367.9 13.94
-3 -3 -3 363.43 15.45
-3 -3 -3 385.16 14.3
3 3 4 1458.25 139.59
3 3 4 1431.02 130.82
-3 -3 -4 1394.12 134.38
-3 -3 -4 1427.18 129.84
3 3 5 167.53 5.73
3 3 5 162.73 4.84
-3 -3 -5 155.45 5.89
-3 -3 -5 162.5 4.71
3 3 6 24.39 0.79
3 3 6 24.84 0.85
-3 -3 -6 23.7 1.26
-3 -3 -6 24.09 0.79
3 3 7 253.29 10.65
3 3 7 256.56 10.01
-3 -3 -7 222.92 9.01
-3 -3 -7 236.19 9.19
3 3 8 38.34 1.33
3 3 8 39.34 1.54
-3 -3 -8 31.64 1.96
3 3 9 42.72 2.27
3 3 9 36.9 1.27
-3 -3 -9 34.82 1.55
-3 -3 -9 39.3 1.66
3 3 10 63.63 3.33
3 3 10 61.06 2.74
-3 -3 -10 51.06 2.21
-3 -3 -10 55.58 2.5
3 3 11 0.74 1.2
3 3 11 0.82 0.59
-3 -3 -11 0.88 0.71
-3 -3 -11 -0.18 0.87
3 3 12 2.87 1.53
3 3 12 3.28 1.25
-3 -3 -12 2.47 0.87
-3 -3 -12 1.76 0.67
3 3 13 5.85 1.93
3 3 13 9.6 0.98
-3 -3 -13 6.82 1.12
-3 -3 -13 7.02 1.49
3 4 -11 31.56 2.98
3 4 -11 28.02 2.88
-3 -4 11 33.41 2.06
-3 -4 11 35.15 3.49
3 4 -10 69.96 4.38
3 4 -10 71.12 4.54
-3 -4 10 75.66 3.42
-3 -4 10 72.15 3.53
3 4 -9 61.4 3.75
3 4 -9 61.99 2.57
-3 -4 9 67.03 2.84
-3 -4 9 66.13 4.21
3 4 -8 12.42 1.58
3 4 -8 11.09 1.5
-3 -4 8 14.38 1.75
-3 -4 8 14.92 1.78
3 4 -7 18.93 1.6
3 4 -7 20.06 1.44
-3 -4 7 20.9 1.74
-3 -4 7 20.2 1.09
3 4 -6 38.32 1.32
3 4 -6 35.18 1.22
-3 -4 6 39.69 1.43
-3 -4 6 39.87 2.04
3 4 -5 141.4 5.45
3 4 -5 140.72 5.19
-3 -4 5 153.86 5.99
-3 -4 5 153.09 4.98
3 4 -4 2.57 0.69
3 4 -4 2.36 0.54
-3 -4 4 2.61 0.74
-3 -4 4 2.14 0.39
3 4 -3 30.09 1.28
3 4 -3 28.22 0.99
-3 -4 3 29.64 0.92
-3 -4 3 29.48 1.12
3 4 -2 32.29 1.23
3 4 -2 31.19 0.89
-3 -4 2 33.92 1.3
-3 -4 2 32.01 0.96
3 4 -1 0.57 0.28
3 4 -1 0.71 0.23
-3 -4 1 -0.15 0.48
-3 -4 1 0.6 0.26
3 4 0 164.52 5.33
3 4 0 159.9 4.07
-3 -4 0 182.21 5.91
-3 -4 0 174.18 4.49
3 4 1 712.5 41.07
3 4 1 664.68 34.43
-3 -4 -1 785.33 45.63
-3 -4 -1 648.31 34.16
3 4 2 91.52 2.7
3 4 2 84.54 2.63
3 4 3 66.85 1.58
3 4 3 65.14 1.62
3 4 4 795.03 53.09
3 4 4 758.52 45.96
-3 -4 -4 798.27 55.2
-3 -4 -4 795.45 48.26
3 4 5 52.34 1.81
3 4 5 53.59 1.16
-3 -4 -5 58.05 1.56
-3 -4 -5 53.1 1.34
3 4 6 1.16 0.59
3 4 6 0.8 0.31
-3 -4 -6 0.67 0.63
3 4 7 1.35 0.41
3 4 7 1.14 0.43
-3 -4 -7 2.11 0.45
-3 -4 -7 1.53 0.41
3 4 8 35.84 1.79
3 4 8 33.38 1.31
-3 -4 -8 31.92 1.26
-3 -4 -8 32.03 1.23
3 4 9 9.05 0.78
3 4 9 9.36 0.92
-3 -4 -9 7.68 1.29
-3 -4 -9 7.46 0.53
3 4 10 50.06 2.83
3 4 10 52.17 2.37
-3 -4 -10 45.53 2.86
-3 -4 -10 49.47 2.21
3 4 11 26.48 2.27
3 4 11 24.99 1.83
-3 -4 -11 25.34 1.75
3 4 12 18.6 2.11
3 4 12 16.18 1.06
-3 -4 -12 14.57 1.3
-3 -4 -12 16.23 1.03
3 4 13 2.11 1.49
3 4 13 2.47 1.19
-3 -4 -13 2.49 0.9
-3 -4 -13 2.46 1.11
3 5 -11 16.4 2.35
3 5 -11 13.68 1.38
-3 -5 11 15.41 2.59
-3 -5 11 14.22 1.61
3 5 -10 53.08 3.98
3 5 -10 50.28 2.47
-3 -5 10 59.43 4.36
-3 -5 10 52.5 4.19
3 5 -9 116.82 6.72
3 5 -9 113.82 6.31
-3 -5 9 128.78 5.55
-3 -5 9 122.74 5.39
3 5 -8 79.18 4.68
3 5 -8 77.07 4.19
-3 -5 8 84.36 3.59
-3 -5 8 81.81 4.8
3 5 -7 0.4 0.62
3 5 -7 1.41 0.51
-3 -5 7 -0.57 1.19
-3 -5 7 0.73 0.64
3 5 -6 7.14 1.15
3 5 -6 7.36 0.57
-3 -5 6 7.88 1.27
-3 -5 6 8.58 1.16
3 5 -5 104.32 4.2
3 5 -5 101.46 3.09
-3 -5 5 114.66 4.72
-3 -5 5 112.44 3.58
3 5 -4 7.24 0.57
3 5 -4 6.58 0.68
-3 -5 4 7.5 0.62
-3 -5 4 6.62 0.83
3 5 -3 389.53 18
3 5 -3 384.21 18.37
-3 -5 3 403.16 18.97
-3 -5 3 416.9 19.19
3 5 -2 487.84 25.42
3 5 -2 511.12 26.59
-3 -5 2 537.04 30.14
-3 -5 2 539.06 28.75
3 5 -1 42.84 1.16
3 5 -1 42.29 1
-3 -5 1 44.1 1.2
-3 -5 1 46.23 1.18
3 5 0 151.95 4.51
3 5 0 152.95 3.96
-3 -5 0 163.39 4.91
-3 -5 0 163.88 4.67
3 5 1 353.71 15.79
3 5 1 380.25 13.97
-3 -5 -1 368.46 15.56
-3 -5 -1 350.27 13.31
3 5 2 13.95 0.85
3 5 2 15.23 0.84
3 5 3 31.13 1.2
3 5 3 28.92 1.22
3 5 4 41.69 1.06
3 5 4 44.07 1.57
-3 -5 -4 41.8 0.75
3 5 5 27.09 0.8
3 5 5 28.15 0.56
-3 -5 -5 25.16 0.89
-3 -5 -5 28.08 0.73
3 5 6 13.78 0.61
3 5 6 13.01 0.46
-3 -5 -6 13.25 0.67
-3 -5 -6 13.63 0.51
3 5 7 7.33 0.83
3 5 7 6.49 0.47
-3 -5 -7 5.73 0.55
-3 -5 -7 5.97 0.47
3 5 8 134.12 5.52
3 5 8 136.46 4.63
-3 -5 -8 116.05 4.34
-3 -5 -8 125.37 4.36
3 5 9 88.72 3.08
3 5 9 82.09 2.55
-3 -5 -9 82.31 4.25
-3 -5 -9 86.51 3.25
3 5 10 1.34 1.09
3 5 10 2.73 0.75
-3 -5 -10 1.15 0.68
-3 -5 -10 3.46 0.74
3 5 11 100.1 5.52
3 5 11 103.41 4.76
-3 -5 -11 90.93 5.48
-3 -5 -11 103.78 4.8
3 5 12 46.22 3.23
3 5 12 42.25 1.75
-3 -5 -12 38.59 3.15
-3 -5 -12 48.35 2.73
3 5 13 1.09 1.28
3 5 13 0.23 0.97
-3 -5 -13 2.1 1.28
-3 -5 -13 0.8 1.26
-3 -5 -13 0.12 1.03
3 6 -10 1.97 1.76
3 6 -10 2.61 1.48
-3 -6 10 2.89 1.86
-3 -6 10 2.01 1.01
3 6 -9 29.88 2.94
3 6 -9 31.11 1.64
-3 -6 9 35.19 3.25
-3 -6 9 33.17 2.89
3 6 -8 77.91 3.42
3 6 -8 74.46 3
-3 -6 8 85.95 5.27
-3 -6 8 80.37 3.42
3 6 -7 18.62 1.24
3 6 -7 16.58 0.99
-3 -6 7 19.5 1.36
-3 -6 7 21.45 1.91
3 6 -6 51.01 2.86
3 6 -6 48.76 1.71
-3 -6 6 59 3.25
-3 -6 6 55.8 2.79
3 6 -5 13.42 1.31
3 6 -5 11.6 0.63
-3 -6 5 13.17 0.94
-3 -6 5 13.17 0.76
3 6 -4 0.28 0.49
3 6 -4 0.85 0.55
-3 -6 4 0.6 0.91
-3 -6 4 0.09 0.69
3 6 -3 265.96 12.43
3 6 -3 263.58 11.1
-3 -6 3 280.72 13.48
-3 -6 3 284.71 12.62
3 6 -2 975.95 78.42
3 6 -2 1050.5 84.61
-3 -6 2 1043.78 89.34
-3 -6 2 1066.56 89.55
3 6 -1 252.73 9.75
3 6 -1 261.94 9.61
-3 -6 1 262.34 10.38
-3 -6 1 283.23 10.86
3 6 0 4.91 0.46
3 6 0 5.64 0.31
-3 -6 0 4.07 0.85
-3 -6 0 6.03 0.39
3 6 1 3.26 0.38
3 6 1 3.14 0.27
-3 -6 -1 3.42 0.69
-3 -6 -1 3.73 0.33
3 6 2 159.05 5.54
-3 -6 -2 166.25 4.35
3 6 3 23.09 1.08
-3 -6 -3 20.51 0.39
3 6 4 11.87 0.83
3 6 4 11.95 0.87
-3 -6 -4 11.11 0.26
3 6 5 62.19 2.17
3 6 5 59.77 1.7
-3 -6 -5 55.61 1.23
-3 -6 -5 57.91 1.21
3 6 6 3.12 0.71
-3 -6 -6 2.57 0.32
3 6 7 148.83 5.67
3 6 7 140.41 4.22
-3 -6 -7 129.98 5.53
-3 -6 -7 130.92 4.27
3 6 8 102.51 3.33
3 6 8 103.11 3.29
-3 -6 -8 92.81 3.38
-3 -6 -8 102.56 3.53
3 6 9 50.47 2.51
3 6 9 47.99 1.38
-3 -6 -9 44.12 2.6
-3 -6 -9 52.48 2.08
3 6 10 11.46 0.9
3 6 10 13.79 1.01
-3 -6 -10 10.65 1.52
-3 -6 -10 11.98 0.69
3 6 11 17.71 1.96
3 6 11 20.63 1.42
-3 -6 -11 16.47 2.01
-3 -6 -11 18.32 1.55
3 6 12 5.79 1.33
3 6 12 5.38 0.6
-3 -6 -12 3.2 0.84
-3 -6 -12 5.3 1.07
3 6 13 0.87 0.77
3 6 13 1.67 0.58
-3 -6 -13 1.34 0.79
-3 -6 -13 2.58 0.59
3 7 -9 10.14 1.28
3 7 -9 8.95 1.66
-3 -7 9 11.03 1.41
-3 -7 9 9.59 1.21
3 7 -8 12.12 1.23
3 7 -8 8.92 1.51
-3 -7 8 11.93 2.21
-3 -7 8 10.32 1.84
3 7 -7 3.59 0.9
3 7 -7 3.37 1.1
-3 -7 7 2.77 1.67
-3 -7 7 2.84 1.34
3 7 -6 84.44 3.42
3 7 -6 82.76 3.92
-3 -7 6 92.72 3.86
-3 -7 6 90.14 3.41
3 7 -5 25.19 1.97
3 7 -5 23.5 0.97
-3 -7 5 27.58 2.19
-3 -7 5 26.75 1.72
3 7 -4 8.47 1.29
3 7 -4 8.89 0.86
-3 -7 4 8.9 0.88
-3 -7 4 11.63 1.08
3 7 -3 58.8 2.05
3 7 -3 57.76 2.1
-3 -7 3 60.58 2.27
-3 -7 3 61.05 1.9
3 7 -2 164.33 7.01
3 7 -2 159.48 5.59
-3 -7 2 169.02 6.17
-3 -7 2 171.87 6.54
3 7 -1 273.62 11.42
3 7 -1 288.98 11.68
-3 -7 1 299.49 14.46
-3 -7 1 303.23 12.95
3 7 0 92.52 2.78
3 7 0 99.92 2.6
-3 -7 0 100.93 4.11
-3 -7 0 95.53 2.77
3 7 1 1.82 0.68
3 7 1 1.89 0.25
-3 -7 -1 1.29 0.76
-3 -7 -1 0.99 0.29
3 7 2 129.56 4.75
-3 -7 -2 132.42 4.19
-3 -7 -2 133.77 3.47
3 7 3 51.89 1.45
3 7 3 44.93 1.33
-3 -7 -3 47.54 1.1
3 7 4 207.38 7.24
3 7 4 198.92 8.14
-3 -7 -4 195.87 5.86
3 7 5 275.04 10.98
3 7 5 277.33 11.31
-3 -7 -5 254.44 9.97
-3 -7 -5 282.6 10.53
3 7 6 56.87 2.28
3 7 6 56.99 2.43
-3 -7 -6 53.93 1.43
-3 -7 -6 51.77 1.55
3 7 7 1.4 0.76
3 7 7 0.84 0.78
-3 -7 -7 1.02 0.38
-3 -7 -7 0.8 0.32
3 7 8 1.13 0.82
-3 -7 -8 0.42 0.47
3 7 9 16.17 1.37
3 7 9 14.83 0.77
-3 -7 -9 12.93 0.9
-3 -7 -9 15.67 0.95
3 7 10 28.18 1.91
3 7 10 25.11 1.26
-3 -7 -10 23.85 2
-3 -7 -10 28.41 1.5
3 7 11 9.27 1.4
3 7 11 9.48 0.91
-3 -7 -11 8.39 0.89
-3 -7 -11 8.95 1.06
3 7 12 1.13 0.63
3 7 12 1.64 0.73
-3 -7 -12 0.58 1.12
-3 -7 -12 0.92 0.84
3 7 13 3.25 1.21
3 7 13 1.2 0.54
-3 -7 -13 1.81 1.28
-3 -7 -13 0.33 0.95
3 8 -8 6.3 2.02
3 8 -8 6.11 0.86
-3 -8 8 6.56 1.32
-3 -8 8 6.53 1.07
3 8 -7 15.21 1.45
3 8 -7 13.2 1.04
-3 -8 7 17.64 2.63
-3 -8 7 16.54 1.98
3 8 -6 1.98 0.88
3 8 -6 1.64 1.02
-3 -8 6 4.04 1.61
-3 -8 6 2.18 1.24
3 8 -5 52.71 2.23
3 8 -5 49.77 2.42
-3 -8 5 51.75 2.43
-3 -8 5 51.81 2.09
3 8 -4 87.35 4.48
3 8 -4 87.36 3.52
-3 -8 4 89.81 3.64
-3 -8 4 89.38 4.15
3 8 -3 74.2 3.64
3 8 -3 72.11 2.65
-3 -8 3 76.86 4.01
-3 -8 3 78.9 3.25
3 8 -2 0.33 0.51
3 8 -2 0.25 0.47
-3 -8 2 2.04 0.94
-3 -8 2 -0.55 0.61
3 8 -1 29.46 1.78
3 8 -1 30.65 1.09
-3 -8 1 32.64 2.01
-3 -8 1 31.19 1.34
3 8 0 25.56 1.03
3 8 0 25.8 0.9
-3 -8 0 28.32 1.19
-3 -8 0 27.49 1.07
3 8 1 13.2 1.09
3 8 1 11.96 0.52
-3 -8 -1 12.93 1.25
-3 -8 -1 12.13 0.61
3 8 2 49.59 1.55
3 8 2 51.61 1.29
-3 -8 -2 49.86 1.71
-3 -8 -2 51.82 1.59
3 8 3 23.82 1.38
3 8 3 20.16 1.26
-3 -8 -3 19.94 0.59
3 8 4 62.18 2.68
3 8 4 52.63 1.74
-3 -8 -4 56.63 1.39
3 8 5 122.95 3.98
3 8 5 114.11 4.88
-3 -8 -5 114.76 3.51
3 8 6 136.49 4.61
3 8 6 130.5 5.69
-3 -8 -6 123.26 3.74
3 8 7 150.07 6.71
3 8 7 148.35 6.99
3 8 8 21.62 1.65
-3 -8 -8 20.47 1.01
-3 -8 -8 19.19 0.85
3 8 9 29.67 1.24
3 8 9 26.97 1.9
-3 -8 -9 25.58 1.3
3 8 10 31.13 1.91
3 8 10 26.1 1.32
-3 -8 -10 24.62 1.48
3 8 11 3.31 0.64
-3 -8 -11 4.45 0.83
3 8 12 5.1 1.22
3 8 12 3.41 0.76
-3 -8 -12 4.23 0.97
3 9 -7 39.26 3.63
3 9 -7 32.7 2.57
-3 -9 7 40.18 2.58
-3 -9 7 34.86 2.1
3 9 -6 17.41 2.42
3 9 -6 16.6 1.05
-3 -9 6 16.46 2.67
-3 -9 6 17.35 2.05
3 9 -5 14.14 2.02
3 9 -5 13.39 1.32
-3 -9 5 14.81 1.36
-3 -9 5 14.94 1.69
3 9 -4 25.69 1.41
3 9 -4 23.66 1.03
-3 -9 4 24.8 2.49
-3 -9 4 25.28 1.28
3 9 -3 57.5 2.26
3 9 -3 53.45 1.74
-3 -9 3 57.69 2.45
-3 -9 3 59.47 2.14
3 9 -2 13.83 0.97
3 9 -2 13.21 0.92
-3 -9 2 14.9 1.07
-3 -9 2 14.64 1.19
3 9 -1 29.79 1.94
3 9 -1 27.75 1.24
-3 -9 1 31.61 1.47
-3 -9 1 29.85 1.52
3 9 0 5.55 0.63
3 9 0 4.96 0.56
-3 -9 0 4.12 0.74
-3 -9 0 4.23 0.42
3 9 1 12.08 0.77
3 9 1 11.4 0.73
-3 -9 -1 13.27 1.46
-3 -9 -1 10.99 0.76
3 9 2 5.16 0.97
3 9 2 4.76 0.46
-3 -9 -2 5.96 0.66
-3 -9 -2 5.37 0.51
3 9 3 39.03 1.41
-3 -9 -3 38.12 1.44
3 9 4 128.64 4.42
3 9 4 111.95 4.99
-3 -9 -4 110.68 3.34
3 9 5 1.04 0.88
3 9 5 0.33 0.83
-3 -9 -5 0.45 0.32
-3 -9 -5 1.4 0.31
3 9 6 37.58 1.96
3 9 6 34.33 1.94
3 9 7 55.04 1.96
3 9 7 54.41 2.08
3 9 8 9.27 1.05
3 9 8 7.67 0.69
-3 -9 -8 6.49 0.53
3 9 9 12.62 1.23
3 9 9 11.63 1.29
-3 -9 -9 9.15 0.83
-3 -9 -9 9.77 0.68
3 9 10 23.51 1.72
3 9 10 22.97 1.84
-3 -9 -10 20.31 1.29
-3 -9 -10 18.4 1.06
3 9 11 0.35 0.91
3 9 11 -0.03 0.6
-3 -9 -11 0.29 0.7
-3 -9 -11 1.58 0.55
3 9 12 16.26 1.72
3 9 12 11.74 1.78
-3 -9 -12 12.44 0.91
-3 -9 -12 10.35 1.08
3 10 -5 4.25 1.78
3 10 -5 5.25 0.69
-3 -10 5 7.34 1.9
-3 -10 5 6.03 1.45
3 10 -4 0.43 1.34
3 10 -4 0.63 0.86
-3 -10 4 0.14 0.85
-3 -10 4 1.48 1.06
3 10 -3 0.23 1.16
3 10 -3 0.87 0.72
-3 -10 3 0.67 1.32
-3 -10 3 -0.28 0.55
3 10 -2 2.41 1.18
3 10 -2 1.83 0.71
-3 -10 2 2.48 1.39
-3 -10 2 2.31 0.55
3 10 -1 1.44 0.99
3 10 -1 0.08 0.58
-3 -10 1 -0.35 1.19
-3 -10 1 0.48 0.73
3 10 0 52.63 2.04
3 10 0 52.51 1.62
-3 -10 0 58.4 3.52
-3 -10 0 52.25 1.83
3 10 1 65.96 2.48
3 10 1 65.32 2.58
-3 -10 -1 76.02 4.12
-3 -10 -1 64.77 2.8
3 10 2 5.87 1.12
3 10 2 4.5 0.55
-3 -10 -2 4.73 0.75
-3 -10 -2 5.89 0.64
3 10 3 14.55 1.35
-3 -10 -3 12.56 0.76
3 10 4 191.82 9.3
3 10 4 163.87 8.19
3 10 5 16.89 1.47
3 10 5 15.11 0.88
-3 -10 -5 13.55 0.65
3 10 6 26.81 1.15
3 10 6 22.48 1.11
-3 -10 -6 21.04 0.86
3 10 7 6.98 0.99
3 10 7 5.5 0.63
-3 -10 -7 5.3 0.47
3 10 8 6.97 1.01
3 10 8 5.24 0.65
-3 -10 -8 5.35 0.51
3 10 9 6.08 1.03
3 10 9 5.33 0.71
-3 -10 -9 3.57 0.66
-3 -10 -9 4.44 0.55
3 10 10 1.3 0.89
3 10 10 0.23 1.01
3 10 11 1.92 0.99
3 10 11 0.84 1.14
3 11 -4 -0.94 1.5
3 11 -4 0.66 0.57
-3 -11 4 1.76 1.61
-3 -11 4 1.16 1.2
3 11 -3 35.26 2.86
3 11 -3 30.83 1.41
-3 -11 3 36.71 3.37
-3 -11 3 32.94 1.71
3 11 -2 15.11 1.82
-3 -11 2 12.54 1.36
-3 -11 2 13.37 1.49
3 11 -1 17.53 1.2
3 11 -1 15.63 1.24
-3 -11 1 19.43 1.46
-3 -11 1 15.9 1.52
3 11 0 43.27 1.94
3 11 0 41.16 2.16
-3 -11 0 46.78 2.41
-3 -11 0 42.05 2.31
3 11 1 87.29 3.24
3 11 1 71.09 3.29
-3 -11 -1 78.04 3.67
3 11 2 6.21 0.73
-3 -11 -2 5.96 0.75
3 11 3 0.97 1.09
3 11 3 2.3 0.94
-3 -11 -3 1.14 0.45
-3 -11 -3 1.32 0.53
3 11 4 2.72 1.04
3 11 4 2.04 0.92
-3 -11 -4 1.04 0.41
-3 -11 -4 1.38 0.62
3 11 5 3.14 0.95
-3 -11 -5 0.44 0.4
-3 -11 -5 0.93 0.41
3 11 6 0.98 0.83
3 11 6 0.72 0.82
-3 -11 -6 0.36 0.38
3 11 7 -0.42 0.83
3 11 7 1.01 0.83
3 11 8 -0.19 0.51
3 11 8 0.09 0.87
3 11 9 4.1 1.03
3 11 9 3.08 1.05
3 12 -1 -0.22 0.73
3 12 -1 0.15 0.75
-3 -12 1 1.3 1.5
-3 -12 1 0.47 0.93
3 12 0 13.51 1.09
3 12 0 11.24 1.17
-3 -12 0 13.44 2.17
-3 -12 0 12.35 1.34
3 12 1 0.26 0.67
3 12 1 0.8 0.39
-3 -12 -1 0.01 1.43
-3 -12 -1 1.28 0.75
3 12 2 7.43 0.8
-3 -12 -2 7.12 0.86
3 12 3 4.81 1.21
3 12 3 2.22 0.64
-3 -12 -3 1.42 0.55
-3 -12 -3 2.9 0.62
3 12 4 1.05 0.62
3 12 4 -0.29 0.54
3 12 5 5.35 1.22
3 12 5 3.7 0.64
3 12 6 3.73 1.03
3 12 6 2.37 0.61
3 12 7 1.8 1.01
3 12 7 1.62 0.6
4 -9 -7 6.93 1.1
4 -9 -7 7.47 1.93
4 -9 -6 -2.33 1.77
4 -9 -6 5.21 1.01
4 -9 -5 69.71 5.22
4 -9 -5 79.36 3.79
4 -9 -4 64.93 3.81
4 -9 -4 33.99 2.21
4 -9 -3 0.88 0.74
4 -9 -3 -0.26 0.78
4 -9 -2 5.51 0.89
4 -9 -2 5.56 0.99
4 -9 -1 7.52 1.68
-4 9 1 4.87 0.95
4 -9 0 3.67 1.67
-4 9 0 2.67 0.92
4 -9 1 31.72 3.21
-4 9 -1 27.8 1.83
-4 9 -1 28.84 1.92
4 -9 2 11.94 1.18
4 -9 2 15.11 2.49
-4 9 -2 11.42 1.38
-4 9 -2 14.44 1.41
4 -8 -9 2.98 1.52
4 -8 -9 2.14 1.67
4 -8 -8 20.91 2.48
4 -8 -8 26.5 2.75
4 -8 -7 10 1.14
4 -8 -7 13.16 1.2
4 -8 -6 6.3 1.73
4 -8 -6 9.1 1.07
4 -8 -5 27.23 2.52
4 -8 -5 31.88 1.79
4 -8 -4 3.83 0.84
4 -8 -4 6.56 0.89
4 -8 -3 5.03 0.82
4 -8 -3 5.09 0.87
4 -8 -2 8.48 0.99
4 -8 -1 16.21 1.98
-4 8 1 14.92 1.87
4 -8 0 4.95 1.6
-4 8 0 4.61 0.6
-4 8 0 6.77 1.55
4 -8 1 0.75 0.6
4 -8 1 1.97 0.85
-4 8 -1 1.06 0.71
-4 8 -1 -1.19 1.41
4 -8 2 21.2 1.51
4 -8 2 26.16 1.78
-4 8 -2 24.66 1.66
-4 8 -2 25.22 2.66
4 -8 3 29.54 1.42
4 -8 3 36.95 3.28
-4 8 -3 32.62 2.15
-4 8 -3 29.55 3.14
4 -8 4 29.01 2.11
4 -8 4 31.78 3.2
-4 8 -4 26.5 2.19
-4 8 -4 28.74 1.97
4 -7 -10 15.83 2.35
4 -7 -10 17.97 2.46
4 -7 -9 0.28 0.72
4 -7 -9 0.16 1.43
4 -7 -8 4.07 1.43
4 -7 -8 5.1 0.98
4 -7 -7 3.04 1.25
4 -7 -7 2.99 1.4
4 -7 -6 0.7 0.65
4 -7 -6 0.94 1.2
4 -7 -5 17.55 1.81
4 -7 -5 19.23 1.93
4 -7 -4 6.67 1.36
4 -7 -4 7 1.51
4 -7 -3 31.09 1.58
4 -7 -3 32.28 1.64
4 -7 -2 3.33 0.75
-4 7 2 2.27 0.26
4 -7 -1 21.6 1.99
-4 7 1 19.34 1.9
4 -7 0 37.85 1.42
4 -7 0 44.09 1.95
-4 7 0 42.92 1.9
4 -7 1 10.3 0.85
4 -7 1 12.44 1.07
-4 7 -1 10.23 0.89
-4 7 -1 11.82 1.04
4 -7 2 52.64 2.34
4 -7 2 52.92 3.76
-4 7 -2 48.34 2.42
-4 7 -2 47.83 2.39
4 -7 3 89.83 3.93
4 -7 3 89.8 5.41
-4 7 -3 72.1 3.91
-4 7 -3 78.94 3.63
4 -7 4 3.81 1
4 -7 4 1.95 0.96
-4 7 -4 1.91 1.06
-4 7 -4 2.79 0.88
4 -7 5 -0.38 0.95
4 -7 5 -0.26 0.87
-4 7 -5 0.29 1
-4 7 -5 1.03 1.34
4 -7 6 5.34 0.86
4 -7 6 8.39 2.03
-4 7 -6 6.92 0.91
-4 7 -6 5.43 1.11
4 -6 -11 10.61 1.31
4 -6 -11 11.79 1.43
4 -6 -10 4.37 0.94
4 -6 -10 4.1 1.68
4 -6 -9 0.03 1.22
4 -6 -9 2.24 0.81
4 -6 -8 0.2 1.07
4 -6 -8 0.49 1.2
4 -6 -7 4.27 0.76
4 -6 -7 5.49 1.4
4 -6 -6 25.91 2.08
4 -6 -6 31.12 2.34
4 -6 -5 1.71 0.61
4 -6 -5 -1.08 1.15
4 -6 -4 17.83 1.76
4 -6 -4 16.76 1.85
4 -6 -3 150.96 6.06
4 -6 -3 154.93 7.82
4 -6 -2 40.06 1.74
4 -6 -1 3.83 0.28
4 -6 -1 5.78 1.21
-4 6 1 4.42 0.43
-4 6 1 4.31 0.7
4 -6 0 20.49 0.85
4 -6 0 22.88 1.19
-4 6 0 20.83 1.16
4 -6 1 18.03 0.9
4 -6 1 19.81 1.73
-4 6 -1 15.61 0.87
-4 6 -1 16.65 1.72
4 -6 2 0.93 0.59
4 -6 2 -0.13 0.67
-4 6 -2 0.29 0.61
-4 6 -2 -0.7 1.1
4 -6 3 43.89 1.95
4 -6 3 44.32 3.01
-4 6 -3 35.34 2.04
-4 6 -3 40.33 2.75
4 -6 4 2.72 0.55
4 -6 4 2.64 1.45
-4 6 -4 3.39 0.98
-4 6 -4 2.75 1.34
4 -6 5 4.13 1.08
4 -6 5 4.67 0.95
-4 6 -5 2.97 0.69
-4 6 -5 3.83 1.4
4 -6 6 1.7 1.11
4 -6 6 1.3 0.91
-4 6 -6 1.97 0.69
-4 6 -6 0.62 0.83
4 -6 7 16.81 1.97
4 -6 7 17.91 2.52
-4 6 -7 15.62 2.02
-4 6 -7 14.12 2.32
4 -6 8 21.59 2.48
4 -6 8 22.55 3.03
-4 6 -8 17.86 2.46
-4 6 -8 18.82 1.74
4 -5 -11 2.81 1.57
4 -5 -10 5.78 1.46
4 -5 -10 4.35 0.94
4 -5 -9 8.28 1.56
4 -5 -9 9.97 1.67
4 -5 -8 5.19 0.73
4 -5 -8 4.46 0.82
4 -5 -7 13.44 1.63
4 -5 -7 15.81 1.1
4 -5 -6 98.88 3.8
4 -5 -6 105.34 4.02
4 -5 -5 1.89 1.07
4 -5 -5 0.75 0.66
4 -5 -4 117.94 4.39
4 -5 -4 126.28 4.68
4 -5 -3 19.53 1.65
4 -5 -3 20.08 1.71
4 -5 -2 32.5 1.3
4 -5 -2 35.22 1.37
4 -5 -1 38.5 0.86
4 -5 -1 41.3 2.27
-4 5 1 38.66 0.89
-4 5 1 40.56 2.22
4 -5 0 12.78 0.57
4 -5 0 13.65 0.85
-4 5 0 12.38 0.54
-4 5 0 12.43 1.34
4 -5 1 20.65 0.86
4 -5 1 19.92 1.61
-4 5 -1 21.24 1.61
4 -5 2 5.04 0.62
4 -5 2 5.53 1.13
-4 5 -2 3.73 0.64
-4 5 -2 3.7 0.65
4 -5 3 4.26 0.74
4 -5 3 4.88 0.75
-4 5 -3 3.74 0.48
-4 5 -3 4 0.69
4 -5 4 111.19 3.72
4 -5 4 117.27 5.83
-4 5 -4 98.55 3.67
-4 5 -4 103.48 4.12
4 -5 5 25.33 1.16
4 -5 5 26.35 2.4
-4 5 -5 23.8 1.82
-4 5 -5 23 1.34
4 -5 6 6.07 0.77
4 -5 6 6.75 0.98
-4 5 -6 6.05 1.32
-4 5 -6 6.51 1.49
4 -5 7 17.56 1.2
4 -5 7 18.36 2.29
-4 5 -7 15.26 1.91
-4 5 -7 16.34 1.32
4 -5 8 5.43 0.95
4 -5 8 8.52 1.89
-4 5 -8 5.06 0.96
-4 5 -8 5.33 1.77
4 -5 9 1.26 1.52
4 -5 9 0.9 1.78
-4 5 -9 1.37 1.49
-4 5 -9 0.82 0.95
4 -4 -12 10.97 2.18
-4 4 12 14.45 1.52
4 -4 -11 19.24 2.29
-4 4 11 22.43 2.66
4 -4 -10 10.14 1.67
-4 4 10 10.61 1.91
4 -4 -9 77.7 3.28
-4 4 9 85.84 3.61
4 -4 -8 3.98 0.74
4 -4 -7 38.07 2.42
4 -4 -7 39.17 2.57
4 -4 -6 35.06 1.48
4 -4 -6 38.06 2.38
4 -4 -5 82.9 3.86
4 -4 -5 87.46 4.11
4 -4 -4 23.11 1.7
4 -4 -4 25.08 1.82
4 -4 -3 55.94 1.86
4 -4 -3 57.89 1.97
4 -4 -2 0.48 0.41
4 -4 -2 -0 0.74
4 -4 -1 7.53 0.32
4 -4 -1 9.27 0.96
-4 4 1 7.69 0.27
-4 4 1 8.07 0.97
4 -4 0 1.54 0.29
4 -4 0 1.17 0.82
-4 4 0 0.97 0.28
-4 4 0 2.35 0.81
4 -4 1 114.16 3.34
4 -4 1 111.72 3.56
-4 4 -1 98.84 3.03
-4 4 -1 106.99 3.51
4 -4 2 11.82 0.71
4 -4 2 10.26 1.21
-4 4 -2 9.19 0.69
-4 4 -2 10.47 1.17
4 -4 3 13.89 0.93
4 -4 3 15.07 1.37
-4 4 -3 10.8 0.89
-4 4 -3 12.45 1.27
4 -4 4 78.65 2.4
4 -4 4 78.14 2.82
-4 4 -4 66.7 3.04
-4 4 -4 73.17 3.64
4 -4 5 41.56 1.48
4 -4 5 40.88 2.63
-4 4 -5 34.25 2.13
-4 4 -5 37.86 2.45
4 -4 6 7.02 0.74
4 -4 6 7.69 0.87
-4 4 -6 6.15 0.74
-4 4 -6 6.11 1.34
4 -4 7 -0.34 1.12
4 -4 7 -0.04 1.28
-4 4 -7 0.66 0.66
-4 4 -7 1.13 0.69
4 -4 8 7.08 1.55
4 -4 8 5.7 1.71
-4 4 -8 5.84 1.51
-4 4 -8 6.27 1.55
4 -4 9 1.37 0.83
4 -4 9 1.42 1.58
-4 4 -9 0.22 1.45
-4 4 -9 0.89 1.4
4 -4 10 0.03 0.9
4 -4 10 0.28 0.95
-4 4 -10 -0.71 0.92
-4 4 -10 0 0.93
4 -3 -12 12.38 2.16
-4 3 12 15.58 1.55
4 -3 -11 0.27 1.36
-4 3 11 1.09 0.59
-4 3 11 2.5 0.95
4 -3 -10 3.73 1.39
-4 3 10 5.23 1.63
4 -3 -9 20.67 1.23
-4 3 9 20.96 0.77
-4 3 9 23.43 1.42
4 -3 -8 63.4 2.64
-4 3 8 65.91 1.91
-4 3 8 70.38 4.23
4 -3 -7 11.28 1.5
-4 3 7 11.81 1.01
4 -3 -6 4.55 0.61
4 -3 -6 5.36 0.63
4 -3 -5 34.81 1.79
4 -3 -5 33.52 1.29
4 -3 -4 75.55 3.07
4 -3 -4 76.68 2.41
4 -3 -3 7.12 0.9
4 -3 -3 8.03 0.96
4 -3 -2 162.18 5.37
4 -3 -2 175.17 6.72
4 -3 -1 0.81 0.2
4 -3 -1 1.39 0.65
-4 3 1 1.13 0.38
4 -3 0 53.07 1.22
4 -3 0 53.07 2.07
-4 3 0 52.77 1.25
-4 3 0 51.05 1.52
4 -3 1 109.37 3.03
4 -3 1 104.63 3.94
-4 3 -1 98.38 2.9
-4 3 -1 102.75 3.11
4 -3 2 97.7 2.96
4 -3 2 97.68 3.65
-4 3 -2 86.59 2.81
-4 3 -2 95.35 3.66
4 -3 3 0.6 0.56
4 -3 3 0.39 0.46
-4 3 -3 0.12 0.32
-4 3 -3 0.95 0.44
4 -3 4 4.56 0.52
4 -3 4 5.57 0.65
-4 3 -4 5.67 0.83
-4 3 -4 4.94 1
4 -3 5 34.18 1.24
4 -3 5 34.24 2.08
-4 3 -5 28.17 1.75
-4 3 -5 31.06 1.91
4 -3 6 19.89 1.53
4 -3 6 19.09 1.06
-4 3 -6 15.64 1.49
-4 3 -6 16.53 1
4 -3 7 13.37 1.56
4 -3 7 14.03 1.69
-4 3 -7 11.81 1.58
-4 3 -7 12.63 1.54
4 -3 8 1.62 0.72
4 -3 8 1.34 0.77
-4 3 -8 1.57 0.73
-4 3 -8 0.67 1.17
4 -3 9 14.61 2.01
4 -3 9 13.44 1.26
-4 3 -9 11.25 1.22
-4 3 -9 13.56 1.83
4 -3 10 0.06 0.9
4 -3 10 1.34 0.89
-4 3 -10 1.49 1.56
-4 3 -10 0.81 0.82
4 -2 -12 17.36 1.14
4 -2 -12 19.11 2.37
-4 2 12 17.63 1.07
-4 2 12 19.56 1.71
4 -2 -11 33.27 1.44
4 -2 -11 33.67 2.93
-4 2 11 31.56 1.35
-4 2 11 36.98 2.16
4 -2 -10 8.27 0.66
4 -2 -10 6.06 1.63
-4 2 10 8.35 0.85
-4 2 10 9.08 1.15
4 -2 -9 7.96 0.54
4 -2 -9 6.06 0.81
-4 2 9 6.97 0.64
-4 2 9 5.13 1.58
4 -2 -8 222.68 7.81
4 -2 -8 190 8.41
-4 2 8 223.94 8.28
-4 2 8 216.89 9.56
4 -2 -7 150.69 4.47
4 -2 -7 143 6.87
-4 2 7 163.02 5.36
-4 2 7 155.11 7.65
4 -2 -6 8.28 0.26
4 -2 -6 7.54 0.62
-4 2 6 7.61 0.28
-4 2 6 8.45 1.14
4 -2 -5 19.22 1.22
-4 2 5 19.79 0.39
4 -2 -4 140.58 5.25
4 -2 -4 145.7 5.51
4 -2 -3 2.52 0.38
4 -2 -3 2.54 0.41
4 -2 -2 142.22 4.98
4 -2 -2 145.71 4.44
4 -2 -1 46.95 0.88
4 -2 -1 50.91 1.36
4 -2 0 2.78 0.29
4 -2 0 2.97 0.66
-4 2 0 2.01 0.29
-4 2 0 2.51 0.68
4 -2 1 107.91 3.01
4 -2 1 109.74 3.9
-4 2 -1 106.55 3.07
-4 2 -1 110.27 3.91
4 -2 2 13.18 0.72
4 -2 2 12.68 0.61
-4 2 -2 11.24 0.68
-4 2 -2 12.03 0.96
4 -2 3 83.52 2.19
4 -2 3 89.24 2.51
-4 2 -3 76.96 2.68
-4 2 -3 81.57 3.02
4 -2 4 17.8 1.06
4 -2 4 16.6 0.78
-4 2 -4 13.93 1.02
-4 2 -4 15.53 1.13
4 -2 5 21.64 0.86
4 -2 5 21.41 1.43
-4 2 -5 19.26 1.3
-4 2 -5 18.64 0.87
4 -2 6 107.27 4.35
4 -2 6 101.86 4.27
-4 2 -6 86.73 4.12
-4 2 -6 89.86 3.07
4 -2 7 0.78 0.58
4 -2 7 -0.72 0.57
-4 2 -7 -0.01 0.95
-4 2 -7 0.43 0.88
4 -2 8 40.18 2.75
4 -2 8 38.02 2.64
-4 2 -8 33.34 2.66
-4 2 -8 34.29 1.63
4 -2 9 54.53 2.39
4 -2 9 52.64 3.5
-4 2 -9 47.9 3.56
-4 2 -9 44.16 3.12
4 -2 10 33.92 2.98
4 -2 10 30.76 2.86
-4 2 -10 26.66 1.97
-4 2 -10 30.07 2.61
4 -2 11 7.36 1.29
4 -2 11 8.53 2.04
-4 2 -11 5.8 2.18
-4 2 -11 6.43 1.82
4 -1 -12 10.6 1.1
4 -1 -12 9.57 2.04
-4 1 12 10.47 0.94
-4 1 12 15.28 2.37
4 -1 -11 112.64 4.64
4 -1 -11 105.44 6.64
-4 1 11 107.86 4.58
-4 1 11 120.03 7.67
4 -1 -10 47.44 1.47
4 -1 -10 43.87 3.18
-4 1 10 50.28 2.39
-4 1 10 49.86 2.46
4 -1 -9 0.77 0.5
4 -1 -9 1.39 1.04
-4 1 9 0.62 0.61
-4 1 9 -0.2 0.71
4 -1 -8 6.12 0.59
4 -1 -8 5.39 1.23
-4 1 8 6.13 0.42
-4 1 8 5.68 1.41
4 -1 -7 22.95 0.82
4 -1 -7 20.5 1.01
-4 1 7 23.76 1.09
-4 1 7 22.89 1.13
4 -1 -6 2.06 0.33
4 -1 -6 2.19 0.8
-4 1 6 2.62 0.33
-4 1 6 1.9 0.88
4 -1 -5 0.6 0.32
4 -1 -5 0.8 0.38
-4 1 5 0.62 0.3
-4 1 5 0.05 0.71
4 -1 -4 208.37 6.08
4 -1 -4 192.69 7.49
-4 1 4 208.59 6.38
-4 1 4 200.09 8.07
4 -1 -3 42.27 0.84
4 -1 -3 43.73 0.9
4 -1 -3 40.35 1.6
4 -1 -3 42.4 1.65
4 -1 -2 31.89 0.65
4 -1 -2 32.61 0.69
4 -1 -2 30.34 0.83
4 -1 -2 32.66 1.26
4 -1 -1 133.01 3.2
4 -1 -1 126.34 3.1
4 -1 -1 129.01 4.24
4 -1 -1 135.64 4.47
4 -1 0 1149.59 88.21
4 -1 0 1072.3 88.78
-4 1 0 1030.23 82.05
-4 1 0 1071.74 88.03
4 -1 1 1076.77 81.8
4 -1 1 1024.86 79.1
-4 1 -1 1000.82 79.88
-4 1 -1 996.75 79.9
4 -1 2 3.77 0.53
4 -1 2 5.46 0.67
-4 1 -2 3.37 0.55
-4 1 -2 3.41 0.67
4 -1 3 262.32 10.07
4 -1 3 262.66 9.46
-4 1 -3 239.39 8.97
-4 1 -3 248.14 10.09
4 -1 4 7.02 0.46
4 -1 4 7 0.74
-4 1 -4 5.44 0.45
-4 1 -4 6.12 0.69
4 -1 5 5.69 0.5
4 -1 5 6.21 0.48
-4 1 -5 4.13 0.8
-4 1 -5 5.17 0.73
4 -1 6 64.66 2.7
4 -1 6 62.34 1.91
-4 1 -6 54.47 2.58
-4 1 -6 55.48 2.34
4 -1 7 42.14 2.36
4 -1 7 42.39 2.23
-4 1 -7 34.84 2.28
-4 1 -7 34.61 1.99
4 -1 8 18.94 1.23
4 -1 8 18.92 1.16
-4 1 -8 16.25 1.97
-4 1 -8 15.64 1.06
4 -1 9 80.33 4.56
4 -1 9 74.59 3.04
-4 1 -9 67.77 4.46
-4 1 -9 67.52 3.84
4 -1 10 14.01 1.26
4 -1 10 12.55 1.86
-4 1 -10 10.35 2.07
-4 1 -10 11.06 1.68
4 -1 11 1.66 1.04
4 -1 11 0.54 1.56
-4 1 -11 2.68 1.05
-4 1 -11 3.1 1.38
4 -1 12 4.24 2.05
4 -1 12 2.95 1.74
-4 1 -12 3.75 1.23
-4 1 -12 3.4 1.59
4 0 -12 5.84 0.69
4 0 -12 7.39 1.84
-4 0 12 5.74 1.33
-4 0 12 7.14 2.19
4 0 -11 19.94 1.03
4 0 -11 20.2 2.46
-4 0 11 22.4 1.27
-4 0 11 24.84 2.89
4 0 -10 78.36 2.58
4 0 -10 70.05 4.43
-4 0 10 88.16 3.95
-4 0 10 82.2 5.16
4 0 -9 27.28 0.95
4 0 -9 26.38 2.07
-4 0 9 28.5 1.52
-4 0 9 27.61 2.41
4 0 -8 54.6 2.04
4 0 -8 49.4 2.77
-4 0 8 54.09 2.1
-4 0 8 55.46 2.2
4 0 -7 1.49 0.5
4 0 -7 -0.25 0.84
-4 0 7 0.71 0.49
-4 0 7 1.63 0.97
4 0 -6 39.24 1.23
4 0 -6 36.08 1.78
-4 0 6 41.58 1.31
-4 0 6 38.53 1.38
4 0 -5 1 0.34
4 0 -5 0.71 0.37
-4 0 5 0.31 0.34
-4 0 5 0.84 0.69
4 0 -4 143.41 4
4 0 -4 137.38 4.87
-4 0 4 146.03 4.13
-4 0 4 146.05 4.59
4 0 -3 835.22 53.93
4 0 -3 761.44 53.03
-4 0 3 845.87 54.58
-4 0 3 806.75 57.95
4 0 -2 55.41 1.19
4 0 -2 56.27 1.25
4 0 -2 54.42 1.33
4 0 -2 54.08 1.76
4 0 -1 424.44 18.05
4 0 -1 400.03 17.28
4 0 -1 420.8 19.53
4 0 -1 411.51 18.3
4 0 0 1054.61 79.19
4 0 0 1024.59 78.28
4 0 1 83.13 2.38
-4 0 -1 82.08 2.32
-4 0 -1 85.61 2.53
4 0 2 29.96 0.96
4 0 2 29.35 0.97
-4 0 -2 27.82 1
-4 0 -2 28.97 0.99
4 0 3 37.48 1.23
4 0 3 36.44 1.16
-4 0 -3 34.31 1.16
4 0 4 1.18 0.58
4 0 4 1.04 0.51
-4 0 -4 1.83 0.35
-4 0 -4 1.68 0.48
4 0 5 1.5 0.7
4 0 5 1.46 0.36
-4 0 -5 1.96 0.42
-4 0 -5 2.9 0.55
4 0 6 13.77 1.15
4 0 6 13.21 0.96
-4 0 -6 9.68 1.1
-4 0 -6 9.63 0.85
4 0 7 110.97 4.78
4 0 7 106.46 4.42
-4 0 -7 94.82 4.72
-4 0 -7 94.57 3.94
4 0 8 228.06 11.6
4 0 8 227.66 11.33
-4 0 -8 189.3 11.29
-4 0 -8 204.14 10.27
4 0 9 19.97 1.3
4 0 9 18.76 1.13
-4 0 -9 17.86 2.12
-4 0 -9 17.68 1.07
4 0 10 21.49 1.38
4 0 10 21.11 1.24
-4 0 -10 19.1 2.27
-4 0 -10 18.73 1.76
4 0 11 11.74 2.09
4 0 11 11.84 1.08
-4 0 -11 7.66 2.13
-4 0 -11 9.71 1.53
4 0 12 4.25 2.01
4 0 12 6.06 0.98
-4 0 -12 4.73 1.2
-4 0 -12 4.51 1.45
4 1 -12 1.76 1.08
4 1 -12 2.36 1.6
-4 -1 12 1.56 1.24
-4 -1 12 0.3 1.1
4 1 -11 3.94 1.08
4 1 -11 3.57 0.9
-4 -1 11 3.95 1.25
-4 -1 11 3.33 1.83
4 1 -10 51.73 2.5
4 1 -10 45.14 2.15
-4 -1 10 54.69 2.85
-4 -1 10 51.62 3.76
4 1 -9 78.02 3.37
4 1 -9 75.18 4.07
-4 -1 9 82.84 3.66
-4 -1 9 83.66 4.64
4 1 -8 52.41 2.19
4 1 -8 47.47 2.64
-4 -1 8 52.53 1.7
-4 -1 8 51.42 3.12
4 1 -7 40.36 1.67
4 1 -7 39.17 2.09
-4 -1 7 41.87 1.72
-4 -1 7 42.92 1.64
4 1 -6 108.45 3.65
4 1 -6 104.89 4.14
-4 -1 6 112.75 3.8
-4 -1 6 113.15 4.72
4 1 -5 0.83 0.43
4 1 -5 0.39 0.36
-4 -1 5 -0.14 0.45
-4 -1 5 1.61 0.42
4 1 -4 122.59 3.62
4 1 -4 117.31 4.05
-4 -1 4 127.51 3.83
-4 -1 4 122.15 3.68
4 1 -3 485.12 24.1
4 1 -3 464.99 22.93
-4 -1 3 510.86 24.37
-4 -1 3 487.11 26.22
4 1 -2 376.03 15.37
4 1 -2 382.86 16.94
-4 -1 2 394.18 16.88
-4 -1 2 383.61 17.58
4 1 -1 2.62 0.32
4 1 -1 1.81 0.18
4 1 -1 2.41 0.38
4 1 -1 1.94 0.23
4 1 0 47.5 1.14
4 1 0 42.47 0.88
4 1 0 44.24 0.88
4 1 0 46.09 1.14
4 1 1 26.72 0.57
4 1 1 28.61 0.73
-4 -1 -1 26.44 0.85
-4 -1 -1 26.53 0.74
4 1 2 15.2 0.64
-4 -1 -2 12.79 0.45
-4 -1 -2 13.02 0.52
4 1 3 16.43 0.8
4 1 3 15.42 0.42
-4 -1 -3 14.64 0.56
4 1 4 229.62 7.8
4 1 4 235.34 8.5
-4 -1 -4 216.85 9.02
-4 -1 -4 224.07 7.46
4 1 5 6.2 0.79
4 1 5 5.21 0.6
-4 -1 -5 4.11 0.8
-4 -1 -5 3.87 0.56
4 1 6 33.19 1.64
4 1 6 30.52 0.93
-4 -1 -6 29.13 1.13
-4 -1 -6 28.55 0.83
4 1 7 190.28 6.87
4 1 7 194.67 7.94
-4 -1 -7 169.57 8.19
-4 -1 -7 167.8 6
4 1 8 226.04 9.25
4 1 8 206.48 8.29
-4 -1 -8 195.19 10.76
-4 -1 -8 203.27 9.52
4 1 9 88.24 4.58
4 1 9 86.1 3.07
-4 -1 -9 75.53 4.5
-4 -1 -9 77.68 2.79
4 1 10 3.48 1.36
4 1 10 2.24 0.65
-4 -1 -10 2.64 1.38
-4 -1 -10 2.28 0.58
4 1 11 10.14 1.85
4 1 11 9.29 0.93
-4 -1 -11 9.1 1.89
-4 -1 -11 9.35 1.3
4 1 12 2.46 0.92
4 1 12 0.35 0.75
-4 -1 -12 0.72 1.62
-4 -1 -12 0.93 1.12
4 2 -12 48.72 3.19
4 2 -12 45.66 2.59
-4 -2 12 48.17 3.59
-4 -2 12 49.33 3.09
4 2 -11 1.65 1.18
4 2 -11 3.14 0.91
-4 -2 11 5.05 1.33
-4 -2 11 3.1 1.82
4 2 -10 35.01 2.26
4 2 -10 31.47 2.62
-4 -2 10 37.22 2.45
-4 -2 10 33.47 3.11
4 2 -9 117.51 5.25
4 2 -9 107.59 5.64
-4 -2 9 120.54 4.54
-4 -2 9 119.58 6.59
4 2 -8 17.38 0.85
4 2 -8 16.01 0.98
-4 -2 8 18.68 1.42
-4 -2 8 18.41 1.79
4 2 -7 229.89 10.08
4 2 -7 211.66 8.62
-4 -2 7 232.68 10.41
-4 -2 7 234.07 11.37
4 2 -6 127.66 3.99
4 2 -6 126.19 5.07
-4 -2 6 136.64 5.13
-4 -2 6 137.82 5.76
4 2 -5 32.37 1.22
4 2 -5 30.48 1.36
-4 -2 5 32.99 1.36
-4 -2 5 31.36 1.08
4 2 -4 10.87 0.45
4 2 -4 11.46 0.78
-4 -2 4 10.83 0.49
-4 -2 4 11.81 0.57
4 2 -3 51.96 1.56
4 2 -3 51.96 1.64
-4 -2 3 54.24 1.68
-4 -2 3 53.86 1.37
4 2 -2 116.58 3.41
4 2 -2 120.89 3.43
-4 -2 2 127.17 3.3
-4 -2 2 121.78 3.58
4 2 -1 26.22 0.79
4 2 -1 29.14 0.76
-4 -2 1 27.43 0.89
-4 -2 1 29.08 0.8
4 2 0 5.84 0.43
4 2 0 4.87 0.27
4 2 0 4.91 0.29
4 2 0 5.24 0.3
4 2 1 107.76 2.57
4 2 1 103.3 2.52
4 2 1 107.24 2.47
4 2 1 108.37 2.48
4 2 2 79.85 2.19
4 2 2 79.98 1.72
-4 -2 -2 74.32 2.27
-4 -2 -2 77.21 1.69
4 2 3 15.92 0.55
4 2 3 17.53 0.53
-4 -2 -3 15.35 0.93
-4 -2 -3 15.4 0.5
4 2 4 780.76 52.61
4 2 4 802.8 52.19
-4 -2 -4 725.3 52.12
-4 -2 -4 768.97 49.6
4 2 5 85.06 2.99
4 2 5 80.93 2.35
-4 -2 -5 75.52 3.06
-4 -2 -5 78.68 2.22
4 2 6 13.57 1.06
4 2 6 12.33 0.47
-4 -2 -6 11.3 1.09
-4 -2 -6 11.03 0.42
4 2 7 11.85 0.76
4 2 7 12.63 0.87
4 2 8 35.38 2.21
4 2 8 33.58 1.67
-4 -2 -8 29.74 2.21
-4 -2 -8 32.54 1.56
4 2 9 6.51 1.27
4 2 9 5.27 0.96
-4 -2 -9 4.49 1.27
-4 -2 -9 4.91 0.53
4 2 10 9.14 1.51
4 2 10 6.51 1.15
-4 -2 -10 5.15 1.53
-4 -2 -10 6.66 0.64
4 2 11 1.47 1.31
4 2 11 0.66 1.02
-4 -2 -11 0.35 1.38
-4 -2 -11 1.02 0.54
4 2 12 12.84 1.38
4 2 12 13.47 1.08
-4 -2 -12 12.01 2.25
-4 -2 -12 11.36 1
4 2 13 2.54 1.06
4 2 13 1 1.34
-4 -2 -13 2.53 1.78
-4 -2 -13 1.51 0.76
4 3 -11 0.48 0.76
4 3 -11 2.35 1.41
-4 -3 11 2.03 0.83
-4 -3 11 0.03 1
4 3 -10 45.84 2.99
4 3 -10 46.33 2.25
-4 -3 10 51.57 2.31
-4 -3 10 49.43 3.85
4 3 -9 87.81 4.38
4 3 -9 85.22 4.69
-4 -3 9 94.57 4.87
-4 -3 9 88.43 5.24
4 3 -8 70.13 3.37
4 3 -8 65.43 3.55
-4 -3 8 73.24 3.64
-4 -3 8 68.6 3.97
4 3 -7 10.15 0.71
4 3 -7 9.91 0.74
-4 -3 7 10.26 0.76
-4 -3 7 10.4 1.39
4 3 -6 75.12 2.97
4 3 -6 74.55 3.03
-4 -3 6 79.87 3.26
-4 -3 6 77.03 3.42
4 3 -5 147.36 5.48
4 3 -5 147.3 5.55
-4 -3 5 156.24 5.94
-4 -3 5 157.36 6.12
4 3 -4 43.81 1.63
4 3 -4 43.57 1.18
-4 -3 4 45.35 1.75
-4 -3 4 46.36 1.3
4 3 -3 0.72 0.5
4 3 -3 0.94 0.26
-4 -3 3 0.39 0.31
-4 -3 3 0.29 0.47
4 3 -2 129.02 3.58
4 3 -2 132.67 3.83
-4 -3 2 138.99 3.92
-4 -3 2 139.13 4.14
4 3 -1 6.08 0.53
4 3 -1 5.95 0.35
-4 -3 1 5.92 0.37
-4 -3 1 6.2 0.37
4 3 0 16.49 0.71
4 3 0 18.37 0.54
4 3 1 307.6 11.49
4 3 1 293.85 11.12
4 3 1 304.48 10.45
4 3 1 324.18 11.2
4 3 2 244.69 8.96
4 3 2 239.26 9.06
4 3 2 230.34 6.81
4 3 2 249 7.37
4 3 3 1.86 0.55
4 3 3 1.54 0.18
-4 -3 -3 0.89 0.62
-4 -3 -3 1.28 0.16
4 3 4 22.22 1.16
4 3 4 21.63 0.59
-4 -3 -4 19.74 1.29
-4 -3 -4 20.72 0.56
4 3 5 175.1 6.45
4 3 5 172.44 5.4
-4 -3 -5 165.14 6.73
-4 -3 -5 168.2 5.05
4 3 6 13.64 0.67
4 3 6 13.3 0.63
-4 -3 -6 12.43 1.13
-4 -3 -6 12.75 0.57
4 3 7 5.5 0.94
4 3 7 5.26 0.59
-4 -3 -7 4.34 1
-4 -3 -7 5.33 0.52
4 3 8 3.78 0.6
4 3 8 3.22 0.64
-4 -3 -8 2.47 0.63
-4 -3 -8 2.66 0.58
4 3 9 33.82 1.45
4 3 9 32.9 1.65
-4 -3 -9 28.53 1.51
-4 -3 -9 30.89 1.48
4 3 10 4.62 0.79
4 3 10 4.28 0.56
-4 -3 -10 3.01 1.38
-4 -3 -10 3.45 0.52
4 3 11 41.61 2.04
4 3 11 40.3 2.32
-4 -3 -11 33.47 3.11
-4 -3 -11 34.95 1.5
4 3 12 56.84 2.96
4 3 12 61.28 3.52
-4 -3 -12 52.9 4.51
-4 -3 -12 55.59 3.22
4 3 13 3.81 1.08
4 3 13 3.26 0.81
-4 -3 -13 4.65 1.87
-4 -3 -13 2.92 1.23
4 4 -11 2.89 1.48
4 4 -11 1.31 0.94
-4 -4 11 2.67 1.64
-4 -4 11 2.41 1.09
4 4 -10 0.56 1.27
4 4 -10 0.9 1.31
-4 -4 10 -1.09 1.4
-4 -4 10 -0.15 0.88
4 4 -9 12.13 1
4 4 -9 10.52 1.01
-4 -4 9 14.41 1.82
-4 -4 9 11.96 1.93
4 4 -8 171.69 7.2
4 4 -8 177.59 8.94
-4 -4 8 199.67 8.35
-4 -4 8 187.28 10.21
4 4 -7 56.31 2.82
4 4 -7 53.69 1.95
-4 -4 7 61.9 3.16
-4 -4 7 57.93 2.27
4 4 -6 6.04 0.58
4 4 -6 5.14 0.87
-4 -4 6 6.12 0.65
-4 -4 6 5.67 0.64
4 4 -5 46.92 2.01
4 4 -5 48.66 1.44
-4 -4 5 48.97 2.25
-4 -4 5 49.81 1.56
4 4 -4 151.07 5.75
4 4 -4 153.21 5.51
-4 -4 4 157.74 6.2
-4 -4 4 158.83 5.92
4 4 -3 32.12 1.42
4 4 -3 33.11 1.14
-4 -4 3 32.08 1.04
-4 -4 3 34.32 1.24
4 4 -2 332.71 15.01
4 4 -2 329.87 13.82
-4 -4 2 347.14 15.98
-4 -4 2 355.26 15.09
4 4 -1 81.78 2.68
-4 -4 1 89.58 2.98
-4 -4 1 90.08 2.25
4 4 0 25.21 0.7
4 4 0 25.67 0.52
-4 -4 0 27.4 1.15
-4 -4 0 28.7 0.67
4 4 1 41.82 1.45
4 4 1 41.99 0.67
4 4 2 733.29 46.66
4 4 2 696.17 45.05
4 4 3 244.48 8.67
4 4 3 253.91 10.37
4 4 4 45.04 1.23
4 4 4 43.31 0.83
-4 -4 -4 46.01 1.92
-4 -4 -4 45.7 0.82
4 4 5 8.12 0.83
4 4 5 7.59 0.4
-4 -4 -5 7.69 0.9
-4 -4 -5 7.41 0.28
4 4 6 116.92 4.3
4 4 6 115.09 3.49
-4 -4 -6 104.83 4.47
-4 -4 -6 113.78 3.09
4 4 7 2.96 0.5
4 4 7 2.34 0.42
-4 -4 -7 2.11 0.9
-4 -4 -7 2.41 0.4
4 4 8 52.77 2.53
4 4 8 51.25 1.8
-4 -4 -8 47.5 1.9
-4 -4 -8 49.46 1.71
4 4 9 86.58 4.41
4 4 9 88.17 3.31
-4 -4 -9 75.1 4.43
-4 -4 -9 78.39 3
4 4 10 4.64 0.74
4 4 10 3.01 0.83
-4 -4 -10 2.81 0.79
-4 -4 -10 2.69 0.75
4 4 11 42.43 2.08
4 4 11 42.06 2.34
-4 -4 -11 37.39 3.25
-4 -4 -11 41.02 2.34
4 4 12 16.19 1.48
4 4 12 17.35 1.06
-4 -4 -12 13.89 2.4
-4 -4 -12 17.13 1.68
4 4 13 1.54 0.96
4 4 13 3.28 1.13
-4 -4 -13 2.47 1.67
-4 -4 -13 3.4 1.1
4 5 -10 11.37 1.22
4 5 -10 9.98 1.15
-4 -5 10 12.73 1.39
-4 -5 10 12.33 1.36
4 5 -9 3.48 1.43
4 5 -9 4.26 1.35
-4 -5 9 3.47 1.64
-4 -5 9 5.61 1.62
4 5 -8 74.84 4.34
4 5 -8 74.64 2.96
-4 -5 8 87.41 4.98
-4 -5 8 81.7 4.8
4 5 -7 118.29 5.82
4 5 -7 116.24 4.26
-4 -5 7 131.31 5.24
-4 -5 7 128.67 5.08
4 5 -6 3.89 0.62
4 5 -6 4.26 0.85
-4 -5 6 5.34 1.21
-4 -5 6 4.55 0.65
4 5 -5 2.1 0.8
4 5 -5 1.21 0.63
-4 -5 5 0.39 0.54
-4 -5 5 1.56 0.77
4 5 -4 8.98 0.6
4 5 -4 7.35 0.7
-4 -5 4 7.47 0.67
-4 -5 4 9 0.86
4 5 -3 -0.34 0.42
4 5 -3 -0.22 0.43
-4 -5 3 -0.25 0.43
-4 -5 3 0.83 0.52
4 5 -2 18.21 0.75
4 5 -2 17.1 0.48
-4 -5 2 16.77 1.25
-4 -5 2 18.55 0.79
4 5 -1 186.72 6.39
4 5 -1 203.61 6.73
-4 -5 1 207.49 7.28
-4 -5 1 212.98 6.9
4 5 0 103.1 2.89
4 5 0 102.14 2.3
-4 -5 0 113.71 4.02
-4 -5 0 116.81 2.68
4 5 1 10.63 0.48
4 5 2 27.33 1.26
4 5 2 24.65 0.8
4 5 3 447.25 22.72
4 5 3 422.28 20.41
4 5 4 96.17 3.37
4 5 4 98.35 3.59
4 5 5 126.85 4.65
-4 -5 -5 130.21 3.05
4 5 6 208.82 7.54
4 5 6 209.98 6.84
-4 -5 -6 187.64 7.42
-4 -5 -6 208.72 6.51
4 5 7 1.43 0.8
4 5 7 0.64 0.32
-4 -5 -7 1.33 0.52
-4 -5 -7 0.83 0.44
4 5 8 78.91 2.7
4 5 8 75.06 2.42
-4 -5 -8 70.78 3.85
-4 -5 -8 74.97 2.52
4 5 9 119.05 5.56
4 5 9 108.67 4.08
-4 -5 -9 101.61 4.26
-4 -5 -9 110.4 4.2
4 5 10 22.4 1.28
4 5 10 22.73 1.25
-4 -5 -10 19.3 2.19
-4 -5 -10 22.89 1.31
4 5 11 3.58 0.91
4 5 11 4.58 0.9
-4 -5 -11 5.22 0.94
-4 -5 -11 3.61 0.97
4 5 12 4.22 0.88
4 5 12 2.34 0.56
-4 -5 -12 2.39 0.94
-4 -5 -12 2.67 1
4 5 13 0.1 0.85
4 5 13 0.2 0.91
-4 -5 -13 1.78 0.86
-4 -5 -13 0.53 0.56
4 6 -10 22.44 2.74
-4 -6 10 25.17 3.19
-4 -6 10 24.82 2.86
4 6 -9 1.2 1.34
4 6 -9 0.18 0.68
-4 -6 9 1.15 1.58
-4 -6 9 0.74 0.84
4 6 -8 1.53 1.31
4 6 -8 1.72 0.64
-4 -6 8 0.06 0.9
-4 -6 8 2.8 1.33
4 6 -7 23.64 2.12
4 6 -7 21.55 1.67
-4 -6 7 25.11 2.43
-4 -6 7 24 2.11
4 6 -6 3.77 0.76
4 6 -6 5.01 0.92
-4 -6 6 5.53 1.43
-4 -6 6 5.36 0.71
4 6 -5 5.74 1.12
4 6 -5 5.21 0.77
-4 -6 5 7.11 1.27
-4 -6 5 6.07 1
4 6 -4 27.96 1.16
4 6 -4 26.87 0.86
-4 -6 4 29.33 1.3
-4 -6 4 29.45 1.52
4 6 -3 178.6 7.87
4 6 -3 178.61 6.64
-4 -6 3 182.65 6.96
-4 -6 3 192.28 7.55
4 6 -2 30.19 1.16
4 6 -2 29.98 1.06
-4 -6 2 29.55 1.9
-4 -6 2 32.79 1.21
4 6 -1 148.29 4.99
4 6 -1 155.93 4.63
-4 -6 1 161.99 6.96
-4 -6 1 162.98 5.07
4 6 0 329.75 15.93
4 6 0 346.87 13.75
-4 -6 0 352.37 15.9
-4 -6 0 343.17 13.64
4 6 1 6.6 0.81
-4 -6 -1 7.41 0.53
-4 -6 -1 6.17 0.22
4 6 2 1.96 0.66
4 6 2 1.16 0.61
4 6 3 1.28 0.67
4 6 3 0.88 0.4
4 6 4 19.18 0.75
4 6 4 16.08 1.16
4 6 5 21.55 0.83
4 6 5 19.73 0.88
4 6 6 97.58 3.07
-4 -6 -6 96.98 2.37
4 6 7 1.38 0.88
4 6 7 2.04 0.26
-4 -6 -7 1.38 0.57
-4 -6 -7 1.28 0.31
4 6 8 0.14 0.53
4 6 8 0.44 0.45
-4 -6 -8 0.77 0.59
-4 -6 -8 0.47 0.39
4 6 9 -0.3 0.98
4 6 9 0.68 0.42
-4 -6 -9 1.07 1.04
-4 -6 -9 0.12 0.48
4 6 10 65.13 3.55
4 6 10 60.84 2.36
-4 -6 -10 54.44 2.56
-4 -6 -10 62 2.55
4 6 11 62.86 2.81
4 6 11 59.75 2.66
-4 -6 -11 57.25 4.04
-4 -6 -11 63.17 2.93
4 6 12 0.45 1.26
4 6 12 1.34 0.74
-4 -6 -12 0.22 1.33
-4 -6 -12 0.87 0.5
4 6 13 9.06 1.83
4 6 13 9.12 1.17
-4 -6 -13 6.91 1.14
-4 -6 -13 9.46 1.28
4 7 -9 13.54 2.25
4 7 -9 12.8 1.76
-4 -7 9 14.79 2.59
-4 -7 9 12.81 2.13
4 7 -8 4.01 1.68
4 7 -8 4.28 1.26
-4 -7 8 7.55 1.85
-4 -7 8 5.26 1.51
4 7 -7 12.24 1.84
4 7 -7 10.76 1.38
-4 -7 7 10.91 1.28
-4 -7 7 10.47 1.68
4 7 -6 77.91 3.2
4 7 -6 74.12 3.53
-4 -7 6 85.81 5.05
-4 -7 6 83 4.31
4 7 -5 6.81 0.81
4 7 -5 6.7 0.88
-4 -7 5 7.51 0.94
-4 -7 5 7.14 0.71
4 7 -4 51.12 2.74
4 7 -4 50.09 1.96
-4 -7 4 51.93 2.99
-4 -7 4 55.29 2.48
4 7 -3 190.3 7.44
4 7 -3 184.38 6.42
-4 -7 3 205.19 9.9
-4 -7 3 219.66 9.1
4 7 -2 4.86 1.04
4 7 -2 4.91 0.49
-4 -7 2 5.79 1.14
-4 -7 2 5.43 0.65
4 7 -1 54.53 1.79
4 7 -1 55.84 1.51
-4 -7 1 59.59 2.88
-4 -7 1 57.18 1.73
4 7 0 3.42 0.9
4 7 0 4.82 0.3
-4 -7 0 3.8 0.62
-4 -7 0 4.65 0.49
4 7 1 7.61 0.92
4 7 1 7.6 0.32
-4 -7 -1 7.77 1.03
4 7 2 0.67 0.43
4 7 2 0.08 0.39
4 7 3 7.43 0.93
4 7 3 6.12 0.86
4 7 4 1.17 0.8
4 7 4 0.87 0.47
4 7 5 38.04 1.37
4 7 5 36.01 2.11
4 7 6 61.92 2.02
4 7 6 63.59 3.07
4 7 7 54.79 2.64
4 7 7 49.33 2.72
4 7 8 105.08 3.75
-4 -7 -8 100.6 3.53
4 7 9 13.58 1.37
4 7 9 10.73 0.57
-4 -7 -9 9.83 0.91
-4 -7 -9 11.5 0.72
4 7 10 17.97 1.07
4 7 10 14.32 0.81
-4 -7 -10 16.1 1.82
-4 -7 -10 14.75 1.03
4 7 11 20.68 1.24
4 7 11 17.09 1.02
-4 -7 -11 18.29 1.3
-4 -7 -11 19.11 1.26
4 7 12 2.7 1.25
4 7 12 0.92 0.65
-4 -7 -12 1.47 1.32
-4 -7 -12 2.27 0.8
4 8 -8 4.31 1.85
4 8 -8 2.89 0.77
-4 -8 8 4.64 1.23
-4 -8 8 6.03 1.55
4 8 -7 87.36 5.69
4 8 -7 81.85 3.25
-4 -8 7 97.38 6.61
-4 -8 7 92.46 5.29
4 8 -6 126.33 7.41
4 8 -6 122.62 5.91
-4 -8 6 132.22 6.22
-4 -8 6 139.07 7.06
4 8 -5 31.71 1.68
4 8 -5 30.44 1.75
-4 -8 5 33.25 2.96
-4 -8 5 35.07 2.19
4 8 -4 9.62 0.94
4 8 -4 9.42 0.91
-4 -8 4 10.61 1.02
-4 -8 4 11.03 1.18
4 8 -3 -0.24 1
4 8 -3 0.35 0.31
-4 -8 3 -1.29 1.11
-4 -8 3 0.34 0.68
4 8 -2 43.07 1.67
4 8 -2 45.53 1.51
-4 -8 2 48.13 2.87
-4 -8 2 47.29 1.86
4 8 -1 23.51 1.61
4 8 -1 23.26 0.85
-4 -8 1 25.12 1.88
-4 -8 1 23.35 1.03
4 8 0 0.98 0.85
4 8 0 1.09 0.41
-4 -8 0 1.09 0.59
-4 -8 0 0.79 0.38
4 8 1 15.24 0.82
4 8 1 15.09 0.6
-4 -8 -1 17.43 1.5
-4 -8 -1 15.94 0.67
-4 -8 -2 13.16 0.38
-4 -8 -2 15.31 0.44
4 8 3 4.79 0.6
4 8 3 4.61 0.56
4 8 4 241.51 11.09
4 8 4 206.6 9.76
4 8 5 64.64 3.1
4 8 5 57.53 3.05
4 8 6 11.3 0.81
4 8 6 11.99 0.85
4 8 7 10.78 1.31
4 8 7 10.19 0.88
4 8 8 25.15 1.81
4 8 8 23.91 1.25
-4 -8 -8 22.86 1.01
4 8 9 2.33 0.99
4 8 9 3.51 1.05
-4 -8 -9 2.58 0.47
-4 -8 -9 1.77 0.35
4 8 10 0.77 0.61
-4 -8 -10 0.83 0.54
4 8 11 0.49 1.04
-4 -8 -11 0.85 0.61
4 8 12 0.36 1.38
-4 -8 -12 3.14 0.84
4 9 -7 9.61 2.3
-4 -9 7 11.24 1.58
-4 -9 7 10.74 1.17
4 9 -6 58.64 4.18
4 9 -6 52.19 2.08
-4 -9 6 60.03 4.8
-4 -9 6 55.42 3.62
4 9 -5 37.37 2.98
4 9 -5 34.55 2
-4 -9 5 35.29 2.15
-4 -9 5 38.24 2.42
4 9 -4 17.61 1.9
4 9 -4 15 0.77
-4 -9 4 16.72 2.12
-4 -9 4 15.99 1.44
4 9 -3 15.54 1.09
4 9 -3 14.94 0.67
-4 -9 3 15.08 1.22
-4 -9 3 15.83 1.23
4 9 -2 33.41 1.55
4 9 -2 34.96 1.38
-4 -9 2 36.2 1.79
-4 -9 2 33.8 1.7
4 9 -1 40.44 2.45
4 9 -1 40.04 1.37
-4 -9 1 43.28 1.98
-4 -9 1 38.8 1.66
4 9 0 36.95 2.28
4 9 0 37.56 1.23
-4 -9 0 40.09 1.84
-4 -9 0 37.43 1.41
4 9 1 231.33 9.79
4 9 1 215.63 9.48
-4 -9 -1 260.14 13.46
-4 -9 -1 235.95 8.92
4 9 2 65.4 3.03
-4 -9 -2 55.74 1.73
4 9 3 10.36 0.83
4 9 3 10.47 1.22
4 9 4 23.95 1.86
4 9 4 20.31 1.07
4 9 5 106.79 3.71
4 9 5 83.73 3.22
4 9 6 1.17 0.94
4 9 6 -0.17 0.89
4 9 7 5.89 0.66
4 9 7 5.64 1.16
4 9 8 11.33 1.26
4 9 8 9.3 1.34
4 9 9 1.8 0.62
4 9 9 2.32 0.67
4 9 10 1.88 1.08
4 9 10 1.61 1.16
4 9 11 13.1 1.6
4 9 11 9.52 1.71
4 10 -5 20.8 1.64
4 10 -5 21.68 1.64
-4 -10 5 24.23 2.9
-4 -10 5 22.1 2.03
4 10 -4 16.47 1.32
4 10 -4 15.9 1.25
-4 -10 4 15.49 1.47
-4 -10 4 16.44 1.04
4 10 -3 0.23 1.29
4 10 -3 1.12 0.68
-4 -10 3 1.61 1.49
-4 -10 3 2.34 0.88
4 10 -2 25.01 2.11
4 10 -2 21.67 1.18
-4 -10 2 21.19 2.44
-4 -10 2 22.42 1.47
4 10 -1 32.58 2.22
4 10 -1 27.61 1.22
-4 -10 1 33.42 2.67
-4 -10 1 28.04 1.54
4 10 0 3.7 0.76
4 10 0 4.33 0.57
-4 -10 0 0.73 1.58
-4 -10 0 3.92 0.67
4 10 1 87.23 3.22
4 10 1 74.5 2.61
-4 -10 -1 92.66 5.1
-4 -10 -1 76.2 3.32
4 10 2 110.6 4.97
-4 -10 -2 86.82 2.99
4 10 3 44.35 2.77
4 10 3 36.49 2.41
4 10 4 27.07 1.4
4 10 4 23.4 1.9
4 10 5 15.71 1.59
4 10 5 11.49 1.49
4 10 6 36.21 1.57
4 10 6 27.9 2.19
4 10 7 1.37 0.87
4 10 7 -1.41 0.92
4 10 8 11.13 0.87
4 10 8 9.14 1.44
4 10 9 30.98 2.47
4 10 10 4.33 0.73
4 10 10 3.64 0.8
4 11 -3 4.49 1.52
4 11 -3 3.13 0.81
-4 -11 3 1.2 1.07
-4 -11 3 1.01 1.1
4 11 -2 23.84 2.27
4 11 -2 17.88 1.23
-4 -11 2 22.54 1.7
-4 -11 2 20.46 1.68
4 11 -1 56.12 3.5
4 11 -1 48.09 2.31
-4 -11 1 57.76 4.16
-4 -11 1 47.38 2.72
4 11 0 36.5 1.76
-4 -11 0 36.25 3.31
-4 -11 0 34.64 1.92
4 11 1 0.51 0.68
4 11 1 1.4 0.42
-4 -11 -1 -0.04 1.39
-4 -11 -1 0.66 0.62
4 11 2 18.08 1.1
-4 -11 -2 15.38 1.2
4 11 3 48.22 2.07
4 11 3 38.33 2.68
4 11 4 19.1 1.19
4 11 4 15.72 1.64
4 11 5 5.63 1.28
4 11 5 3.41 1.2
4 11 6 26.41 1.4
4 11 6 21.62 1.96
4 11 7 1.4 1.05
4 11 7 0.68 1.06
4 11 8 28.94 2.12
4 11 8 24.07 1.4
4 11 9 13.88 1.63
4 11 9 11.54 1.05
4 12 -1 11.17 1.15
-4 -12 1 11.35 1.43
4 12 0 29.34 1.72
-4 -12 0 31.74 2.12
4 12 1 26.16 1.52
-4 -12 -1 30.66 1.86
4 12 2 0.33 0.75
4 12 2 0.6 0.65
4 12 3 19.49 1.28
4 12 3 13.1 1.08
4 12 4 0.01 0.72
4 12 4 0.09 0.6
4 12 5 14.53 1.78
4 12 5 10.49 0.97
4 12 6 20.55 1.35
4 12 6 17.26 1.19
4 12 7 7.45 1.37
4 12 7 2.62 1.33
5 -8 -6 1.36 0.83
5 -8 -6 0.26 1.53
5 -8 -5 1.02 0.77
5 -8 -5 -1.17 1.49
5 -8 -4 7.35 1.86
5 -8 -4 12.9 2.07
5 -8 -3 22.66 2.46
5 -8 -3 27.14 2.7
5 -8 -2 13.73 1.85
5 -8 -2 6.73 1.93
5 -8 -1 0.77 1.45
5 -8 0 8.83 1.92
-5 8 0 6.62 1.89
5 -8 1 17.01 2.49
-5 8 -1 13.31 2.42
5 -8 2 2.87 0.58
5 -8 2 2.82 1.07
-5 8 -2 2.85 0.81
5 -7 -8 6.62 1.69
5 -7 -8 5.05 1.9
5 -7 -7 2.55 1.52
5 -7 -7 6.19 1.69
5 -7 -6 0.21 1.26
5 -7 -6 -1.19 1.4
5 -7 -5 6.9 0.92
5 -7 -5 5.48 1.67
5 -7 -4 2.72 1.57
5 -7 -4 9.29 1.75
5 -7 -3 34.77 3.07
5 -7 -3 56.6 3.54
5 -7 -2 49.18 3.28
5 -7 -2 42.27 3.36
5 -7 -1 5.2 1.46
-5 7 1 1.19 0.78
5 -7 0 1.04 0.76
-5 7 0 0.13 0.37
-5 7 0 1.05 0.74
5 -7 1 0.67 0.47
5 -7 1 1.04 0.79
-5 7 -1 0.06 0.5
-5 7 -1 0.51 0.78
5 -7 2 10.02 0.95
5 -7 2 12.64 2.05
-5 7 -2 9.6 0.96
-5 7 -2 12.58 1.21
5 -7 3 2.94 0.86
5 -7 3 5.26 1.75
-5 7 -3 3.49 1.01
5 -7 4 4.68 1.08
5 -7 4 6.18 2.01
-5 7 -4 4.36 1.19
-5 7 -4 7.17 1.84
5 -7 5 1.44 1.08
5 -7 5 2.8 1.07
-5 7 -5 0.85 1.15
-5 7 -5 2.3 1.7
5 -6 -9 10.5 1.95
5 -6 -9 12.38 1.32
5 -6 -8 4.69 0.9
5 -6 -8 5.52 1.67
5 -6 -7 0.38 0.69
5 -6 -7 -1.64 1.31
5 -6 -6 11.51 1.71
5 -6 -6 10.99 1.13
5 -6 -5 34.16 2.63
5 -6 -5 35.77 1.92
5 -6 -4 1.3 0.72
5 -6 -4 1.02 0.76
5 -6 -3 3.16 1.44
5 -6 -3 11.77 1.65
5 -6 -2 14.01 1.79
5 -6 -2 18.91 1.94
5 -6 -1 52.61 3.21
-5 6 1 48.16 2.14
5 -6 0 27.05 1.49
-5 6 0 25.61 1.45
5 -6 1 0.66 0.45
5 -6 1 1.6 1.18
-5 6 -1 0.85 0.45
-5 6 -1 -1.99 1.2
5 -6 2 5.89 0.74
5 -6 2 7.79 1.56
-5 6 -2 5.49 0.7
-5 6 -2 5.68 1.5
5 -6 3 9.37 1
5 -6 3 9.16 1.1
-5 6 -3 7.34 0.97
-5 6 -3 9.11 1.73
5 -6 4 13.92 1.33
5 -6 4 15.52 2.17
-5 6 -4 11.81 0.89
-5 6 -4 14.31 1.25
5 -6 5 31.59 2.19
5 -6 5 34.56 3.17
-5 6 -5 28.76 1.89
5 -6 6 6.86 1.34
5 -6 6 7.71 1.2
-5 6 -6 5.63 0.91
-5 6 -6 6.04 1.86
5 -5 -10 1.96 1.47
5 -5 -10 2.47 0.94
5 -5 -9 -0 0.74
5 -5 -9 1.05 1.37
5 -5 -8 3.09 1.39
5 -5 -8 5.02 1.56
5 -5 -7 7.38 1.55
5 -5 -7 8.36 1.03
5 -5 -6 6.45 0.87
5 -5 -6 7.53 0.97
5 -5 -5 15.99 1.91
5 -5 -5 18.31 1.27
5 -5 -4 112.08 6.02
5 -5 -4 116.03 4.82
5 -5 -3 62.76 2.63
5 -5 -3 65.52 2.71
5 -5 -2 18.88 1.82
5 -5 -2 20.64 1.94
5 -5 -1 94.02 3.49
-5 5 1 90.64 3.43
5 -5 0 32.5 2.26
-5 5 0 34.8 2.38
5 -5 1 13.49 0.76
5 -5 1 14.92 1.62
-5 5 -1 13.77 1.64
5 -5 2 66.37 1.97
5 -5 2 69.78 2.74
-5 5 -2 65.61 3.86
5 -5 3 0.61 1.19
-5 5 -3 0.48 0.61
-5 5 -3 -2.12 1.13
5 -5 4 14.38 0.78
5 -5 4 13.64 1.19
-5 5 -4 10.14 1.26
-5 5 -4 12.93 1.77
5 -5 5 17.3 1.48
5 -5 5 17.84 2.18
-5 5 -5 14.24 1.57
-5 5 -5 17.27 2.03
5 -5 6 8.76 1.32
5 -5 6 8.93 1.9
-5 5 -6 7.11 1.42
-5 5 -6 8.17 1.03
5 -5 7 15.06 1.86
5 -5 7 18.45 1.49
-5 5 -7 13.86 1.94
-5 5 -7 13.29 2.25
5 -5 8 1.29 0.8
5 -5 8 1.35 1.03
-5 5 -8 0.03 1.41
-5 5 -8 0.2 0.94
5 -4 -11 4.65 0.98
5 -4 -10 7.46 1.01
5 -4 -10 7.1 1.11
5 -4 -9 -1.07 1.26
5 -4 -9 -0.16 1.35
5 -4 -8 53.56 3.8
5 -4 -8 61.5 2.83
5 -4 -7 66.69 2.82
5 -4 -7 73.69 4.54
5 -4 -6 24.7 1.35
5 -4 -6 27.29 2.23
5 -4 -5 3.96 1.18
5 -4 -5 2.73 1.28
5 -4 -4 120.26 4.64
5 -4 -4 130.46 6.3
5 -4 -3 56.74 3.15
5 -4 -3 61.9 2.31
5 -4 -2 0.92 0.55
5 -4 -2 1.69 0.96
5 -4 -1 24.99 0.49
-5 4 1 22.79 0.56
5 -4 0 2.82 0.34
5 -4 0 2.79 0.98
-5 4 0 1.98 0.32
-5 4 0 3.38 0.6
5 -4 1 1.37 0.43
5 -4 1 1.72 0.57
-5 4 -1 0.86 0.4
-5 4 -1 1.42 0.96
5 -4 2 26.11 1.11
5 -4 2 27.62 1.91
-5 4 -2 22.38 1.08
-5 4 -2 24.35 1.23
5 -4 3 40.27 1.26
5 -4 3 41.88 1.75
-5 4 -3 34.69 1.68
-5 4 -3 39.17 1.71
5 -4 4 15.75 1.24
5 -4 4 15.52 1.82
-5 4 -4 14.2 1.09
5 -4 5 2.44 0.93
5 -4 5 2.88 0.78
-5 4 -5 0.62 0.95
-5 4 -5 2.06 0.71
5 -4 6 4 0.69
5 -4 6 4.86 1.45
-5 4 -6 3.12 1.15
-5 4 -6 3.96 1.34
5 -4 7 15.52 1.1
5 -4 7 16.01 1.31
-5 4 -7 12.09 1.76
-5 4 -7 14.09 1.92
5 -4 8 13.17 1.75
5 -4 8 10.16 1.22
-5 4 -8 8.29 1.11
-5 4 -8 8.58 1.13
5 -4 9 5.13 1.67
5 -4 9 4.16 1.84
-5 4 -9 3.97 1.02
-5 4 -9 3.59 1.72
5 -3 -11 10.34 1.19
-5 3 11 10.89 2.28
5 -3 -10 34.32 1.91
-5 3 10 33.94 3.27
5 -3 -9 0.19 1.27
-5 3 9 2.31 0.88
5 -3 -8 89.44 5.07
5 -3 -7 148.2 6.09
5 -3 -7 149.49 8.14
5 -3 -6 3.94 1.13
5 -3 -6 3.8 0.74
5 -3 -5 3.59 0.63
5 -3 -5 4.91 0.66
5 -3 -4 0.78 0.9
5 -3 -4 1.88 0.95
5 -3 -3 0.9 0.49
5 -3 -3 2.09 0.88
5 -3 -2 0.69 0.75
5 -3 -2 -0.14 0.79
5 -3 -1 0.17 0.23
5 -3 -1 0.37 0.13
5 -3 -1 0.25 0.45
5 -3 0 68.53 1.71
5 -3 0 70.8 3.03
-5 3 0 63.49 1.64
-5 3 0 64.71 2.2
5 -3 1 91.27 2.74
5 -3 1 92.38 3.9
-5 3 -1 84.9 2.63
-5 3 -1 90.33 3.95
5 -3 2 2.36 0.54
5 -3 2 2.31 0.55
-5 3 -2 1.41 0.53
-5 3 -2 1.94 0.56
5 -3 3 113.86 4.12
5 -3 3 110.54 3.84
-5 3 -3 93.33 3.87
-5 3 -3 103.78 5.01
5 -3 4 222.39 10.11
5 -3 4 222.82 11.09
-5 3 -4 201.36 10.71
5 -3 5 44.51 2.3
5 -3 5 43.69 1.85
-5 3 -5 41.54 2.6
5 -3 6 18.33 1
5 -3 6 17.72 1.79
-5 3 -6 14.72 1.52
-5 3 -6 15.58 1.66
5 -3 7 6.63 1.31
5 -3 7 6.98 0.87
-5 3 -7 3.15 1.28
-5 3 -7 5.69 0.8
5 -3 8 -1.49 1.21
5 -3 8 1.61 1.28
-5 3 -8 -1.01 1.2
5 -3 9 -0.18 0.81
5 -3 9 -0.4 1.38
-5 3 -9 0.62 1.33
-5 3 -9 0.08 0.78
5 -3 10 4.59 1.82
5 -3 10 3.41 1.84
-5 3 -10 3.05 1.79
-5 3 -10 3.17 1.02
5 -2 -11 5.55 1.04
-5 2 11 5.93 2.08
5 -2 -10 38.06 3.17
-5 2 10 46.87 3.74
5 -2 -9 10.8 0.63
5 -2 -9 12.83 1.66
-5 2 9 13.76 1.2
5 -2 -8 13.38 0.45
5 -2 -8 14.43 1.65
-5 2 8 14.53 1.97
5 -2 -7 62.67 1.34
5 -2 -7 61.55 2.47
-5 2 7 67.8 2.8
5 -2 -6 24.55 1.72
5 -2 -5 14.99 1.3
5 -2 -5 16.39 1.36
5 -2 -4 7.14 1
5 -2 -4 8.2 0.66
5 -2 -3 78.07 2.41
5 -2 -3 80.94 3.33
5 -2 -2 4.61 0.51
5 -2 -2 5.48 0.53
5 -2 -1 37.08 0.91
5 -2 -1 35.25 0.85
5 -2 -1 38.28 1.7
5 -2 -1 39.82 1.74
5 -2 0 94.59 2.47
5 -2 0 98.55 3.72
-5 2 0 87.16 2.35
-5 2 0 95.14 3.74
5 -2 1 101.1 2.95
5 -2 1 102.6 3.94
-5 2 -1 97.2 2.97
-5 2 -1 99.93 4.03
5 -2 2 45.57 1.5
5 -2 2 45.19 2.02
-5 2 -2 41.22 1.16
-5 2 -2 44.16 1.48
5 -2 3 14.88 0.92
5 -2 3 14.66 1.22
-5 2 -3 11.87 0.9
-5 2 -3 11.92 1.18
5 -2 4 66.04 2.61
5 -2 4 66.55 2.88
-5 2 -4 57.39 2.01
5 -2 5 13.76 1.19
5 -2 5 14.1 0.84
-5 2 -5 9.78 1.17
-5 2 -5 11.96 0.8
5 -2 6 4.21 0.99
5 -2 6 3.24 1.07
-5 2 -6 3.13 0.59
5 -2 7 4.04 1.13
5 -2 7 1.58 0.67
-5 2 -7 2.4 0.65
-5 2 -7 1.72 1.05
5 -2 8 12.78 1.7
5 -2 8 12.29 1.65
-5 2 -8 7.85 1.01
-5 2 -8 9.24 0.93
5 -2 9 11.06 1.85
5 -2 9 8.93 1.81
-5 2 -9 6.87 1.11
-5 2 -9 8.25 1.63
5 -2 10 12.52 2.32
5 -2 10 14.09 1.33
-5 2 -10 12.79 2.27
-5 2 -10 10 1.27
5 -1 -11 2.45 0.88
-5 1 11 0.93 0.49
-5 1 11 2.64 1.07
5 -1 -10 2.24 0.58
5 -1 -10 1.44 0.82
-5 1 10 1.62 0.69
-5 1 10 0.4 1.66
5 -1 -9 7.83 0.61
5 -1 -9 7.96 1.43
-5 1 9 6.98 0.69
-5 1 9 7.47 1.69
5 -1 -8 4.83 0.48
5 -1 -8 4.63 1.22
-5 1 8 4.17 0.52
-5 1 8 4.2 0.84
5 -1 -7 14.03 0.57
5 -1 -7 13.56 1.44
-5 1 7 12.18 0.6
-5 1 7 15.63 1.64
5 -1 -6 60.8 1.51
5 -1 -6 55.17 1.95
-5 1 6 59.79 3.1
5 -1 -5 37.79 0.85
5 -1 -5 35.72 1.83
-5 1 5 35.34 0.82
5 -1 -4 9.19 0.35
5 -1 -4 10.49 0.41
5 -1 -4 9.21 0.61
5 -1 -4 10.93 1.03
5 -1 -3 191.92 5.72
5 -1 -3 194.59 5.9
5 -1 -3 192.89 7.85
5 -1 -3 197.16 7.07
5 -1 -2 124.47 3.28
5 -1 -2 122.39 4.51
5 -1 -2 126.45 4.79
5 -1 -1 19.46 0.55
5 -1 -1 19.75 1.09
5 -1 -1 19.05 1.14
5 -1 0 104.38 2.8
5 -1 0 100.58 3.67
5 -1 1 128.94 3.78
5 -1 1 117.88 3.51
-5 1 -1 110.39 3.55
-5 1 -1 117.07 4.33
5 -1 2 173.01 5.85
5 -1 2 164.97 6.18
-5 1 -2 154.37 5.75
-5 1 -2 161.35 6.41
5 -1 3 4.18 0.73
-5 1 -3 3.21 0.64
-5 1 -3 2.97 0.74
5 -1 4 17.6 0.7
5 -1 4 17.08 1.1
-5 1 -4 14.31 1.05
-5 1 -4 14.08 0.69
5 -1 5 4.39 0.86
5 -1 5 4.17 0.85
-5 1 -5 3.51 0.84
-5 1 -5 3.53 0.8
5 -1 6 10.47 1.18
5 -1 6 10.26 0.72
-5 1 -6 9.11 0.74
-5 1 -6 8.14 1.05
5 -1 7 31.94 1.43
5 -1 7 32.71 2.1
-5 1 -7 26.05 1.45
-5 1 -7 27.67 1.28
5 -1 8 60.74 3.56
5 -1 8 55.26 2.29
-5 1 -8 44.64 3.39
-5 1 -8 48.46 2.98
5 -1 9 5.73 1.65
5 -1 9 5.01 1.48
-5 1 -9 5.73 1.62
-5 1 -9 6.04 1.32
5 -1 10 16.31 1.39
5 -1 10 16.06 2.01
-5 1 -10 12.82 1.41
-5 1 -10 12.38 1.87
5 -1 11 32.66 3.27
5 -1 11 29.17 2.87
-5 1 -11 25.28 2.16
-5 1 -11 23.82 2.66
5 0 -11 18.49 0.89
5 0 -11 17.84 1.46
-5 0 11 19.96 1.7
-5 0 11 18.38 1.7
5 0 -10 8.13 0.89
5 0 -10 7.98 0.98
-5 0 10 8.77 0.7
-5 0 10 8.76 1.94
5 0 -9 28.06 1.29
5 0 -9 24.06 1.37
-5 0 9 28.7 1.55
-5 0 9 27.79 2.56
5 0 -8 95.91 3.29
5 0 -8 84.65 3.32
-5 0 8 96.47 3.61
-5 0 8 93.6 5.18
5 0 -7 3.29 0.33
5 0 -7 2.71 0.62
-5 0 7 4.28 0.58
-5 0 7 4.04 1.19
5 0 -6 94.63 2.82
5 0 -6 85.05 3.78
-5 0 6 88.13 2.76
-5 0 6 92.07 3.3
5 0 -5 83.62 2.26
5 0 -5 77.18 3.14
-5 0 5 76.82 2.36
-5 0 5 84.23 3.59
5 0 -4 4.21 0.48
5 0 -4 3.44 0.76
-5 0 4 3.49 0.36
-5 0 4 4.09 0.5
5 0 -3 5.44 0.35
5 0 -3 5.7 0.38
5 0 -3 5.17 0.47
5 0 -3 4.09 0.79
5 0 -2 94.58 2.3
5 0 -2 87.24 2.21
5 0 -2 91.23 2.5
5 0 -2 93.48 3.18
5 0 -1 6.82 0.39
5 0 -1 6.8 0.37
5 0 -1 7.07 0.66
5 0 -1 7.56 0.7
5 0 0 12.31 0.56
5 0 0 10.94 0.35
5 0 0 11.8 0.75
5 0 0 12.22 0.76
5 0 1 52.34 1.47
5 0 1 55.68 1.67
-5 0 -1 46.51 1.5
-5 0 -1 47.8 1.3
5 0 2 87.23 2.13
5 0 2 82.9 2.17
-5 0 -2 80.39 2.7
-5 0 -2 81.05 2.7
5 0 3 31.08 1.26
5 0 3 33.66 1.29
-5 0 -3 28.27 1.32
-5 0 -3 29.8 1.29
5 0 4 151.73 5.57
5 0 4 148.82 5.35
-5 0 -4 131.72 5.48
-5 0 -4 132.04 4.34
5 0 5 100.83 3.8
5 0 5 96.29 3.6
-5 0 -5 80.69 3.57
-5 0 -5 85.83 3.35
5 0 6 29.47 1.68
5 0 6 27.71 1.53
-5 0 -6 23.61 1.7
-5 0 -6 22.92 1.42
5 0 7 21.09 1.79
5 0 7 20.81 1.55
-5 0 -7 15.28 1.09
-5 0 -7 16.35 1.35
5 0 8 137.96 5.48
5 0 8 138.96 6.81
-5 0 -8 111.04 7.01
-5 0 -8 119.27 6.1
5 0 9 0.74 0.73
5 0 9 -0.46 0.62
-5 0 -9 0.12 1.27
-5 0 -9 1.25 0.56
5 0 10 2.9 1.42
5 0 10 1.79 0.71
-5 0 -10 1.61 1.46
-5 0 -10 1.06 1.07
5 0 11 1.56 1.55
5 0 11 0.17 1.26
-5 0 -11 0.3 1.61
-5 0 -11 0.84 1.13
5 1 -11 10.24 1.23
5 1 -11 9.52 1.14
-5 -1 11 9.82 1.53
-5 -1 11 8.63 2.29
5 1 -10 0.99 0.82
5 1 -10 1.04 1.26
-5 -1 10 1.63 0.97
-5 -1 10 0.3 1.51
5 1 -9 19.21 0.86
5 1 -9 18.76 1.88
-5 -1 9 22.14 1.52
-5 -1 9 22.22 2.24
5 1 -8 81.81 3.14
5 1 -8 76.57 3.93
-5 -1 8 80.11 3.3
-5 -1 8 78.79 4.41
5 1 -7 1.49 0.6
5 1 -7 0.36 0.9
-5 -1 7 -0.44 0.6
-5 -1 7 0.49 0.61
5 1 -6 48.84 1.68
5 1 -6 44.8 2.23
-5 -1 6 46.58 1.72
-5 -1 6 47.43 2.55
5 1 -5 92.28 2.84
5 1 -5 86.76 2.71
-5 -1 5 94.66 2.98
-5 -1 5 94.53 3.98
5 1 -4 190.11 6.76
5 1 -4 185.92 7.7
-5 -1 4 201.36 6.56
-5 -1 4 195.43 8.44
5 1 -3 325.45 13.72
5 1 -3 305.12 12.78
-5 -1 3 330.88 14.03
-5 -1 3 325.86 15.49
5 1 -2 57.91 1.25
5 1 -2 54.8 1.49
5 1 -2 54.42 1.41
5 1 -2 57.47 1.93
5 1 -1 195.34 6.24
5 1 -1 183.39 5.77
5 1 -1 184.98 5.86
5 1 0 0.2 0.21
5 1 0 0.64 0.36
5 1 0 0.39 0.39
5 1 0 0.78 0.4
5 1 1 24.76 0.87
5 1 1 23.96 0.85
5 1 2 28.76 0.73
5 1 2 29.26 0.7
-5 -1 -2 29.67 1.16
-5 -1 -2 27.76 0.99
5 1 3 63.06 2.04
5 1 3 59.34 1.42
-5 -1 -3 56.94 2.16
-5 -1 -3 59.88 1.87
5 1 4 7.6 0.51
5 1 4 7.56 0.67
-5 -1 -4 5.91 0.56
-5 -1 -4 6.32 0.4
5 1 5 231.37 9.7
5 1 5 229.52 9.11
-5 -1 -5 192.1 7.79
-5 -1 -5 203.71 8.39
5 1 6 1.41 0.89
5 1 6 2.12 0.67
-5 -1 -6 1.04 0.88
-5 -1 -6 1.86 0.6
5 1 7 -0.02 0.99
5 1 7 1.5 0.75
-5 -1 -7 0.69 0.58
-5 -1 -7 0.79 0.66
5 1 8 0.18 1.22
5 1 8 0 0.87
-5 -1 -8 -0.4 1.2
-5 -1 -8 -0.58 0.46
5 1 9 36.27 2.65
5 1 9 33.53 1.45
-5 -1 -9 31.96 2.7
-5 -1 -9 30.14 1.94
5 1 10 2.82 1.36
5 1 10 2.11 0.64
-5 -1 -10 -2.73 1.5
-5 -1 -10 1.23 0.58
5 1 11 2.6 0.95
5 1 11 4.22 1.24
-5 -1 -11 3.6 1.67
-5 -1 -11 1.5 1.11
5 1 12 5.75 1.2
5 1 12 6.35 0.92
-5 -1 -12 3.83 2.05
-5 -1 -12 5.35 1.37
5 2 -11 0.17 1.05
5 2 -11 -0.3 1.45
-5 -2 11 0.99 1.22
-5 -2 11 2.45 1.66
5 2 -10 1.61 0.99
5 2 -10 1.72 1.39
-5 -2 10 2.83 1.14
-5 -2 10 2.78 1.58
5 2 -9 3.26 0.56
5 2 -9 2.76 0.75
-5 -2 9 2.01 0.62
-5 -2 9 3.76 1.43
5 2 -8 29.81 1.64
5 2 -8 26.5 1.32
-5 -2 8 28.49 1.73
-5 -2 8 28.95 2.33
5 2 -7 24.1 0.95
5 2 -7 22.51 1.13
-5 -2 7 23.84 1.5
-5 -2 7 24.81 1.99
5 2 -6 66.62 2.49
5 2 -6 62.08 2.85
-5 -2 6 70.05 2.71
-5 -2 6 67.62 2.42
5 2 -5 44.57 1.59
5 2 -5 41.26 1.35
-5 -2 5 42.42 1.73
-5 -2 5 43.23 2.1
5 2 -4 342.99 16
5 2 -4 339.41 15.22
-5 -2 4 372.11 17.56
-5 -2 4 366.22 18.39
5 2 -3 64.91 2.03
5 2 -3 63.27 2.15
-5 -2 3 66.21 2.25
-5 -2 3 65.65 1.87
5 2 -2 1.06 0.42
5 2 -2 0.71 0.45
-5 -2 2 -0.13 0.44
-5 -2 2 1.35 0.47
5 2 -1 222.45 7.05
5 2 -1 195.24 6.33
5 2 -1 212.33 7.35
5 2 -1 218.76 7.6
5 2 0 3.75 0.49
5 2 0 3.46 0.29
5 2 0 3 0.38
5 2 0 4.14 0.39
5 2 1 181.22 6.03
5 2 1 166.84 5.82
5 2 1 173.76 5.33
5 2 1 182.17 5.63
5 2 2 101.08 3.09
5 2 2 98.04 2.56
-5 -2 -2 93.35 2.45
5 2 3 1.78 0.57
5 2 3 1.84 0.35
-5 -2 -3 1.08 0.33
5 2 4 194.18 6.5
5 2 4 205.07 6.92
-5 -2 -4 176.99 6.56
-5 -2 -4 168.91 6.63
5 2 5 45.07 2.02
5 2 5 40.63 1.42
-5 -2 -5 37.62 2.1
-5 -2 -5 39.43 1.41
5 2 6 23.49 1.47
5 2 6 21.25 1
-5 -2 -6 18.47 0.98
-5 -2 -6 18.77 0.93
5 2 7 13.29 0.94
-5 -2 -7 12.08 1.42
-5 -2 -7 10.58 0.81
5 2 8 72.17 2.56
5 2 8 68.44 2.81
-5 -2 -8 60.26 2.57
-5 -2 -8 60.2 2.52
5 2 9 2.95 0.73
5 2 9 2.12 0.88
-5 -2 -9 3.26 1.34
-5 -2 -9 1.58 0.77
5 2 10 90.48 3.87
5 2 10 87.09 4.25
-5 -2 -10 78.16 5.25
-5 -2 -10 81.98 4.01
5 2 11 3.03 0.91
5 2 11 1.82 1.11
-5 -2 -11 0.75 1.61
-5 -2 -11 1.94 1.02
5 2 12 30.05 3.13
5 2 12 25.87 2.27
-5 -2 -12 22.54 3.1
-5 -2 -12 22.63 1.35
5 3 -11 15.33 1.86
5 3 -11 13.1 2.23
-5 -3 11 14.3 1.32
-5 -3 11 14.57 2.61
5 3 -10 23.79 2.03
5 3 -10 23.38 1.56
-5 -3 10 21.44 1.49
-5 -3 10 24.02 2.76
5 3 -9 6.45 1.2
5 3 -9 4.55 1.4
-5 -3 9 6.76 1.34
-5 -3 9 5.42 1.61
5 3 -8 68.37 3.26
5 3 -8 61.81 3.51
-5 -3 8 68.26 3.51
-5 -3 8 66.14 3.96
5 3 -7 70.28 3.09
5 3 -7 66.63 2.43
-5 -3 7 72.59 3.35
-5 -3 7 72.26 3.82
5 3 -6 2.31 0.77
5 3 -6 3.09 0.83
-5 -3 6 2.15 0.5
-5 -3 6 1.41 0.95
5 3 -5 44.15 1.31
5 3 -5 43.76 1.87
-5 -3 5 46.65 1.48
-5 -3 5 47.02 2.17
5 3 -4 24.55 0.8
5 3 -4 24.12 1.16
-5 -3 4 23.43 0.87
-5 -3 4 24.68 0.9
5 3 -3 2.45 0.56
5 3 -3 1.76 0.49
-5 -3 3 1.32 0.63
-5 -3 3 2.06 0.34
5 3 -2 0.18 0.49
5 3 -2 1.32 0.39
-5 -3 2 0.73 0.55
-5 -3 2 0.63 0.42
5 3 -1 9.11 0.41
5 3 -1 10.24 0.49
5 3 0 70.82 2.17
5 3 0 61.72 1.97
5 3 0 68.51 1.66
5 3 0 69.56 1.65
5 3 1 85.78 2.72
5 3 1 79.25 2.13
5 3 1 82.2 1.94
5 3 1 88.41 2.08
5 3 2 3.03 0.62
5 3 2 2.86 0.4
5 3 2 2.65 0.24
5 3 2 2.64 0.33
5 3 3 142.14 4.89
-5 -3 -3 127.52 4.17
-5 -3 -3 129.16 3.7
5 3 4 263.85 10.02
5 3 4 260.4 9.57
-5 -3 -4 248.8 11.88
-5 -3 -4 256.42 9.13
5 3 5 147.96 5.79
5 3 5 147.9 4.66
-5 -3 -5 130.5 6
-5 -3 -5 143.09 4.36
5 3 6 23.76 0.94
-5 -3 -6 22.3 1.64
-5 -3 -6 21.96 0.89
5 3 7 40.01 1.99
5 3 7 32.67 0.95
-5 -3 -7 33.24 2.12
-5 -3 -7 32.17 1.19
5 3 8 -0.35 1
5 3 8 -0.24 0.57
-5 -3 -8 0.86 0.6
-5 -3 -8 0.62 0.49
5 3 9 7.92 1.46
5 3 9 7.24 0.55
-5 -3 -9 6.79 1.48
-5 -3 -9 4.95 0.78
5 3 10 25.15 1.5
5 3 10 23.3 1.06
-5 -3 -10 25.39 2.52
-5 -3 -10 23.97 1.6
5 3 11 20.83 1.6
5 3 11 21.41 1.68
-5 -3 -11 19.19 2.69
-5 -3 -11 17.69 1.71
5 3 12 4.22 1.92
5 3 12 2.9 1.21
-5 -3 -12 5.49 2.01
-5 -3 -12 2.19 1.15
5 4 -10 61.95 2.89
5 4 -10 63.93 4.39
-5 -4 10 75.82 4.79
-5 -4 10 67.2 5.07
5 4 -9 36.59 2.57
5 4 -9 36.64 1.81
-5 -4 9 41.6 3.01
-5 -4 9 39.75 3.11
5 4 -8 11.88 1.46
5 4 -8 11.21 1.57
-5 -4 8 12.29 1.64
-5 -4 8 12.25 1.76
5 4 -7 63.11 2.28
5 4 -7 61.46 2.32
-5 -4 7 69.54 3.52
-5 -4 7 64.32 3.59
5 4 -6 0.64 0.79
5 4 -6 0.96 0.77
-5 -4 6 0.98 0.53
-5 -4 6 1.9 0.9
5 4 -5 -0.37 0.69
5 4 -5 -0.43 0.63
-5 -4 5 0.26 0.74
-5 -4 5 0.09 0.71
5 4 -4 74.53 2.19
5 4 -4 74.97 2.13
-5 -4 4 77.92 3.15
-5 -4 4 81.59 3.02
5 4 -3 48.31 1.44
5 4 -3 49.89 1.68
-5 -4 3 52.64 1.66
-5 -4 3 54.24 1.92
5 4 -2 68.92 1.94
5 4 -2 73.37 2.13
-5 -4 2 74.68 2.92
-5 -4 2 75.47 2.28
5 4 -1 4.33 0.65
5 4 -1 4.3 0.36
-5 -4 1 4.56 0.45
-5 -4 1 4.49 0.39
5 4 0 139.33 4.01
5 4 0 126.72 4.42
5 4 0 120.71 3.17
5 4 0 135.46 3.74
5 4 1 357.29 15.14
5 4 1 340.88 16.06
5 4 1 344.74 13.39
5 4 1 349.04 13.09
5 4 2 110.97 3.98
5 4 2 107.54 4.03
5 4 3 225.76 9.25
5 4 3 219.25 9.33
5 4 4 128.32 4.6
5 4 4 114.52 2.9
5 4 5 1.58 0.43
5 4 5 1.13 0.23
-5 -4 -5 0.49 0.48
5 4 6 3.95 0.92
5 4 6 3.94 0.37
-5 -4 -6 4.52 0.62
-5 -4 -6 4.04 0.35
5 4 7 1.04 0.52
5 4 7 1.04 0.39
-5 -4 -7 0.72 0.57
-5 -4 -7 1.21 0.38
5 4 8 4.86 1.12
5 4 8 2.97 0.56
-5 -4 -8 1.52 1.24
-5 -4 -8 3.1 0.55
5 4 9 1.77 1.14
5 4 9 0.33 0.58
-5 -4 -9 -0.51 0.74
-5 -4 -9 0.31 0.56
5 4 10 3.59 1.42
5 4 10 3.67 0.47
-5 -4 -10 2.87 1.49
-5 -4 -10 3.18 0.82
5 4 11 18.16 2.37
5 4 11 19.2 1.45
-5 -4 -11 17.19 2.48
-5 -4 -11 15.77 0.98
5 4 12 35.35 3.54
5 4 12 32.79 2.19
-5 -4 -12 30.73 3.5
-5 -4 -12 31.49 1.56
5 5 -10 28.82 2.73
5 5 -10 28.13 1.74
-5 -5 10 30.19 3.13
-5 -5 10 29.58 2.06
5 5 -9 58.2 3.72
5 5 -9 55.08 3.56
-5 -5 9 64.18 4.26
-5 -5 9 57.22 4.14
5 5 -8 65.76 2.77
5 5 -8 68.11 2.72
-5 -5 8 75.11 3.24
-5 -5 8 74.14 4.4
5 5 -7 -0.23 1
5 5 -7 0.72 0.89
-5 -5 7 -0.67 1.14
-5 -5 7 -0.34 1.07
5 5 -6 165.93 7.97
5 5 -6 174.4 7.84
-5 -5 6 184.96 7.6
-5 -5 6 183.78 8.86
5 5 -5 1.17 0.8
5 5 -5 -0.02 0.37
-5 -5 5 0.46 0.89
-5 -5 5 1.34 0.74
5 5 -4 13.25 0.73
5 5 -4 12.03 0.86
-5 -5 4 11.72 1.27
-5 -5 4 13.18 0.65
5 5 -3 109.51 4.5
5 5 -3 111.97 3.76
-5 -5 3 121.55 5.22
-5 -5 3 122.34 4.33
5 5 -2 412.69 22.79
5 5 -2 418.94 20.73
-5 -5 2 443.17 23.23
-5 -5 2 455.58 23.26
5 5 -1 33.13 1.62
5 5 -1 33.35 1.13
-5 -5 1 37.51 1.97
-5 -5 1 36.42 1.03
5 5 0 99.86 3.7
5 5 0 106.32 2.68
-5 -5 0 105.52 3.34
-5 -5 0 110.88 2.88
5 5 1 18.82 1.13
5 5 1 15.32 0.66
5 5 2 16.53 1.06
5 5 2 14.07 0.67
5 5 3 4.28 0.8
5 5 3 2.39 0.81
5 5 4 1.77 0.44
5 5 4 1.37 0.78
5 5 5 3.09 0.84
5 5 6 2.85 0.92
5 5 6 2.47 0.21
-5 -5 -6 2.97 1.04
-5 -5 -6 2.34 0.21
5 5 7 71.14 3.21
5 5 7 58.83 1.62
-5 -5 -7 56.86 3.34
-5 -5 -7 66.3 1.74
5 5 8 81.34 2.96
5 5 8 72.21 2.38
-5 -5 -8 68.86 3.03
-5 -5 -8 77.75 2.81
5 5 9 31.87 2.31
5 5 9 29.49 1.27
-5 -5 -9 28.77 2.57
-5 -5 -9 30.38 1.31
5 5 10 1.6 1.16
5 5 10 -0.06 0.56
-5 -5 -10 0.28 0.76
-5 -5 -10 -0.46 0.6
5 5 11 27.41 2.72
5 5 11 24.9 1.54
-5 -5 -11 25.86 2.89
-5 -5 -11 26.35 1.7
5 5 12 21.54 1.63
5 5 12 19.45 1.46
-5 -5 -12 20.14 2.74
-5 -5 -12 19.27 1.66
5 6 -9 14.28 1.27
5 6 -9 15.17 1.14
-5 -6 9 15.46 1.48
-5 -6 9 15.44 1.37
5 6 -8 19.1 1.3
5 6 -8 17.27 1.11
-5 -6 8 19.94 2.36
-5 -6 8 21.21 2.14
5 6 -7 0.97 1.19
5 6 -7 1.69 0.92
-5 -6 7 0.86 1.38
-5 -6 7 0.98 1.19
5 6 -6 115.26 5.79
5 6 -6 115.94 5.18
-5 -6 6 129.05 6.78
-5 -6 6 122.47 6.18
5 6 -5 71.64 2.59
5 6 -5 71.71 2.94
-5 -6 5 77.63 3.01
-5 -6 5 78.89 3.51
5 6 -4 15.08 1.38
5 6 -4 13.45 0.92
-5 -6 4 14.49 1.53
-5 -6 4 16.4 1.11
5 6 -3 148.28 5.38
5 6 -3 147.51 5.36
-5 -6 3 160.7 7.66
-5 -6 3 157.63 5.36
5 6 -2 398.22 20.6
5 6 -2 421 20.89
-5 -6 2 441.6 23.86
-5 -6 2 458.22 23.65
5 6 -1 256.28 12.46
5 6 -1 275.31 10.29
-5 -6 1 283.61 12.65
-5 -6 1 293.39 11.7
5 6 0 7.43 0.96
5 6 0 7.3 0.35
-5 -6 0 6.29 1.13
-5 -6 0 7.88 0.4
5 6 1 9.25 0.61
5 6 1 7.35 0.55
5 6 2 9.5 0.99
5 6 2 7.99 0.91
5 6 3 75 2.98
5 6 3 70.54 2.96
5 6 4 46.14 1.55
5 6 4 47.67 2.32
5 6 5 150.13 6.35
5 6 5 137.83 5.11
5 6 6 17.74 0.93
5 6 6 17.27 1.01
5 6 7 60.94 2.96
-5 -6 -7 50.57 2.16
-5 -6 -7 54.39 1.35
5 6 8 57.2 2.13
5 6 8 49.39 1.55
-5 -6 -8 51.24 3.25
-5 -6 -8 51.62 1.47
5 6 9 1.88 1.13
5 6 9 1.49 0.38
-5 -6 -9 1.22 0.74
-5 -6 -9 2.06 0.44
5 6 10 3.69 1.32
5 6 10 2.7 0.53
-5 -6 -10 4.36 1.44
-5 -6 -10 2.58 0.64
5 6 11 0.52 0.79
5 6 11 -0.15 0.57
-5 -6 -11 1.39 0.84
-5 -6 -11 -0.4 0.68
5 6 12 0.51 0.84
5 6 12 0.93 0.67
-5 -6 -12 0.89 1.47
-5 -6 -12 1.02 0.79
5 7 -8 7.58 1.04
5 7 -8 7.5 1.31
-5 -7 8 6.51 1.25
-5 -7 8 6.53 1.04
5 7 -7 2.01 1.46
5 7 -7 3.09 1.05
-5 -7 7 2.47 1.02
-5 -7 7 3.99 0.81
5 7 -6 24.93 2.29
5 7 -6 24.82 1.65
-5 -7 6 23.91 2.56
-5 -7 6 27.89 2.12
5 7 -5 91.72 3.56
5 7 -5 90.08 3.72
-5 -7 5 93.82 3.93
-5 -7 5 96.77 4.6
5 7 -4 26.59 1.93
5 7 -4 24.35 1.22
-5 -7 4 24.41 1.43
-5 -7 4 27.27 1.53
5 7 -3 1.68 0.97
5 7 -3 1.08 0.51
-5 -7 3 0.02 1.13
-5 -7 3 1.65 0.61
5 7 -2 40.64 1.53
5 7 -2 42.37 1.33
-5 -7 2 45.18 2.71
-5 -7 2 42.86 1.58
5 7 -1 62.45 2.96
5 7 -1 65.32 1.66
-5 -7 1 68.52 2.61
-5 -7 1 68.36 2
5 7 0 60.03 2.78
5 7 0 64.56 1.37
-5 -7 0 63.55 2.37
-5 -7 0 69.88 1.8
5 7 1 22.34 0.93
5 7 2 79.25 2.56
5 7 2 70.32 3.1
5 7 3 14.35 1.23
5 7 3 10 0.71
5 7 4 66.94 2.23
5 7 4 57.93 2.1
5 7 5 396.86 23.21
5 7 5 376.44 22.79
5 7 6 96.67 3.51
5 7 6 94.81 4.99
5 7 7 24.24 1.94
5 7 7 25.68 2.02
5 7 8 2.94 0.69
-5 -7 -8 3.26 0.35
5 7 9 8.17 1.33
-5 -7 -9 6.5 0.53
5 7 10 12.05 1.64
-5 -7 -10 11.07 1.82
5 7 11 4.01 0.84
-5 -7 -11 2.61 1.52
5 7 12 -1.21 0.8
-5 -7 -12 0.27 0.85
5 8 -7 7.63 1.17
5 8 -7 8 1.29
-5 -8 7 7.27 2.18
-5 -8 7 6.81 1.69
5 8 -6 3.96 1.52
5 8 -6 2.13 0.98
-5 -8 6 2.29 1.01
-5 -8 6 2.72 0.76
5 8 -5 55.66 3.57
5 8 -5 55.07 2.59
-5 -8 5 56.4 4.07
-5 -8 5 58.69 3.22
5 8 -4 100.52 4.03
5 8 -4 105.98 4.1
-5 -8 4 102.71 4.56
-5 -8 4 110.5 4.96
5 8 -3 41.71 1.78
5 8 -3 42.19 1.21
-5 -8 3 44.9 2.1
-5 -8 3 44.78 1.98
5 8 -2 7.95 1.25
5 8 -2 7.7 0.56
-5 -8 2 9.11 0.92
-5 -8 2 7.74 0.71
5 8 -1 14.12 0.89
5 8 -1 13.59 0.57
-5 -8 1 14.27 1.06
-5 -8 1 14.14 0.7
5 8 0 4.48 1.07
5 8 0 4.02 0.28
-5 -8 0 3.62 0.73
-5 -8 0 4.3 0.34
5 8 1 22.93 1.66
5 8 2 80.9 3.5
5 8 2 58.9 2.11
5 8 3 0.82 0.57
5 8 3 0.56 0.88
5 8 4 0.92 1.02
5 8 4 0.48 0.91
5 8 5 19.66 1.15
5 8 5 18.92 1.13
5 8 6 142.99 7.02
5 8 6 129.04 5.34
5 8 7 102.62 3.95
5 8 7 101.45 4.29
5 8 8 14.6 1.6
5 8 8 14.69 1.09
5 8 9 17.79 1.8
5 8 9 17.29 1.89
5 8 10 29.07 1.57
5 8 10 24.66 1.58
5 8 11 1.33 0.72
5 9 -6 5.18 1.06
5 9 -6 4.95 1.07
-5 -9 6 3.76 2.02
-5 -9 6 5.42 1.35
5 9 -5 0.97 0.84
5 9 -5 1.04 0.78
-5 -9 5 2.47 0.94
-5 -9 5 2.29 1.04
5 9 -4 22.74 2.23
5 9 -4 21.38 1.28
-5 -9 4 23 2.6
-5 -9 4 22.33 1.12
5 9 -3 7.36 1.46
5 9 -3 6.04 0.69
-5 -9 3 7.51 1.7
-5 -9 3 6.73 0.92
5 9 -2 0.89 0.65
5 9 -2 1.36 0.44
-5 -9 2 1.29 0.76
-5 -9 2 0.66 0.58
5 9 -1 27.04 1.29
-5 -9 1 29.49 1.55
-5 -9 1 24.15 1.12
5 9 0 7.64 1.31
5 9 0 6.68 0.41
-5 -9 0 6.56 0.89
-5 -9 0 6.02 0.46
5 9 1 3.32 1.12
5 9 1 2.1 0.22
-5 -9 -1 2.04 0.79
-5 -9 -1 2.31 0.22
5 9 2 0.49 1.15
5 9 2 0.93 0.61
5 9 3 21.82 1.85
5 9 3 17.73 1.71
5 9 4 93.03 3.58
5 9 4 82.19 4.34
5 9 5 35.24 2.37
5 9 5 26.99 2.23
5 9 6 19.44 1.16
5 9 6 15.69 1.85
5 9 7 49.19 2.96
5 9 7 47.5 3.05
5 9 8 1.64 1.08
5 9 8 1.7 1.15
5 9 9 19.91 1.24
5 9 9 18.16 1.33
5 9 10 16.98 1.9
5 9 10 15.05 2.01
5 9 11 0.88 1.27
5 9 11 0.55 1.35
5 10 -5 0.82 1.49
-5 -10 5 0.64 1.73
-5 -10 5 0.83 0.62
5 10 -4 1.52 0.83
5 10 -4 0.97 0.71
-5 -10 4 0.46 0.99
-5 -10 4 0.93 0.94
5 10 -3 2.45 0.85
5 10 -3 2.91 0.66
-5 -10 3 3.13 1.69
-5 -10 3 2.98 0.9
5 10 -2 3.86 0.83
5 10 -2 3.69 0.57
-5 -10 2 5.57 1.64
-5 -10 2 3.87 0.79
5 10 -1 3.69 1.34
5 10 -1 2.9 0.5
-5 -10 1 1.25 0.93
-5 -10 1 3.56 0.63
5 10 0 94.33 5.26
-5 -10 0 97.94 4.43
5 10 1 78.89 3.78
-5 -10 -1 50.84 1.51
5 10 2 1.84 0.74
5 10 2 0.13 0.66
5 10 3 37.08 2.61
5 10 3 30.69 1.55
5 10 4 32.47 2.32
5 10 4 25.96 1.37
5 10 5 1.94 0.73
5 10 5 2.08 0.65
5 10 6 15.89 1.71
5 10 6 11.96 0.96
5 10 7 2.99 0.7
5 10 7 1.79 0.69
5 10 8 6.37 0.86
5 10 8 5.83 0.91
5 10 9 7.54 1.54
5 10 9 6.28 1.61
5 10 10 1.78 1.24
5 10 10 0.91 1.31
5 11 -3 30.62 2.89
5 11 -3 26.59 1
-5 -11 3 35.7 2.28
-5 -11 3 25.14 1.94
5 11 -2 21.81 2.36
-5 -11 2 17.59 2.81
5 11 -1 2.65 1.35
-5 -11 1 -2.97 1.67
5 11 0 51.96 3.44
-5 -11 0 41.56 4.33
5 11 1 57.73 3.81
5 11 2 7.51 1.59
5 11 2 4.79 0.84
5 11 3 8.94 1.6
5 11 3 5.67 0.84
5 11 4 2.75 1.26
5 11 4 0.77 0.67
5 11 5 1.99 0.78
5 11 5 2.9 0.7
5 11 6 0.02 0.71
5 11 6 0.55 0.62
5 11 7 3.43 1.38
5 11 7 3.27 1.24
5 11 8 2.02 1.27
5 11 8 1.53 1.26
5 12 0 1.12 1.32
-5 -12 0 -0.99 1.55
5 12 1 0.18 1.24
5 12 2 4.88 1.62
5 12 2 4.41 1.39
5 12 3 2.33 1.41
5 12 3 0.28 1.21
5 12 4 11.76 1.83
5 12 4 7.12 1.58
5 12 5 7.64 1.7
5 12 5 4.48 1.51
5 12 6 1.8 0.83
5 12 6 0.33 1.26
6 -7 -6 4.45 1.73
6 -7 -6 4.89 1.09
6 -7 -5 -0.34 1.39
6 -7 -5 1.05 0.9
6 -7 -4 1.17 1.46
6 -7 -4 1.66 0.94
6 -7 -3 6.83 1.11
6 -7 -3 8.44 1.22
6 -7 -2 1.03 0.84
6 -7 -2 1.04 0.92
6 -7 -1 5.18 0.97
6 -7 -1 6.51 1.07
6 -7 0 4.53 1.02
-6 7 0 4.63 1.01
6 -7 1 0.49 1.6
-6 7 -1 2.01 0.92
6 -7 2 0.23 1.7
-6 7 -2 1.55 0.97
6 -6 -8 1.77 1.55
6 -6 -8 1.93 1.72
6 -6 -7 5.02 0.99
6 -6 -7 3.43 1.08
6 -6 -6 13.86 1.34
6 -6 -6 17.27 1.45
6 -6 -5 0.17 1.6
6 -6 -5 4.01 0.97
6 -6 -4 35.19 3
6 -6 -4 34.59 3.25
6 -6 -3 49.63 3.55
6 -6 -3 40.94 2.28
6 -6 -2 4.73 0.91
6 -6 -2 6.49 1.01
6 -6 -1 2.87 0.79
6 -6 -1 2.9 0.87
6 -6 0 4.78 1.53
-6 6 0 3.92 0.87
6 -6 1 2.87 1.4
-6 6 -1 1.13 0.44
-6 6 -1 2.6 1.37
6 -6 2 1.01 0.53
6 -6 2 -0.81 1.41
-6 6 -2 0.52 0.57
-6 6 -2 0.71 0.81
6 -6 3 1.35 0.71
6 -6 3 2.62 0.92
-6 6 -3 1.2 0.45
-6 6 -3 1.42 0.88
6 -6 4 2.72 0.58
6 -6 4 3.73 1.76
-6 6 -4 3.53 0.92
-6 6 -4 3.12 1.03
6 -6 5 1.59 1.02
-6 6 -5 1.33 1.04
-6 6 -5 1.24 1.67
6 -5 -9 6.49 1.13
6 -5 -9 7.07 2
6 -5 -8 -0.2 1.41
6 -5 -8 1.11 1.56
6 -5 -7 22.36 2.58
6 -5 -7 26.93 1.81
6 -5 -6 12.76 1.94
6 -5 -6 12.79 1.27
6 -5 -5 6.9 0.97
6 -5 -5 8.88 1.74
6 -5 -4 13.12 2.13
6 -5 -4 19.47 2.17
6 -5 -3 33.29 2.62
6 -5 -3 34.79 1.85
6 -5 -2 12.74 1.44
6 -5 -2 2.94 0.86
6 -5 -1 0.8 0.65
6 -5 -1 3.15 1.26
6 -5 0 9.4 1.6
-6 5 0 9.81 1.57
6 -5 1 9.03 0.94
-6 5 -1 9.04 1.56
6 -5 2 1.27 0.54
6 -5 2 0.75 1.26
-6 5 -2 1 0.54
-6 5 -2 -0.54 1.23
6 -5 3 3.39 0.75
6 -5 3 3.98 1.49
-6 5 -3 2.25 0.74
-6 5 -3 2.18 1.42
6 -5 4 23.55 1.12
6 -5 4 28.42 1.71
-6 5 -4 21.56 2.54
6 -5 5 12.38 1.39
6 -5 5 14.48 1.34
-6 5 -5 7.8 1.35
-6 5 -5 11.24 1.26
6 -5 6 2.04 1.14
6 -5 6 1.57 1.67
-6 5 -6 1.64 1.16
-6 5 -6 1.79 1.59
6 -4 -9 18.8 2.45
6 -4 -9 19.76 2.58
6 -4 -8 -0.12 1.39
6 -4 -8 1.48 0.91
6 -4 -7 18.41 1.42
6 -4 -7 20.55 1.58
6 -4 -6 10.34 1.04
6 -4 -6 12.04 1.87
6 -4 -5 2.11 1.22
6 -4 -5 2.8 1.31
6 -4 -4 3.53 1.22
6 -4 -4 3.17 1.33
6 -4 -3 30.2 1.51
6 -4 -3 28.82 2.35
6 -4 -2 12.33 1.53
6 -4 -2 12.28 0.98
6 -4 -1 -0.01 0.13
6 -4 -1 0.16 0.09
6 -4 -1 1 0.57
6 -4 -1 0.09 1.01
6 -4 0 9.41 0.89
-6 4 0 8.38 0.86
6 -4 1 45.67 1.53
6 -4 1 48.7 2.91
-6 4 -1 41.22 2.91
6 -4 2 11.26 0.87
6 -4 2 15.25 1.64
-6 4 -2 10.48 1.62
6 -4 3 8.08 0.58
6 -4 3 9.13 0.94
-6 4 -3 6.28 0.86
-6 4 -3 6 1.51
6 -4 4 14.4 1.19
6 -4 4 11.55 1.8
-6 4 -4 9.9 1.12
-6 4 -4 10.91 1.75
6 -4 5 12.49 1.3
6 -4 5 13.4 1.15
-6 4 -5 11.5 1.82
6 -4 6 4.99 0.69
6 -4 6 4.62 0.94
-6 4 -6 2 1.16
-6 4 -6 2.79 0.91
6 -4 7 0.73 0.68
6 -4 7 0.77 1.46
-6 4 -7 0.6 1.19
-6 4 -7 1.34 1.38
6 -3 -10 0.95 1.44
6 -3 -10 0.3 0.9
6 -3 -9 7.18 1.69
6 -3 -9 6.36 1.79
6 -3 -8 22.8 2.38
6 -3 -8 24.18 1.69
6 -3 -7 28.08 1.64
6 -3 -7 27.74 2.74
6 -3 -6 2.5 1.18
6 -3 -6 1.86 1.29
6 -3 -5 1.96 1.06
6 -3 -5 0.38 1.12
6 -3 -4 22.98 1.21
6 -3 -4 26.37 1.99
6 -3 -3 3.92 1.15
6 -3 -3 2.81 1.2
6 -3 -2 124.56 4.71
6 -3 -2 125.53 4.74
6 -3 -1 14.66 1.56
6 -3 -1 14.73 1.63
6 -3 0 71.45 1.99
6 -3 0 74.42 2.67
-6 3 0 66.8 2.64
6 -3 1 23.81 1
6 -3 1 26.96 1.88
-6 3 -1 22.42 1.86
6 -3 2 12.49 0.84
6 -3 2 13.08 1.38
-6 3 -2 9.81 1.43
6 -3 3 -0.11 0.6
6 -3 3 0.18 0.98
-6 3 -3 0.04 0.35
-6 3 -3 -0.06 0.57
6 -3 4 12.29 1.09
6 -3 4 12.94 1.54
-6 3 -4 8.7 1.06
-6 3 -4 10.32 0.94
6 -3 5 2.67 0.91
6 -3 5 2.12 1.22
-6 3 -5 1.52 0.88
-6 3 -5 2.46 1.15
6 -3 6 11.3 1.01
-6 3 -6 7.33 1.34
-6 3 -6 7.86 1.5
6 -3 7 3.81 1.28
6 -3 7 4.44 1.49
-6 3 -7 3.32 0.78
-6 3 -7 3.66 1.34
6 -3 8 5.17 1.46
6 -3 8 3.67 1.61
-6 3 -8 3.62 0.9
-6 3 -8 3.14 0.91
6 -2 -10 10.17 2
-6 2 10 10.31 1.38
6 -2 -9 6.05 1.52
6 -2 -8 23.38 1.48
6 -2 -8 25.96 1.55
6 -2 -7 20.99 1.28
6 -2 -7 22.86 2.13
6 -2 -6 1.91 1.07
6 -2 -6 1.14 1.15
6 -2 -5 20.02 1.71
6 -2 -5 22.78 1.18
6 -2 -4 6.29 0.66
6 -2 -4 5.66 1.16
6 -2 -3 13.39 1.3
6 -2 -3 14.12 1.37
6 -2 -2 12.42 1.28
6 -2 -2 11.85 0.8
6 -2 -1 70.94 2.05
6 -2 -1 74.93 2.55
6 -2 -1 78.35 3.51
6 -2 0 26.09 1.18
6 -2 0 29.88 1.88
6 -2 1 16.81 0.83
6 -2 1 21.17 1
-6 2 -1 17.62 0.99
6 -2 2 10.53 1.12
-6 2 -2 6.51 0.72
-6 2 -2 7.75 1.16
6 -2 3 40.61 1.76
6 -2 3 43.39 2.26
-6 2 -3 37.3 1.6
6 -2 4 1.76 0.74
6 -2 4 1.33 0.58
-6 2 -4 0.3 0.43
-6 2 -4 0.54 0.56
6 -2 5 29.76 1.79
6 -2 5 32.61 2.09
-6 2 -5 24.23 1.74
-6 2 -5 27.42 1.34
6 -2 6 14.26 1.4
6 -2 6 14.31 1.52
-6 2 -6 10.39 0.87
-6 2 -6 11.99 0.9
6 -2 7 1.26 1.1
6 -2 7 -0.33 1.15
-6 2 -7 1.39 1.06
-6 2 -7 0.38 1.04
6 -2 8 10.76 1.07
6 -2 8 9.55 1.08
-6 2 -8 7.11 1.71
-6 2 -8 8.36 1.59
6 -2 9 19.71 2.28
6 -2 9 18.3 2.2
-6 2 -9 12.43 2.24
-6 2 -9 12.29 1.27
6 -1 -10 36.28 3.12
-6 1 10 38.72 2.45
6 -1 -9 -0.46 1.23
-6 1 9 0.92 0.85
6 -1 -8 2.83 0.37
6 -1 -8 4.99 1.21
-6 1 8 3.27 1.42
6 -1 -7 7.37 0.4
6 -1 -7 7.56 0.81
6 -1 -6 2.31 0.22
6 -1 -6 2.8 0.27
6 -1 -6 2.35 0.63
6 -1 -6 3.23 0.64
6 -1 -5 10.76 0.46
6 -1 -5 12.37 1.26
6 -1 -5 11.34 0.82
6 -1 -4 24.1 0.64
6 -1 -4 23.79 0.55
6 -1 -4 25.51 1.08
6 -1 -4 25.62 1.13
6 -1 -3 27.82 0.76
6 -1 -3 26.86 0.64
6 -1 -3 27.11 1.68
6 -1 -3 28.88 1.71
6 -1 -2 4.81 0.43
6 -1 -2 5.64 0.9
6 -1 -2 6.11 0.57
6 -1 -1 16.99 0.59
6 -1 -1 16.04 0.81
6 -1 0 417.2 19.65
6 -1 0 356.39 18.19
6 -1 0 388.27 21.32
6 -1 0 408.76 22.6
6 -1 1 260.07 10.94
6 -1 1 265.65 12.77
-6 1 -1 248.48 12.38
6 -1 2 15.69 0.9
6 -1 2 16.06 1.2
-6 1 -2 13.27 0.8
6 -1 3 60.25 2.47
-6 1 -3 49.3 2.19
-6 1 -3 53.78 2.55
6 -1 4 6.81 0.57
6 -1 4 8.11 0.63
-6 1 -4 5.65 0.62
6 -1 5 27.77 1.68
6 -1 5 28.15 1.17
-6 1 -5 22.29 1.72
6 -1 6 29.18 1.87
6 -1 6 30.8 1.88
-6 1 -6 21.63 1.79
-6 1 -6 23.18 1.78
6 -1 7 6.35 0.79
6 -1 7 5.69 0.77
-6 1 -7 4.47 1.3
-6 1 -7 3.37 0.7
6 -1 8 1.59 1.33
6 -1 8 1.76 1.22
-6 1 -8 1.28 1.35
-6 1 -8 0.99 0.65
6 -1 9 1.69 1.39
6 -1 9 0.12 1.28
-6 1 -9 -0.15 0.83
-6 1 -9 0.96 1.11
6 -1 10 0.52 0.91
6 -1 10 0.12 0.8
-6 1 -10 -0.72 0.9
-6 1 -10 1.01 1.24
6 0 -10 9.98 0.84
6 0 -10 9.13 1.79
-6 0 10 8 0.59
-6 0 10 11.02 1.31
6 0 -9 60.85 2.21
6 0 -9 57.1 3.63
-6 0 9 50.43 2.28
-6 0 9 61.44 2.94
6 0 -8 0.63 0.48
6 0 -8 1.08 1.06
-6 0 8 0.03 0.5
-6 0 8 1.2 1.23
6 0 -7 25.23 0.99
6 0 -7 23.65 1.88
-6 0 7 19.71 1.26
-6 0 7 23.15 1.38
6 0 -6 10.83 0.6
6 0 -6 8.88 0.77
-6 0 6 8.5 0.58
-6 0 6 10.52 1.41
6 0 -5 7.64 0.45
6 0 -5 8.58 0.49
6 0 -5 7.02 0.66
6 0 -4 116.41 3.3
6 0 -4 116.76 3.4
6 0 -4 108.33 4.73
6 0 -4 117.29 5.06
6 0 -3 156.47 4.8
6 0 -3 155.68 5.37
6 0 -3 151.67 6.42
6 0 -3 157 5.61
6 0 -2 58.59 1.56
6 0 -2 58.67 1.84
6 0 -2 63.53 2.62
6 0 -1 56.32 1.58
6 0 -1 55.51 2.2
6 0 -1 58.6 2.29
6 0 0 48.19 1.45
6 0 0 43.5 1.37
6 0 0 46.57 1.87
6 0 0 47.46 1.93
6 0 1 3.28 0.52
6 0 1 3.17 0.44
6 0 2 13.12 0.58
-6 0 -2 11.07 0.84
-6 0 -2 11.46 0.93
6 0 3 8.98 0.81
6 0 3 8.92 0.82
-6 0 -3 6.96 0.83
-6 0 -3 7.38 0.84
6 0 4 11.33 0.95
-6 0 -4 6.87 0.98
-6 0 -4 7.93 0.58
6 0 5 1.95 0.81
6 0 5 0.39 0.75
-6 0 -5 -0.3 0.84
-6 0 -5 -0.21 0.7
6 0 6 20.97 1.56
6 0 6 19.56 0.93
-6 0 -6 14.1 1.58
-6 0 -6 14.93 1.36
6 0 7 61.41 3.29
6 0 7 57.23 2.95
-6 0 -7 46.22 3.19
-6 0 -7 43.93 2.71
6 0 8 81.28 3.37
6 0 8 79.51 3.14
-6 0 -8 63.82 3.76
6 0 9 18.29 2.12
6 0 9 18.18 1.76
-6 0 -9 11.84 1.29
-6 0 -9 12.26 1.6
6 0 10 3.44 1.51
6 0 10 1.2 1.23
-6 0 -10 -1.73 1.49
-6 0 -10 1.75 1.11
6 0 11 2.31 1.63
-6 0 -11 0.02 0.96
-6 0 -11 0.77 1.23
6 1 -10 2.68 0.84
6 1 -10 3.35 1.51
-6 -1 10 2.49 0.95
-6 -1 10 3.86 0.99
6 1 -9 26.06 0.99
6 1 -9 24.21 1.45
-6 -1 9 23.47 1.55
-6 -1 9 26.37 1.66
6 1 -8 0.51 0.61
6 1 -8 -0.1 0.61
-6 -1 8 -0.19 0.62
-6 -1 8 0.04 1.2
6 1 -7 143.67 5.51
6 1 -7 127.58 5.03
-6 -1 7 133.5 5.78
-6 -1 7 146 7.53
6 1 -6 69.77 1.93
6 1 -6 66.58 3.24
-6 -1 6 71.79 3.87
6 1 -5 1.93 0.49
6 1 -5 3 0.83
-6 -1 5 1.36 0.54
-6 -1 5 1.34 0.97
6 1 -4 101.01 3.19
6 1 -4 94.76 3.1
6 1 -3 109.51 3.24
6 1 -3 95.83 2.99
6 1 -3 100.86 3.94
6 1 -3 108.91 4.13
6 1 -2 106.95 3.12
6 1 -2 97.4 2.96
6 1 -2 97.22 2.93
6 1 -2 107.68 3.86
6 1 -1 0.42 0.39
6 1 -1 0.31 0.37
6 1 -1 0.43 0.31
6 1 -1 0.47 0.54
6 1 0 18.71 0.78
6 1 0 17.45 0.79
6 1 0 17.15 0.6
6 1 0 18.6 0.91
6 1 1 30.06 1.12
6 1 1 29.03 1.12
6 1 1 27.76 1.1
6 1 1 31.06 1.17
6 1 2 0.79 0.31
6 1 2 1.18 0.28
-6 -1 -2 -0.01 0.55
-6 -1 -2 0.32 0.46
6 1 3 1.15 0.62
6 1 3 0.56 0.52
-6 -1 -3 1.11 0.39
-6 -1 -3 0.9 0.5
6 1 4 140.76 5.5
6 1 4 140.65 5.23
-6 -1 -4 115.11 5.55
6 1 5 59.13 2.81
6 1 5 58.64 2.38
-6 -1 -5 46.94 2.78
6 1 6 22.35 1.63
6 1 6 21.73 1.32
-6 -1 -6 17.15 1.08
-6 -1 -6 17.62 1.24
6 1 7 53.46 2.92
6 1 7 50.18 2.39
-6 -1 -7 41.23 2.95
-6 -1 -7 42.18 2.2
6 1 8 43.92 2.85
6 1 8 37.74 1.53
-6 -1 -8 31.83 1.85
-6 -1 -8 32.66 2.08
6 1 9 8.91 1.68
6 1 9 8.96 1.25
-6 -1 -9 7.13 1.72
-6 -1 -9 6.61 1.14
6 1 10 -0.63 1.32
6 1 10 -0.08 1
-6 -1 -10 0.09 1.39
-6 -1 -10 0.06 0.92
6 1 11 -0.36 0.96
6 1 11 1.29 1.2
-6 -1 -11 2.79 1.66
-6 -1 -11 2.16 0.67
6 2 -10 43.18 1.77
6 2 -10 43.58 2.27
-6 -2 10 41.91 2.11
-6 -2 10 44.68 2.52
6 2 -9 24.75 1.58
6 2 -9 23.74 2.23
-6 -2 9 24.77 1.85
-6 -2 9 21.83 1.57
6 2 -8 5.08 0.89
6 2 -8 3.83 1.23
-6 -2 8 4.64 0.6
-6 -2 8 2.83 1.4
6 2 -7 52.36 2.25
6 2 -7 50.31 2.8
-6 -2 7 50.08 2.45
-6 -2 7 50.69 3.2
6 2 -6 101.82 3.18
6 2 -6 97.55 4.56
-6 -2 6 109.66 4.23
-6 -2 6 101.71 3.99
6 2 -5 26.54 0.83
6 2 -5 26.62 1.51
-6 -2 5 21.91 1.29
-6 -2 5 25.91 1.16
6 2 -4 1.2 0.53
6 2 -4 1.69 0.4
-6 -2 4 0.36 0.57
-6 -2 4 1.07 0.47
6 2 -3 30.19 1.14
6 2 -3 32 1.4
6 2 -2 18.6 0.82
6 2 -2 16.12 0.77
6 2 -2 16.55 0.59
6 2 -2 17.23 0.62
6 2 -1 14.43 0.49
6 2 -1 13.37 0.47
6 2 -1 14.26 0.73
6 2 -1 15.53 0.77
6 2 0 19.23 0.6
6 2 0 18.46 0.86
6 2 0 18.76 0.81
6 2 0 19.89 0.58
6 2 1 77.36 2.08
6 2 1 78.09 2.71
6 2 1 77 2.34
6 2 1 85.87 2.51
6 2 2 22.42 1.08
6 2 2 19.82 0.73
6 2 2 19.44 0.79
6 2 2 19.92 0.56
6 2 3 16.73 0.7
6 2 3 16.01 0.51
-6 -2 -3 13.3 1.16
6 2 4 128.35 5.29
6 2 4 132.32 4.65
6 2 5 105.43 4.34
6 2 5 96.75 2.85
-6 -2 -5 88.04 3.38
6 2 6 0.15 0.52
6 2 6 0.26 0.34
-6 -2 -6 0.03 0.55
-6 -2 -6 1.46 0.52
6 2 7 9.07 0.79
6 2 7 7.18 0.88
-6 -2 -7 6.85 1.35
-6 -2 -7 5.46 0.78
6 2 8 3.27 0.72
6 2 8 2.95 0.81
-6 -2 -8 2.54 0.78
-6 -2 -8 2.85 0.76
6 2 9 0.65 0.68
6 2 9 -0.16 0.78
-6 -2 -9 0.77 1.25
-6 -2 -9 0.02 0.77
6 2 10 1.33 0.84
6 2 10 0.2 0.92
-6 -2 -10 0.94 1.49
-6 -2 -10 0.53 0.9
6 2 11 1.36 0.91
6 2 11 1.71 1.03
-6 -2 -11 -1.33 1.71
-6 -2 -11 -0.45 1.01
6 3 -10 30.15 2.23
6 3 -10 28.15 2.87
-6 -3 10 28.24 1.72
-6 -3 10 29.79 2.05
6 3 -9 42.4 1.76
6 3 -9 41.33 3.07
-6 -3 9 45.55 3.01
-6 -3 9 43.6 2.33
6 3 -8 30.73 1.86
6 3 -8 27.42 1.42
-6 -3 8 28.76 1.97
-6 -3 8 28.3 2.47
6 3 -7 15.55 0.83
6 3 -7 14.74 0.97
-6 -3 7 14.68 1.39
-6 -3 7 14.65 1.73
6 3 -6 42.25 1.92
6 3 -6 42.05 2.12
-6 -3 6 41.12 2.14
-6 -3 6 40.69 1.7
6 3 -5 36.32 1.61
6 3 -5 35.15 1.73
-6 -3 5 37.42 1.87
-6 -3 5 34.97 1.97
6 3 -4 45.41 1.8
6 3 -4 45.28 1.9
-6 -3 4 46.75 2.09
-6 -3 4 47.01 2.16
6 3 -3 2.72 0.59
6 3 -3 1.99 0.6
-6 -3 3 2.59 0.42
-6 -3 3 2.54 0.66
6 3 -2 108.96 3.17
6 3 -2 113.39 3.17
6 3 -1 33.73 1.33
6 3 -1 29.22 1.23
6 3 -1 30.15 1.04
6 3 -1 30.49 0.79
6 3 0 38.54 1.08
6 3 0 34.25 1.41
6 3 0 36.12 1.09
6 3 0 38.01 0.87
6 3 1 134.63 4.12
6 3 1 133.11 4.99
6 3 1 126.08 3.88
6 3 1 144.51 4.24
6 3 2 133.21 4.9
6 3 2 129.82 5.04
6 3 2 121.04 3.63
6 3 2 134.41 3.85
6 3 3 14.34 0.68
6 3 3 12.86 0.7
6 3 3 13.44 0.56
6 3 4 0.62 0.76
6 3 4 0.03 0.34
-6 -3 -4 0.46 0.83
-6 -3 -4 0.63 0.32
6 3 5 21.04 0.9
6 3 5 18.62 0.82
-6 -3 -5 17.28 1.59
6 3 6 43.64 1.57
-6 -3 -6 41.6 2.54
-6 -3 -6 38.38 1.48
6 3 7 0.68 1.02
6 3 7 0.69 0.53
-6 -3 -7 0.53 1.05
-6 -3 -7 1.64 0.52
6 3 8 6.29 1.36
6 3 8 6.63 0.78
-6 -3 -8 6.53 0.88
-6 -3 -8 5.84 0.51
6 3 9 31.61 2.45
6 3 9 25.54 1.03
-6 -3 -9 23.41 2.52
-6 -3 -9 24.68 1.55
6 3 10 -0.12 1.41
6 3 10 -0.97 0.48
-6 -3 -10 1.21 1.48
-6 -3 -10 0.04 0.79
6 3 11 44.17 3.76
6 3 11 37.37 1.66
-6 -3 -11 36.49 3.83
-6 -3 -11 32.28 1.73
6 3 12 25.05 3.01
-6 -3 -12 18.3 1.94
-6 -3 -12 16.49 1.83
6 4 -9 6.81 1.37
6 4 -9 6.39 1.51
-6 -4 9 5.75 1.5
-6 -4 9 6.34 1.75
6 4 -8 47.12 1.93
6 4 -8 46.44 2.96
-6 -4 8 46.6 2.95
-6 -4 8 46.78 3.34
6 4 -7 70.61 3.38
6 4 -7 65.9 2.56
-6 -4 7 69.75 3.73
-6 -4 7 70.39 3.99
6 4 -6 2.75 0.53
6 4 -6 3.26 0.9
-6 -4 6 3.3 0.6
-6 -4 6 3.26 0.63
6 4 -5 23.98 1.39
6 4 -5 23.3 1.37
-6 -4 5 23.68 1.13
-6 -4 5 24.28 1.59
6 4 -4 20.39 1.26
6 4 -4 19.51 0.77
-6 -4 4 20.47 0.99
-6 -4 4 20.03 1.29
6 4 -3 11.2 0.96
6 4 -3 9.43 0.75
-6 -4 3 10.11 0.7
-6 -4 3 10.27 0.85
6 4 -2 160.22 6.54
6 4 -2 171.33 6.12
-6 -4 2 176.78 7.76
-6 -4 2 178.29 5.97
6 4 -1 111.79 3.36
6 4 -1 98.71 3.77
6 4 -1 101.35 3.17
6 4 -1 106.11 3.17
6 4 0 3.82 0.76
6 4 0 3.39 0.71
6 4 0 2.77 0.35
6 4 0 2.49 0.46
6 4 1 71.95 2.77
6 4 1 65.26 2.55
6 4 1 65.39 1.87
6 4 1 70.49 1.63
6 4 2 101.98 3.05
6 4 2 98.97 3.05
6 4 2 94.52 2.47
6 4 3 114.71 4.35
6 4 3 107.65 4.44
6 4 3 102.78 2.73
6 4 4 22.14 0.89
6 4 4 20.76 0.95
6 4 4 18.76 0.64
6 4 5 -0.3 0.81
6 4 5 0.57 0.26
-6 -4 -5 0.32 0.9
-6 -4 -5 -0.01 0.32
6 4 6 90.23 3.03
6 4 6 81.29 2.83
-6 -4 -6 81.23 4.29
6 4 7 12 0.86
6 4 7 8.88 0.63
-6 -4 -7 10.09 0.93
-6 -4 -7 8.55 0.61
6 4 8 50.67 2.81
6 4 8 41.68 1.68
-6 -4 -8 41.37 3.15
-6 -4 -8 37.8 1.73
6 4 9 54.55 3.35
6 4 9 43.04 1.96
-6 -4 -9 44.41 2.41
-6 -4 -9 44.6 2.04
6 4 10 18.45 2.23
6 4 10 15.09 0.79
-6 -4 -10 19.17 2.39
-6 -4 -10 15.4 1.26
6 4 11 13.82 2.28
6 4 11 11.03 1.19
-6 -4 -11 13.12 2.46
-6 -4 -11 8.9 1.24
6 4 12 15.32 2.59
6 4 12 11.75 1.38
-6 -4 -12 12.33 1.66
-6 -4 -12 10.53 1.49
6 5 -9 0.45 0.71
6 5 -9 0.8 1.16
-6 -5 9 -0.91 1.35
-6 -5 9 0.47 1.37
6 5 -8 18.26 1.81
6 5 -8 18.95 1.75
-6 -5 8 16.18 2.01
-6 -5 8 16.77 2.07
6 5 -7 18.91 1.73
6 5 -7 20.27 1.65
-6 -5 7 16.5 1.95
-6 -5 7 21.78 1.9
6 5 -6 0.31 0.56
6 5 -6 0.96 0.85
-6 -5 6 2.01 0.65
-6 -5 6 0.35 0.97
6 5 -5 8.32 1.12
6 5 -5 8.74 0.6
-6 -5 5 7.05 1.33
-6 -5 5 9.37 1.09
6 5 -4 1.18 0.85
6 5 -4 1.82 0.63
-6 -5 4 2.87 1
-6 -5 4 2.32 0.73
6 5 -3 14.47 0.77
6 5 -3 13.38 0.85
-6 -5 3 15.08 1.45
-6 -5 3 14.66 0.94
6 5 -2 -0.32 0.43
6 5 -2 0.25 0.43
-6 -5 2 -1.35 0.88
6 5 -1 91.68 3.91
6 5 -1 104.86 2.99
-6 -5 1 100.76 3.55
-6 -5 1 102.14 3.07
6 5 0 283.06 12.27
6 5 0 223.93 10.26
6 5 0 228.8 7.81
6 5 0 226.89 8.33
6 5 1 10.67 1
6 5 1 8.78 0.24
6 5 2 47.83 2.11
6 5 2 43.88 1.45
6 5 3 48.69 2.23
6 5 3 47.42 2.3
6 5 4 4.05 0.93
6 5 4 4.46 0.6
6 5 5 75.78 3.46
6 5 5 70.8 2.58
6 5 6 42.25 1.13
-6 -5 -6 51.13 2.02
6 5 7 3.29 0.34
-6 -5 -7 4.03 1.3
-6 -5 -7 2.81 0.31
6 5 8 37.21 1.69
6 5 8 30.67 1.14
-6 -5 -8 32.21 2.84
6 5 9 37.44 2.58
-6 -5 -9 29.86 1.84
-6 -5 -9 28.91 1.4
6 5 10 13.07 1.97
6 5 10 11.24 0.87
-6 -5 -10 10.81 2.06
-6 -5 -10 10.75 0.99
6 5 11 24.14 2.74
6 5 11 19.28 1.37
-6 -5 -11 18.7 2.92
-6 -5 -11 19.84 1.5
6 5 12 -0.05 1.74
6 5 12 1.52 0.81
-6 -5 -12 2.21 1.12
-6 -5 -12 1.68 0.91
6 6 -8 1.96 1.33
6 6 -8 3.14 0.68
-6 -6 8 2.13 0.91
-6 -6 8 1.62 1.39
6 6 -7 3.73 1.23
6 6 -7 1.76 1.01
-6 -6 7 2.74 1.44
-6 -6 7 4.11 1.23
6 6 -6 5.54 0.74
6 6 -6 5.43 0.96
-6 -6 6 2.57 0.84
-6 -6 6 4.91 0.72
6 6 -5 23.46 1.79
6 6 -5 21.78 1.34
-6 -6 5 21.8 2.14
-6 -6 5 23.36 1.63
6 6 -4 14.59 0.89
6 6 -4 15.46 1
-6 -6 4 14.82 1.73
-6 -6 4 15.94 1.15
6 6 -3 31.07 1.88
6 6 -3 30.58 1.27
-6 -6 3 32.1 2.35
-6 -6 3 32.13 1.48
6 6 -2 44.09 2.33
6 6 -2 49.6 1.58
-6 -6 2 50.23 3.02
-6 -6 2 48.42 1.7
6 6 -1 91.96 3.15
6 6 -1 94.93 2.65
-6 -6 1 99.09 4.91
-6 -6 1 104.71 3.35
6 6 0 144.56 5.98
6 6 0 125.91 3.9
6 6 0 136.14 3.4
6 6 1 7.1 1.09
6 6 1 5.61 0.61
6 6 2 20.17 1.42
6 6 2 16.44 1.31
6 6 3 4.11 0.58
6 6 3 3.49 0.58
6 6 4 0.86 0.9
6 6 4 0.54 0.93
6 6 5 25.37 1.22
6 6 5 27.92 2.01
6 6 6 17.94 1.66
6 6 6 14.71 1.73
6 6 7 -0.27 0.61
6 6 8 3.39 0.73
-6 -6 -8 3 0.83
-6 -6 -8 2.7 0.26
6 6 9 1.32 1.23
6 6 9 1.1 0.31
-6 -6 -9 2.75 1.37
-6 -6 -9 1.13 0.37
6 6 10 11.69 1.77
-6 -6 -10 9.91 1.2
-6 -6 -10 7.68 0.74
6 6 11 27.22 2.85
-6 -6 -11 25.55 3.03
6 7 -7 42.11 3.18
6 7 -7 42.95 2.6
-6 -7 7 44.14 3.73
-6 -7 7 43.91 2.16
6 7 -6 56.97 2.52
6 7 -6 58.68 2.92
-6 -7 6 61.13 3.01
-6 -7 6 57.63 2.49
6 7 -5 17.14 1.79
6 7 -5 17.82 1.2
-6 -7 5 16.09 2.16
-6 -7 5 16.94 1.47
6 7 -4 67.81 3.62
6 7 -4 70.12 2.67
-6 -7 4 73 4.4
-6 -7 4 70.21 3.17
6 7 -3 7.66 0.77
6 7 -3 7.86 0.66
-6 -7 3 7.06 0.95
-6 -7 3 8.43 0.81
6 7 -2 0.79 0.92
6 7 -2 1.44 0.39
-6 -7 2 0.44 0.68
-6 -7 2 1.45 0.47
6 7 -1 3.87 0.56
6 7 -1 2.45 0.31
-6 -7 1 3.2 1.18
-6 -7 1 2.51 0.35
6 7 0 0.22 0.88
6 7 0 0.62 0.19
6 7 1 4.1 1.04
6 7 1 2.38 0.57
6 7 2 0.81 0.57
6 7 2 0.88 0.87
6 7 3 6.69 1.17
6 7 3 5.12 0.66
6 7 4 22.93 1.19
6 7 4 22.36 1.17
6 7 5 26.6 2.21
6 7 5 27.48 2.24
6 7 6 3.51 1.31
6 7 6 5.5 1.38
6 7 7 24.25 1.32
6 7 7 22.24 1.43
6 7 8 51.17 3.2
6 7 8 49.37 2.34
6 7 9 1.84 1.22
6 7 10 8.51 1.65
-6 -7 -10 7.99 1.12
6 7 11 3.74 0.92
-6 -7 -11 2.16 1.72
6 8 -6 84.82 5.29
6 8 -6 84.33 4.05
-6 -8 6 89.46 6.38
-6 -8 6 86.77 4.91
6 8 -5 36.47 1.88
6 8 -5 34.94 1.87
-6 -8 5 39.81 2.23
-6 -8 5 38.69 2.31
6 8 -4 1.11 1.23
6 8 -4 1.78 0.64
-6 -8 4 1.41 1.48
-6 -8 4 2.03 0.81
6 8 -3 2.41 1.18
6 8 -3 2.38 0.53
-6 -8 3 2.48 1.39
-6 -8 3 2.72 0.68
6 8 -2 1.68 0.61
6 8 -2 1.18 0.38
-6 -8 2 2.47 0.73
-6 -8 2 0.76 0.49
6 8 -1 16.7 1.57
6 8 -1 15.93 0.69
-6 -8 1 17.11 1.18
-6 -8 1 16.55 0.66
6 8 0 3.32 1.03
6 8 0 2.2 0.22
-6 -8 0 2.18 0.73
-6 -8 0 2.06 0.25
6 8 1 75.51 3.86
6 8 1 59.2 2.34
6 8 2 34.81 2.37
6 8 2 27.79 2.09
6 8 3 4.86 0.77
6 8 3 2.76 1.16
6 8 4 63.44 2.44
6 8 4 54.29 2.23
6 8 5 64.16 3.54
6 8 5 54.86 2.41
6 8 6 0.78 0.65
6 8 6 -0.5 0.7
6 8 7 7.27 0.9
6 8 7 7.34 0.98
6 8 8 0.48 1.16
6 8 8 1.36 1.25
6 8 9 6.86 1.48
6 8 9 6.77 1.63
6 8 10 2.63 0.85
6 8 10 3.05 0.9
6 8 11 -0.33 0.76
6 9 -5 16.43 2.01
6 9 -5 12.05 1.13
-6 -9 5 14.73 1.54
-6 -9 5 13.84 0.99
6 9 -4 8.71 1.04
6 9 -4 8.44 0.84
-6 -9 4 11.12 2.04
-6 -9 4 8.28 0.72
6 9 -3 0.53 0.67
6 9 -3 -0.52 0.47
-6 -9 3 -0.74 1.39
-6 -9 3 0.68 0.63
6 9 -2 11.43 1.58
6 9 -2 10.12 0.61
-6 -9 2 11 1.17
-6 -9 2 11.3 1.02
6 9 -1 14.51 1.58
6 9 -1 11.99 0.53
-6 -9 1 12.93 1.15
-6 -9 1 11.38 0.62
6 9 0 17.26 1.16
-6 -9 0 18.26 1.31
6 9 1 195.13 8.39
6 9 1 160.3 7.04
6 9 2 109.38 4.54
6 9 2 97.74 5.5
6 9 3 7.16 1.52
6 9 3 7.63 1.43
6 9 4 1.91 1.21
6 9 4 0.4 1.12
6 9 5 25.84 1.43
6 9 5 20.04 2.11
6 9 6 14.73 1.82
6 9 6 11.23 1.85
6 9 7 2.85 1.3
6 9 7 1.12 1.36
6 9 8 1.28 0.74
6 9 8 0.93 1.34
6 9 9 2.29 0.81
6 9 9 2.06 0.91
6 9 10 3.1 1.45
6 9 10 2.32 1.56
6 10 -4 15.29 2.07
6 10 -4 11.88 0.96
-6 -10 4 12.26 1.57
-6 -10 4 13.23 1.39
6 10 -3 4.93 1.69
-6 -10 3 5.73 2.02
-6 -10 3 6.33 0.94
6 10 -2 35.33 2.8
-6 -10 2 34.04 3.48
6 10 -1 16.12 1.19
-6 -10 1 15.87 1.44
6 10 0 1.21 0.77
-6 -10 0 2.77 0.89
6 10 1 20.89 1.47
6 10 1 17.75 1.28
6 10 2 67.82 3.05
6 10 2 58.51 3.88
6 10 3 35.64 1.95
6 10 3 32.61 2.68
6 10 4 10.46 1.7
6 10 4 7.18 1.58
6 10 5 0.62 1.23
6 10 5 -1.13 1.2
6 10 6 41.68 2.12
6 10 6 33.83 2.86
6 10 7 0.28 0.74
6 10 7 -2.61 1.28
6 10 8 57.82 4.13
6 10 8 52.84 2.85
6 10 9 28.89 2.76
6 10 9 23.14 2.94
6 11 -2 21.06 1.6
-6 -11 2 20.69 3.11
6 11 -1 36.58 1.97
-6 -11 1 28.64 3.77
6 11 0 22.38 1.47
-6 -11 0 20.39 1.74
6 11 1 6.51 1.04
6 11 1 3.99 0.93
6 11 2 2.82 0.91
6 11 2 2.72 1.39
6 11 3 24.65 1.61
6 11 3 20.26 2.18
6 11 4 2.39 0.87
6 11 4 2.09 1.35
6 11 5 7.24 1.78
6 11 5 7.77 1.59
6 11 6 9.18 1.77
6 11 6 5.56 0.96
6 11 7 4.72 1.66
6 11 7 5.08 0.91
6 12 2 2.95 0.99
6 12 2 3.78 1.48
6 12 3 3.73 1.01
6 12 3 3.92 1.5
6 12 4 2.04 0.93
6 12 4 1.23 0.79
7 -6 -4 0.6 0.83
7 -6 -4 -2.39 1.57
7 -6 -3 0.32 0.86
7 -6 -3 1.64 1.57
7 -6 -2 2.11 0.93
7 -6 -2 7.69 1.81
7 -6 -1 20.78 1.63
7 -6 -1 26.55 2.79
7 -6 0 9.29 1.26
7 -6 0 24.25 2.39
7 -6 1 0.27 0.92
-7 6 -1 0.87 0.88
7 -5 -6 2.86 1.65
7 -5 -6 2.8 1.81
7 -5 -5 4.79 1.69
7 -5 -5 3.26 1.79
7 -5 -4 26.21 2.75
7 -5 -4 29.78 3.01
7 -5 -3 8.52 1.07
7 -5 -3 7.51 2.03
7 -5 -2 3.93 0.9
7 -5 -2 4.53 1.68
7 -5 -1 8.35 1.02
7 -5 -1 9.82 1.12
7 -5 0 3.01 0.93
7 -5 1 2.27 1.5
-7 5 -1 0.13 1.45
7 -5 2 13.64 2.13
-7 5 -2 12.32 2.05
7 -5 3 1.3 0.65
7 -5 3 0.46 1.48
-7 5 -3 0.72 0.69
-7 5 -3 0.46 0.88
7 -5 4 0.26 0.77
7 -5 4 -1.29 0.88
-7 5 -4 -0.58 0.8
-7 5 -4 -0.09 0.89
7 -4 -8 19.12 2.7
7 -4 -8 19.94 2.89
7 -4 -7 43.98 4.03
7 -4 -7 52.04 2.98
7 -4 -6 7.79 1.08
7 -4 -6 7.32 1.97
7 -4 -5 1.46 0.77
7 -4 -5 0.93 1.45
7 -4 -4 12.78 1.95
7 -4 -4 15.11 1.99
7 -4 -3 10.11 1.62
7 -4 -3 7.75 1.79
7 -4 -2 13.01 1.74
7 -4 -2 13.15 1.87
7 -4 -1 7.34 0.88
7 -4 -1 7.58 0.95
7 -4 0 0.34 0.66
7 -4 0 0.73 1.19
7 -4 1 0.57 0.4
7 -4 1 -0 1.21
-7 4 -1 0.36 0.51
-7 4 -1 1.3 1.18
7 -4 2 1.22 0.52
7 -4 2 0.69 0.73
-7 4 -2 0.21 0.31
-7 4 -2 0.75 1.25
7 -4 3 10.11 1.01
7 -4 3 12.45 1.83
-7 4 -3 10.83 1.85
7 -4 4 8.04 1.07
7 -4 4 7.66 1.77
-7 4 -4 5.58 1.07
-7 4 -4 8.43 1.07
7 -4 5 8.08 0.79
7 -4 5 10.43 1.17
-7 4 -5 8.57 1.15
7 -4 6 1.97 1.07
7 -4 6 0.98 0.9
-7 4 -6 -0.07 1.01
-7 4 -6 1.09 1.5
7 -3 -8 11.84 2.11
7 -3 -8 13.76 2.37
7 -3 -7 45.5 2.49
7 -3 -7 50.6 2.7
7 -3 -6 9.35 1.05
7 -3 -6 10.99 1.91
7 -3 -5 -0.26 1.13
7 -3 -5 0.95 1.22
7 -3 -4 2.13 1.2
7 -3 -4 2.18 1.23
7 -3 -3 0.62 0.65
7 -3 -3 2.39 1.1
7 -3 -2 0.9 1.09
7 -3 -2 0.68 0.65
7 -3 -1 3.95 0.24
7 -3 -1 7.98 1.28
7 -3 0 17.81 0.95
7 -3 0 17.43 0.61
7 -3 1 12.14 0.78
7 -3 1 16.59 1.07
-7 3 -1 12.7 1.06
7 -3 2 0.75 0.55
7 -3 2 1.33 1.1
-7 3 -2 0.59 0.51
-7 3 -2 -0.95 1.1
7 -3 3 5.45 0.87
7 -3 3 7.81 0.91
-7 3 -3 7.02 1.46
7 -3 4 41.74 2.27
7 -3 4 43.24 2.99
-7 3 -4 39.03 2.99
7 -3 5 6.22 0.7
7 -3 5 6.94 1.54
-7 3 -5 2.73 1.07
-7 3 -5 3.95 1.5
7 -3 6 3.5 1.13
7 -3 6 3.54 0.83
-7 3 -6 0.93 0.64
-7 3 -6 2.44 0.82
7 -3 7 3.75 1.25
7 -3 7 2.27 1.53
-7 3 -7 2.73 1.23
-7 3 -7 2.84 1.49
7 -2 -9 2.07 0.9
7 -2 -9 2.35 1.61
7 -2 -8 5.15 0.95
7 -2 -8 4.95 1.73
7 -2 -7 6.77 1.01
7 -2 -7 9.37 1.06
7 -2 -6 10.69 1.65
7 -2 -6 10.59 1.71
7 -2 -5 2.04 1.15
7 -2 -5 1.41 1.19
7 -2 -4 2.15 0.66
7 -2 -4 1.91 1.16
7 -2 -3 20.47 1.86
7 -2 -3 21.3 1.86
7 -2 -2 32.74 2.26
7 -2 -2 33.96 1.54
7 -2 -1 18.7 1.11
7 -2 -1 21.04 1.84
7 -2 0 48.04 1.68
7 -2 0 46.75 1.61
7 -2 0 60.05 2.97
7 -2 1 28.34 1.26
7 -2 1 35.1 2.18
7 -2 2 9 0.83
7 -2 2 10.94 0.84
-7 2 -2 8.53 0.84
7 -2 3 1.36 0.66
7 -2 3 2.31 1.01
-7 2 -3 -0.14 0.64
-7 2 -3 -0.4 0.99
7 -2 4 3.22 0.85
7 -2 4 3.04 0.67
-7 2 -4 1.79 0.5
-7 2 -4 4.41 1.12
7 -2 5 1.1 0.53
7 -2 5 1.96 1.11
-7 2 -5 1.08 0.88
-7 2 -5 0.46 1.09
7 -2 6 0.91 0.93
7 -2 6 -0.77 0.65
-7 2 -6 1.39 0.91
-7 2 -6 -0.57 1.07
7 -2 7 3 1.31
7 -2 7 3.47 1.39
-7 2 -7 3.24 1.22
-7 2 -7 3.04 0.79
7 -2 8 11.73 1.83
7 -2 8 11.6 1.87
-7 2 -8 6.36 1.09
-7 2 -8 7.76 1.72
7 -1 -9 3.39 0.9
7 -1 -8 5.96 0.94
7 -1 -8 6.58 0.97
7 -1 -7 3.4 0.79
7 -1 -7 3.02 1.36
7 -1 -6 6.34 1.41
7 -1 -6 6.88 1.45
7 -1 -5 20.26 0.56
7 -1 -5 22.93 0.63
7 -1 -4 12.11 0.9
7 -1 -4 13.42 1.54
7 -1 -3 37.22 2.33
7 -1 -3 40.96 2.43
7 -1 -2 48.69 1.5
7 -1 -2 47.78 2.59
7 -1 -2 53.76 1.95
7 -1 -1 1.23 0.38
7 -1 -1 3.11 0.99
7 -1 -1 2.35 0.99
7 -1 0 100.69 3.3
7 -1 0 92.05 4.44
7 -1 0 98.1 4.59
7 -1 1 44.47 1.71
7 -1 1 46.97 1.75
7 -1 2 21.52 0.78
7 -1 2 22.33 1.56
-7 1 -2 17.49 1.57
7 -1 3 2.76 0.7
7 -1 3 1.97 0.95
-7 1 -3 1.77 0.71
-7 1 -3 2.13 0.55
7 -1 4 12.87 1.12
7 -1 4 12.33 0.83
-7 1 -4 9.54 1.32
7 -1 5 4.97 0.61
7 -1 5 5.38 1.12
-7 1 -5 3.59 0.62
-7 1 -5 2.31 1.11
7 -1 6 2.95 1
7 -1 6 0.99 1.04
-7 1 -6 1.35 0.99
-7 1 -6 0 1.09
7 -1 7 1.7 0.72
7 -1 7 2.61 1.2
-7 1 -7 2.19 0.72
-7 1 -7 0.67 1.14
7 -1 8 38.48 2.91
7 -1 8 35.41 1.91
-7 1 -8 26.62 2.86
-7 1 -8 29.1 1.72
7 -1 9 9.63 1.92
7 -1 9 8.86 1.73
-7 1 -9 5.93 1.89
-7 1 -9 6.8 1.63
7 0 -9 11.96 1.91
-7 0 9 12.88 2.14
7 0 -8 37.76 2.86
-7 0 8 37.74 2.08
7 0 -7 -0.11 0.32
7 0 -7 0.79 0.39
7 0 -7 -0.57 0.63
7 0 -6 27.54 1.26
7 0 -6 28.89 1.42
7 0 -6 29.23 2.22
7 0 -5 23.8 0.78
7 0 -5 26.4 1.87
7 0 -5 26.43 1.97
7 0 -4 8.46 0.46
7 0 -4 10.07 1.21
7 0 -4 10.23 1.29
7 0 -3 0.98 0.32
7 0 -3 0.65 0.3
7 0 -3 -0.24 0.5
7 0 -3 1.43 0.9
7 0 -2 0.37 0.35
7 0 -2 0.75 0.31
7 0 -2 0.43 0.78
7 0 -2 0.55 0.47
7 0 -1 61.36 1.87
7 0 -1 57.62 1.94
7 0 -1 62.9 2.71
7 0 0 1.22 0.52
7 0 0 1.18 0.46
7 0 0 1.84 0.79
7 0 0 2.03 0.82
7 0 1 70.86 2.6
7 0 1 72.53 3.13
7 0 1 78.85 3.34
7 0 2 21.73 1.19
7 0 2 23.85 1.44
7 0 3 0.48 0.62
7 0 3 0.2 0.72
-7 0 -3 -0.25 0.65
-7 0 -3 0.05 0.69
7 0 4 21.79 1.45
7 0 4 21.67 1.53
-7 0 -5 54.6 2.27
-7 0 -5 56.05 3.01
7 0 6 1.47 1.09
7 0 6 2.29 0.95
-7 0 -6 0.41 1.05
-7 0 -6 1.62 0.93
7 0 7 18.28 1.83
7 0 7 16.92 1.04
-7 0 -7 12.31 1.77
-7 0 -7 12.16 1.56
7 0 8 15.22 1.89
7 0 8 13.74 1.63
-7 0 -8 9.6 1.89
-7 0 -8 9.93 1.49
7 0 9 6.07 1.03
7 0 9 5.77 0.86
-7 0 -9 3.47 1.03
-7 0 -9 4 1.3
7 1 -9 11.26 0.87
7 1 -9 11.92 1.79
-7 -1 9 10.61 1.02
-7 -1 9 13.73 2.08
7 1 -8 29.16 1.43
7 1 -8 28.87 2.35
-7 -1 8 28.55 1.79
7 1 -7 1.11 0.58
7 1 -7 1.21 1.09
-7 -1 7 1.23 0.56
-7 -1 7 1.22 1.24
7 1 -6 28.21 0.88
7 1 -6 25.71 1.96
7 1 -5 5.55 0.54
7 1 -5 6.07 0.59
7 1 -5 7.94 1.08
7 1 -5 6.76 0.69
7 1 -4 57.58 1.88
7 1 -4 52.51 1.76
7 1 -4 56.8 2
7 1 -4 62.12 2.96
7 1 -3 48.74 1.6
7 1 -3 43.94 1.49
7 1 -3 48.16 2.24
7 1 -3 52.85 2.44
7 1 -2 1.66 0.46
7 1 -2 1.53 0.42
7 1 -2 1.78 0.43
7 1 -2 1.96 0.46
7 1 -1 42.18 1.41
7 1 -1 38.31 1.36
7 1 -1 39.98 1.78
7 1 -1 44.23 1.36
7 1 0 29.94 1.21
7 1 0 28.52 1.17
7 1 0 28.19 1.39
7 1 0 31.18 1.02
7 1 1 14.4 0.9
7 1 1 13.13 0.61
7 1 1 13.56 0.99
7 1 1 15.97 0.68
7 1 2 98.26 3.65
7 1 2 87.98 2.83
7 1 2 87.15 2.79
7 1 2 99.66 3.71
7 1 3 7.92 0.55
7 1 3 7.5 0.8
-7 -1 -3 5.06 0.95
-7 -1 -3 5.66 0.81
7 1 4 2.14 0.5
7 1 4 2.17 0.72
-7 -1 -4 1.54 0.52
-7 -1 -4 1.31 0.68
7 1 5 12.17 0.81
7 1 5 11.51 1.06
-7 -1 -5 8.87 0.85
7 1 6 11.12 1.07
-7 -1 -6 7.31 1.38
-7 -1 -6 7.3 1.04
7 1 7 8.25 0.86
7 1 7 6.9 1.11
-7 -1 -7 6.23 1.44
-7 -1 -7 5.94 1.05
7 1 8 1.17 1.27
7 1 8 0.96 0.9
-7 -1 -8 0.32 0.75
-7 -1 -8 0.63 0.86
7 1 9 0.73 1.35
7 1 9 0.64 1.01
-7 -1 -9 0.17 0.82
-7 -1 -9 0.75 0.61
7 1 10 7.84 1.91
7 1 10 7.3 0.87
-7 -1 -10 6.58 1.94
-7 -1 -10 5.76 1.31
7 2 -9 0.5 0.68
7 2 -9 0.83 1.22
-7 -2 9 0.11 0.52
-7 -2 9 1.35 1.41
7 2 -8 19.04 1.26
7 2 -8 16.03 1.11
-7 -2 8 14.44 1.37
-7 -2 8 17.88 1.33
7 2 -7 53.59 2.3
7 2 -7 49.52 2.04
-7 -2 7 43.89 2.46
-7 -2 7 50.74 3.46
7 2 -6 3.82 0.68
7 2 -6 3.92 0.62
-7 -2 6 2.13 0.77
-7 -2 6 3.81 0.74
7 2 -5 19.22 0.96
7 2 -5 19.51 0.93
-7 -2 5 18.9 1.08
7 2 -4 35.18 1.4
7 2 -4 29.58 1.25
7 2 -4 30.03 1.67
7 2 -4 32.2 1.23
7 2 -3 0.92 0.51
7 2 -3 1.6 0.5
7 2 -3 1.24 0.68
7 2 -3 2.34 0.74
7 2 -2 29.33 1.18
7 2 -2 26.45 1.11
7 2 -2 26.06 0.94
7 2 -2 29.94 0.99
7 2 -1 9.28 0.71
7 2 -1 8.41 0.69
7 2 -1 8.79 0.74
7 2 -1 9.85 0.5
7 2 0 0.46 0.51
7 2 0 0.47 0.5
7 2 0 1.05 0.49
7 2 0 0.98 0.5
7 2 1 7.96 0.76
7 2 1 7.39 0.5
7 2 1 7.05 0.63
7 2 1 8.38 0.7
7 2 2 11.2 0.94
7 2 2 10.54 0.97
7 2 2 8.99 0.7
7 2 2 11.11 0.77
7 2 3 25.81 0.99
7 2 3 22.59 1.11
7 2 4 37.12 1.56
-7 -2 -4 31.84 2.2
-7 -2 -5 31.34 1.5
-7 -2 -5 28.66 1.54
7 2 6 8.27 1.23
7 2 6 7.53 0.83
-7 -2 -6 5.91 1.33
-7 -2 -6 6.03 0.53
7 2 7 20 1.83
7 2 7 18.92 1.25
-7 -2 -7 16.22 1.82
-7 -2 -7 14.36 1.24
7 2 8 0.25 1.16
7 2 8 0.21 0.74
-7 -2 -8 0.39 0.71
-7 -2 -8 0.02 0.69
7 2 9 3.12 1.45
7 2 9 2.95 0.93
-7 -2 -9 2.19 1.49
-7 -2 -9 2.03 0.94
7 2 10 19.92 1.53
7 2 10 17.17 1.06
-7 -2 -10 16.57 2.52
-7 -2 -10 13.51 1.66
7 3 -9 2.49 1
7 3 -9 3.04 0.8
-7 -3 9 2.35 1.16
-7 -3 9 1.9 0.93
7 3 -8 1.93 0.89
7 3 -8 3.33 1.13
-7 -3 8 0.75 0.63
-7 -3 8 2.3 0.79
7 3 -7 27.12 1.62
7 3 -7 26.29 1.95
-7 -3 7 26.29 1.93
-7 -3 7 26 2.31
7 3 -6 14.5 1.12
7 3 -6 14.43 1.31
-7 -3 6 12.98 1.35
-7 -3 6 15.47 1.02
7 3 -5 6.31 0.74
7 3 -5 5.93 0.92
-7 -3 5 5.65 0.9
-7 -3 5 7.18 1.09
7 3 -4 0.12 0.55
7 3 -4 -0.33 0.64
-7 -3 4 1.07 0.64
-7 -3 4 1.13 0.72
7 3 -3 0.9 0.62
7 3 -3 1.45 0.56
7 3 -3 1.7 0.59
7 3 -3 0.36 0.63
7 3 -2 5.59 0.74
7 3 -2 5.66 0.68
7 3 -2 4.5 0.65
7 3 -2 5.49 0.43
7 3 -1 0.84 0.61
7 3 -1 1.17 0.34
7 3 -1 0.35 0.46
7 3 -1 0.5 0.49
7 3 0 20.46 1.12
7 3 0 17.78 0.71
7 3 0 16.56 0.8
7 3 0 19.24 0.85
7 3 1 43.37 1.91
7 3 1 39.48 1.35
7 3 1 45.15 1.48
7 3 2 4.34 0.84
7 3 2 4.91 0.87
7 3 2 3.44 0.62
7 3 2 3.74 0.49
7 3 3 39.79 1.41
7 3 3 38.38 2.09
7 3 3 35.79 1.31
7 3 4 110.44 4.8
7 3 4 95 3.4
7 3 5 9.8 1.24
7 3 5 7.33 0.65
-7 -3 -5 6.81 1.3
7 3 6 4.41 1.09
7 3 6 3.72 0.58
-7 -3 -6 3.02 1.18
-7 -3 -6 2.4 0.56
7 3 7 12.68 0.91
-7 -3 -7 10.13 1.65
-7 -3 -7 11.55 0.9
7 3 8 2.25 0.73
7 3 8 1.23 0.41
-7 -3 -8 1.9 0.81
-7 -3 -8 1.14 0.67
7 3 9 14.61 1.2
7 3 9 12.33 1.13
-7 -3 -9 11.81 2.09
-7 -3 -9 10.45 1.19
7 3 10 0.92 0.92
7 3 10 2.56 0.85
-7 -3 -10 1.6 1.71
-7 -3 -10 1.43 0.57
7 4 -8 6.38 1.23
7 4 -8 8.12 0.88
-7 -4 8 7.92 1.45
-7 -4 8 7.37 1.64
7 4 -7 1.24 0.86
7 4 -7 -1.76 0.97
-7 -4 7 -1.94 1.02
-7 -4 7 -0.64 1.11
7 4 -6 31.19 1.79
7 4 -6 32.57 1.91
-7 -4 6 31 1.5
-7 -4 6 30.05 1.49
7 4 -5 0.59 0.39
7 4 -5 0.15 0.68
-7 -4 5 -0.35 0.5
-7 -4 5 -0.25 0.82
7 4 -4 1.35 0.69
7 4 -4 1.53 0.39
-7 -4 4 1.61 0.52
-7 -4 4 2.11 0.76
7 4 -3 7.74 0.87
7 4 -3 7.05 0.72
-7 -4 3 7.03 0.64
-7 -4 3 6.29 0.52
7 4 -2 69.17 2.81
7 4 -2 68.08 2.38
7 4 -2 67.06 2.49
7 4 -1 3.75 0.88
7 4 -1 4.54 0.82
7 4 -1 3.97 0.52
7 4 -1 3.43 0.5
7 4 0 60.63 2.52
7 4 0 52.81 1.69
7 4 0 51.13 1.57
7 4 0 48.57 1.58
7 4 1 58.15 1.89
7 4 1 56.12 1.72
7 4 2 4.68 0.92
7 4 2 2.83 0.34
7 4 2 3.66 0.36
7 4 3 30.4 1.78
7 4 3 27.98 1.2
7 4 4 29.73 1.26
7 4 4 29.11 1.93
7 4 5 6.16 0.65
7 4 5 3.91 0.4
7 4 6 6.82 1.2
7 4 6 5.03 0.48
-7 -4 -6 4.94 1.3
-7 -4 -6 4.05 0.43
7 4 7 1.51 1.11
7 4 7 1.51 0.63
-7 -4 -7 -0.07 1.23
-7 -4 -7 1.33 0.42
7 4 8 12.12 1.67
7 4 8 8.46 0.76
-7 -4 -8 9.09 1.1
-7 -4 -8 7.14 0.73
7 4 9 1.5 1.38
7 4 9 0.16 0.59
-7 -4 -9 0.16 1.46
-7 -4 -9 -0.07 0.61
7 4 10 5.05 1.63
7 4 10 2.4 0.77
-7 -4 -10 2.82 1.77
-7 -4 -10 3.04 0.84
7 4 11 1.43 1.78
7 4 11 1.66 0.8
-7 -4 -11 1.11 1.14
-7 -4 -11 2.28 0.97
7 5 -8 11.97 1.46
7 5 -8 9.07 1.5
-7 -5 8 8.44 1.77
7 5 -7 0.88 0.58
7 5 -7 -0.01 0.57
-7 -5 7 0.24 0.69
-7 -5 7 0.81 1.08
7 5 -6 58.25 3.03
7 5 -6 57.69 2.96
-7 -5 6 61.2 3.65
-7 -5 6 57.29 3.32
7 5 -5 54.06 1.98
7 5 -5 59.7 2.07
-7 -5 5 61.96 3.62
-7 -5 5 52.02 3.03
7 5 -4 47.26 2.37
7 5 -4 52.88 2.24
-7 -5 4 54.52 3.17
-7 -5 4 47.54 2.42
7 5 -3 58.33 2.75
7 5 -3 60.31 1.84
-7 -5 3 63.83 3.55
-7 -5 3 54.55 2.55
7 5 -2 138.52 5.22
7 5 -2 156.81 5.65
7 5 -1 75.11 3.28
7 5 -1 63.99 2.29
7 5 -1 66.76 2.18
7 5 0 19.13 1.33
7 5 0 14.96 0.61
7 5 0 15.6 0.59
7 5 1 7.05 1.07
7 5 1 6.68 0.6
7 5 2 3.41 0.56
7 5 2 3.1 0.93
7 5 3 2.43 0.94
7 5 3 2.6 0.57
7 5 4 1.37 0.92
7 5 4 0.84 0.99
7 5 5 7.6 0.27
7 5 5 6.99 0.28
7 5 6 2.48 0.67
7 5 6 1.01 0.18
7 5 6 0.94 0.22
7 5 7 22.54 0.92
-7 -5 -7 19.52 0.83
7 5 8 31 1.23
-7 -5 -8 43.37 3.27
7 5 9 8.58 1.73
-7 -5 -9 6.41 1.88
7 5 10 3.58 1.7
-7 -5 -10 4.4 1.8
7 5 11 12.56 2.34
-7 -5 -11 10.45 1.53
7 6 -7 10.31 0.96
7 6 -7 9.88 0.87
-7 -6 7 10.25 1.17
-7 -6 7 10.49 1
7 6 -6 27.39 2.06
7 6 -6 26.97 1.79
-7 -6 6 26.09 2.56
-7 -6 6 24.95 2.11
7 6 -5 63.8 3.35
7 6 -5 70.58 3.05
-7 -6 5 74.6 4.47
-7 -6 5 60.33 3.42
7 6 -4 8.97 1.22
7 6 -4 8.87 0.89
-7 -6 4 7.42 0.98
-7 -6 4 8.51 1
7 6 -3 84.21 3.09
7 6 -3 89.23 3.35
-7 -6 3 99.08 3.98
-7 -6 3 82.77 3.67
7 6 -2 83.66 3.97
7 6 -2 83.59 2.81
-7 -6 2 87.99 3.62
7 6 -1 76.66 2.76
7 6 -1 80.35 2.27
7 6 0 14.08 1.5
7 6 0 10.88 1.29
7 6 1 26.49 1.77
7 6 1 20.04 1
7 6 2 15.08 0.91
7 6 2 13.3 1.36
7 6 3 0.62 0.95
7 6 3 0.62 0.55
7 6 4 7.36 1.29
7 6 4 7.33 0.81
7 6 5 94.3 3.72
7 6 5 90.84 3.85
7 6 6 49.91 2.16
7 6 6 45.66 2.31
7 6 7 1.51 1.29
7 6 7 1.91 0.8
7 6 8 9.53 1.69
7 6 9 0.13 1.25
-7 -6 -9 0.29 0.83
7 6 10 0.22 1.42
-7 -6 -10 0.92 1.57
7 7 -6 16.39 1.93
7 7 -6 17.05 1.43
-7 -7 6 15.89 2.43
-7 -7 6 16.69 1.72
7 7 -5 15.63 1.7
7 7 -5 14.82 1.14
-7 -7 5 13.62 1.34
-7 -7 5 14.21 0.93
7 7 -4 63.44 2.51
7 7 -4 65.41 2.63
-7 -7 4 73.68 3.33
-7 -7 4 58.87 3.06
7 7 -3 13.42 1.43
7 7 -3 11.11 0.78
-7 -7 3 13.33 1.86
-7 -7 3 11.29 0.9
7 7 -2 4.29 0.65
7 7 -2 4.43 0.46
-7 -7 2 3.61 1.35
-7 -7 2 3.98 0.52
7 7 -1 8.71 1.19
7 7 -1 7.33 0.39
7 7 0 11.82 1.51
7 7 0 10.26 1.34
7 7 1 13.06 0.99
7 7 1 10.56 0.86
7 7 2 120.93 4.73
7 7 2 104.99 5.53
7 7 3 2.2 1.33
7 7 3 5.84 1.27
7 7 4 65.99 3.62
7 7 4 56.37 2.49
7 7 5 77.76 3.2
7 7 5 73.67 3.33
7 7 6 57.04 2.56
7 7 6 55.48 2.69
7 7 7 33.08 2.74
7 7 7 30.91 1.85
7 7 8 17.82 2.02
7 7 8 11.84 2.14
7 7 9 5.18 1.55
7 7 9 3.71 0.96
7 7 10 8.36 1.12
7 8 -5 23.12 2.26
7 8 -5 21.91 0.96
-7 -8 5 24.25 1.83
-7 -8 5 22.39 1.81
7 8 -4 25.63 2.12
7 8 -4 24.6 1.28
-7 -8 4 27.76 1.86
-7 -8 4 23.64 1.59
7 8 -3 12.74 0.99
7 8 -3 12.73 0.77
-7 -8 3 13.58 2.06
-7 -8 3 11.67 0.92
7 8 -2 4.89 1.23
7 8 -2 4.52 0.44
-7 -8 2 5.57 1.52
-7 -8 2 4.82 0.52
7 8 -1 5.01 1.15
-7 -8 1 3.4 0.3
7 8 0 6.57 1.5
7 8 0 6.05 0.77
7 8 1 23.43 2.07
7 8 1 15.74 1.14
7 8 2 41.34 2.84
7 8 2 33.95 2.6
7 8 3 18.39 1.98
7 8 3 15.68 1.82
7 8 4 0.39 0.67
7 8 4 -1.26 1.12
7 8 5 0.82 0.73
7 8 5 0.92 0.73
7 8 6 24.6 2.31
7 8 6 21.4 2.42
7 8 7 36.95 3.02
7 8 7 33.35 3.13
7 8 8 5.6 0.95
7 8 8 4.28 1.71
7 8 9 5.53 1.03
7 8 9 6.44 1.1
7 8 10 17.51 1.49
7 8 10 18.62 2.56
7 9 -4 5.48 0.92
-7 -9 4 4.51 1.15
-7 -9 4 4.75 0.93
7 9 -3 0.19 1.14
-7 -9 3 1.21 1.48
7 9 -2 6.6 1.41
-7 -9 2 6.06 1.79
7 9 -1 2.02 0.71
-7 -9 1 1.38 0.84
7 9 0 15.63 1.22
7 9 0 12.15 1.08
7 9 1 4.63 0.97
7 9 1 4.14 1.43
7 9 2 0.81 0.8
7 9 2 0.59 1.29
7 9 3 29.35 2.62
7 9 3 21.73 2.3
7 9 4 58.7 3.89
7 9 4 49.61 3.59
7 9 5 6.12 1.79
7 9 5 10.05 1.71
7 9 6 7.91 1
7 9 6 3.38 1.71
7 9 7 20.81 1.51
7 9 7 20.92 2.42
7 9 8 1.47 0.87
7 9 8 1.31 0.91
7 9 9 16.01 2.38
7 9 9 14.93 2.52
7 10 -2 1.78 0.83
-7 -10 2 1.01 1.75
7 10 -1 9.08 1.03
-7 -10 1 7.49 1.22
7 10 0 44.6 2.46
7 10 0 37.92 3.37
7 10 1 82.8 3.85
7 10 1 67.95 4.77
7 10 2 2.65 0.96
7 10 3 26.71 1.78
7 10 3 21.87 2.44
7 10 4 9.89 1.18
7 10 4 9.31 1.8
7 10 5 4.2 1.53
7 10 5 0.52 1.4
7 10 6 9.02 1.9
7 10 6 7.9 1.74
7 10 7 0.21 1.51
7 10 7 1.32 0.84
7 10 8 3.56 1.68
7 10 8 1.35 1.02
7 11 0 19.27 1.68
7 11 0 16.02 2.29
7 11 1 15.35 1.46
7 11 1 13.09 2.11
7 11 2 4.35 1.76
7 11 2 2.88 1.52
7 11 3 4.43 1.72
7 11 3 3.36 1.55
7 11 4 1.81 0.97
7 11 4 3.52 1.49
7 11 5 1.08 0.87
7 11 5 -3.15 1.35
7 11 6 0.39 0.89
7 11 6 -0.42 1.39
8 -4 -5 -0.07 1.39
8 -4 -5 -0.21 1.48
8 -4 -4 2.14 1.51
8 -4 -4 1.87 1.55
8 -4 -3 0.6 0.76
8 -4 -3 -1.24 1.38
8 -4 -2 4.13 0.95
8 -4 -2 5.74 1.65
8 -4 -1 2.88 0.89
8 -4 -1 5.14 1.58
8 -4 0 5.55 1
8 -4 0 6.19 1.04
8 -4 1 21.15 1.52
8 -4 1 22.88 1.62
8 -4 2 7.57 1.76
-8 4 -2 5.29 1.06
8 -4 3 2.08 1.58
-8 4 -3 1.28 0.88
8 -3 -6 0.04 0.83
8 -3 -6 0.97 0.9
8 -3 -5 12.32 1.24
8 -3 -5 15.18 2.07
8 -3 -4 0.85 0.77
8 -3 -4 1.14 1.34
8 -3 -3 -0.59 1.24
8 -3 -3 -0.1 1.23
8 -3 -2 6.18 1.5
8 -3 -2 6.34 1.52
8 -3 -1 6.66 1.5
8 -3 -1 5.88 0.93
8 -3 0 4.67 0.89
8 -3 0 8.1 1.54
8 -3 1 2.83 0.77
8 -3 1 2.72 1.38
8 -3 2 1.14 0.51
8 -3 2 1.49 0.73
-8 3 -2 -0.13 0.5
-8 3 -2 0.46 0.71
8 -3 3 0.02 0.62
8 -3 3 -0.08 0.74
-8 3 -3 0.19 0.6
-8 3 -3 0.01 0.74
8 -3 4 0.84 0.81
8 -3 4 0.6 1.4
-8 3 -4 0.99 0.83
-8 3 -4 2.21 0.81
8 -3 5 6.03 1.13
-8 3 -5 2.84 1.11
-8 3 -5 4.64 1.62
8 -2 -7 2.63 0.92
8 -2 -7 2.87 0.95
8 -2 -6 4.72 0.91
8 -2 -6 4.07 0.97
8 -2 -5 11.31 1.77
8 -2 -5 12.6 1.88
8 -2 -4 10.28 1.66
8 -2 -4 10.52 1.72
8 -2 -3 0.25 1.11
8 -2 -3 -0.41 1.11
8 -2 -2 0.69 0.64
8 -2 -2 1.29 0.67
8 -2 -1 7.9 0.9
8 -2 -1 13.16 1.53
8 -2 0 7.39 0.55
8 -2 0 10 1.5
8 -2 1 13.15 1.65
8 -2 1 12.94 1.06
8 -2 2 3.25 0.67
8 -2 2 4.73 1.25
-8 2 -2 2.26 0.61
8 -2 3 5.36 0.86
8 -2 3 6.04 0.85
-8 2 -3 3.27 0.81
-8 2 -3 5.82 0.81
8 -2 4 2.11 0.52
8 -2 4 3.52 1.3
-8 2 -4 1.35 0.52
-8 2 -4 2.58 0.74
8 -2 5 8.31 1.21
8 -2 5 8.36 1.65
-8 2 -5 5.17 1.19
-8 2 -5 6.33 1.53
8 -2 6 6.55 1.38
8 -2 6 6.83 0.95
-8 2 -6 5.52 1.27
-8 2 -6 5.74 1.6
8 -1 -7 0.79 0.78
8 -1 -7 2.07 1.38
8 -1 -6 0.25 0.72
8 -1 -6 0.89 0.74
8 -1 -5 2.69 1.22
8 -1 -5 1.98 1.29
8 -1 -4 20.24 1.93
8 -1 -4 20.81 2.03
8 -1 -3 16.25 1.13
8 -1 -3 18.86 1.18
8 -1 -2 1.47 0.38
8 -1 -2 1.12 0.24
8 -1 -2 2.02 0.62
8 -1 -2 2.41 1.05
8 -1 -1 4.16 1.15
8 -1 -1 5.64 1.15
8 -1 0 46.65 2.85
8 -1 0 52.74 2.17
8 -1 1 16.89 1.03
8 -1 1 19.26 1.12
8 -1 1 21.11 1.79
8 -1 2 10.69 1.03
8 -1 2 14.08 0.94
8 -1 3 9.81 1.03
8 -1 3 10.45 1.39
-8 1 -3 7.71 1.34
8 -1 4 0.71 0.83
8 -1 4 1.81 1.06
-8 1 -4 1.11 0.8
-8 1 -4 1.51 1.01
8 -1 5 0.54 0.94
8 -1 5 2.42 1.12
-8 1 -5 0.08 0.92
-8 1 -5 1.14 1.06
8 -1 6 10.04 0.89
8 -1 6 9.82 0.95
-8 1 -6 7.2 0.88
-8 1 -6 8.23 1.52
8 -1 7 2.19 1.33
8 -1 7 4.65 1.36
-8 1 -7 2.37 1.31
-8 1 -7 2.51 1.35
8 0 -8 0.57 0.75
8 0 -8 -0.54 1.31
8 0 -7 19.49 1.34
8 0 -7 19.47 2.22
8 0 -6 13.07 1.14
8 0 -6 16.56 1.21
8 0 -5 2.81 0.72
8 0 -5 3.06 0.77
8 0 -4 20.79 0.92
8 0 -4 20.69 0.71
8 0 -3 34.2 1.18
8 0 -3 34.02 1.09
8 0 -2 11.2 0.83
8 0 -2 13.63 1.39
8 0 -1 4.6 0.96
8 0 -1 4.09 0.6
8 0 0 5.92 0.59
8 0 0 4.12 0.52
8 0 0 4.36 0.97
8 0 0 5.89 1.01
8 0 1 7.39 0.75
8 0 1 5.72 0.69
8 0 1 6.75 1.03
8 0 1 8.2 0.68
8 0 2 9.69 0.93
8 0 2 7.44 0.84
8 0 2 9.23 1.07
8 0 2 10.76 0.73
8 0 3 2.79 0.49
8 0 3 3.8 0.93
-8 0 -3 1.94 0.78
-8 0 -3 1.57 0.53
8 0 4 2.41 0.86
8 0 4 1.73 0.97
-8 0 -4 0.77 0.88
-8 0 -4 2.56 0.9
8 0 5 5.54 1.09
8 0 5 5.47 0.71
-8 0 -5 1.18 1.12
-8 0 -5 3.42 1.07
8 0 6 -0.1 1.1
8 0 6 1.97 0.99
-8 0 -6 0.23 1.06
-8 0 -6 1.38 1
8 0 7 20.43 1.35
8 0 7 21.2 1.28
-8 0 -7 14.3 2.08
8 0 8 20.65 2.22
8 0 8 17.55 1.93
-8 0 -8 11.99 2.16
-8 0 -8 14.24 1.92
8 1 -8 1.24 1.25
8 1 -7 21.44 2.08
8 1 -7 21.35 2.2
8 1 -6 43.56 2.94
8 1 -6 48.07 2.2
8 1 -5 0.95 0.43
8 1 -5 0.62 0.42
8 1 -5 1.22 0.61
8 1 -5 1.55 0.64
8 1 -4 10.76 0.69
8 1 -4 10.7 0.65
8 1 -4 13.7 0.86
8 1 -3 24.13 1.03
8 1 -3 25.4 1.71
8 1 -2 11.7 0.74
8 1 -2 14.5 1.18
8 1 -2 13.93 1.24
8 1 -1 1.79 0.48
8 1 -1 0.81 0.44
8 1 -1 1.05 0.43
8 1 -1 0.67 0.76
8 1 0 16.21 0.95
8 1 0 15.81 1.16
8 1 0 17.05 0.81
8 1 1 0.51 0.61
8 1 1 0.94 0.58
8 1 1 0.8 0.67
8 1 1 0.46 0.73
8 1 2 7.28 0.85
8 1 2 6.61 0.86
8 1 2 6.67 0.88
8 1 2 8.01 0.94
8 1 3 1.23 0.78
8 1 3 2.52 0.79
-8 -1 -4 21.51 1.74
-8 -1 -4 21.38 1.59
8 1 5 19.99 1.69
8 1 5 18.16 1.5
-8 -1 -5 13.02 1.68
8 1 6 2.26 1.07
8 1 6 0.87 0.5
-8 -1 -6 1.23 1.06
-8 -1 -6 0.66 0.87
8 1 7 7.46 1.43
8 1 7 6.05 1.11
-8 -1 -7 4.08 0.85
-8 -1 -7 4.31 1.16
8 1 8 4.26 0.93
8 1 8 4.4 0.7
-8 -1 -8 4.71 1.51
-8 -1 -8 3.64 1.14
8 2 -8 0.45 0.58
8 2 -8 0.75 1.17
-8 -2 8 0.92 0.69
-8 -2 8 0.96 0.8
8 2 -7 3.02 0.63
8 2 -7 2.32 1.16
8 2 -6 14.78 1
8 2 -6 14.32 0.94
8 2 -6 16.54 1.6
8 2 -6 17.86 1.09
8 2 -5 13.17 0.93
8 2 -5 13.31 0.58
8 2 -5 15.15 1.37
8 2 -5 17.5 0.98
8 2 -4 1.2 0.56
8 2 -4 2.2 0.5
8 2 -4 2.01 0.83
8 2 -4 2.59 0.55
8 2 -3 1.5 0.55
8 2 -3 1.41 0.49
8 2 -3 0.86 0.75
8 2 -3 1.92 0.81
8 2 -2 13.54 0.88
8 2 -2 10.86 0.77
8 2 -2 11.93 0.67
8 2 -2 13.93 1.1
8 2 -1 4.57 0.41
8 2 -1 3.77 0.61
8 2 -1 3.95 0.71
8 2 -1 4.33 0.74
8 2 0 0.54 0.63
8 2 0 1.52 0.34
8 2 0 1.47 0.36
8 2 0 1.68 0.64
8 2 1 96.66 3.92
8 2 1 84.75 3.62
8 2 1 99.16 3.86
8 2 2 15.2 1.26
8 2 2 14.27 1.31
8 2 2 16.38 1.09
8 2 3 21.91 1.54
8 2 3 19.09 1.52
8 2 3 21.35 0.86
8 2 4 15.81 0.92
8 2 4 16.24 0.78
8 2 5 9.55 0.81
8 2 5 8.62 0.56
-8 -2 -5 7.11 1.32
-8 -2 -5 5.22 0.88
8 2 6 1.31 0.65
8 2 6 2.04 0.71
-8 -2 -6 0.49 1.12
-8 -2 -6 1.76 0.71
8 2 7 1.63 1.23
8 2 7 1.58 0.78
-8 -2 -7 0.91 0.72
-8 -2 -7 1.67 0.48
8 2 8 0.73 1.29
8 2 8 0.33 0.49
-8 -2 -8 -1.01 1.3
-8 -2 -8 0.99 0.49
8 2 9 1.38 1.43
8 2 9 -0.4 0.88
-8 -2 -9 0.97 0.85
-8 -2 -9 0.03 0.89
8 3 -7 2.29 0.44
8 3 -7 3.28 1.07
-8 -3 7 1.23 0.91
-8 -3 7 1.39 1.3
8 3 -6 1.2 0.64
8 3 -6 2.63 0.9
-8 -3 6 1.28 0.49
-8 -3 6 0.8 0.65
8 3 -5 10.53 0.96
8 3 -5 7.8 0.82
8 3 -5 8.73 1.09
8 3 -5 9.39 0.74
8 3 -4 1.77 0.69
8 3 -4 1.81 0.59
8 3 -4 0.68 0.73
8 3 -4 1.98 0.49
8 3 -3 0.59 0.64
8 3 -3 0.86 0.55
8 3 -3 -0.37 0.62
8 3 -3 1.01 0.69
8 3 -2 46.22 2.06
8 3 -2 39.94 1.84
8 3 -2 44.65 1.94
8 3 -2 46.81 1.53
8 3 -1 21.33 0.86
8 3 -1 19.24 1.21
8 3 -1 17.24 1.11
8 3 -1 21.38 1.15
8 3 0 1.23 0.69
8 3 0 1.31 0.65
8 3 0 1.24 0.51
8 3 0 0.29 0.52
8 3 1 18.67 1.29
8 3 1 15.81 1.26
8 3 1 13.89 0.92
8 3 1 17.32 0.96
8 3 2 98.26 3.54
8 3 2 95.92 3.53
8 3 2 84.51 3.51
8 3 3 13.1 0.85
8 3 3 11.7 1.39
8 3 3 12.25 0.88
8 3 4 5.42 1.04
8 3 4 4.43 1.08
8 3 4 4.22 0.39
8 3 5 0.46 0.94
8 3 5 0.41 0.49
-8 -3 -5 0.13 0.45
8 3 6 7.72 1.37
8 3 6 8.74 0.76
-8 -3 -6 7.56 1.45
-8 -3 -6 5.39 0.71
8 3 7 1.88 1.25
8 3 7 1.4 0.66
-8 -3 -7 3.2 1.28
-8 -3 -7 1.56 0.61
8 3 8 12.72 1.81
8 3 8 8.39 0.97
-8 -3 -8 8.16 1.11
-8 -3 -8 6.43 0.94
8 3 9 6.21 1.78
8 3 9 5.44 0.93
-8 -3 -9 4.74 1.8
-8 -3 -9 4.37 0.96
8 4 -7 22.37 1.52
8 4 -7 21.85 1.21
-8 -4 7 20.46 1.95
-8 -4 7 22.61 2.21
8 4 -6 0.1 0.7
8 4 -6 -0.63 0.52
-8 -4 6 1.5 0.94
-8 -4 6 -0.1 0.98
8 4 -5 17.49 1.19
8 4 -5 19.18 1.36
-8 -4 5 16.2 1.06
-8 -4 5 14.95 1.03
8 4 -4 0.63 0.45
8 4 -4 0.81 0.66
8 4 -4 -0.45 0.69
8 4 -4 0.94 0.69
8 4 -3 21.83 1.48
8 4 -3 17.92 1.25
8 4 -3 19.68 1.18
8 4 -3 20.38 1.22
8 4 -2 14.2 1.26
8 4 -2 13.52 1.11
8 4 -2 12.32 0.92
8 4 -2 14.16 0.94
8 4 -1 36.98 1.9
8 4 -1 29.82 1.2
8 4 -1 29.49 1.29
8 4 -1 32.23 1.32
8 4 0 9.29 0.67
8 4 0 8.13 1.02
8 4 0 7.58 0.62
8 4 1 1.3 0.48
8 4 1 1.01 0.75
8 4 1 0.23 0.38
8 4 1 0.71 0.38
8 4 2 13.2 1.29
8 4 2 12.08 0.82
8 4 2 11.33 0.62
8 4 3 50.91 2.67
8 4 3 46.52 2.69
8 4 3 41.57 1.77
8 4 4 5.35 1.14
8 4 4 5.48 1.18
8 4 4 4.5 0.59
8 4 5 17.26 1.03
8 4 5 14.35 1.64
8 4 5 13 0.69
8 4 6 23.48 1.28
8 4 6 15.61 0.86
8 4 7 5.65 0.88
8 4 7 4.29 0.58
-8 -4 -7 4.76 1.52
-8 -4 -7 3.13 0.71
-8 -4 -8 12.58 1.27
-8 -4 -8 7.83 0.8
8 4 9 31.41 2.04
-8 -4 -9 27.49 3.31
8 5 -7 4.93 0.65
8 5 -7 4.51 1.19
-8 -5 7 3.62 0.88
-8 -5 7 3.94 1.33
8 5 -6 0.02 0.82
8 5 -6 0.36 0.51
-8 -5 6 -0.03 1.06
-8 -5 6 0.2 0.96
8 5 -5 11.45 0.77
8 5 -5 13.24 1.16
-8 -5 5 10.17 1.56
-8 -5 5 10.08 1.33
8 5 -4 12.11 1.2
8 5 -4 12.59 1.05
8 5 -3 2.08 0.96
8 5 -3 1.35 0.81
8 5 -3 0.57 0.62
8 5 -3 1.39 0.6
8 5 -2 -2.15 0.91
8 5 -2 -0.05 0.76
8 5 -2 0.17 0.49
8 5 -2 0.05 0.47
8 5 -1 18.08 1.66
8 5 -1 17.62 1.4
8 5 -1 15.51 0.8
8 5 0 62.22 2.26
8 5 0 67.32 2.35
8 5 1 8.47 0.79
8 5 1 8.6 1.18
8 5 2 15.06 0.9
8 5 2 12.59 0.85
8 5 3 5 1.11
8 5 3 5.15 1.14
8 5 4 0.58 0.99
8 5 4 0.22 1
8 5 4 0.45 0.21
8 5 4 0.33 0.16
8 5 5 25.43 2.18
8 5 5 25.05 2.22
8 5 6 38.01 2.84
8 5 6 34.01 2.82
8 5 7 -0.39 0.73
8 5 8 5.26 0.98
-8 -5 -8 4.67 1.09
8 5 9 11.07 1.28
-8 -5 -9 10.31 2.24
8 6 -6 4.75 1.15
8 6 -6 3.96 0.63
-8 -6 6 4.63 1.56
-8 -6 6 4.5 1.17
8 6 -5 0.23 0.54
8 6 -5 0.83 0.73
-8 -6 5 0.6 0.72
-8 -6 5 -0.04 0.84
8 6 -4 26.9 1.84
8 6 -4 27.8 1.49
-8 -6 4 25.6 2.33
-8 -6 4 22.92 1.62
8 6 -3 13.52 0.89
8 6 -3 14.21 0.95
8 6 -2 1.54 1.12
8 6 -2 0.98 0.94
8 6 -2 1.57 0.49
8 6 -2 1.4 0.45
8 6 -1 18.4 0.81
8 6 -1 17.06 0.73
8 6 0 20.81 0.71
8 6 0 18.85 0.62
8 6 1 2.15 1.13
8 6 1 1.19 1
8 6 2 12.8 0.93
8 6 2 10.46 0.86
8 6 3 5.3 1.26
8 6 3 4.86 1.18
8 6 4 1.31 1.07
8 6 4 -0.41 1.09
8 6 5 0.63 1.21
8 6 5 1.32 1.26
8 6 6 5.84 1.56
8 6 6 7.08 1.65
8 6 7 0.19 0.76
8 6 7 1.3 1.36
8 6 8 2.55 0.88
8 6 8 2.27 0.93
8 6 9 0.79 0.87
8 7 -5 10.62 1.53
8 7 -5 11.72 0.71
-8 -7 5 11.55 2.05
-8 -7 5 8.79 1.28
8 7 -4 7.04 0.77
8 7 -4 5.14 0.5
-8 -7 4 5.77 1.69
-8 -7 4 5.62 0.88
8 7 -3 19.82 1.74
8 7 -3 17.83 0.98
-8 -7 3 18.92 1.44
8 7 -2 9.97 0.81
8 7 -2 8.08 0.57
8 7 -1 2.57 0.76
8 7 -1 2.39 1.05
8 7 0 -0.22 0.66
8 7 0 1.32 0.97
8 7 1 0.86 0.66
8 7 1 -0.26 0.59
8 7 2 0.51 0.69
8 7 2 -0.08 0.62
8 7 3 4.96 1.33
8 7 3 2.58 1.25
8 7 4 10.91 1.65
8 7 4 10 1.68
8 7 5 12.84 1.8
8 7 5 10.26 1.84
8 7 6 0.77 0.77
8 7 6 -1.53 1.37
8 7 7 24.93 1.71
8 7 7 23.28 2.79
8 7 8 11.01 1.26
8 7 8 12.45 1.33
8 7 9 1.16 0.91
8 7 9 1.24 1.59
8 8 -4 2.72 1.28
-8 -8 4 4.4 1.69
8 8 -3 4 0.78
-8 -8 3 4.25 0.99
8 8 -2 9.32 1.45
8 8 -1 -1.96 1.29
8 8 -1 0.21 1.06
8 8 0 1.1 1.41
8 8 0 1.27 0.69
8 8 1 70.33 4.36
8 8 1 52.78 2.58
8 8 2 36.57 3.04
8 8 2 27.68 2.64
8 8 3 5.12 1.5
8 8 3 1.41 1.41
8 8 4 8.35 1.04
8 8 4 6.8 1.6
8 8 5 2.41 0.83
8 8 5 2.1 1.45
8 8 6 0.05 0.79
8 8 6 -1.1 1.4
8 8 7 3.14 0.96
8 8 7 2.75 1
8 8 8 2.42 1.52
8 8 8 0.47 0.93
8 9 -2 23.83 2.23
8 9 -1 12.01 2.16
8 9 -1 11.44 1.1
8 9 0 11.81 1.26
8 9 0 11.35 1.12
8 9 1 58.96 3.03
8 9 1 54.28 4.08
8 9 2 62.01 3.21
8 9 2 54.33 4.23
8 9 3 6.02 1.08
8 9 3 5.98 1.75
8 9 4 1.79 1.45
8 9 4 0.67 1.36
8 9 5 0.29 1.42
8 9 5 1.04 1.33
8 9 6 3.18 1.57
8 9 6 3.05 1.54
8 9 7 2.27 1.54
8 9 7 0.4 0.9
8 10 0 7.45 1.22
8 10 0 4.89 1.73
8 10 1 2.73 1.03
8 10 1 0.99 1.53
8 10 2 13.98 1.52
8 10 2 14.23 2.17
8 10 3 19.53 1.65
8 10 3 17.35 2.35
8 10 4 1.64 0.97
8 10 4 2.09 1.55
8 10 5 1.8 0.99
8 10 5 1.52 1.52
9 -2 -3 8.02 1.06
9 -2 -3 9.93 1.09
9 -2 -2 3.56 0.83
9 -2 -2 3.03 0.83
9 -2 -1 6.16 1.34
9 -2 -1 0.52 0.78
9 -2 0 25.13 2.37
9 -2 0 21.47 2.42
9 -2 1 24.19 2.52
9 -2 1 30.47 2.63
9 -2 2 2.17 1.44
9 -2 2 5.15 0.88
9 -2 3 0.83 0.67
9 -1 -5 6.56 1.02
9 -1 -5 8.7 1.07
9 -1 -4 2.01 0.76
9 -1 -4 1.44 0.81
9 -1 -3 20.62 2.12
9 -1 -3 20.67 1.38
9 -1 -2 0.54 1.09
9 -1 -2 -0.03 1.12
9 -1 -1 -0.37 0.99
9 -1 -1 0.36 1.06
9 -1 0 2.48 1.11
9 -1 0 1.74 0.69
9 -1 1 12.87 1.05
9 -1 1 15.95 1.73
9 -1 2 9.18 0.95
9 -1 2 10.79 0.96
9 -1 2 14.11 1.6
9 -1 3 0.23 0.7
9 -1 3 0.06 0.64
9 -1 3 0.97 0.6
9 -1 3 1.05 0.65
9 -1 4 6.41 1.05
9 -1 4 7.87 1.41
-9 1 -4 3.22 0.99
-9 1 -4 4.17 1.34
9 0 -5 10.34 1.06
9 0 -5 13.42 1.81
9 0 -4 1.22 0.7
9 0 -4 1.98 1.24
9 0 -3 0.54 1.07
9 0 -3 2.38 1.15
9 0 -2 4.04 1.12
9 0 -2 3.66 1.16
9 0 -1 2.53 0.45
9 0 -1 1.65 0.4
9 0 -1 1.97 1.03
9 0 -1 3.94 0.63
9 0 0 1.47 0.51
9 0 0 0.91 0.43
9 0 0 1.95 0.55
9 0 0 2.93 0.99
9 0 1 4.66 0.72
9 0 1 5.8 1.13
9 0 1 5.91 0.7
9 0 2 8.44 0.91
9 0 2 5.98 0.85
9 0 2 7.73 1.18
9 0 2 8.83 1.25
9 0 3 0.92 0.74
9 0 3 1.06 0.68
9 0 3 -0.18 0.89
9 0 3 -0.34 0.55
9 0 4 3.72 1.04
9 0 4 3.36 1.15
9 0 5 11.26 1.43
-9 0 -5 7.16 1.34
-9 0 -5 7.55 1.41
9 1 -6 1.08 1.15
9 1 -6 1.25 1.25
9 1 -5 7.48 1.42
9 1 -5 10.11 1.53
9 1 -4 5.91 1.26
9 1 -4 8.91 1.36
9 1 -3 4.35 0.51
9 1 -3 5.11 0.68
9 1 -3 7.55 1.17
9 1 -2 5.22 0.57
9 1 -2 4.69 1.06
9 1 -2 5.8 0.67
9 1 -1 12.95 0.86
9 1 -1 13.03 1.3
9 1 -1 15.91 1.37
9 1 0 0.34 0.56
9 1 0 0.85 0.5
9 1 0 0.29 0.83
9 1 0 1.55 0.48
9 1 1 1.38 0.39
9 1 1 0.8 0.57
9 1 1 1.61 0.48
9 1 1 2.76 0.81
9 1 2 16.01 1.21
9 1 2 11.73 1.13
9 1 2 12.84 1.28
9 1 2 16.52 1.31
9 1 3 2.05 0.91
9 1 3 2.59 0.84
9 1 3 1.08 0.87
9 1 3 2.9 0.55
9 1 4 0.64 0.91
9 1 4 0.37 0.49
9 1 4 0.23 0.44
9 1 4 0.3 0.83
9 1 5 1.34 0.97
9 1 5 1.25 0.88
-9 -1 -5 0.48 0.61
-9 -1 -5 0.32 0.86
9 1 6 2.27 0.67
9 1 6 1.41 0.6
-9 -1 -6 0.84 0.7
-9 -1 -6 1.05 0.91
9 2 -6 2.61 1.13
9 2 -6 2.25 0.75
9 2 -5 4.94 0.58
9 2 -5 3.78 0.56
9 2 -5 4.58 1.11
9 2 -5 5.03 1.22
9 2 -4 7.05 0.72
9 2 -4 6.34 0.66
9 2 -4 8.69 1.15
9 2 -4 10.24 1.26
9 2 -3 2.63 0.59
9 2 -3 2.43 0.53
9 2 -3 2.77 0.93
9 2 -3 3.47 0.58
9 2 -2 8.01 0.8
9 2 -2 8.71 1.07
9 2 -2 10.1 1.1
9 2 -1 6.58 0.8
9 2 -1 6.43 0.6
9 2 -1 8.08 0.61
9 2 0 0.05 0.59
9 2 0 -0.39 0.33
9 2 0 1.02 0.64
9 2 0 0.17 0.66
9 2 1 1.08 0.7
9 2 1 1.4 0.64
9 2 1 1.15 0.68
9 2 1 1.19 0.69
9 2 2 1.16 0.73
9 2 2 0.04 0.71
9 2 2 0.09 0.6
9 2 2 -0.25 0.62
9 2 3 2.89 0.91
9 2 3 3.06 0.58
9 2 3 2.05 0.72
9 2 3 5.05 0.78
9 2 4 11.65 1.39
9 2 4 11.07 1.39
9 2 4 12.49 1.13
9 2 5 7.02 1.27
9 2 5 5.25 0.6
9 2 6 1.68 1.12
9 2 6 0.69 0.81
-9 -2 -6 1.2 1.15
-9 -2 -6 0.44 0.73
9 2 7 10.18 1.65
9 2 7 8.48 1.19
-9 -2 -7 6.39 1.01
9 3 -5 -0.41 0.64
9 3 -5 0.7 0.56
9 3 -5 0.36 0.87
9 3 -5 1 0.56
9 3 -4 4.32 0.76
9 3 -4 3.56 0.67
9 3 -4 2.83 0.93
9 3 -4 4.91 0.6
9 3 -3 -0.2 0.62
9 3 -3 0.21 0.33
9 3 -3 1.42 0.71
9 3 -3 0.84 0.74
9 3 -2 1.11 0.67
9 3 -2 0.7 0.35
9 3 -2 -0.37 0.68
9 3 -2 1.6 0.69
9 3 -1 0.95 0.69
9 3 -1 1.94 0.64
9 3 -1 0.73 0.39
9 3 -1 1.29 0.63
9 3 0 15.04 0.82
9 3 0 12.2 1.1
9 3 0 11.19 0.99
9 3 0 15.89 0.99
9 3 1 6.6 0.6
9 3 1 4.2 0.9
9 3 1 4.83 0.7
9 3 1 5.93 0.73
9 3 2 2.3 0.49
9 3 2 1.11 0.5
9 3 2 0.35 0.53
9 3 2 0.77 0.57
9 3 3 5.63 0.65
9 3 3 4.46 1.1
9 3 3 5.03 0.7
9 3 4 13.19 0.94
9 3 4 10.98 1.51
9 3 4 12.17 0.93
9 3 5 -0.29 0.59
9 3 5 1.22 1.02
9 3 5 0.31 0.49
9 3 5 1.03 0.59
9 3 6 5.91 0.86
9 3 6 5.19 0.8
9 3 7 0.47 0.76
-9 -3 -7 0.78 0.77
-9 -3 -7 0.83 0.6
9 4 -5 7.78 1.1
9 4 -5 6.79 0.9
9 4 -5 8.25 1.09
9 4 -5 8.28 1.15
9 4 -4 0.85 0.83
9 4 -4 1.45 0.68
9 4 -4 1.61 0.75
9 4 -4 1.37 0.8
9 4 -3 17.53 0.98
9 4 -3 14.87 1.18
9 4 -3 16.2 1.24
9 4 -2 15.72 1.4
9 4 -2 13.5 1.17
9 4 -2 13.52 1.04
9 4 -2 14.53 1.07
9 4 -1 2.18 0.86
9 4 -1 1.38 0.57
9 4 -1 1.56 0.57
9 4 0 11.87 1.28
9 4 0 10.16 0.73
9 4 0 10.24 0.76
9 4 1 16.42 1.39
9 4 1 13.77 1.31
9 4 1 13.45 0.8
9 4 2 0.32 0.93
9 4 2 1.37 0.52
9 4 2 0.4 0.4
9 4 2 1.19 0.43
9 4 3 23.68 1.83
9 4 3 21.23 1.86
9 4 4 2.01 1.02
9 4 4 0.26 1.08
9 4 5 5.12 1.29
9 4 5 3.85 1.3
9 4 6 2.68 1.32
9 4 6 3.24 1.32
9 4 7 2.54 1.46
9 5 -5 9.17 1.42
9 5 -5 9.29 1.12
9 5 -5 8.2 1.12
9 5 -4 -0.05 0.99
9 5 -4 0.24 0.8
9 5 -4 0.88 0.69
9 5 -4 1.09 0.7
9 5 -3 27.07 1.38
9 5 -3 22.34 1.13
9 5 -3 19.99 1.34
9 5 -3 23.87 0.95
9 5 -2 28.36 1.8
9 5 -2 24.13 1.26
9 5 -2 25.18 1.32
9 5 -1 24.38 1.14
9 5 -1 20.2 1.01
9 5 -1 20.11 0.99
9 5 0 0.46 0.56
9 5 0 1.54 0.86
9 5 0 -0.04 0.37
9 5 0 0.46 0.36
9 5 1 5.23 1.18
9 5 1 4.74 0.65
9 5 2 3.46 1.02
9 5 2 0.18 0.96
9 5 3 -0.14 1.03
9 5 3 1.93 1.02
9 5 4 4 1.24
9 5 4 3 0.77
9 5 5 3.29 1.36
9 5 5 3.28 0.84
9 5 6 3.64 1.44
9 5 6 3.13 1.48
9 5 7 7.54 1.8
9 5 7 5.34 1.73
9 6 -4 6.85 1.33
9 6 -4 4.5 1.09
9 6 -4 4.79 0.8
9 6 -4 3.91 0.5
9 6 -3 5.41 1.32
9 6 -3 4.02 1.04
9 6 -3 4.15 0.64
9 6 -3 2.81 0.62
9 6 -2 17.02 1.13
9 6 -2 12.33 0.93
9 6 -1 2.51 0.69
9 6 -1 1.49 0.99
9 6 0 5.82 0.8
9 6 0 4.28 0.7
9 6 1 3.44 1.27
9 6 1 3.06 1.12
9 6 2 17.53 1.85
9 6 2 13.87 1.66
9 6 3 2.64 1.24
9 6 3 1.29 1.2
9 6 4 8.69 1.75
9 6 4 8.69 1.03
9 6 5 47.84 3.55
9 6 5 38.93 2.39
9 6 6 22.03 2.45
9 6 6 17.37 1.52
9 6 7 0.31 1.47
9 6 7 1.42 1.47
9 7 -3 11.82 1.77
9 7 -3 7.82 1.42
9 7 -2 -0.1 1.22
9 7 -2 1.21 1
9 7 -1 1.7 1.22
9 7 -1 0.87 0.6
9 7 0 -0.61 1.18
9 7 0 0.07 0.99
9 7 1 3.18 1.43
9 7 1 1.68 1.16
9 7 2 39.69 2.93
9 7 2 29.06 1.72
9 7 3 7.08 1.72
9 7 3 6.4 0.9
9 7 4 10.57 1.82
9 7 4 8.05 1.04
9 7 5 14.85 2.21
9 7 5 12.35 1.3
9 7 6 12.48 2.18
9 7 6 11.73 1.33
9 7 7 11.22 2.15
9 7 7 10.27 2.2
9 8 -1 4.74 0.98
9 8 -1 4.51 1.33
9 8 0 0.16 1.33
9 8 0 -0.08 1.11
9 8 1 6.17 1.67
9 8 1 3.67 0.86
9 8 2 6.63 1.84
9 8 2 6.62 0.97
9 8 3 8.17 2.02
9 8 3 9.16 1.08
9 8 4 3.72 1.81
9 8 4 5.95 0.99
9 8 5 0.6 1.45
9 8 5 0.14 0.81
9 8 6 3.89 1.04
9 8 6 3.64 1.03
9 9 1 9.48 2.01
9 9 1 5.9 1
9 9 2 0.02 0.97
9 9 2 0.3 0.81
9 9 3 9.98 1.32
9 9 3 9.94 2.04
9 9 4 19.41 1.67
9 9 4 16.36 2.45
10 1 -1 1.91 0.95
10 1 -1 1.22 0.95
10 1 0 2.71 0.53
10 1 0 1.5 0.48
10 1 0 1.04 0.54
10 1 1 0.51 0.62
10 1 1 0.34 0.33
10 1 1 1.08 0.51
10 1 1 1.6 0.86
10 1 2 1.3 0.73
10 1 2 -0.12 0.67
10 1 2 0.89 0.85
10 1 2 1.03 0.53
10 2 -2 2.51 0.53
10 2 -2 2.93 0.95
10 2 -2 3.13 0.97
10 2 -1 1.2 0.6
10 2 -1 1.01 0.54
10 2 -1 1.56 0.81
10 2 -1 1.95 0.83
10 2 0 1.14 0.66
10 2 0 1.28 0.37
10 2 0 1.25 0.78
10 2 0 1.88 0.79
10 2 1 5.67 0.9
10 2 1 3.49 0.78
10 2 1 4.29 0.9
10 2 1 6.63 0.92
10 2 2 7.19 0.66
10 2 2 5.08 0.93
10 2 2 5.61 0.6
10 2 2 7.79 0.97
10 2 3 0.23 0.52
10 2 3 -0.12 0.85
10 2 3 0.93 0.67
10 2 3 0.8 0.75
10 3 -2 6.75 0.92
10 3 -2 5.35 0.8
10 3 -2 6.02 0.98
10 3 -2 8.49 1.01
10 3 -1 6.7 0.93
10 3 -1 4.84 0.52
10 3 -1 4.64 0.89
10 3 -1 6.89 0.58
10 3 0 -0.56 0.74
10 3 0 1.13 0.66
10 3 0 0.07 0.62
10 3 0 0.9 0.63
10 3 1 2.35 0.89
10 3 1 2.89 0.81
10 3 1 2.82 0.67
10 3 2 7 1.09
10 3 2 3.9 0.98
10 3 2 3.74 0.72
10 3 2 5.86 0.75
10 3 3 11.1 1.35
10 3 3 8.55 1.26
10 3 3 6.98 0.72
10 3 4 0.16 0.6
10 3 4 1 1
10 4 -2 5.85 0.69
10 4 -2 6.92 0.91
10 4 -2 5.34 0.84
10 4 -2 6.03 0.84
10 4 -1 2.78 0.54
10 4 -1 2.06 0.79
10 4 -1 1.81 0.63
10 4 -1 2.44 0.61
10 4 0 6.66 0.74
10 4 0 5.42 1.03
10 4 1 1.15 0.55
10 4 1 0.75 0.86
10 4 2 1.22 0.93
10 4 2 0.35 0.88
10 4 3 3.67 1.11
10 4 3 3.54 1.13
10 4 4 2 1.18
10 4 4 2.54 1.18
10 5 -1 8.7 1.41
10 5 -1 7.68 1.14
10 5 0 15.55 1.62
10 5 0 12.71 0.98
10 5 1 1.85 1.14
10 5 1 3.09 1.03
10 5 2 13.02 1.61
10 5 2 10.14 1.43
10 5 3 2.14 1.11
10 5 3 -0.85 1.07
10 5 4 1.21 1.26
10 5 4 2.04 0.74
10 6 0 2.78 1.28
10 6 0 1.9 1.09
10 6 1 0.16 1.12
10 6 1 0.54 1.01
10 6 2 5.77 1.4
10 6 2 3.8 0.79
10 6 3 9.52 1.62
10 6 3 6.78 0.93
