#------------------------------------------------------------------------------
#$Date: 2021-04-16 11:20:33 +0300 (Fri, 16 Apr 2021) $
#$Revision: 264238 $
#$URL: file:///home/coder/svn-repositories/cod/cif/1/56/18/1561845.cif $
#------------------------------------------------------------------------------
#
# This file is available in the Crystallography Open Database (COD),
# http://www.crystallography.net/
#
# All data on this site have been placed in the public domain by the
# contributors.
#
data_1561845
loop_
_publ_author_name
'Iyer, Abishek K.'
'Rudyk, Brent W.'
'Lin, Xinsong'
'Singh, Harpreet'
'Sharma, Arzoo Z.'
'Wiebe, Christopher R.'
'Mar, Arthur'
_publ_section_title
;
 Noncentrosymmetric rare-earth copper gallium chalcogenides RE3CuGaCh7
 (RE=La--Nd; Ch=S, Se): An unexpected combination
;
_journal_name_full               'Journal of Solid State Chemistry'
_journal_page_first              150
_journal_page_last               159
_journal_paper_doi               10.1016/j.jssc.2015.05.016
_journal_volume                  229
_journal_year                    2015
_chemical_formula_structural     'La3 Cu Ga Se7'
_chemical_formula_sum            'Cu Ga La3 Se7'
_chemical_formula_weight         1102.71
_chemical_name_common            'lanthanum copper gallium selenide (3/1/1/7)'
_chemical_name_systematic        'lanthanum copper gallium selenide (3/1/1/7)'
_space_group_crystal_system      hexagonal
_space_group_IT_number           173
_space_group_name_Hall           'P 6c'
_space_group_name_H-M_alt        'P 63'
_atom_sites_solution_hydrogens   .
_atom_sites_solution_primary     direct
_atom_sites_solution_secondary   difmap
_audit_creation_method           SHELXL-2013
_cell_angle_alpha                90
_cell_angle_beta                 90
_cell_angle_gamma                120
_cell_formula_units_Z            2
_cell_length_a                   10.626(10)
_cell_length_b                   10.626(10)
_cell_length_c                   6.392(6)
_cell_measurement_reflns_used    2982
_cell_measurement_temperature    296(2)
_cell_measurement_theta_max      26.41
_cell_measurement_theta_min      3.88
_cell_volume                     625.0(10)
_computing_cell_refinement       'Bruker SAINT 8.34A (Bruker, 2013)'
_computing_data_collection       'Bruker APEX 2 (Bruker, 2008)'
_computing_data_reduction        'Bruker SAINT 8.34A'
_computing_molecular_graphics    'ATOMS 5.1 (Dowty, 1999)'
_computing_publication_material  'Bruker SHELXTL'
_computing_structure_refinement  'Bruker SHELXTL'
_computing_structure_solution    'Bruker SHELXTL'
_diffrn_ambient_temperature      296(2)
_diffrn_measured_fraction_theta_full 1.000
_diffrn_measured_fraction_theta_max 0.992
_diffrn_measurement_device_type  'Bruker PLATFORM/SMART APEX II CCD'
_diffrn_measurement_method       '\w and \f scans'
_diffrn_radiation_type           MoK\a
_diffrn_radiation_wavelength     0.71073
_diffrn_reflns_av_R_equivalents  0.0839
_diffrn_reflns_av_unetI/netI     0.0500
_diffrn_reflns_Laue_measured_fraction_full 1.000
_diffrn_reflns_Laue_measured_fraction_max 0.992
_diffrn_reflns_limit_h_max       15
_diffrn_reflns_limit_h_min       -16
_diffrn_reflns_limit_k_max       16
_diffrn_reflns_limit_k_min       -16
_diffrn_reflns_limit_l_max       9
_diffrn_reflns_limit_l_min       -9
_diffrn_reflns_number            8781
_diffrn_reflns_point_group_measured_fraction_full 1.000
_diffrn_reflns_point_group_measured_fraction_max 0.986
_diffrn_reflns_theta_full        25.242
_diffrn_reflns_theta_max         33.068
_diffrn_reflns_theta_min         2.213
_diffrn_source                   'fine-focus sealed tube'
_exptl_absorpt_coefficient_mu    34.160
_exptl_absorpt_correction_T_max  0.4197
_exptl_absorpt_correction_T_min  0.1818
_exptl_absorpt_correction_type   numerical
_exptl_absorpt_process_details   'Bruker SHELXTL (Sheldrick, 2013)'
_exptl_crystal_colour            grey
_exptl_crystal_density_diffrn    5.859
_exptl_crystal_density_method    'not measured'
_exptl_crystal_description       irregular
_exptl_crystal_F_000             938
_exptl_crystal_size_max          0.083
_exptl_crystal_size_mid          0.038
_exptl_crystal_size_min          0.038
_refine_diff_density_max         2.588
_refine_diff_density_min         -1.662
_refine_diff_density_rms         0.389
_refine_ls_abs_structure_details
;
 Flack x determined using 580 quotients [(I+)-(I-)]/[(I+)+(I-)]
 (Parsons and Flack (2004), Acta Cryst. A60, s61).
;
_refine_ls_abs_structure_Flack   -0.12(3)
_refine_ls_extinction_coef       0.0029(7)
_refine_ls_extinction_expression Fc^*^=kFc[1+0.001xFc^2^\l^3^/sin(2\q)]^-1/4^
_refine_ls_extinction_method     SHELXL
_refine_ls_goodness_of_fit_ref   1.065
_refine_ls_hydrogen_treatment    undef
_refine_ls_matrix_type           full
_refine_ls_number_parameters     41
_refine_ls_number_reflns         1548
_refine_ls_number_restraints     1
_refine_ls_restrained_S_all      1.064
_refine_ls_R_factor_all          0.0473
_refine_ls_R_factor_gt           0.0394
_refine_ls_shift/su_max          0.000
_refine_ls_shift/su_mean         0.000
_refine_ls_structure_factor_coef Fsqd
_refine_ls_weighting_details
'w=1/[\s^2^(Fo^2^)+(0.0490P)^2^+2.3293P] where P=(Fo^2^+2Fc^2^)/3'
_refine_ls_weighting_scheme      calc
_refine_ls_wR_factor_gt          0.0914
_refine_ls_wR_factor_ref         0.0953
_reflns_Friedel_coverage         0.846
_reflns_Friedel_fraction_full    1.000
_reflns_Friedel_fraction_max     0.979
_reflns_number_gt                1387
_reflns_number_total             1548
_reflns_threshold_expression     'I > 2\s(I)'
_cod_data_source_file            JSSC-2015-229-150.cif
_cod_data_source_block           La3CuGaSe7
_cod_original_cell_volume        625.0(14)
_cod_database_code               1561845
_shelx_space_group_comment
;
The symmetry employed for this shelxl refinement is uniquely defined
by the following loop, which should always be used as a source of
symmetry information in preference to the above space-group names.
They are only intended as comments.
;
_shelx_estimated_absorpt_t_min   0.164
_shelx_estimated_absorpt_t_max   0.357
_shelxl_version_number           2013-4
_shelx_res_file
;
TITL La3CuGaSe7 P6(3) lsf final refinement
CELL 0.71073  10.62550  10.62550   6.39230  90.0000  90.0000 120.0000
ZERR    2.00   0.01030   0.01030   0.00630   0.0000   0.0000   0.0000
LATT -1
SYMM -Y, X-Y, Z
SYMM -X+Y, -X, Z
SYMM -X, -Y, 0.5+Z
SYMM Y, -X+Y, 0.5+Z
SYMM X-Y, X, 0.5+Z
SFAC CU GA SE LA
UNIT 2 2 14 6
TEMP 23
SIZE 0.038 0.038 0.083

L.S. 4
ACTA

EADP CU1A CU1B
TWIN 0 1 0 1 0 0 0 0 -1 2
WGHT    0.049000    2.329300
EXTI    0.002865
BASF   0.44171
FVAR       0.08239   0.68350
LA    4    0.148088    0.369524    0.055491    11.00000    0.02213    0.01683 =
         0.02947    0.00294    0.00286    0.00926
CU1A  1    0.000000    0.000000    0.000000    20.33333    0.01518    0.01518 =
         0.03927    0.00000    0.00000    0.00759
CU1B  1    0.000000    0.000000   -0.092048   -20.33333    0.01518    0.01518 =
         0.03927    0.00000    0.00000    0.00759
GA    2    0.333333    0.666667    0.642060    10.33333    0.02903    0.02903 =
         0.01558    0.00000    0.00000    0.01451
SE1   3    0.254438    0.150070    0.017682    11.00000    0.01679    0.01637 =
         0.02772    0.00449    0.00240    0.00857
SE2   3    0.521858    0.091874    0.288146    11.00000    0.01755    0.01896 =
         0.01998    0.00145   -0.00106    0.00715
SE3   3    0.333333    0.666667    0.269335    10.33333    0.01803    0.01803 =
         0.01443    0.00000    0.00000    0.00902
HKLF 4

REM  La3CuGaSe7 P6(3) lsf final refinement
REM R1 =  0.0394 for    1387 Fo > 4sig(Fo)  and  0.0473 for all    1548 data
REM     41 parameters refined using      1 restraints

END

WGHT      0.0491      2.3291

REM Highest difference peak  2.588,  deepest hole -1.662,  1-sigma level  0.389
Q1    1   0.4737  0.1147 -0.0642  11.00000  0.05    2.59
Q2    1   0.3742 -0.1026  0.4722  11.00000  0.05    2.29
Q3    1   0.2104  0.3689  0.0505  11.00000  0.05    1.55
Q4    1   0.2688  0.5107  0.0588  11.00000  0.05    1.46
Q5    1   0.2317  0.3232  0.0608  11.00000  0.05    1.44
Q6    1   0.0000  0.0000 -0.1949  10.33333  0.05    1.38
Q7    1   0.5096  0.0462  0.0122  11.00000  0.05    1.36
Q8    1   0.4771  0.1204  0.1646  11.00000  0.05    1.30
Q9    1   0.4881 -0.0173  0.2705  11.00000  0.05    1.30
Q10   1   0.3132  0.1110  0.0052  11.00000  0.05    1.26
Q11   1   0.5479  0.0438  0.1674  11.00000  0.05    1.25
Q12   1   0.4813  0.0055  0.1385  11.00000  0.05    1.22
Q13   1   0.3289  0.1288  0.1252  11.00000  0.05    1.21
Q14   1   0.4500  0.7104  0.5648  11.00000  0.05    1.20
Q15   1   0.5076  0.6674  0.3156  11.00000  0.05    1.14
Q16   1   0.3588  0.2148  0.0468  11.00000  0.05    1.14
Q17   1   0.1935  0.3156  0.1595  11.00000  0.05    1.13
Q18   1   0.3934  0.6865  0.4408  11.00000  0.05    1.12
Q19   1   0.1268  0.2692  0.0249  11.00000  0.05    1.10
Q20   1   0.3333  0.6667  0.4948  10.33333  0.05    1.08
;
_shelx_res_checksum              6473
_shelx_hkl_file
;
   4  -6  -9    3.22    3.88
   0  -5  -9    6.43    3.21
   1  -5  -9    4.91    2.26
   2  -5  -9    0.90    1.78
   3  -5  -9   -1.71    1.90
   4  -5  -9   10.27    4.49
   5  -5  -9    5.45    3.77
  -2  -4  -9    2.15    2.91
  -1  -4  -9    8.12    2.61
   0  -4  -9   -0.06    1.85
   1  -4  -9    3.02    1.98
   2  -4  -9    0.69    2.01
   3  -4  -9    0.90    2.01
   4  -4  -9    0.81    2.10
   5  -4  -9    9.71    3.83
  -3  -3  -9   -1.02    2.65
  -2  -3  -9    3.11    2.02
  -1  -3  -9   -0.13    1.61
   0  -3  -9    4.94    2.31
   1  -3  -9    8.77    1.95
   2  -3  -9   10.98    2.66
   3  -3  -9    6.62    2.52
   4  -3  -9    5.30    2.24
   5  -3  -9    3.39    2.14
  -4  -2  -9    0.04    2.94
  -3  -2  -9   -0.23    1.85
  -2  -2  -9    0.77    1.91
  -1  -2  -9   14.62    2.70
   0  -2  -9   12.83    2.19
   1  -2  -9    2.71    1.57
   2  -2  -9   12.90    2.61
   3  -2  -9    9.65    2.51
   4  -2  -9   -0.18    1.82
   5  -2  -9    0.76    1.89
  -4  -1  -9    2.85    2.60
  -3  -1  -9    0.14    1.62
  -2  -1  -9   10.07    2.33
  -1  -1  -9    1.50    1.68
   0  -1  -9    0.43    1.49
   1  -1  -9    2.16    2.07
   2  -1  -9    4.11    2.03
   3  -1  -9   14.28    2.85
   4  -1  -9    1.21    1.70
   5  -1  -9    9.36    3.37
  -5   0  -9    6.93    3.75
  -4   0  -9    0.89    1.78
  -3   0  -9    2.39    1.85
  -2   0  -9    6.75    2.26
  -1   0  -9    0.80    1.44
   0   0  -9    0.52    1.41
   1   0  -9    3.83    2.12
   2   0  -9   15.06    2.85
   3   0  -9    7.94    2.34
   4   0  -9    0.20    1.85
   5   0  -9    8.72    3.26
  -5   1  -9    3.11    2.11
  -4   1  -9   -0.36    1.77
  -3   1  -9    8.88    2.24
  -2   1  -9    1.53    1.49
  -1   1  -9    2.36    1.49
   0   1  -9    2.25    1.87
   1   1  -9    1.01    1.84
   2   1  -9   12.18    2.66
   3   1  -9   -0.37    1.81
   4   1  -9    8.48    3.12
   5   1  -9   -0.25    2.65
  -5   2  -9    1.20    1.83
  -4   2  -9    3.21    1.94
  -3   2  -9   10.66    1.96
  -2   2  -9    7.71    1.89
  -1   2  -9   -0.84    1.33
   0   2  -9   10.55    2.53
   1   2  -9   11.98    2.62
   2   2  -9    1.64    1.86
   3   2  -9    1.23    1.98
   4   2  -9    2.09    2.61
  -5   3  -9    4.34    2.08
  -4   3  -9    3.89    1.67
  -3   3  -9    5.84    1.77
  -2   3  -9   11.72    2.05
  -1   3  -9    7.51    2.15
   0   3  -9    7.01    2.18
   1   3  -9    3.75    2.06
   2   3  -9    1.51    1.71
   3   3  -9    0.75    2.49
  -5   4  -9    5.50    2.26
  -4   4  -9    0.98    1.42
  -3   4  -9    2.26    1.50
  -2   4  -9    0.71    1.87
  -1   4  -9    3.10    1.94
   0   4  -9    2.70    1.95
   1   4  -9    4.37    2.23
  -5   5  -9    8.32    3.50
  -4   5  -9    6.15    2.14
  -3   5  -9    0.29    1.71
  -2   5  -9   -0.10    1.76
  -1   5  -9    2.90    2.05
   0   5  -9    3.09    2.68
  -4   6  -9    0.36    2.47
  -3   6  -9    1.69    2.53
  -2   6  -9    0.86    2.55
   4  -9  -8    2.65    2.86
   5  -9  -8    4.70    3.27
   6  -9  -8    5.41    3.91
   1  -8  -8   13.28    3.44
   2  -8  -8    3.88    1.81
   3  -8  -8    1.89    1.57
   4  -8  -8    3.16    2.96
   5  -8  -8    6.06    2.40
   6  -8  -8    7.09    2.55
   7  -8  -8   18.40    5.03
  -1  -7  -8   16.20    4.02
   0  -7  -8    5.26    2.61
   1  -7  -8    2.66    1.63
   2  -7  -8    1.58    1.57
   3  -7  -8    6.47    2.00
   4  -7  -8    9.25    2.65
   5  -7  -8    3.10    2.09
   6  -7  -8    8.34    2.48
   7  -7  -8   -1.35    1.82
   8  -7  -8   12.83    3.06
  -2  -6  -8    1.23    2.20
  -1  -6  -8    4.65    1.99
   0  -6  -8    1.71    1.64
   1  -6  -8    9.72    2.25
   2  -6  -8    3.04    1.60
   3  -6  -8   33.55    3.07
   4  -6  -8    2.92    1.89
   5  -6  -8   10.89    2.45
   6  -6  -8    2.36    1.85
   7  -6  -8    8.16    2.38
   8  -6  -8    2.11    2.20
   9  -6  -8   10.19    4.24
  -3  -5  -8    1.92    2.40
  -2  -5  -8    4.69    1.92
  -1  -5  -8   10.45    2.40
   0  -5  -8   14.63    2.52
   1  -5  -8   19.35    2.83
   2  -5  -8   10.48    1.82
   3  -5  -8    5.39    2.08
   4  -5  -8   19.06    2.90
   5  -5  -8   10.52    2.31
   6  -5  -8   10.81    2.53
   7  -5  -8    1.81    1.49
   8  -5  -8    1.38    1.56
   9  -5  -8    1.27    2.95
  -4  -4  -8    1.57    1.92
  -3  -4  -8   12.46    2.50
  -2  -4  -8    2.17    1.69
  -1  -4  -8   17.01    2.75
   0  -4  -8    5.99    1.92
   1  -4  -8    8.99    1.87
   2  -4  -8   23.49    2.53
   3  -4  -8   11.39    2.48
   4  -4  -8    5.30    1.91
   5  -4  -8   18.05    2.93
   6  -4  -8    2.54    1.56
   7  -4  -8    7.49    1.90
   8  -4  -8    2.14    1.63
   9  -4  -8    0.50    2.91
  -5  -3  -8    7.06    2.30
  -4  -3  -8    8.62    2.31
  -3  -3  -8   31.94    3.55
  -2  -3  -8    8.94    2.11
  -1  -3  -8   13.62    2.42
   0  -3  -8    7.80    1.73
   1  -3  -8   10.11    1.82
   2  -3  -8    9.64    1.76
   3  -3  -8    9.11    2.29
   4  -3  -8    6.98    2.02
   5  -3  -8    8.48    2.25
   6  -3  -8   24.79    2.73
   7  -3  -8    8.98    1.96
   8  -3  -8    5.39    1.79
   9  -3  -8    7.81    4.27
  -7  -2  -8    4.14    3.18
  -6  -2  -8    3.97    2.08
  -5  -2  -8    4.87    2.01
  -4  -2  -8    0.59    1.60
  -3  -2  -8    5.91    1.93
  -2  -2  -8   23.64    3.09
  -1  -2  -8   11.63    2.23
   0  -2  -8    1.37    1.19
   1  -2  -8   17.23    2.15
   2  -2  -8   -0.48    1.10
   3  -2  -8   12.11    2.43
   4  -2  -8   30.34    3.57
   5  -2  -8    7.69    2.17
   6  -2  -8    2.94    1.47
   7  -2  -8    2.73    1.54
   8  -2  -8    2.53    1.68
  -7  -1  -8   20.75    4.36
  -6  -1  -8    5.08    1.98
  -5  -1  -8   20.34    3.01
  -4  -1  -8   14.78    2.62
  -3  -1  -8    5.02    1.84
  -2  -1  -8   11.97    2.23
  -1  -1  -8   12.03    1.94
   0  -1  -8    2.33    1.30
   1  -1  -8    2.83    1.36
   2  -1  -8   18.55    2.79
   3  -1  -8   17.54    2.61
   4  -1  -8    5.95    1.97
   5  -1  -8   16.69    2.34
   6  -1  -8   10.69    1.91
   7  -1  -8    4.23    1.65
   8  -1  -8    9.28    2.56
  -8   0  -8    2.99    2.64
  -7   0  -8   -1.11    1.64
  -6   0  -8    1.25    1.68
  -5   0  -8   14.20    2.55
  -4   0  -8    4.76    1.76
  -3   0  -8    8.84    2.07
  -2   0  -8    0.27    1.11
  -1   0  -8    1.99    1.21
   0   0  -8  116.78    5.12
   1   0  -8   -0.21    1.12
   2   0  -8   -0.03    1.43
   3   0  -8    6.02    1.88
   4   0  -8    0.48    1.50
   5   0  -8   11.29    2.00
   6   0  -8    0.64    1.28
   7   0  -8    2.49    1.53
  -8   1  -8   13.46    2.79
  -7   1  -8    7.97    2.24
  -6   1  -8   11.93    2.25
  -5   1  -8   17.01    2.75
  -4   1  -8    8.42    1.91
  -3   1  -8   14.18    1.90
  -2   1  -8   12.30    1.84
  -1   1  -8    1.06    1.14
   0   1  -8    2.35    1.27
   1   1  -8   13.06    2.37
   2   1  -8   15.66    2.55
   3   1  -8    5.31    1.82
   4   1  -8   13.71    2.07
   5   1  -8   11.10    1.99
   6   1  -8    4.21    1.67
   7   1  -8   14.64    2.99
  -8   2  -8    5.31    2.11
  -7   2  -8    2.43    1.79
  -6   2  -8    1.42    1.59
  -5   2  -8   13.77    2.43
  -4   2  -8   25.60    2.54
  -3   2  -8   11.71    1.88
  -2   2  -8   -0.15    1.06
  -1   2  -8   11.80    1.78
   0   2  -8   -1.11    1.25
   1   2  -8   16.03    2.39
   2   2  -8   23.92    3.15
   3   2  -8   11.87    2.32
   4   2  -8    2.41    1.51
   5   2  -8    3.76    1.69
   6   2  -8    2.18    1.97
  -8   3  -8    4.15    2.05
  -7   3  -8   13.09    2.25
  -6   3  -8   29.36    3.42
  -5   3  -8   11.96    2.38
  -4   3  -8    5.11    1.44
  -3   3  -8    5.65    1.52
  -2   3  -8    9.92    1.68
  -1   3  -8   10.57    1.73
   0   3  -8    8.76    2.04
   1   3  -8    3.42    1.72
   2   3  -8    9.33    2.28
   3   3  -8   35.46    3.67
   4   3  -8    6.96    2.39
   5   3  -8    4.39    2.29
   6   3  -8    3.80    3.53
  -9   4  -8    6.36    3.38
  -8   4  -8    2.80    1.84
  -7   4  -8    8.05    2.31
  -6   4  -8    0.87    1.51
  -5   4  -8   12.05    1.90
  -4   4  -8    3.12    1.32
  -3   4  -8    6.13    1.52
  -2   4  -8   21.47    2.27
  -1   4  -8    7.09    1.94
   0   4  -8    2.73    1.67
   1   4  -8   24.37    3.13
   2   4  -8    1.97    1.62
   3   4  -8   11.44    2.62
   4   4  -8    1.13    1.90
   5   4  -8    3.80    3.71
  -9   5  -8    4.21    3.06
  -8   5  -8    4.62    2.00
  -7   5  -8    1.98    1.82
  -6   5  -8   12.96    2.00
  -5   5  -8   11.89    1.96
  -4   5  -8   17.21    2.64
  -3   5  -8    5.16    1.86
  -2   5  -8    7.69    2.04
  -1   5  -8   16.93    2.72
   0   5  -8   10.37    2.22
   1   5  -8    7.54    3.04
   2   5  -8    4.44    2.76
   3   5  -8    4.40    2.16
   4   5  -8    0.22    2.91
  -8   6  -8    2.68    2.62
  -7   6  -8    7.15    2.22
  -6   6  -8    1.01    1.73
  -5   6  -8    6.86    2.12
  -4   6  -8    2.72    1.71
  -3   6  -8   27.37    3.35
  -2   6  -8    5.05    2.00
  -1   6  -8   13.04    2.43
   0   6  -8    1.81    2.38
   1   6  -8    6.43    3.11
   2   6  -8    4.59    2.87
   3   6  -8    8.11    4.14
  -8   7  -8   17.10    4.08
  -7   7  -8    1.97    1.84
  -6   7  -8    6.41    2.19
  -5   7  -8    1.11    1.68
  -4   7  -8    7.25    2.03
  -3   7  -8    8.00    2.07
  -2   7  -8    4.79    2.93
  -1   7  -8    4.64    2.93
   0   7  -8    0.41    2.26
   1   7  -8   16.52    4.46
  -8   8  -8    1.11    2.84
  -7   8  -8   11.95    2.65
  -6   8  -8    3.03    2.11
  -5   8  -8    6.15    2.13
  -4   8  -8    2.37    1.83
  -3   8  -8    2.82    2.76
  -2   8  -8    1.62    2.57
  -6   9  -8    8.77    3.25
   7 -11  -7   10.25    4.36
   6 -10  -7   11.88    4.58
   7 -10  -7   -1.71    2.11
   8 -10  -7   12.23    3.14
   9 -10  -7    6.52    3.73
   1  -9  -7   11.13    3.09
   2  -9  -7    4.51    2.31
   3  -9  -7   10.36    2.20
   4  -9  -7   22.10    4.07
   5  -9  -7   25.15    3.37
   6  -9  -7   16.56    4.63
   7  -9  -7    6.29    2.53
   8  -9  -7    6.73    2.63
   9  -9  -7    2.05    2.26
  10  -9  -7    2.89    3.53
  -2  -8  -7    8.06    2.86
  -1  -8  -7    8.77    3.08
   0  -8  -7    2.83    2.26
   1  -8  -7   10.34    2.90
   2  -8  -7    7.49    1.89
   3  -8  -7    6.54    1.70
   4  -8  -7    2.17    1.70
   5  -8  -7    3.94    1.86
   6  -8  -7    4.96    2.44
   7  -8  -7   11.87    2.71
   8  -8  -7    2.86    2.01
   9  -8  -7    8.54    2.63
  10  -8  -7    5.55    2.63
  -3  -7  -7   -0.04    2.02
  -2  -7  -7    2.21    2.29
  -1  -7  -7   12.54    3.11
   0  -7  -7    0.59    1.37
   1  -7  -7   15.37    2.38
   2  -7  -7    3.68    1.51
   3  -7  -7    7.56    1.64
   4  -7  -7   11.83    2.32
   5  -7  -7    2.52    1.78
   6  -7  -7   12.82    2.07
   7  -7  -7    2.14    1.46
   8  -7  -7    9.17    2.62
   9  -7  -7    1.78    2.04
  10  -7  -7   -0.71    1.80
  -5  -6  -7    2.09    2.15
  -4  -6  -7   10.53    3.39
  -3  -6  -7   14.70    3.57
  -2  -6  -7    9.85    3.12
  -1  -6  -7   13.82    2.48
   0  -6  -7   16.25    2.38
   1  -6  -7    3.45    1.42
   2  -6  -7   12.84    1.87
   3  -6  -7   12.48    1.85
   4  -6  -7   15.69    2.58
   5  -6  -7    1.95    1.21
   6  -6  -7   14.22    2.15
   7  -6  -7   10.11    1.97
   8  -6  -7    4.40    2.05
   9  -6  -7    4.44    2.12
  10  -6  -7    5.12    2.21
  -5  -5  -7    0.77    2.25
  -4  -5  -7   23.01    4.60
  -3  -5  -7    3.83    1.63
  -2  -5  -7    3.90    1.67
  -1  -5  -7    2.65    1.46
   0  -5  -7   12.39    2.20
   1  -5  -7    9.90    1.65
   2  -5  -7   28.80    2.59
   3  -5  -7   27.83    2.54
   4  -5  -7   11.64    2.26
   5  -5  -7   11.16    1.84
   6  -5  -7    0.08    1.10
   7  -5  -7    5.90    1.59
   8  -5  -7    5.38    1.61
   9  -5  -7   13.70    2.83
  10  -5  -7    1.89    1.97
  -6  -4  -7    8.08    3.03
  -5  -4  -7   14.40    3.65
  -4  -4  -7    1.66    1.43
  -3  -4  -7    9.93    2.05
  -2  -4  -7   17.46    2.56
  -1  -4  -7   16.56    2.32
   0  -4  -7   23.38    2.24
   1  -4  -7   12.71    1.82
   2  -4  -7   -0.35    0.92
   3  -4  -7    5.55    1.42
   4  -4  -7   19.06    2.28
   5  -4  -7    9.55    1.73
   6  -4  -7   14.02    2.01
   7  -4  -7    9.26    1.79
   8  -4  -7    1.31    1.28
   9  -4  -7   13.15    2.77
  10  -4  -7    4.77    2.33
  -7  -3  -7    1.99    2.35
  -6  -3  -7   12.58    3.44
  -5  -3  -7    6.23    1.90
  -4  -3  -7   13.29    2.39
  -3  -3  -7   10.37    2.08
  -2  -3  -7   20.76    2.71
  -1  -3  -7    9.65    1.93
   0  -3  -7   30.86    2.63
   1  -3  -7    6.65    1.37
   2  -3  -7    4.85    1.29
   3  -3  -7   33.85    3.36
   4  -3  -7    9.41    1.71
   5  -3  -7   24.68    2.55
   6  -3  -7    7.90    1.69
   7  -3  -7    7.18    1.73
   8  -3  -7    5.77    1.61
   9  -3  -7    9.68    2.45
  10  -3  -7   -0.71    1.81
  -8  -2  -7    9.16    3.53
  -7  -2  -7    1.29    1.67
  -6  -2  -7    6.07    2.11
  -5  -2  -7    0.37    1.44
  -4  -2  -7   15.25    2.42
  -3  -2  -7   32.82    3.29
  -2  -2  -7    0.89    1.20
  -1  -2  -7    3.84    1.22
   0  -2  -7   42.91    3.02
   1  -2  -7    2.44    1.04
   2  -2  -7   46.16    3.12
   3  -2  -7    7.40    1.49
   4  -2  -7   -0.15    0.96
   5  -2  -7   22.15    2.39
   6  -2  -7    8.92    1.70
   7  -2  -7    2.54    1.31
   8  -2  -7    9.28    1.83
   9  -2  -7    2.59    1.89
  10  -2  -7   13.81    2.84
  -8  -1  -7    6.96    2.24
  -7  -1  -7   14.85    2.61
  -6  -1  -7   12.43    2.25
  -5  -1  -7    3.74    1.64
  -4  -1  -7    7.10    1.87
  -3  -1  -7    9.84    2.02
  -2  -1  -7    8.37    1.49
  -1  -1  -7    2.44    1.14
   0  -1  -7   17.51    2.02
   1  -1  -7   20.96    2.08
   2  -1  -7    1.46    1.06
   3  -1  -7    5.98    1.40
   4  -1  -7    8.92    1.67
   5  -1  -7   11.85    1.90
   6  -1  -7    1.55    1.23
   7  -1  -7   10.17    1.78
   8  -1  -7    7.25    2.18
   9  -1  -7    2.06    2.00
  10  -1  -7    5.32    2.77
  -9   0  -7    2.45    1.91
  -8   0  -7    0.74    1.63
  -7   0  -7    3.56    1.59
  -6   0  -7   19.19    2.69
  -5   0  -7   11.68    2.14
  -4   0  -7   19.45    2.48
  -3   0  -7   34.11    2.72
  -2   0  -7   39.37    2.88
  -1   0  -7   19.04    1.97
   0   0  -7   -0.34    0.85
   1   0  -7   19.74    2.07
   2   0  -7   42.31    3.06
   3   0  -7   29.79    2.67
   4   0  -7   17.19    2.12
   5   0  -7   12.46    1.77
   6   0  -7   16.82    2.10
   7   0  -7    0.18    1.13
   8   0  -7    2.42    1.87
   9   0  -7   -0.76    1.67
 -10   1  -7    3.88    2.75
  -9   1  -7    2.87    1.78
  -8   1  -7    6.85    1.88
  -7   1  -7   12.31    2.32
  -6   1  -7    1.04    1.42
  -5   1  -7   13.12    2.22
  -4   1  -7    8.76    1.50
  -3   1  -7    7.94    1.40
  -2   1  -7    2.92    1.04
  -1   1  -7   22.34    2.14
   0   1  -7   21.40    2.10
   1   1  -7    2.30    1.03
   2   1  -7    8.73    1.59
   3   1  -7   11.88    1.80
   4   1  -7   11.56    1.83
   5   1  -7    2.35    1.29
   6   1  -7   11.29    1.81
   7   1  -7   13.68    2.81
   8   1  -7    3.38    2.05
   9   1  -7    3.58    2.77
 -10   2  -7    9.52    2.36
  -9   2  -7    1.98    1.70
  -8   2  -7   10.67    2.17
  -7   2  -7    6.36    1.88
  -6   2  -7   13.01    2.21
  -5   2  -7   21.68    2.70
  -4   2  -7   -0.18    0.92
  -3   2  -7    7.68    1.40
  -2   2  -7   41.14    2.92
  -1   2  -7    2.94    1.13
   0   2  -7   39.61    2.85
   1   2  -7    2.97    1.35
   2   2  -7    0.94    1.00
   3   2  -7   26.64    2.53
   4   2  -7   12.80    1.94
   5   2  -7    4.56    1.47
   6   2  -7    6.67    2.17
   7   2  -7    0.75    1.80
   8   2  -7    6.18    2.30
 -10   3  -7    0.03    1.64
  -9   3  -7   13.83    2.45
  -8   3  -7    3.72    1.58
  -7   3  -7    4.96    1.64
  -6   3  -7    7.52    1.84
  -5   3  -7   32.13    2.62
  -4   3  -7   13.64    1.78
  -3   3  -7   28.39    2.48
  -2   3  -7    5.16    1.22
  -1   3  -7    5.78    1.25
   0   3  -7   27.55    2.98
   1   3  -7    5.81    1.37
   2   3  -7   16.30    2.08
   3   3  -7   10.61    1.71
   4   3  -7    7.96    1.65
   5   3  -7    3.39    1.91
   6   3  -7    8.08    2.38
   7   3  -7    0.77    1.75
 -10   4  -7    3.46    1.90
  -9   4  -7   17.45    2.77
  -8   4  -7   -0.84    1.30
  -7   4  -7    7.34    1.86
  -6   4  -7   11.39    1.73
  -5   4  -7   11.92    1.67
  -4   4  -7   17.02    1.90
  -3   4  -7    8.58    1.45
  -2   4  -7    0.09    0.88
  -1   4  -7   11.74    1.64
   0   4  -7   14.07    2.24
   1   4  -7   12.82    1.80
   2   4  -7    9.75    1.77
   3   4  -7    3.98    1.74
   4   4  -7   -0.53    1.40
   5   4  -7    9.13    2.56
   6   4  -7    8.55    2.50
   7   4  -7    2.83    2.61
 -11   5  -7    3.56    2.90
 -10   5  -7   -0.25    1.58
  -9   5  -7   15.23    2.65
  -8   5  -7    5.56    1.82
  -7   5  -7    4.08    1.32
  -6   5  -7    1.36    1.16
  -5   5  -7   12.03    1.76
  -4   5  -7   10.10    1.58
  -3   5  -7   21.67    2.10
  -2   5  -7   28.05    2.35
  -1   5  -7   11.75    2.13
   0   5  -7    7.51    1.81
   1   5  -7    1.10    1.07
   2   5  -7    3.10    1.59
   3   5  -7    3.67    1.87
   4   5  -7   16.06    2.88
   5   5  -7    0.81    1.80
   6   5  -7    4.01    3.09
 -10   6  -7    5.91    2.82
  -9   6  -7    6.25    2.91
  -8   6  -7    6.90    2.02
  -7   6  -7   10.03    2.11
  -6   6  -7   14.62    2.27
  -5   6  -7    1.62    1.43
  -4   6  -7    5.86    1.76
  -3   6  -7    5.03    1.65
  -2   6  -7   11.20    2.10
  -1   6  -7    2.18    1.38
   0   6  -7   17.65    2.74
   1   6  -7   10.95    2.43
   2   6  -7    8.06    2.16
   3   6  -7   11.79    2.46
   4   6  -7    3.12    1.96
   5   6  -7    5.35    2.35
 -10   7  -7    0.60    2.68
  -9   7  -7    3.33    2.51
  -8   7  -7   12.07    2.47
  -7   7  -7    1.20    1.39
  -6   7  -7    9.69    2.18
  -5   7  -7    4.86    1.76
  -4   7  -7    9.44    1.92
  -3   7  -7    8.21    1.99
  -2   7  -7    1.29    1.30
  -1   7  -7    5.68    2.83
   0   7  -7    0.92    1.55
   1   7  -7    5.94    1.98
   2   7  -7    1.66    1.83
   3   7  -7    0.53    1.69
   4   7  -7    6.37    3.06
 -10   8  -7    6.06    3.24
  -9   8  -7    6.20    2.20
  -8   8  -7    5.46    2.05
  -7   8  -7    7.22    1.94
  -6   8  -7   10.33    2.10
  -5   8  -7    4.70    1.86
  -4   8  -7    1.89    1.54
  -3   8  -7    6.36    2.72
  -2   8  -7    5.81    2.83
  -1   8  -7   20.30    4.37
   0   8  -7    3.57    2.07
   1   8  -7    3.50    1.82
   2   8  -7   10.13    2.51
 -10   9  -7    3.99    2.22
  -9   9  -7   -0.86    1.74
  -8   9  -7    6.13    2.11
  -7   9  -7    1.69    1.60
  -6   9  -7   15.92    2.57
  -5   9  -7   21.30    2.92
  -4   9  -7   21.98    4.34
  -3   9  -7    7.85    3.13
  -2   9  -7    1.95    2.49
  -1   9  -7    5.73    2.09
   0   9  -7    0.74    1.84
   1   9  -7    3.90    2.25
  -9  10  -7    6.20    2.24
  -8  10  -7   13.77    2.71
  -7  10  -7   -1.58    1.69
  -6  10  -7    2.57    2.67
  -5  10  -7   -0.21    2.18
  -4  10  -7    7.99    3.35
  -3  10  -7   -1.64    2.02
  -2  10  -7    4.39    2.85
  -1  10  -7    4.46    3.23
   7 -12  -6    5.34    3.51
   8 -12  -6    0.44    2.99
   9 -12  -6    4.99    3.92
   1 -11  -6    4.87    3.95
   2 -11  -6    0.57    3.32
   6 -11  -6    6.70    3.15
   7 -11  -6   45.77    4.94
   8 -11  -6    2.09    2.26
   9 -11  -6    2.81    2.16
  10 -11  -6    7.50    2.81
  -1 -10  -6    5.29    3.62
   0 -10  -6    7.50    4.35
   1 -10  -6   -1.32    2.66
   2 -10  -6    9.37    4.05
   5 -10  -6    9.66    2.37
   6 -10  -6   16.74    3.04
   7 -10  -6   10.26    2.61
   8 -10  -6    8.56    2.70
   9 -10  -6    4.12    2.29
  10 -10  -6    5.62    2.41
  11 -10  -6    6.14    2.54
  -2  -9  -6    2.93    3.30
  -1  -9  -6    4.75    3.37
   0  -9  -6    2.42    2.81
   1  -9  -6   24.36    3.31
   2  -9  -6    1.28    1.55
   3  -9  -6   13.45    2.08
   4  -9  -6    6.91    2.01
   5  -9  -6    5.49    1.51
   6  -9  -6   16.26    3.07
   7  -9  -6    4.36    2.00
   8  -9  -6   20.47    3.42
   9  -9  -6    4.81    2.24
  10  -9  -6    0.50    1.86
  11  -9  -6    3.60    2.20
  -4  -8  -6   10.39    3.33
  -3  -8  -6    2.21    2.34
  -2  -8  -6   10.70    2.49
  -1  -8  -6   22.15    3.18
   0  -8  -6   23.99    4.03
   1  -8  -6   15.91    3.36
   2  -8  -6    6.54    1.52
   3  -8  -6    8.26    1.53
   4  -8  -6    3.07    1.30
   5  -8  -6    7.22    1.64
   6  -8  -6    5.49    1.57
   7  -8  -6   15.97    2.93
   8  -8  -6   27.36    3.78
   9  -8  -6   26.42    3.61
  10  -8  -6   14.62    3.11
  11  -8  -6    3.24    2.10
  12  -8  -6    3.17    2.08
  -5  -7  -6    0.41    1.93
  -4  -7  -6   23.28    4.26
  -3  -7  -6    5.13    2.31
  -2  -7  -6    2.98    1.87
  -1  -7  -6   17.76    3.54
   0  -7  -6    9.59    1.80
   1  -7  -6    5.60    1.47
   2  -7  -6    6.87    1.35
   3  -7  -6   35.40    2.63
   4  -7  -6   39.74    3.07
   5  -7  -6   11.77    1.78
   6  -7  -6    5.66    1.49
   7  -7  -6    4.89    1.51
   8  -7  -6   13.64    2.68
   9  -7  -6   -0.67    1.55
  10  -7  -6    3.52    2.15
  11  -7  -6   32.60    4.19
  12  -7  -6   -0.84    1.71
  -6  -6  -6   11.66    3.28
  -5  -6  -6    2.40    2.02
  -4  -6  -6   10.02    2.94
  -3  -6  -6   12.01    3.12
  -2  -6  -6    8.83    2.51
  -1  -6  -6    6.10    1.47
   0  -6  -6   -0.15    1.08
   1  -6  -6   44.64    3.05
   2  -6  -6   17.29    1.88
   3  -6  -6   44.68    2.65
   4  -6  -6   14.95    1.96
   5  -6  -6   44.44    3.24
   6  -6  -6    0.81    1.09
   7  -6  -6    4.08    1.35
   8  -6  -6    4.42    1.80
   9  -6  -6   13.14    2.63
  10  -6  -6    8.53    2.23
  11  -6  -6    4.97    2.01
  12  -6  -6    7.13    2.42
  -7  -5  -6    0.70    2.04
  -6  -5  -6    5.80    2.73
  -5  -5  -6    7.59    2.62
  -4  -5  -6    3.94    2.16
  -3  -5  -6    6.30    1.71
  -2  -5  -6   10.21    1.88
  -1  -5  -6   46.11    3.71
   0  -5  -6   39.78    3.33
   1  -5  -6   33.86    2.61
   2  -5  -6   45.58    3.01
   3  -5  -6   43.91    2.53
   4  -5  -6   28.50    2.53
   5  -5  -6   35.83    2.90
   6  -5  -6   47.27    3.38
   7  -5  -6   11.80    1.83
   8  -5  -6    6.15    1.90
   9  -5  -6    6.90    2.26
  10  -5  -6    3.89    1.94
  11  -5  -6    6.79    2.27
  12  -5  -6    2.66    1.98
  -8  -4  -6    7.49    3.10
  -7  -4  -6   27.81    4.66
  -6  -4  -6   21.61    4.09
  -5  -4  -6    7.23    2.44
  -4  -4  -6    1.61    1.19
  -3  -4  -6   34.19    3.31
  -2  -4  -6   14.05    2.10
  -1  -4  -6   28.56    2.79
   0  -4  -6    4.36    1.11
   1  -4  -6    8.16    1.36
   2  -4  -6    8.18    1.19
   3  -4  -6    8.58    1.21
   4  -4  -6    3.12    1.12
   5  -4  -6   30.82    2.59
   6  -4  -6   16.47    2.07
   7  -4  -6   23.02    2.35
   8  -4  -6    3.74    1.63
   9  -4  -6    6.03    2.05
  10  -4  -6   12.13    2.49
  11  -4  -6   22.18    5.30
  12  -4  -6    5.58    2.32
  -8  -3  -6    0.53    2.58
  -7  -3  -6    4.69    2.68
  -6  -3  -6    8.26    1.87
  -5  -3  -6    8.90    1.83
  -4  -3  -6   29.90    3.04
  -3  -3  -6   41.96    3.61
  -2  -3  -6   42.14    3.41
  -1  -3  -6    6.50    1.25
   0  -3  -6    9.01    1.30
   1  -3  -6   35.83    2.51
   2  -3  -6   44.56    2.45
   3  -3  -6    8.26    1.17
   4  -3  -6    5.39    1.32
   5  -3  -6   42.14    3.11
   6  -3  -6   42.23    3.17
   7  -3  -6   37.81    3.09
   8  -3  -6    4.89    1.78
   9  -3  -6    4.80    1.79
  10  -3  -6    4.64    1.98
  11  -3  -6    1.32    1.66
  12  -3  -6    0.74    2.32
  -9  -2  -6    2.71    2.41
  -8  -2  -6   14.09    3.85
  -7  -2  -6    2.63    1.62
  -6  -2  -6    4.57    1.55
  -5  -2  -6    7.31    1.78
  -4  -2  -6   19.38    2.40
  -3  -2  -6   43.36    3.51
  -2  -2  -6   10.38    1.44
  -1  -2  -6   44.24    2.75
   0  -2  -6   55.92    2.97
   1  -2  -6   30.39    2.31
   2  -2  -6   54.07    2.52
   3  -2  -6   35.80    2.68
   4  -2  -6    8.04    1.43
   5  -2  -6   39.61    2.89
   6  -2  -6   17.89    2.06
   7  -2  -6    6.41    1.45
   8  -2  -6    4.94    1.74
   9  -2  -6    1.75    1.56
  10  -2  -6   13.01    2.64
  11  -2  -6    2.63    1.86
 -10  -1  -6    5.72    3.15
  -9  -1  -6   -0.29    2.41
  -8  -1  -6   21.50    2.79
  -7  -1  -6   19.39    2.64
  -6  -1  -6    4.34    1.52
  -5  -1  -6   43.98    3.58
  -4  -1  -6   32.18    3.07
  -3  -1  -6    6.37    1.20
  -2  -1  -6   39.83    2.65
  -1  -1  -6   30.98    2.37
   0  -1  -6   41.33    2.75
   1  -1  -6   46.34    2.26
   2  -1  -6   29.97    2.05
   3  -1  -6   47.54    3.19
   4  -1  -6    4.84    1.26
   5  -1  -6   27.69    2.47
   6  -1  -6   36.43    2.85
   7  -1  -6    7.17    1.49
   8  -1  -6   15.03    2.68
   9  -1  -6   27.47    3.71
  10  -1  -6    2.27    1.70
  11  -1  -6    0.79    2.01
 -10   0  -6    3.85    2.04
  -9   0  -6    6.35    1.93
  -8   0  -6   30.03    3.26
  -7   0  -6    7.24    1.81
  -6   0  -6    2.94    1.35
  -5   0  -6   30.72    3.03
  -4   0  -6    2.04    0.96
  -3   0  -6    8.73    1.33
  -2   0  -6   52.29    2.78
  -1   0  -6   44.58    2.82
   0   0  -6    4.04    1.00
   1   0  -6   42.42    2.45
   2   0  -6   52.40    4.09
   3   0  -6    7.47    1.36
   4   0  -6    1.98    1.01
   5   0  -6   28.10    2.52
   6   0  -6    0.95    0.97
   7   0  -6    6.23    1.48
   8   0  -6   25.10    3.55
   9   0  -6    6.16    2.12
  10   0  -6    2.99    2.03
 -11   1  -6    3.91    2.18
 -10   1  -6    1.95    1.75
  -9   1  -6   30.59    3.30
  -8   1  -6   15.96    2.47
  -7   1  -6    2.57    1.43
  -6   1  -6   39.41    3.41
  -5   1  -6   26.34    2.67
  -4   1  -6    7.16    1.22
  -3   1  -6   47.28    2.79
  -2   1  -6   26.83    2.18
  -1   1  -6   46.66    2.72
   0   1  -6   43.05    2.44
   1   1  -6   29.74    2.00
   2   1  -6   30.93    2.45
   3   1  -6    9.67    1.54
   4   1  -6   26.00    2.34
   5   1  -6   39.30    3.01
   6   1  -6    5.67    1.38
   7   1  -6   14.96    2.02
   8   1  -6   15.40    2.82
   9   1  -6    2.66    1.91
  10   1  -6    3.15    3.79
 -12   2  -6    3.97    2.93
 -11   2  -6   -0.37    1.68
 -10   2  -6   11.33    2.31
  -9   2  -6    1.71    1.51
  -8   2  -6    3.28    1.57
  -7   2  -6    7.48    1.68
  -6   2  -6   17.86    2.22
  -5   2  -6   36.33    2.54
  -4   2  -6    9.40    1.37
  -3   2  -6   33.98    2.42
  -2   2  -6   54.44    2.77
  -1   2  -6   29.26    2.25
   0   2  -6   53.67    2.42
   1   2  -6   46.72    2.85
   2   2  -6    7.53    1.78
   3   2  -6   40.39    2.91
   4   2  -6   12.29    1.63
   5   2  -6    9.67    1.57
   6   2  -6    3.51    1.80
   7   2  -6    2.65    1.67
   8   2  -6   13.88    2.74
   9   2  -6   -0.07    3.23
 -12   3  -6    2.79    2.18
 -11   3  -6    0.38    1.73
 -10   3  -6    2.10    1.57
  -9   3  -6   11.03    2.13
  -8   3  -6    5.97    1.69
  -7   3  -6   44.38    3.60
  -6   3  -6   42.47    2.84
  -5   3  -6   37.71    2.63
  -4   3  -6    8.97    1.37
  -3   3  -6    8.84    1.35
  -2   3  -6   48.94    2.79
  -1   3  -6   31.58    2.04
   0   3  -6    9.72    1.16
   1   3  -6    7.56    1.31
   2   3  -6   37.64    2.75
   3   3  -6   42.43    3.03
   4   3  -6   26.23    2.32
   5   3  -6    6.76    2.01
   6   3  -6   11.33    2.38
   7   3  -6    6.07    2.10
   8   3  -6    1.33    1.95
 -12   4  -6   10.94    2.50
 -11   4  -6   25.20    3.23
 -10   4  -6   15.65    2.42
  -9   4  -6    6.37    1.84
  -8   4  -6    2.34    1.41
  -7   4  -6   22.95    2.03
  -6   4  -6   10.46    1.46
  -5   4  -6   27.81    2.24
  -4   4  -6    3.37    1.03
  -3   4  -6    7.95    1.27
  -2   4  -6    9.58    1.36
  -1   4  -6    7.03    1.07
   0   4  -6    3.91    1.01
   1   4  -6   24.41    2.24
   2   4  -6   17.08    1.87
   3   4  -6   37.28    2.80
   4   4  -6    1.72    1.48
   5   4  -6    3.22    1.69
   6   4  -6    6.38    2.13
   7   4  -6   31.39    4.01
   8   4  -6    7.72    4.32
 -12   5  -6    1.27    1.86
 -11   5  -6    5.61    2.00
 -10   5  -6    7.06    1.98
  -9   5  -6    7.44    1.89
  -8   5  -6    7.27    1.42
  -7   5  -6   14.24    1.76
  -6   5  -6   43.54    2.86
  -5   5  -6   29.77    2.38
  -4   5  -6   24.02    2.04
  -3   5  -6   38.76    2.60
  -2   5  -6   37.78    2.52
  -1   5  -6   26.18    2.25
   0   5  -6   34.54    2.62
   1   5  -6   35.24    2.77
   2   5  -6    7.56    1.93
   3   5  -6    5.99    1.84
   4   5  -6    5.98    1.85
   5   5  -6    3.78    1.91
   6   5  -6    5.39    2.22
   7   5  -6    1.13    3.33
 -12   6  -6   10.79    2.37
 -11   6  -6    3.84    1.90
 -10   6  -6   14.46    2.36
  -9   6  -6   15.96    2.45
  -8   6  -6    7.75    1.45
  -7   6  -6    6.20    1.31
  -6   6  -6    1.82    0.96
  -5   6  -6   35.41    3.26
  -4   6  -6   18.80    2.43
  -3   6  -6   42.55    3.49
  -2   6  -6   12.79    1.64
  -1   6  -6   41.22    2.88
   0   6  -6    2.39    1.03
   1   6  -6    5.25    1.80
   2   6  -6    2.92    1.47
   3   6  -6    7.89    2.13
   4   6  -6   17.72    2.97
   5   6  -6    7.33    2.39
   6   6  -6    9.07    4.55
 -12   7  -6    3.90    3.13
 -11   7  -6   29.32    4.89
 -10   7  -6    5.64    2.82
  -9   7  -6    0.99    1.45
  -8   7  -6   11.17    2.14
  -7   7  -6    6.69    1.85
  -6   7  -6    5.06    1.55
  -5   7  -6    7.64    1.74
  -4   7  -6   38.05    3.43
  -3   7  -6   22.48    2.55
  -2   7  -6   10.75    1.59
  -1   7  -6    4.17    1.54
   0   7  -6    3.54    1.58
   1   7  -6   16.80    2.65
   2   7  -6    2.93    1.69
   3   7  -6    2.15    1.69
   4   7  -6   26.48    3.63
   5   7  -6    1.44    3.32
 -12   8  -6    7.60    3.30
 -11   8  -6    1.94    2.60
 -10   8  -6   10.65    2.25
  -9   8  -6   19.44    2.84
  -8   8  -6   30.32    3.26
  -7   8  -6   15.33    2.49
  -6   8  -6    2.73    1.44
  -5   8  -6    7.67    1.88
  -4   8  -6    2.59    1.37
  -3   8  -6    7.32    1.45
  -2   8  -6    6.94    1.72
  -1   8  -6   12.30    2.18
   0   8  -6   25.60    3.41
   1   8  -6   20.84    3.12
   2   8  -6   12.10    2.52
   3   8  -6    2.26    1.84
   4   8  -6    9.72    3.99
 -11   9  -6    4.70    2.84
 -10   9  -6    0.74    1.67
  -9   9  -6    3.84    1.84
  -8   9  -6   22.17    2.91
  -7   9  -6    3.36    1.63
  -6   9  -6    9.78    2.07
  -5   9  -6    7.30    1.85
  -4   9  -6    0.89    2.06
  -3   9  -6    9.74    2.24
  -2   9  -6    3.99    1.65
  -1   9  -6   22.76    3.05
   0   9  -6    3.72    1.75
   1   9  -6    0.30    1.57
   2   9  -6    3.27    1.95
 -11  10  -6    5.30    2.12
 -10  10  -6    5.58    2.17
  -9  10  -6    2.94    1.90
  -8  10  -6   15.04    2.75
  -7  10  -6    5.32    1.87
  -6  10  -6   15.77    2.67
  -5  10  -6    8.41    3.10
  -4  10  -6   13.56    3.71
  -3  10  -6    4.34    1.84
  -2  10  -6    8.29    2.01
  -1  10  -6    1.66    1.58
   0  10  -6    4.00    2.00
   1  10  -6    3.57    1.96
 -11  11  -6    0.47    2.04
 -10  11  -6    5.94    2.23
  -9  11  -6    2.06    1.85
  -8  11  -6    0.48    1.73
  -7  11  -6   33.19    5.55
  -6  11  -6   10.31    3.62
  -5  11  -6    3.59    2.68
  -4  11  -6   26.94    5.11
  -3  11  -6    0.21    1.74
  -2  11  -6    3.32    1.87
  -1  11  -6    9.56    2.52
   0  11  -6    0.27    2.22
 -10  12  -6    6.38    3.14
  -8  12  -6   10.89    3.45
  -7  12  -6    2.18    2.67
  -6  12  -6    6.82    3.22
  -5  12  -6    3.13    2.55
  -4  12  -6    2.00    2.75
  -3  12  -6    2.18    1.95
   3 -13  -5    2.15    3.61
   6 -13  -5    0.47    2.94
   7 -13  -5    3.29    2.29
   8 -13  -5    0.73    2.05
   9 -13  -5   10.45    2.93
  10 -13  -5    0.73    2.21
   1 -12  -5    1.43    3.07
   2 -12  -5    5.18    3.62
   3 -12  -5    2.90    3.41
   5 -12  -5    4.74    3.11
   6 -12  -5    5.88    2.30
   7 -12  -5    6.97    2.47
   8 -12  -5   16.16    3.04
   9 -12  -5    0.10    1.85
  10 -12  -5    4.30    2.45
  11 -12  -5    1.55    2.30
  -1 -11  -5    1.62    2.83
   0 -11  -5    4.86    3.36
   1 -11  -5   10.01    4.02
   2 -11  -5    5.65    3.41
   3 -11  -5   34.33    6.02
   4 -11  -5    4.54    2.76
   5 -11  -5   10.60    2.53
   6 -11  -5   14.22    2.72
   7 -11  -5    7.76    2.32
   8 -11  -5   25.74    3.72
   9 -11  -5    3.12    2.05
  10 -11  -5   12.84    2.92
  11 -11  -5   10.63    2.96
  12 -11  -5    3.69    2.45
  -2 -10  -5    5.53    3.78
  -1 -10  -5    8.81    3.96
   0 -10  -5   43.31    7.31
   1 -10  -5   17.63    4.55
   2 -10  -5   10.42    3.61
   3 -10  -5   11.62    3.71
   4 -10  -5    5.78    2.01
   5 -10  -5    2.72    1.36
   6 -10  -5    7.13    1.70
   7 -10  -5   15.35    2.21
   8 -10  -5   11.09    2.07
   9 -10  -5   28.92    3.05
  10 -10  -5   39.24    3.66
  11 -10  -5    8.50    2.17
  12 -10  -5    3.89    1.81
  13 -10  -5    5.10    3.57
  -4  -9  -5    8.79    4.35
  -3  -9  -5   -0.22    3.12
  -2  -9  -5    6.64    3.54
  -1  -9  -5   25.33    5.53
   0  -9  -5    2.05    2.51
   1  -9  -5   15.29    2.37
   2  -9  -5    9.04    2.01
   3  -9  -5   10.12    1.08
   4  -9  -5   32.07    2.09
   5  -9  -5   24.16    2.50
   6  -9  -5    6.56    1.64
   7  -9  -5    6.06    1.61
   8  -9  -5    7.92    1.84
   9  -9  -5   -1.09    1.11
  10  -9  -5   21.39    2.83
  11  -9  -5    1.08    1.50
  12  -9  -5    1.04    1.61
  13  -9  -5    5.40    2.13
  -5  -8  -5    5.64    3.93
  -4  -8  -5   16.78    2.85
  -3  -8  -5   18.70    2.75
  -2  -8  -5   11.78    2.38
  -1  -8  -5   12.95    2.38
   0  -8  -5    2.39    1.32
   1  -8  -5   14.14    2.22
   2  -8  -5   48.24    2.26
   3  -8  -5   43.82    2.11
   4  -8  -5   48.83    2.14
   5  -8  -5   49.21    2.73
   6  -8  -5   46.81    3.53
   7  -8  -5   12.52    2.00
   8  -8  -5    2.21    1.29
   9  -8  -5   11.35    2.04
  10  -8  -5    8.73    1.93
  11  -8  -5   17.33    2.48
  12  -8  -5   14.15    2.48
  13  -8  -5   -0.91    1.63
  -6  -7  -5    3.24    1.73
  -5  -7  -5    8.03    2.40
  -4  -7  -5    8.58    2.01
  -3  -7  -5   12.39    2.37
  -2  -7  -5    8.98    2.09
  -1  -7  -5   12.06    2.23
   0  -7  -5   10.50    1.49
   1  -7  -5   75.64    3.34
   2  -7  -5   36.36    1.89
   3  -7  -5   16.78    1.25
   4  -7  -5   15.89    1.38
   5  -7  -5   37.07    2.46
   6  -7  -5   77.26    3.46
   7  -7  -5   11.35    1.79
   8  -7  -5   11.13    1.90
   9  -7  -5    5.64    1.61
  10  -7  -5    9.73    1.92
  11  -7  -5    7.97    1.90
  12  -7  -5    5.43    1.89
  13  -7  -5    1.75    1.74
  -7  -6  -5    4.64    2.20
  -6  -6  -5    3.93    1.86
  -5  -6  -5   11.67    2.43
  -4  -6  -5    7.01    1.93
  -3  -6  -5    7.02    1.76
  -2  -6  -5   38.69    3.73
  -1  -6  -5   82.65    3.78
   0  -6  -5    0.49    0.77
   1  -6  -5   26.29    1.66
   2  -6  -5    8.64    1.10
   3  -6  -5   24.71    1.81
   4  -6  -5    6.20    1.25
   5  -6  -5   25.10    2.27
   6  -6  -5    2.19    1.04
   7  -6  -5   71.19    4.80
   8  -6  -5   44.20    3.28
   9  -6  -5    7.77    1.70
  10  -6  -5    5.17    1.54
  11  -6  -5    9.67    1.88
  12  -6  -5    4.71    1.74
  13  -6  -5    2.93    1.61
  -8  -5  -5    1.03    2.01
  -7  -5  -5   10.67    2.89
  -6  -5  -5   12.62    3.26
  -5  -5  -5    1.92    1.46
  -4  -5  -5   24.91    3.07
  -3  -5  -5   43.64    3.00
  -2  -5  -5   37.17    2.69
  -1  -5  -5   27.72    2.25
   0  -5  -5   59.86    2.79
   1  -5  -5   53.84    2.19
   2  -5  -5   43.89    2.16
   3  -5  -5   48.81    2.22
   4  -5  -5   61.46    3.05
   5  -5  -5   57.56    3.22
   6  -5  -5   27.84    2.39
   7  -5  -5   39.75    2.61
   8  -5  -5   45.90    3.35
   9  -5  -5   27.82    2.77
  10  -5  -5    1.27    1.29
  11  -5  -5   10.77    2.05
  12  -5  -5    8.34    2.03
  13  -5  -5    3.71    2.21
  -9  -4  -5    8.30    3.15
  -8  -4  -5   22.63    4.52
  -7  -4  -5    5.87    2.49
  -6  -4  -5    2.94    1.95
  -5  -4  -5   30.42    4.33
  -4  -4  -5   47.68    3.70
  -3  -4  -5   18.77    2.15
  -2  -4  -5    3.27    1.09
  -1  -4  -5   53.39    2.63
   0  -4  -5    1.46    0.74
   1  -4  -5   66.16    2.60
   2  -4  -5    9.23    1.08
   3  -4  -5   61.84    2.53
   4  -4  -5    1.00    0.81
   5  -4  -5   48.39    2.98
   6  -4  -5    4.86    1.18
   7  -4  -5   14.67    1.83
   8  -4  -5   40.22    3.30
   9  -4  -5   20.72    2.43
  10  -4  -5    3.29    1.51
  11  -4  -5   11.24    2.07
  12  -4  -5   13.52    2.77
  13  -4  -5    4.34    2.19
  -9  -3  -5   -0.59    1.94
  -8  -3  -5   21.42    4.21
  -7  -3  -5    7.63    2.51
  -6  -3  -5    6.35    1.57
  -5  -3  -5   51.10    3.86
  -4  -3  -5   14.73    2.01
  -3  -3  -5   25.94    2.53
  -2  -3  -5   41.84    2.47
  -1  -3  -5   63.31    2.79
   0  -3  -5   80.15    2.80
   1  -3  -5   74.11    2.72
   2  -3  -5   79.11    2.87
   3  -3  -5   74.52    2.88
   4  -3  -5   68.83    3.28
   5  -3  -5   45.56    2.89
   6  -3  -5   23.22    2.18
   7  -3  -5   18.67    1.97
   8  -3  -5   32.95    2.92
   9  -3  -5    7.45    1.60
  10  -3  -5   11.44    1.92
  11  -3  -5   17.66    2.92
  12  -3  -5    1.25    1.67
 -10  -2  -5    4.90    2.82
  -9  -2  -5    3.77    2.57
  -8  -2  -5   11.10    3.18
  -7  -2  -5    5.85    1.69
  -6  -2  -5   44.78    3.65
  -5  -2  -5   43.80    3.46
  -4  -2  -5    7.31    1.41
  -3  -2  -5   48.62    3.00
  -2  -2  -5   10.52    1.30
  -1  -2  -5   76.20    3.21
   0  -2  -5   34.64    1.81
   1  -2  -5   17.75    1.36
   2  -2  -5   33.30    1.98
   3  -2  -5   71.49    3.28
   4  -2  -5    7.50    1.25
   5  -2  -5   36.33    2.70
   6  -2  -5    4.91    1.17
   7  -2  -5   37.07    2.81
   8  -2  -5   38.16    3.88
   9  -2  -5    8.50    1.99
  10  -2  -5    6.37    2.06
  11  -2  -5    4.02    1.98
  12  -2  -5   -1.90    2.76
 -11  -1  -5    0.35    2.46
 -10  -1  -5   12.73    3.75
  -9  -1  -5   22.72    4.11
  -8  -1  -5    9.64    1.83
  -7  -1  -5   14.95    2.09
  -6  -1  -5   69.98    3.97
  -5  -1  -5   28.00    2.66
  -4  -1  -5   45.03    3.10
  -3  -1  -5   66.43    2.98
  -2  -1  -5   71.74    3.07
  -1  -1  -5   20.60    1.70
   0  -1  -5   47.61    2.04
   1  -1  -5   49.99    2.12
   2  -1  -5   17.70    1.43
   3  -1  -5   73.35    3.45
   4  -1  -5   55.62    3.18
   5  -1  -5   55.29    3.02
   6  -1  -5   19.38    2.01
   7  -1  -5   79.81    3.96
   8  -1  -5    8.65    1.90
   9  -1  -5   11.35    2.35
  10  -1  -5   19.77    2.94
  11  -1  -5   11.42    4.41
  12  -1  -5   -1.67    3.01
 -11   0  -5    4.10    2.95
 -10   0  -5   37.62    3.80
  -9   0  -5   -1.07    1.22
  -8   0  -5    2.64    1.41
  -7   0  -5    8.81    1.73
  -6   0  -5    1.05    1.01
  -5   0  -5   64.69    3.56
  -4   0  -5    1.40    0.75
  -3   0  -5   76.59    3.20
  -2   0  -5   35.96    2.27
  -1   0  -5   46.48    1.99
   0   0  -5    0.45    0.50
   1   0  -5   44.51    2.10
   2   0  -5   33.47    1.98
   3   0  -5   74.77    3.47
   4   0  -5    0.40    0.76
   5   0  -5   55.72    3.06
   6   0  -5   -0.28    0.75
   7   0  -5   12.10    2.34
   8   0  -5    0.51    1.26
   9   0  -5    0.05    1.35
  10   0  -5   33.33    4.02
  11   0  -5    6.97    3.84
 -12   1  -5    1.34    2.72
 -11   1  -5    9.56    2.28
 -10   1  -5   17.80    2.49
  -9   1  -5   12.69    2.25
  -8   1  -5   12.80    2.08
  -7   1  -5   84.74    4.61
  -6   1  -5   22.64    2.40
  -5   1  -5   54.64    2.68
  -4   1  -5   55.59    2.69
  -3   1  -5   75.88    3.20
  -2   1  -5   17.91    1.57
  -1   1  -5   48.25    2.05
   0   1  -5   47.21    2.07
   1   1  -5   15.52    1.31
   2   1  -5   66.06    3.19
   3   1  -5   71.87    3.28
   4   1  -5   42.10    2.71
   5   1  -5   28.20    2.34
   6   1  -5   60.65    3.32
   7   1  -5   17.29    2.69
   8   1  -5   13.16    2.44
   9   1  -5   37.19    3.87
  10   1  -5   20.19    5.33
  11   1  -5   -0.26    3.89
 -12   2  -5    0.50    1.86
 -11   2  -5    2.64    1.68
 -10   2  -5    9.69    2.11
  -9   2  -5    4.54    1.57
  -8   2  -5   39.29    3.50
  -7   2  -5   32.10    2.90
  -6   2  -5    4.75    1.00
  -5   2  -5   37.69    2.34
  -4   2  -5    8.74    1.17
  -3   2  -5   68.41    3.01
  -2   2  -5   32.96    1.80
  -1   2  -5   18.30    1.39
   0   2  -5   33.22    1.91
   1   2  -5   79.58    3.40
   2   2  -5    8.20    1.25
   3   2  -5   46.13    2.67
   4   2  -5    5.96    1.21
   5   2  -5   39.60    2.77
   6   2  -5   42.89    4.18
   7   2  -5    5.45    1.87
   8   2  -5    7.87    2.20
   9   2  -5    8.55    4.06
  10   2  -5    3.79    3.91
 -13   3  -5    2.11    2.10
 -12   3  -5    1.61    1.81
 -11   3  -5   24.22    3.07
 -10   3  -5    8.02    1.88
  -9   3  -5   12.43    2.12
  -8   3  -5   37.10    3.13
  -7   3  -5   14.22    1.59
  -6   3  -5   26.40    2.03
  -5   3  -5   47.83    2.55
  -4   3  -5   74.03    3.07
  -3   3  -5   72.95    3.14
  -2   3  -5   76.41    2.76
  -1   3  -5   73.01    2.69
   0   3  -5   78.16    2.84
   1   3  -5   53.12    2.80
   2   3  -5   38.84    2.47
   3   3  -5   26.89    2.14
   4   3  -5   11.89    1.55
   5   3  -5   56.07    4.25
   6   3  -5    5.81    1.85
   7   3  -5    7.66    2.10
   8   3  -5   18.70    5.35
   9   3  -5   -0.97    3.06
 -13   4  -5    3.46    2.05
 -12   4  -5   20.16    2.99
 -11   4  -5    7.92    2.12
 -10   4  -5    6.40    1.73
  -9   4  -5   21.97    2.51
  -8   4  -5   47.44    3.68
  -7   4  -5   13.93    1.56
  -6   4  -5    5.49    1.08
  -5   4  -5   38.26    2.51
  -4   4  -5    1.58    0.75
  -3   4  -5   54.73    2.29
  -2   4  -5    7.51    0.93
  -1   4  -5   71.81    2.63
   0   4  -5    0.69    0.74
   1   4  -5   56.83    2.84
   2   4  -5    4.65    1.13
   3   4  -5   17.40    1.77
   4   4  -5   40.39    3.96
   5   4  -5   26.08    3.19
   6   4  -5    5.18    1.76
   7   4  -5    8.60    3.59
   8   4  -5   24.59    5.61
   9   4  -5    6.37    3.89
 -13   5  -5    2.80    1.99
 -12   5  -5   11.70    2.52
 -11   5  -5   13.56    2.24
 -10   5  -5   -0.17    1.27
  -9   5  -5   36.16    3.36
  -8   5  -5   52.91    2.85
  -7   5  -5   47.16    2.71
  -6   5  -5   28.00    2.13
  -5   5  -5   55.75    2.75
  -4   5  -5   61.01    2.73
  -3   5  -5   36.55    2.08
  -2   5  -5   47.75    2.35
  -1   5  -5   45.84    2.53
   0   5  -5   58.15    2.88
   1   5  -5   20.63    1.90
   2   5  -5   31.34    3.34
   3   5  -5   33.63    3.56
   4   5  -5   14.47    2.35
   5   5  -5    2.14    1.35
   6   5  -5   16.98    2.85
   7   5  -5    0.76    2.78
   8   5  -5    2.74    3.49
 -13   6  -5    5.14    2.10
 -12   6  -5    3.64    1.81
 -11   6  -5   16.49    2.57
 -10   6  -5    6.12    1.79
  -9   6  -5    7.03    1.41
  -8   6  -5   46.65    2.98
  -7   6  -5   63.97    3.75
  -6   6  -5    0.86    0.78
  -5   6  -5   25.86    1.93
  -4   6  -5    6.84    0.93
  -3   6  -5   26.81    1.71
  -2   6  -5    7.43    1.18
  -1   6  -5   28.87    2.22
   0   6  -5    1.67    0.78
   1   6  -5   94.61    5.25
   2   6  -5   35.61    3.65
   3   6  -5   13.78    2.38
   4   6  -5    6.99    1.93
   5   6  -5    8.29    2.09
   6   6  -5    6.31    3.58
   7   6  -5   -1.12    3.05
 -13   7  -5    4.64    3.02
 -12   7  -5    6.10    2.96
 -11   7  -5    7.76    2.88
 -10   7  -5   15.07    2.45
  -9   7  -5    7.31    1.78
  -8   7  -5   13.66    2.28
  -7   7  -5   12.29    2.11
  -6   7  -5   88.42    4.73
  -5   7  -5   27.17    2.83
  -4   7  -5   16.09    1.69
  -3   7  -5   15.17    1.66
  -2   7  -5   41.89    2.80
  -1   7  -5   58.05    4.16
   0   7  -5   11.35    2.06
   1   7  -5   14.04    2.37
   2   7  -5    8.90    2.01
   3   7  -5    8.46    2.07
   4   7  -5   10.87    2.40
   5   7  -5   11.66    4.33
   6   7  -5   -1.53    2.73
 -13   8  -5    1.90    2.99
 -12   8  -5   14.76    3.69
 -11   8  -5   20.96    4.15
 -10   8  -5    3.11    1.61
  -9   8  -5   10.52    2.12
  -8   8  -5    2.57    1.42
  -7   8  -5   12.00    2.06
  -6   8  -5   37.23    3.35
  -5   8  -5   32.77    2.52
  -4   8  -5   47.78    2.89
  -3   8  -5   51.96    2.88
  -2   8  -5   39.25    3.77
  -1   8  -5   13.54    2.29
   0   8  -5    0.55    1.14
   1   8  -5   13.36    2.49
   2   8  -5   10.84    2.26
   3   8  -5   28.10    3.47
   4   8  -5   12.94    4.80
   5   8  -5    2.96    3.66
 -13   9  -5    5.20    3.11
 -12   9  -5   -0.55    2.34
 -11   9  -5    3.34    1.81
 -10   9  -5   25.02    3.04
  -9   9  -5   -0.57    1.31
  -8   9  -5   12.03    2.19
  -7   9  -5    6.56    1.69
  -6   9  -5    7.03    1.69
  -5   9  -5   20.29    2.07
  -4   9  -5   24.90    3.03
  -3   9  -5    4.47    1.60
  -2   9  -5    7.71    1.87
  -1   9  -5    9.34    2.18
   0   9  -5    1.81    1.33
   1   9  -5   14.93    2.57
   2   9  -5    2.46    1.73
   3   9  -5   -2.98    2.34
   4   9  -5    1.63    3.30
 -12  10  -5    0.95    1.83
 -11  10  -5   11.13    2.47
 -10  10  -5   42.02    3.92
  -9  10  -5   14.73    2.41
  -8  10  -5    8.56    1.95
  -7  10  -5   10.62    2.06
  -6  10  -5    6.02    1.81
  -5  10  -5    3.11    1.60
  -4  10  -5    4.37    1.60
  -3  10  -5   16.94    2.72
  -2  10  -5    5.55    1.83
  -1  10  -5   34.04    3.76
   0  10  -5   37.43    4.17
   1  10  -5   10.56    2.17
   2  10  -5    1.12    2.63
 -12  11  -5    1.15    2.02
 -11  11  -5    4.05    1.93
 -10  11  -5   12.33    2.43
  -9  11  -5    5.28    2.00
  -8  11  -5   25.50    3.05
  -7  11  -5    9.80    3.43
  -6  11  -5    9.78    2.28
  -5  11  -5   19.36    2.92
  -4  11  -5   10.92    2.35
  -3  11  -5   23.64    3.09
  -2  11  -5    2.84    1.69
  -1  11  -5   13.89    2.69
   0  11  -5    7.27    2.26
   1  11  -5    4.20    3.06
 -12  12  -5    8.00    2.56
 -11  12  -5    0.44    1.92
 -10  12  -5    3.88    2.04
  -9  12  -5    0.46    2.46
  -8  12  -5   18.58    4.45
  -7  12  -5   14.53    3.91
  -6  12  -5    6.34    2.14
  -5  12  -5    6.08    1.96
  -4  12  -5   13.64    2.59
  -3  12  -5    0.52    1.53
  -2  12  -5    4.37    1.97
  -1  12  -5   -1.47    1.51
  -9  13  -5    6.18    3.36
  -8  13  -5    3.78    3.02
  -7  13  -5    4.34    2.93
  -6  13  -5    2.22    1.84
  -5  13  -5   -0.05    1.56
  -4  13  -5   11.50    2.70
  -3  13  -5   -0.72    1.76
   6 -14  -4    8.03    3.77
   7 -14  -4    6.72    3.30
   8 -14  -4    5.99    3.43
   9 -14  -4   -0.24    2.21
  10 -14  -4   -0.10    2.24
   1 -13  -4    1.23    2.79
   2 -13  -4    2.48    2.93
   3 -13  -4    2.65    3.00
   4 -13  -4   21.74    4.93
   5 -13  -4   10.67    3.89
   6 -13  -4    7.10    3.33
   7 -13  -4    7.56    3.28
   8 -13  -4   17.95    3.32
   9 -13  -4   18.75    3.45
  10 -13  -4    5.83    2.51
  11 -13  -4    3.43    2.75
  12 -13  -4    4.71    3.57
   0 -12  -4   -2.61    2.48
   1 -12  -4    4.21    3.11
   2 -12  -4   36.62    6.09
   3 -12  -4    0.78    2.45
   4 -12  -4    2.89    1.92
   5 -12  -4    1.46    2.42
   6 -12  -4    2.90    1.91
   7 -12  -4    3.06    2.00
   8 -12  -4   -0.03    1.54
   9 -12  -4    1.50    1.77
  10 -12  -4   36.03    4.84
  11 -12  -4    2.21    2.07
  12 -12  -4    1.49    2.27
  13 -12  -4    3.28    3.75
  -2 -11  -4    9.10    4.07
  -1 -11  -4    5.31    3.52
   0 -11  -4    1.96    2.68
   1 -11  -4    6.48    3.24
   2 -11  -4    5.52    3.00
   3 -11  -4   26.76    5.04
   4 -11  -4   12.95    2.54
   5 -11  -4   45.39    4.50
   6 -11  -4   39.68    4.32
   7 -11  -4   12.63    2.61
   8 -11  -4   29.09    3.88
   9 -11  -4    8.13    2.27
  10 -11  -4    4.77    2.19
  11 -11  -4    0.29    1.83
  12 -11  -4    2.62    2.34
  13 -11  -4    2.70    2.47
  -3 -10  -4   -0.28    2.58
  -2 -10  -4   40.04    7.19
  -1 -10  -4    6.71    3.33
   0 -10  -4    5.26    2.89
   1 -10  -4   18.80    4.14
   2 -10  -4    4.43    2.66
   3 -10  -4    5.57    1.77
   4 -10  -4   39.61    3.20
   5 -10  -4   11.28    2.26
   6 -10  -4   32.82    3.86
   7 -10  -4    4.99    1.99
   8 -10  -4    8.87    1.82
   9 -10  -4   13.84    2.18
  10 -10  -4    2.08    1.37
  11 -10  -4    6.17    2.35
  12 -10  -4   43.27    4.76
  13 -10  -4    6.34    2.84
  14 -10  -4    3.34    2.78
  -5  -9  -4    4.77    3.87
  -4  -9  -4   24.95    5.85
  -3  -9  -4    5.95    3.33
  -2  -9  -4    4.29    2.94
  -1  -9  -4   16.73    4.34
   0  -9  -4    5.37    2.62
   1  -9  -4   11.70    3.29
   2  -9  -4   50.06    6.22
   3  -9  -4   30.29    2.17
   4  -9  -4   19.07    2.16
   5  -9  -4   18.07    1.84
   6  -9  -4   30.27    2.69
   7  -9  -4   37.04    3.14
   8  -9  -4   12.81    1.90
   9  -9  -4    3.91    1.47
  10  -9  -4   13.63    2.21
  11  -9  -4    9.04    2.01
  12  -9  -4    2.42    1.61
  13  -9  -4   19.60    2.87
  14  -9  -4    1.44    2.46
  -6  -8  -4   18.73    5.61
  -5  -8  -4   28.31    6.39
  -4  -8  -4    0.60    1.36
  -3  -8  -4   23.48    3.01
  -2  -8  -4    8.61    1.90
  -1  -8  -4   17.94    2.43
   0  -8  -4   36.56    3.35
   1  -8  -4   43.83    3.15
   2  -8  -4   26.32    1.66
   3  -8  -4   26.68    1.50
   4  -8  -4   19.71    1.34
   5  -8  -4   23.45    1.96
   6  -8  -4   25.67    2.54
   7  -8  -4   42.14    3.35
   8  -8  -4   29.96    2.88
   9  -8  -4   12.28    2.07
  10  -8  -4    7.35    1.83
  11  -8  -4   21.07    2.69
  12  -8  -4    2.89    1.59
  13  -8  -4   11.58    2.31
  14  -8  -4    8.01    2.21
  -7  -7  -4    7.46    2.15
  -6  -7  -4   10.77    2.49
  -5  -7  -4    4.11    1.80
  -4  -7  -4   10.29    2.19
  -3  -7  -4    8.02    1.80
  -2  -7  -4   38.76    3.56
  -1  -7  -4   41.44    3.60
   0  -7  -4   10.76    1.33
   1  -7  -4   53.00    2.15
   2  -7  -4   13.34    1.03
   3  -7  -4   37.48    1.74
   4  -7  -4   36.51    1.71
   5  -7  -4   11.36    1.31
   6  -7  -4   49.66    3.26
   7  -7  -4    6.54    1.42
   8  -7  -4   34.83    3.13
   9  -7  -4   36.68    3.40
  10  -7  -4    6.69    1.64
  11  -7  -4   14.03    2.30
  12  -7  -4    0.53    1.35
  13  -7  -4    5.98    1.95
  14  -7  -4    9.93    2.28
  -8  -6  -4    9.30    2.39
  -7  -6  -4    9.46    2.04
  -6  -6  -4    4.68    1.90
  -5  -6  -4   39.95    3.97
  -4  -6  -4   36.67    3.59
  -3  -6  -4   26.73    2.90
  -2  -6  -4   26.11    2.88
  -1  -6  -4   53.33    2.70
   0  -6  -4    5.41    0.80
   1  -6  -4   42.34    1.66
   2  -6  -4   20.67    1.24
   3  -6  -4   71.77    2.21
   4  -6  -4   18.18    1.53
   5  -6  -4   42.81    2.30
   6  -6  -4    4.85    0.98
   7  -6  -4   47.82    3.28
   8  -6  -4   23.19    2.44
   9  -6  -4   27.67    2.80
  10  -6  -4   34.94    3.15
  11  -6  -4   35.86    3.38
  12  -6  -4    3.61    1.48
  13  -6  -4    8.11    2.00
  14  -6  -4    5.78    2.04
  -9  -5  -4    1.78    2.23
  -8  -5  -4   12.61    2.64
  -7  -5  -4    3.53    1.66
  -6  -5  -4   37.42    4.00
  -5  -5  -4    6.83    1.80
  -4  -5  -4   17.54    2.46
  -3  -5  -4   24.39    2.03
  -2  -5  -4    9.81    1.24
  -1  -5  -4   40.65    1.85
   0  -5  -4   12.60    1.01
   1  -5  -4   37.11    1.63
   2  -5  -4   45.95    1.81
   3  -5  -4   47.26    1.84
   4  -5  -4   33.63    1.97
   5  -5  -4   10.01    1.18
   6  -5  -4   39.32    2.31
   7  -5  -4    9.31    1.48
   8  -5  -4   22.61    2.40
   9  -5  -4   15.26    2.05
  10  -5  -4   12.04    1.93
  11  -5  -4   36.46    3.39
  12  -5  -4    3.29    1.55
  13  -5  -4   10.22    2.19
  14  -5  -4    2.89    2.49
 -10  -4  -4    2.83    2.56
  -9  -4  -4   17.73    4.00
  -8  -4  -4    0.17    1.65
  -7  -4  -4    9.61    2.09
  -6  -4  -4   37.02    3.80
  -5  -4  -4   16.31    2.43
  -4  -4  -4   15.47    1.71
  -3  -4  -4   36.47    2.50
  -2  -4  -4   18.08    1.67
  -1  -4  -4   32.26    1.77
   0  -4  -4   35.17    1.53
   1  -4  -4   69.28    2.22
   2  -4  -4  159.62    4.62
   3  -4  -4   70.96    2.66
   4  -4  -4   32.54    2.31
   5  -4  -4   32.68    2.33
   6  -4  -4   18.09    1.63
   7  -4  -4   30.82    2.65
   8  -4  -4   17.59    2.11
   9  -4  -4   16.54    2.15
  10  -4  -4   32.72    3.09
  11  -4  -4   11.65    2.06
  12  -4  -4    0.68    1.33
  13  -4  -4   16.14    3.31
  14  -4  -4    3.75    2.51
 -10  -3  -4    2.83    2.56
  -9  -3  -4    0.11    1.71
  -8  -3  -4   19.38    3.61
  -7  -3  -4    4.63    2.01
  -6  -3  -4   25.99    2.34
  -5  -3  -4   22.82    2.06
  -4  -3  -4   35.31    2.44
  -3  -3  -4   69.07    3.12
  -2  -3  -4   47.93    2.04
  -1  -3  -4   74.93    2.51
   0  -3  -4   75.37    2.58
   1  -3  -4   18.58    1.26
   2  -3  -4   21.36    1.39
   3  -3  -4   73.41    2.71
   4  -3  -4   66.25    3.04
   5  -3  -4   49.05    2.65
   6  -3  -4   68.55    2.86
   7  -3  -4   30.34    2.61
   8  -3  -4   21.38    2.27
   9  -3  -4   23.67    2.48
  10  -3  -4    5.33    1.57
  11  -3  -4   22.16    2.67
  12  -3  -4    0.47    1.38
  13  -3  -4    5.80    2.62
 -11  -2  -4    5.31    2.91
 -10  -2  -4   32.01    5.06
  -9  -2  -4    6.64    2.75
  -8  -2  -4    6.69    2.48
  -7  -2  -4   44.31    3.62
  -6  -2  -4   25.13    2.49
  -5  -2  -4   11.00    1.60
  -4  -2  -4   15.86    1.82
  -3  -2  -4   48.73    2.78
  -2  -2  -4  159.48    5.17
  -1  -2  -4   20.85    1.21
   0  -2  -4   13.20    1.04
   1  -2  -4   40.43    1.71
   2  -2  -4   13.66    1.14
   3  -2  -4   19.21    1.62
   4  -2  -4  152.99    5.57
   5  -2  -4   45.29    2.55
   6  -2  -4   16.71    1.52
   7  -2  -4    9.38    1.55
   8  -2  -4   23.23    2.36
   9  -2  -4   32.41    2.98
  10  -2  -4    5.65    1.52
  11  -2  -4    9.01    1.89
  12  -2  -4   34.33    4.66
  13  -2  -4    3.50    2.58
 -11  -1  -4    4.94    2.80
 -10  -1  -4    4.77    2.40
  -9  -1  -4   11.63    3.26
  -8  -1  -4   14.23    2.18
  -7  -1  -4   36.87    3.13
  -6  -1  -4   43.07    3.36
  -5  -1  -4   44.01    2.73
  -4  -1  -4   30.37    2.49
  -3  -1  -4   66.19    2.69
  -2  -1  -4   17.57    1.40
  -1  -1  -4   39.23    1.58
   0  -1  -4   11.17    0.96
   1  -1  -4   10.36    0.97
   2  -1  -4   38.44    1.77
   3  -1  -4   19.92    1.67
   4  -1  -4   73.43    3.25
   5  -1  -4   32.26    2.29
   6  -1  -4   33.51    2.42
   7  -1  -4   49.52    3.16
   8  -1  -4   37.95    3.13
   9  -1  -4   11.32    1.85
  10  -1  -4   12.40    2.06
  11  -1  -4    3.82    2.22
  12  -1  -4    0.16    2.11
  13  -1  -4    6.78    3.05
 -12   0  -4    0.75    2.52
 -11   0  -4    2.64    2.60
 -10   0  -4    5.40    1.75
  -9   0  -4    4.29    1.52
  -8   0  -4   30.36    3.07
  -7   0  -4    9.48    1.61
  -6   0  -4    5.15    1.31
  -5   0  -4   10.96    1.54
  -4   0  -4   30.25    1.87
  -3   0  -4   75.14    2.97
  -2   0  -4   13.63    1.22
  -1   0  -4   10.05    0.89
   0   0  -4  896.50   21.84
   1   0  -4    9.33    0.93
   2   0  -4   15.33    1.42
   3   0  -4   77.44    3.26
   4   0  -4   34.83    2.21
   5   0  -4    9.42    1.27
   6   0  -4    4.00    0.91
   7   0  -4    9.84    1.61
   8   0  -4   27.34    2.71
   9   0  -4    3.67    1.38
  10   0  -4    2.69    2.11
  11   0  -4    1.91    2.20
  12   0  -4    4.61    2.68
 -12   1  -4    4.09    2.79
 -11   1  -4    5.98    1.84
 -10   1  -4   14.20    2.37
  -9   1  -4   15.04    2.21
  -8   1  -4   43.90    3.48
  -7   1  -4   54.96    3.31
  -6   1  -4   36.59    2.79
  -5   1  -4   36.42    1.97
  -4   1  -4   76.85    2.98
  -3   1  -4   21.21    1.55
  -2   1  -4   38.10    1.88
  -1   1  -4    9.56    0.89
   0   1  -4    9.16    0.90
   1   1  -4   37.88    1.68
   2   1  -4   16.57    1.48
   3   1  -4   65.09    2.93
   4   1  -4   29.41    2.14
   5   1  -4   42.40    2.54
   6   1  -4   42.28    2.45
   7   1  -4   38.58    3.06
   8   1  -4   17.46    2.20
   9   1  -4   14.28    2.99
  10   1  -4    4.36    2.38
  11   1  -4   -0.03    2.08
  12   1  -4    2.83    2.63
 -13   2  -4    2.14    2.36
 -12   2  -4   53.05    4.55
 -11   2  -4    6.81    1.93
 -10   2  -4    7.58    1.73
  -9   2  -4   30.72    3.01
  -8   2  -4   32.68    2.88
  -7   2  -4    8.09    1.47
  -6   2  -4   15.43    1.46
  -5   2  -4   48.04    2.25
  -4   2  -4  153.72    5.16
  -3   2  -4   16.07    1.31
  -2   2  -4   14.08    1.05
  -1   2  -4   38.34    1.65
   0   2  -4   13.74    1.08
   1   2  -4   19.63    1.57
   2   2  -4  154.72    5.43
   3   2  -4   45.13    2.43
   4   2  -4   16.48    1.60
   5   2  -4    9.41    1.28
   6   2  -4   26.31    2.51
   7   2  -4   45.60    3.48
   8   2  -4   10.76    1.90
   9   2  -4    5.40    2.35
  10   2  -4   30.06    4.49
  11   2  -4    2.24    2.51
 -14   3  -4    2.00    3.16
 -13   3  -4    2.11    1.74
 -12   3  -4    0.60    1.46
 -11   3  -4   23.80    2.93
 -10   3  -4    6.27    1.62
  -9   3  -4   21.67    2.57
  -8   3  -4   25.07    2.58
  -7   3  -4   36.72    2.25
  -6   3  -4   72.60    2.98
  -5   3  -4   47.50    2.27
  -4   3  -4   65.78    2.72
  -3   3  -4   76.14    2.57
  -2   3  -4   18.35    1.22
  -1   3  -4   15.80    1.13
   0   3  -4   79.19    2.63
   1   3  -4   77.36    3.12
   2   3  -4   44.59    2.38
   3   3  -4   68.65    3.04
   4   3  -4   30.90    2.03
   5   3  -4   21.86    2.20
   6   3  -4   28.57    2.75
   7   3  -4    3.95    1.36
   8   3  -4   17.41    3.29
   9   3  -4    2.89    2.44
  10   3  -4    4.24    2.76
 -14   4  -4    2.42    1.87
 -13   4  -4   20.06    2.95
 -12   4  -4    1.39    1.53
 -11   4  -4   19.93    2.55
 -10   4  -4   48.73    3.86
  -9   4  -4   16.45    3.26
  -8   4  -4   16.96    1.67
  -7   4  -4   25.65    1.97
  -6   4  -4   21.22    1.75
  -5   4  -4   29.91    1.99
  -4   4  -4   33.58    1.58
  -3   4  -4   76.36    2.57
  -2   4  -4  155.36    4.51
  -1   4  -4   64.53    2.35
   0   4  -4   33.66    2.03
   1   4  -4   37.80    2.15
   2   4  -4   15.28    1.44
   3   4  -4   41.02    2.36
   4   4  -4   17.43    2.02
   5   4  -4   14.20    1.94
   6   4  -4   26.88    2.70
   7   4  -4    8.13    2.49
   8   4  -4    0.10    1.92
   9   4  -4   13.51    3.24
  10   4  -4    2.54    2.77
 -14   5  -4    2.31    1.96
 -13   5  -4   13.30    2.42
 -12   5  -4    5.24    1.85
 -11   5  -4   37.78    3.52
 -10   5  -4   11.75    2.00
  -9   5  -4   13.72    1.55
  -8   5  -4   18.71    1.71
  -7   5  -4   12.50    1.38
  -6   5  -4   44.61    2.23
  -5   5  -4   10.71    0.99
  -4   5  -4   36.65    1.72
  -3   5  -4   47.48    1.92
  -2   5  -4   49.79    1.94
  -1   5  -4   27.95    1.98
   0   5  -4   10.97    1.25
   1   5  -4   35.10    2.15
   2   5  -4    7.47    1.58
   3   5  -4   26.94    2.94
   4   5  -4   19.12    2.18
   5   5  -4   14.38    1.93
   6   5  -4   34.79    4.32
   7   5  -4    1.84    2.13
   8   5  -4   15.33    3.45
   9   5  -4    5.65    3.81
 -14   6  -4   15.64    2.81
 -13   6  -4    7.73    2.25
 -12   6  -4    1.94    1.65
 -11   6  -4   41.03    3.68
 -10   6  -4   32.23    2.49
  -9   6  -4   34.07    2.48
  -8   6  -4   23.40    1.96
  -7   6  -4   41.50    2.49
  -6   6  -4    7.28    1.04
  -5   6  -4   35.27    1.76
  -4   6  -4   15.98    1.21
  -3   6  -4   69.86    2.52
  -2   6  -4   15.75    1.54
  -1   6  -4   42.37    2.31
   0   6  -4    4.03    0.88
   1   6  -4   56.17    3.68
   2   6  -4   28.47    3.04
   3   6  -4   25.35    2.94
   4   6  -4   48.45    3.52
   5   6  -4   32.97    4.22
   6   6  -4    3.57    2.20
   7   6  -4    8.50    3.06
   8   6  -4    5.43    4.00
 -14   7  -4   11.07    3.58
 -13   7  -4    7.48    2.16
 -12   7  -4    3.76    1.72
 -11   7  -4   11.69    2.04
 -10   7  -4    4.33    1.25
  -9   7  -4   48.21    3.03
  -8   7  -4   36.62    3.31
  -7   7  -4   10.40    1.83
  -6   7  -4   55.45    3.41
  -5   7  -4    7.75    1.16
  -4   7  -4   41.15    2.42
  -3   7  -4   28.16    2.13
  -2   7  -4   14.06    1.44
  -1   7  -4   45.64    2.56
   0   7  -4    8.77    1.68
   1   7  -4   39.96    3.64
   2   7  -4   32.36    2.72
   3   7  -4    7.25    1.56
   4   7  -4   17.73    2.22
   5   7  -4    7.36    3.51
   6   7  -4   16.99    5.05
   7   7  -4   13.13    4.45
 -14   8  -4    7.93    3.45
 -13   8  -4   15.91    3.90
 -12   8  -4    0.31    2.15
 -11   8  -4   23.28    2.94
 -10   8  -4   12.54    2.14
  -9   8  -4   13.71    2.15
  -8   8  -4   31.55    3.11
  -7   8  -4   41.03    3.43
  -6   8  -4   29.09    2.26
  -5   8  -4   25.65    2.09
  -4   8  -4   15.08    1.59
  -3   8  -4   22.94    1.95
  -2   8  -4   18.46    2.49
  -1   8  -4   36.03    3.43
   0   8  -4   33.11    3.39
   1   8  -4   14.51    2.30
   2   8  -4    6.56    1.78
   3   8  -4   14.59    2.55
   4   8  -4    2.32    2.62
   5   8  -4   10.16    4.10
   6   8  -4    9.17    4.28
 -14   9  -4    5.55    3.28
 -13   9  -4   20.96    4.53
 -12   9  -4    2.06    1.65
 -11   9  -4    9.89    2.15
 -10   9  -4   18.48    2.57
  -9   9  -4    6.48    1.71
  -8   9  -4   11.53    2.08
  -7   9  -4   30.80    2.45
  -6   9  -4   27.60    2.26
  -5   9  -4   19.47    1.90
  -4   9  -4   15.95    1.71
  -3   9  -4   34.16    3.45
  -2   9  -4   57.15    4.53
  -1   9  -4   12.63    2.18
   0   9  -4    5.34    1.66
   1   9  -4   15.44    2.46
   2   9  -4    9.32    2.08
   3   9  -4    3.57    2.91
   4   9  -4   17.09    5.04
   5   9  -4    1.77    3.64
 -13  10  -4    6.07    3.08
 -12  10  -4   31.33    3.71
 -11  10  -4    5.07    1.98
 -10  10  -4    5.17    1.68
  -9  10  -4   13.18    2.29
  -8  10  -4    7.19    1.81
  -7  10  -4    8.29    1.48
  -6  10  -4   40.49    2.86
  -5  10  -4   10.11    2.01
  -4  10  -4   29.04    3.25
  -3  10  -4    4.27    1.50
  -2  10  -4   10.83    2.13
  -1  10  -4   13.54    2.45
   0  10  -4    8.19    1.97
   1  10  -4    4.07    1.73
   2  10  -4   66.00    8.61
   3  10  -4    5.74    3.28
 -13  11  -4    6.18    2.28
 -12  11  -4    4.11    2.01
 -11  11  -4    1.75    1.72
 -10  11  -4    5.59    1.93
  -9  11  -4    7.18    2.01
  -8  11  -4   20.92    2.79
  -7  11  -4   12.61    2.32
  -6  11  -4   42.30    3.84
  -5  11  -4   32.38    3.54
  -4  11  -4   11.80    2.27
  -3  11  -4   23.44    3.15
  -2  11  -4    9.20    2.19
  -1  11  -4    8.55    2.11
   0  11  -4    0.76    2.20
   1  11  -4    5.92    3.10
   2  11  -4    4.02    3.22
 -13  12  -4    4.98    2.36
 -12  12  -4    5.73    2.26
 -11  12  -4    3.62    1.95
 -10  12  -4   56.45    4.80
  -9  12  -4    3.57    1.87
  -8  12  -4    1.15    1.46
  -7  12  -4    2.47    1.57
  -6  12  -4    5.49    1.82
  -5  12  -4    2.97    1.58
  -4  12  -4   -0.73    1.30
  -3  12  -4    1.79    1.57
  -2  12  -4   30.35    3.65
  -1  12  -4    1.64    1.63
   0  12  -4    7.97    3.40
 -12  13  -4    8.42    2.64
 -11  13  -4    6.29    2.43
 -10  13  -4    5.29    3.26
  -9  13  -4   17.53    4.21
  -8  13  -4   10.41    2.44
  -7  13  -4    7.73    2.25
  -6  13  -4    5.99    2.02
  -5  13  -4   20.99    2.92
  -4  13  -4   22.73    3.27
  -3  13  -4    4.62    1.93
  -2  13  -4    3.25    1.88
  -1  13  -4   10.02    4.10
  -9  14  -4    2.43    2.83
  -8  14  -4   15.59    2.88
  -7  14  -4    5.85    2.21
  -6  14  -4    7.50    2.21
  -5  14  -4    3.18    1.95
  -4  14  -4    1.74    1.83
  -3  14  -4    3.78    2.74
   6 -15  -3    3.95    3.47
   7 -15  -3    3.75    3.30
   8 -15  -3    3.33    3.16
   2 -14  -3   16.77    4.92
   3 -14  -3   -0.61    2.84
   4 -14  -3   10.72    4.09
   5 -14  -3    3.15    3.06
   6 -14  -3    4.58    3.42
   7 -14  -3   23.11    5.38
   8 -14  -3    2.34    2.99
   9 -14  -3    8.26    2.83
  10 -14  -3   11.15    3.28
  11 -14  -3   -0.49    2.18
   0 -13  -3   -1.70    2.50
   1 -13  -3    4.62    3.13
   2 -13  -3    9.87    3.56
   3 -13  -3   25.38    5.46
   4 -13  -3    5.57    2.02
   5 -13  -3    2.54    1.90
   6 -13  -3   12.76    3.99
   7 -13  -3   21.19    4.87
   8 -13  -3    1.20    1.65
   9 -13  -3    2.26    1.91
  10 -13  -3   22.03    3.97
  11 -13  -3    3.91    2.38
  12 -13  -3   14.37    3.52
  13 -13  -3   -0.70    2.19
  -1 -12  -3   10.37    4.19
   0 -12  -3   12.02    4.03
   1 -12  -3   23.60    5.00
   2 -12  -3    7.01    3.29
   3 -12  -3   -0.82    2.04
   4 -12  -3    8.91    2.38
   5 -12  -3    8.67    2.25
   6 -12  -3    1.52    2.15
   7 -12  -3    6.54    2.09
   8 -12  -3   10.77    2.63
   9 -12  -3    0.62    1.64
  10 -12  -3    9.07    2.68
  11 -12  -3   14.15    3.20
  12 -12  -3    7.54    2.73
  13 -12  -3    7.82    3.14
  14 -12  -3   12.13    5.62
  -3 -11  -3    4.86    3.41
  -2 -11  -3   11.43    4.06
  -1 -11  -3   20.58    4.93
   0 -11  -3   13.36    3.63
   1 -11  -3   23.26    4.65
   2 -11  -3   18.23    4.09
   3 -11  -3   50.46    4.74
   4 -11  -3   10.05    2.31
   5 -11  -3   17.12    2.70
   6 -11  -3   16.80    2.73
   7 -11  -3   10.41    2.40
   8 -11  -3   41.11    4.64
   9 -11  -3   18.81    3.43
  10 -11  -3   16.18    3.10
  11 -11  -3    6.17    2.45
  12 -11  -3   19.09    3.73
  13 -11  -3    8.73    3.19
  14 -11  -3    2.24    2.48
  -4 -10  -3   10.25    4.09
  -3 -10  -3   17.21    4.60
  -2 -10  -3   10.68    3.89
  -1 -10  -3   19.04    4.50
   0 -10  -3   13.35    3.69
   1 -10  -3   62.84    7.41
   2 -10  -3   23.89    4.31
   3 -10  -3   18.14    2.69
   4 -10  -3   11.29    2.06
   5 -10  -3    3.35    1.11
   6 -10  -3   13.11    2.34
   7 -10  -3   16.44    2.75
   8 -10  -3   22.45    3.25
   9 -10  -3   45.64    4.96
  10 -10  -3   14.95    3.06
  11 -10  -3   16.05    3.28
  12 -10  -3    6.68    2.61
  13 -10  -3   16.85    3.48
  14 -10  -3   11.74    3.28
  15 -10  -3    6.98    4.53
  -6  -9  -3   10.07    4.72
  -5  -9  -3    3.75    3.72
  -4  -9  -3    9.96    3.74
  -3  -9  -3    0.55    2.13
  -2  -9  -3   22.81    4.73
  -1  -9  -3   46.12    6.42
   0  -9  -3    2.19    2.04
   1  -9  -3   45.14    5.65
   2  -9  -3   10.99    2.02
   3  -9  -3   34.17    3.39
   4  -9  -3   58.61    3.11
   5  -9  -3   58.88    3.27
   6  -9  -3   32.88    3.59
   7  -9  -3   10.69    2.23
   8  -9  -3   38.03    3.18
   9  -9  -3    3.47    1.31
  10  -9  -3   56.45    4.33
  11  -9  -3   16.64    3.18
  12  -9  -3    0.69    1.87
  13  -9  -3    6.19    2.65
  14  -9  -3    7.37    2.83
  15  -9  -3    6.43    2.94
  -7  -8  -3   11.59    4.57
  -6  -8  -3   10.34    4.37
  -5  -8  -3   -0.42    2.73
  -4  -8  -3   14.20    3.87
  -3  -8  -3   50.35    4.25
  -2  -8  -3   20.03    2.50
  -1  -8  -3   38.32    3.21
   0  -8  -3    1.01    0.87
   1  -8  -3   56.99    3.42
   2  -8  -3   38.91    2.43
   3  -8  -3   84.12    3.20
   4  -8  -3   11.12    1.25
   5  -8  -3   87.40    3.30
   6  -8  -3   38.72    2.93
   7  -8  -3   57.13    3.38
   8  -8  -3    0.34    0.79
   9  -8  -3   36.30    3.22
  10  -8  -3   17.76    2.40
  11  -8  -3   39.79    3.71
  12  -8  -3    6.49    1.82
  13  -8  -3    2.42    1.93
  14  -8  -3    6.49    2.73
  15  -8  -3    1.75    2.49
  -8  -7  -3    4.29    4.04
  -7  -7  -3   28.10    3.49
  -6  -7  -3   20.18    2.92
  -5  -7  -3   10.21    2.16
  -4  -7  -3    7.91    1.82
  -3  -7  -3   16.24    2.24
  -2  -7  -3   10.45    1.74
  -1  -7  -3   54.85    3.23
   0  -7  -3    8.61    1.08
   1  -7  -3  138.88    4.23
   2  -7  -3   56.60    1.83
   3  -7  -3   72.62    2.16
   4  -7  -3   73.11    2.81
   5  -7  -3   56.48    2.97
   6  -7  -3  139.40    5.75
   7  -7  -3    7.68    1.38
   8  -7  -3   51.01    3.45
   9  -7  -3   10.96    1.85
  10  -7  -3   10.83    1.86
  11  -7  -3   10.52    1.99
  12  -7  -3    5.09    1.56
  13  -7  -3   19.25    2.57
  14  -7  -3   29.36    4.46
  15  -7  -3    6.72    2.93
  -9  -6  -3    4.72    2.19
  -8  -6  -3    5.79    2.03
  -7  -6  -3   19.56    3.00
  -6  -6  -3    1.19    1.42
  -5  -6  -3   16.51    2.40
  -4  -6  -3   13.60    2.18
  -3  -6  -3   37.63    3.30
  -2  -6  -3   34.31    2.96
  -1  -6  -3  141.25    4.88
   0  -6  -3   39.15    1.98
   1  -6  -3   40.41    1.45
   2  -6  -3   55.56    1.72
   3  -6  -3   48.26    1.60
   4  -6  -3   55.78    2.04
   5  -6  -3   42.23    2.52
   6  -6  -3   39.75    2.70
   7  -6  -3  139.09    5.69
   8  -6  -3   35.41    2.92
   9  -6  -3   34.39    2.99
  10  -6  -3    8.09    1.53
  11  -6  -3   12.07    2.13
  12  -6  -3    1.43    1.27
  13  -6  -3   26.82    2.94
  14  -6  -3    3.58    2.42
  15  -6  -3    6.02    2.95
 -10  -5  -3    8.72    2.99
  -9  -5  -3    5.62    2.16
  -8  -5  -3    0.31    1.47
  -7  -5  -3    9.90    2.23
  -6  -5  -3   15.46    2.47
  -5  -5  -3    1.76    1.09
  -4  -5  -3   59.66    4.03
  -3  -5  -3   83.21    4.39
  -2  -5  -3   56.04    2.47
  -1  -5  -3   38.40    1.95
   0  -5  -3  105.63    3.22
   1  -5  -3   82.64    2.21
   2  -5  -3   67.65    2.00
   3  -5  -3   62.42    1.82
   4  -5  -3   88.07    3.16
   5  -5  -3  103.90    3.63
   6  -5  -3   36.60    2.57
   7  -5  -3   50.75    3.17
   8  -5  -3   81.28    4.20
   9  -5  -3   58.11    3.50
  10  -5  -3    2.53    1.25
  11  -5  -3   13.01    2.00
  12  -5  -3    9.42    1.92
  13  -5  -3    1.57    1.47
  14  -5  -3    4.82    2.76
  15  -5  -3    7.04    3.82
 -10  -4  -3    7.77    2.27
  -9  -4  -3    3.84    1.92
  -8  -4  -3   10.39    2.24
  -7  -4  -3   12.28    2.27
  -6  -4  -3   13.13    2.14
  -5  -4  -3   54.99    3.64
  -4  -4  -3    9.41    1.15
  -3  -4  -3   69.71    2.87
  -2  -4  -3   56.47    2.49
  -1  -4  -3   91.64    2.88
   0  -4  -3  121.84    3.18
   1  -4  -3   90.01    2.44
   2  -4  -3    3.97    0.50
   3  -4  -3   84.61    2.27
   4  -4  -3  122.37    3.85
   5  -4  -3   79.28    2.94
   6  -4  -3   50.11    2.92
   7  -4  -3   64.70    3.51
   8  -4  -3    7.80    1.46
   9  -4  -3   63.02    3.87
  10  -4  -3   13.84    1.92
  11  -4  -3    9.11    1.86
  12  -4  -3    8.44    1.86
  13  -4  -3    2.28    2.28
  14  -4  -3    8.59    3.08
 -11  -3  -3    1.42    2.45
 -10  -3  -3   18.47    3.96
  -9  -3  -3    0.94    1.51
  -8  -3  -3   40.83    4.09
  -7  -3  -3   12.98    2.23
  -6  -3  -3   33.95    2.45
  -5  -3  -3   85.51    3.61
  -4  -3  -3   71.87    3.03
  -3  -3  -3   49.16    2.27
  -2  -3  -3   59.83    2.50
  -1  -3  -3   87.45    2.38
   0  -3  -3  232.62    5.60
   1  -3  -3   98.02    2.68
   2  -3  -3   99.07    3.11
   3  -3  -3  229.64    6.31
   4  -3  -3   91.69    3.19
   5  -3  -3   68.05    2.63
   6  -3  -3   47.34    2.76
   7  -3  -3   60.18    3.37
   8  -3  -3   78.31    4.02
   9  -3  -3   36.18    3.00
  10  -3  -3   11.73    1.90
  11  -3  -3   41.52    3.45
  12  -3  -3    0.28    1.91
  13  -3  -3   20.09    3.72
  14  -3  -3    2.00    2.34
 -11  -2  -3    6.21    2.64
 -10  -2  -3    4.62    2.52
  -9  -2  -3   16.53    3.51
  -8  -2  -3   23.26    2.91
  -7  -2  -3    9.47    1.41
  -6  -2  -3   39.26    2.48
  -5  -2  -3   58.68    2.80
  -4  -2  -3   56.67    2.51
  -3  -2  -3   69.46    2.85
  -2  -2  -3    4.81    0.64
  -1  -2  -3  100.47    2.74
   0  -2  -3  187.87    4.98
   1  -2  -3    9.40    0.81
   2  -2  -3  191.81    5.11
   3  -2  -3   93.14    3.58
   4  -2  -3    2.91    0.73
   5  -2  -3   61.85    2.98
   6  -2  -3   57.04    3.05
   7  -2  -3   56.11    3.11
   8  -2  -3   29.45    2.56
   9  -2  -3    9.54    1.70
  10  -2  -3   21.11    2.36
  11  -2  -3   14.12    2.94
  12  -2  -3    6.13    2.40
  13  -2  -3    5.90    2.81
  14  -2  -3   15.76    3.71
 -12  -1  -3   12.46    3.43
 -11  -1  -3   16.52    3.89
 -10  -1  -3   13.88    3.50
  -9  -1  -3   58.89    5.47
  -8  -1  -3   47.98    3.64
  -7  -1  -3   52.02    3.16
  -6  -1  -3  135.41    5.76
  -5  -1  -3   39.42    2.45
  -4  -1  -3   83.19    3.72
  -3  -1  -3   90.73    4.01
  -2  -1  -3   97.42    3.29
  -1  -1  -3    8.42    0.68
   0  -1  -3   22.60    1.15
   1  -1  -3   22.40    1.24
   2  -1  -3    8.90    0.82
   3  -1  -3  105.97    3.81
   4  -1  -3   81.05    2.89
   5  -1  -3   89.60    3.22
   6  -1  -3   35.07    2.50
   7  -1  -3  137.39    5.77
   8  -1  -3   42.27    3.22
   9  -1  -3   29.55    2.77
  10  -1  -3   50.68    3.61
  11  -1  -3   15.90    3.17
  12  -1  -3   10.13    2.87
  13  -1  -3    6.05    2.70
 -13   0  -3    2.87    2.96
 -12   0  -3   18.41    4.08
 -11   0  -3   11.36    3.32
 -10   0  -3   17.15    2.41
  -9   0  -3    2.26    1.27
  -8   0  -3    1.88    1.06
  -7   0  -3    6.43    1.38
  -6   0  -3   40.01    2.71
  -5   0  -3  102.10    4.58
  -4   0  -3  117.33    4.90
  -3   0  -3  227.52    6.96
  -2   0  -3  184.44    5.64
  -1   0  -3   23.77    1.15
   0   0  -3   -0.29    0.31
   1   0  -3   24.04    1.25
   2   0  -3  189.04    6.00
   3   0  -3  231.63    7.41
   4   0  -3  115.82    4.28
   5   0  -3  105.94    3.59
   6   0  -3   38.40    2.61
   7   0  -3    5.96    1.29
   8   0  -3    1.02    0.99
   9   0  -3    4.83    1.37
  10   0  -3   15.31    3.03
  11   0  -3    7.35    2.68
  12   0  -3   13.62    3.14
  13   0  -3    0.11    2.39
 -13   1  -3   12.00    3.65
 -12   1  -3   22.91    4.39
 -11   1  -3   15.90    2.37
 -10   1  -3   53.73    4.25
  -9   1  -3   28.43    2.76
  -8   1  -3   48.56    3.09
  -7   1  -3  143.30    6.08
  -6   1  -3   36.48    2.54
  -5   1  -3   96.83    3.32
  -4   1  -3   78.54    2.96
  -3   1  -3  102.09    3.47
  -2   1  -3    8.38    0.86
  -1   1  -3   24.12    1.16
   0   1  -3   23.08    1.16
   1   1  -3    9.87    0.79
   2   1  -3   96.61    3.49
   3   1  -3  102.50    3.59
   4   1  -3   78.95    2.86
   5   1  -3   42.49    2.07
   6   1  -3  124.01    5.44
   7   1  -3   51.30    3.30
   8   1  -3   38.69    3.09
   9   1  -3   44.13    5.05
  10   1  -3   13.57    3.16
  11   1  -3   15.82    3.48
  12   1  -3    8.67    3.15
 -13   2  -3    4.60    2.96
 -12   2  -3    5.50    1.95
 -11   2  -3   16.62    2.46
 -10   2  -3   24.55    2.73
  -9   2  -3   10.85    1.78
  -8   2  -3   28.76    2.62
  -7   2  -3   55.59    2.43
  -6   2  -3   57.93    2.42
  -5   2  -3   55.22    2.35
  -4   2  -3    4.87    0.74
  -3   2  -3   95.51    3.30
  -2   2  -3  188.49    4.97
  -1   2  -3    8.75    0.74
   0   2  -3  188.41    5.00
   1   2  -3  104.39    3.65
   2   2  -3    5.44    0.82
   3   2  -3   75.30    2.88
   4   2  -3   49.60    2.15
   5   2  -3   52.13    3.09
   6   2  -3   39.30    2.97
   7   2  -3    7.80    1.47
   8   2  -3   19.68    3.11
   9   2  -3    9.04    2.67
  10   2  -3    5.53    2.52
  11   2  -3    6.49    2.74
  12   2  -3   17.38    3.87
 -14   3  -3   -0.70    1.65
 -13   3  -3   19.65    2.95
 -12   3  -3    0.56    1.20
 -11   3  -3   37.28    3.51
 -10   3  -3   14.82    2.15
  -9   3  -3   41.48    3.33
  -8   3  -3   76.56    3.26
  -7   3  -3   65.98    2.79
  -6   3  -3   46.33    2.15
  -5   3  -3   72.22    2.75
  -4   3  -3   96.66    3.34
  -3   3  -3  234.43    6.15
  -2   3  -3  102.66    3.03
  -1   3  -3   95.33    2.88
   0   3  -3  232.72    7.27
   1   3  -3   81.04    3.08
   2   3  -3   52.58    2.40
   3   3  -3   48.71    2.00
   4   3  -3   73.00    2.70
   5   3  -3   86.60    4.06
   6   3  -3   30.01    2.64
   7   3  -3   12.26    2.65
   8   3  -3   49.13    4.99
   9   3  -3   -0.79    1.70
  10   3  -3   19.01    3.54
  11   3  -3    3.67    2.82
 -14   4  -3   15.00    2.82
 -13   4  -3    5.31    1.90
 -12   4  -3    7.18    1.97
 -11   4  -3   12.89    2.21
 -10   4  -3   12.78    2.02
  -9   4  -3   68.33    3.00
  -8   4  -3    9.79    1.21
  -7   4  -3   70.86    2.94
  -6   4  -3   51.36    1.96
  -5   4  -3   77.25    2.57
  -4   4  -3  120.06    3.49
  -3   4  -3   78.86    2.57
  -2   4  -3    4.34    0.59
  -1   4  -3   99.54    2.90
   0   4  -3  122.48    4.17
   1   4  -3   90.73    3.42
   2   4  -3   62.10    2.52
   3   4  -3   65.03    2.51
   4   4  -3    8.70    1.37
   5   4  -3   48.61    3.21
   6   4  -3    8.55    1.52
   7   4  -3    9.27    2.53
   8   4  -3    9.81    2.85
   9   4  -3    6.43    2.67
  10   4  -3   10.30    3.18
 -15   5  -3    5.40    2.27
 -14   5  -3    9.92    2.37
 -13   5  -3    1.42    1.47
 -12   5  -3   12.05    2.28
 -11   5  -3   12.86    2.00
 -10   5  -3    3.66    1.34
  -9   5  -3   49.26    2.66
  -8   5  -3   93.36    3.57
  -7   5  -3   57.84    2.18
  -6   5  -3   43.63    1.76
  -5   5  -3  106.65    3.26
  -4   5  -3   94.18    2.91
  -3   5  -3   55.53    2.02
  -2   5  -3   72.34    2.32
  -1   5  -3   76.03    3.06
   0   5  -3  106.67    3.84
   1   5  -3   35.23    1.95
   2   5  -3   52.01    2.80
   3   5  -3   78.41    3.75
   4   5  -3   66.99    3.41
   5   5  -3    3.51    1.20
   6   5  -3   20.34    3.35
   7   5  -3    4.49    2.17
   8   5  -3    1.58    2.00
   9   5  -3    7.15    3.17
  10   5  -3    9.79    3.31
 -15   6  -3    6.13    2.27
 -14   6  -3    4.53    1.88
 -13   6  -3   26.77    3.10
 -12   6  -3    4.09    1.62
 -11   6  -3   20.02    2.47
 -10   6  -3    9.63    1.33
  -9   6  -3   27.55    2.06
  -8   6  -3   42.38    2.29
  -7   6  -3  132.84    4.11
  -6   6  -3   37.63    1.74
  -5   6  -3   36.05    1.63
  -4   6  -3   57.49    2.09
  -3   6  -3   45.51    1.79
  -2   6  -3   50.92    2.37
  -1   6  -3   42.15    2.12
   0   6  -3   37.55    1.77
   1   6  -3  142.69    5.52
   2   6  -3   28.30    2.33
   3   6  -3   37.60    2.86
   4   6  -3   14.01    1.78
   5   6  -3   15.95    2.77
   6   6  -3    2.39    2.09
   7   6  -3    9.53    2.82
   8   6  -3    3.72    2.60
   9   6  -3    6.08    3.04
 -15   7  -3    8.47    2.44
 -14   7  -3   30.91    3.58
 -13   7  -3   18.73    2.72
 -12   7  -3    8.32    1.85
 -11   7  -3   12.78    1.61
 -10   7  -3   17.61    1.80
  -9   7  -3    8.84    1.26
  -8   7  -3   58.43    2.28
  -7   7  -3    7.70    0.95
  -6   7  -3  143.71    5.13
  -5   7  -3   52.52    2.61
  -4   7  -3   66.37    2.93
  -3   7  -3   72.44    3.04
  -2   7  -3   56.41    2.27
  -1   7  -3  131.32    5.25
   0   7  -3    6.97    1.23
   1   7  -3   49.53    2.90
   2   7  -3   10.59    1.55
   3   7  -3   12.42    1.74
   4   7  -3   10.46    2.55
   5   7  -3    9.77    2.65
   6   7  -3   31.24    4.35
   7   7  -3   31.96    4.33
   8   7  -3    3.49    2.77
 -15   8  -3    5.04    3.47
 -14   8  -3    2.34    2.68
 -13   8  -3    1.36    2.20
 -12   8  -3   10.15    2.10
 -11   8  -3   50.99    4.11
 -10   8  -3   18.38    2.41
  -9   8  -3   38.77    3.36
  -8   8  -3    1.30    0.83
  -7   8  -3   41.27    2.58
  -6   8  -3   29.82    2.19
  -5   8  -3   80.60    3.49
  -4   8  -3    7.99    1.15
  -3   8  -3   92.28    3.63
  -2   8  -3   43.09    2.72
  -1   8  -3   55.13    2.97
   0   8  -3    1.02    0.81
   1   8  -3   31.81    2.66
   2   8  -3   22.51    2.22
   3   8  -3   43.30    4.49
   4   8  -3    9.33    2.55
   5   8  -3    1.07    1.94
   6   8  -3    5.47    2.88
   7   8  -3   10.71    3.27
 -14   9  -3    4.63    3.01
 -13   9  -3   10.35    3.29
 -12   9  -3    0.91    1.42
 -11   9  -3   11.59    2.16
 -10   9  -3   57.23    4.06
  -9   9  -3    2.72    1.03
  -8   9  -3   31.85    2.44
  -7   9  -3   12.13    1.49
  -6   9  -3   39.26    2.68
  -5   9  -3   69.43    3.15
  -4   9  -3   50.82    2.74
  -3   9  -3   31.63    2.52
  -2   9  -3   10.41    1.55
  -1   9  -3   44.06    3.13
   0   9  -3    2.06    1.03
   1   9  -3   51.64    3.44
   2   9  -3   18.28    3.07
   3   9  -3    0.10    1.60
   4   9  -3    3.79    2.28
   5   9  -3    9.06    3.03
   6   9  -3    0.62    2.74
 -14  10  -3   10.48    3.58
 -13  10  -3   26.77    3.21
 -12  10  -3   10.96    2.16
 -11  10  -3   15.32    2.40
 -10  10  -3   17.91    2.50
  -9  10  -3   61.08    3.18
  -8  10  -3   21.18    2.08
  -7  10  -3   13.58    1.65
  -6  10  -3   12.92    1.64
  -5  10  -3    3.92    1.34
  -4  10  -3    8.68    1.80
  -3  10  -3   11.05    1.63
  -2  10  -3   18.67    2.10
  -1  10  -3   59.41    3.62
   0  10  -3   15.69    2.01
   1  10  -3   13.12    2.61
   2  10  -3    4.52    2.17
   3  10  -3   25.64    3.85
   4  10  -3   20.45    3.92
   5  10  -3    5.65    4.59
 -14  11  -3    0.50    1.77
 -13  11  -3   12.77    2.49
 -12  11  -3   11.13    2.30
 -11  11  -3    8.72    1.99
 -10  11  -3   16.55    2.51
  -9  11  -3   20.96    2.17
  -8  11  -3   43.59    3.07
  -7  11  -3   11.71    1.64
  -6  11  -3   11.65    2.18
  -5  11  -3   21.95    2.77
  -4  11  -3   12.00    1.86
  -3  11  -3   49.00    3.57
  -2  11  -3   11.74    1.78
  -1  11  -3   14.36    2.12
   0  11  -3    9.84    1.87
   1  11  -3   26.86    3.89
   2  11  -3    9.16    2.68
   3  11  -3    2.22    2.28
 -14  12  -3   14.17    2.92
 -13  12  -3   12.21    2.64
 -12  12  -3   13.41    2.50
 -11  12  -3   25.83    3.27
 -10  12  -3    8.36    1.69
  -9  12  -3    0.45    1.07
  -8  12  -3    6.96    1.93
  -7  12  -3   11.80    2.30
  -6  12  -3    2.13    1.36
  -5  12  -3    8.38    2.00
  -4  12  -3   11.85    1.98
  -3  12  -3    0.72    1.08
  -2  12  -3    7.90    1.80
  -1  12  -3   11.77    2.03
   0  12  -3    9.60    2.75
   1  12  -3   10.30    2.68
   2  12  -3   18.29    5.43
 -13  13  -3   -0.05    2.06
 -12  13  -3   10.29    2.58
 -11  13  -3    6.13    2.09
 -10  13  -3   25.22    3.37
  -9  13  -3    4.51    1.78
  -8  13  -3    1.82    1.51
  -7  13  -3   21.79    3.03
  -6  13  -3   15.01    2.57
  -5  13  -3    2.05    1.27
  -4  13  -3    2.54    1.32
  -3  13  -3   29.17    2.97
  -2  13  -3    8.80    1.99
  -1  13  -3   14.19    3.04
   0  13  -3    0.98    2.17
 -11  14  -3   -2.45    2.46
 -10  14  -3   17.47    3.14
  -9  14  -3    7.95    2.33
  -8  14  -3    3.06    1.73
  -7  14  -3   24.75    3.45
  -6  14  -3    5.05    1.76
  -5  14  -3    4.40    1.65
  -4  14  -3    8.81    2.01
  -3  14  -3    0.71    1.73
 -10  15  -3    6.81    3.17
  -9  15  -3    2.22    1.88
  -8  15  -3    2.12    1.88
  -7  15  -3    4.58    2.16
  -6  15  -3    2.63    2.05
  -5  15  -3    9.88    3.43
   4 -15  -2    6.67    3.41
   5 -15  -2    6.47    3.60
   6 -15  -2    9.11    3.68
   7 -15  -2    4.26    3.19
   8 -15  -2    5.05    3.53
   9 -15  -2    8.87    3.93
  10 -15  -2    1.03    2.72
   2 -14  -2    8.06    3.57
   3 -14  -2    2.54    2.93
   4 -14  -2   24.79    5.23
   5 -14  -2   19.72    3.30
   6 -14  -2    5.47    2.99
   7 -14  -2    0.98    2.07
   8 -14  -2    6.49    3.11
   9 -14  -2   15.76    4.75
  10 -14  -2   24.37    4.05
  11 -14  -2    2.34    2.44
  12 -14  -2    9.14    3.12
   0 -13  -2   22.45    5.33
   1 -13  -2    3.23    2.68
   2 -13  -2   21.78    4.91
   3 -13  -2   16.65    4.35
   4 -13  -2    4.47    1.88
   5 -13  -2   37.80    4.16
   6 -13  -2    7.74    2.11
   7 -13  -2    1.41    2.31
   8 -13  -2   31.73    5.79
   9 -13  -2    5.27    2.19
  10 -13  -2   12.54    2.83
  11 -13  -2   25.17    3.88
  12 -13  -2    4.76    2.58
  13 -13  -2   17.44    3.49
  14 -13  -2    4.23    4.40
  -2 -12  -2    5.23    3.43
  -1 -12  -2    2.96    2.69
   0 -12  -2   15.39    4.32
   1 -12  -2   24.62    4.75
   2 -12  -2   35.96    5.64
   3 -12  -2    3.08    2.33
   4 -12  -2   30.15    3.57
   5 -12  -2    7.88    2.12
   6 -12  -2   23.97    3.17
   7 -12  -2    6.54    2.00
   8 -12  -2   30.84    4.13
   9 -12  -2    1.46    1.60
  10 -12  -2   23.05    3.60
  11 -12  -2   18.08    3.49
  12 -12  -2    9.56    2.93
  13 -12  -2    3.66    2.50
  14 -12  -2    6.13    2.93
  -3 -11  -2    2.33    2.96
  -2 -11  -2   18.82    4.82
  -1 -11  -2   20.67    4.71
   0 -11  -2   -0.38    1.89
   1 -11  -2   10.44    3.44
   2 -11  -2    5.71    2.43
   3 -11  -2    9.91    2.13
   4 -11  -2  118.74    6.74
   5 -11  -2   38.35    3.80
   6 -11  -2   41.79    3.24
   7 -11  -2  123.09    7.27
   8 -11  -2    8.68    2.08
   9 -11  -2    6.60    1.96
  10 -11  -2   20.78    3.30
  11 -11  -2   -0.13    1.53
  12 -11  -2   20.95    3.88
  13 -11  -2   10.78    3.24
  14 -11  -2   -0.74    2.22
  15 -11  -2    5.57    4.25
  -5 -10  -2    6.36    3.78
  -4 -10  -2   29.92    5.99
  -3 -10  -2   11.42    3.62
  -2 -10  -2   37.35    6.22
  -1 -10  -2   16.77    4.15
   0 -10  -2   32.05    5.05
   1 -10  -2   11.29    2.95
   2 -10  -2   30.78    3.41
   3 -10  -2   18.91    2.67
   4 -10  -2   80.88    4.87
   5 -10  -2    0.11    0.80
   6 -10  -2   80.78    4.21
   7 -10  -2   13.81    2.36
   8 -10  -2   36.08    4.11
   9 -10  -2    7.36    2.13
  10 -10  -2   27.88    3.95
  11 -10  -2   10.84    2.88
  12 -10  -2   25.23    4.07
  13 -10  -2    9.82    3.07
  14 -10  -2   24.81    4.01
  15 -10  -2    1.28    2.63
  -6  -9  -2   16.50    4.73
  -5  -9  -2   24.86    5.44
  -4  -9  -2    9.94    3.80
  -3  -9  -2    0.31    2.19
  -2  -9  -2    2.44    2.07
  -1  -9  -2   16.42    3.65
   0  -9  -2    3.09    2.10
   1  -9  -2   67.72    5.96
   2  -9  -2   20.77    2.68
   3  -9  -2   48.74    4.05
   4  -9  -2   34.37    2.66
   5  -9  -2   28.27    2.34
   6  -9  -2   45.62    3.91
   7  -9  -2   22.68    2.91
   8  -9  -2   64.69    5.24
   9  -9  -2    4.45    1.78
  10  -9  -2   11.76    2.69
  11  -9  -2    6.56    2.21
  12  -9  -2    0.66    1.79
  13  -9  -2    2.79    2.27
  14  -9  -2   25.32    4.33
  15  -9  -2   10.73    3.40
  -7  -8  -2    4.26    3.55
  -6  -8  -2    6.75    3.44
  -5  -8  -2   28.71    5.63
  -4  -8  -2   32.60    5.56
  -3  -8  -2    8.36    2.97
  -2  -8  -2   41.91    5.62
  -1  -8  -2   77.83    6.62
   0  -8  -2  176.43    7.21
   1  -8  -2   16.89    1.50
   2  -8  -2   37.82    2.18
   3  -8  -2   42.62    2.01
   4  -8  -2    7.28    1.20
   5  -8  -2   37.61    2.34
   6  -8  -2   31.92    3.33
   7  -8  -2   14.36    2.37
   8  -8  -2  167.69    8.76
   9  -8  -2   75.76    5.15
  10  -8  -2   33.96    4.16
  11  -8  -2    5.50    2.27
  12  -8  -2   29.47    4.29
  13  -8  -2   23.72    4.03
  14  -8  -2    6.52    2.86
  15  -8  -2   11.79    3.32
  -8  -7  -2    2.42    3.46
  -7  -7  -2   -0.03    2.92
  -6  -7  -2    3.79    1.64
  -5  -7  -2   10.60    2.02
  -4  -7  -2  125.68    6.24
  -3  -7  -2   16.53    2.10
  -2  -7  -2   20.86    2.23
  -1  -7  -2   14.58    1.75
   0  -7  -2   19.71    1.91
   1  -7  -2   30.72    1.86
   2  -7  -2   35.99    1.65
   3  -7  -2  145.23    4.34
   4  -7  -2  146.92    5.77
   5  -7  -2   34.37    2.35
   6  -7  -2   28.06    2.30
   7  -7  -2   19.46    2.03
   8  -7  -2   13.03    1.77
   9  -7  -2   19.50    2.27
  10  -7  -2   13.53    2.00
  11  -7  -2  122.13    7.67
  12  -7  -2    7.84    2.47
  13  -7  -2    5.95    2.33
  14  -7  -2    3.35    2.49
  15  -7  -2   14.41    3.54
  -9  -6  -2   14.71    2.74
  -8  -6  -2    5.34    1.94
  -7  -6  -2    3.34    1.64
  -6  -6  -2   21.52    2.65
  -5  -6  -2   48.27    4.07
  -4  -6  -2   88.96    4.83
  -3  -6  -2   43.33    2.99
  -2  -6  -2   36.54    2.58
  -1  -6  -2   30.68    2.28
   0  -6  -2   13.93    1.54
   1  -6  -2  134.54    3.85
   2  -6  -2   68.40    2.07
   3  -6  -2   29.97    1.29
   4  -6  -2   69.54    2.65
   5  -6  -2  124.75    5.03
   6  -6  -2   12.74    1.54
   7  -6  -2   28.88    2.44
   8  -6  -2   36.50    2.89
   9  -6  -2   41.93    3.18
  10  -6  -2   86.15    4.27
  11  -6  -2   35.73    3.13
  12  -6  -2   20.34    2.49
  13  -6  -2    9.18    2.78
  14  -6  -2    5.61    2.41
  15  -6  -2   10.05    3.13
 -10  -5  -2    4.13    2.27
  -9  -5  -2   23.79    3.23
  -8  -5  -2   28.81    3.57
  -7  -5  -2    4.05    1.61
  -6  -5  -2   42.31    3.63
  -5  -5  -2   -0.05    0.85
  -4  -5  -2   24.98    2.50
  -3  -5  -2   36.42    2.65
  -2  -5  -2   34.29    2.44
  -1  -5  -2  133.20    5.60
   0  -5  -2   93.13    3.17
   1  -5  -2   24.27    0.97
   2  -5  -2  122.60    2.90
   3  -5  -2  126.44    3.01
   4  -5  -2   22.26    1.78
   5  -5  -2   92.72    3.84
   6  -5  -2  134.16    5.19
   7  -5  -2   30.50    2.49
   8  -5  -2   30.78    2.67
   9  -5  -2   27.49    2.55
  10  -5  -2    0.39    0.93
  11  -5  -2   38.36    3.20
  12  -5  -2   10.27    1.91
  13  -5  -2   30.63    4.23
  14  -5  -2   17.79    3.46
  15  -5  -2    0.63    2.31
 -11  -4  -2    7.90    3.03
 -10  -4  -2   12.44    3.42
  -9  -4  -2    3.82    1.66
  -8  -4  -2   23.12    2.94
  -7  -4  -2  130.40    6.48
  -6  -4  -2   83.89    4.62
  -5  -4  -2   30.03    2.85
  -4  -4  -2    7.09    1.33
  -3  -4  -2  154.32    6.66
  -2  -4  -2   73.44    2.75
  -1  -4  -2   22.13    1.27
   0  -4  -2   46.43    1.46
   1  -4  -2   62.39    1.70
   2  -4  -2  171.47    3.85
   3  -4  -2   61.99    2.19
   4  -4  -2   45.49    2.24
   5  -4  -2   22.02    1.82
   6  -4  -2   73.73    3.28
   7  -4  -2  144.98    5.60
   8  -4  -2    5.22    1.18
   9  -4  -2   25.16    2.39
  10  -4  -2   89.48    5.19
  11  -4  -2  127.45    5.78
  12  -4  -2   25.02    3.66
  13  -4  -2   -0.79    1.89
  14  -4  -2   27.87    4.05
  15  -4  -2    5.95    5.32
 -11  -3  -2    4.16    2.48
 -10  -3  -2    8.19    2.30
  -9  -3  -2    2.11    1.56
  -8  -3  -2   10.77    2.10
  -7  -3  -2   17.49    2.43
  -6  -3  -2   47.20    3.36
  -5  -3  -2   40.12    2.15
  -4  -3  -2  143.27    4.72
  -3  -3  -2   29.91    1.57
  -2  -3  -2  126.09    4.10
  -1  -3  -2   61.91    2.32
   0  -3  -2   28.99    0.96
   1  -3  -2  155.04    3.45
   2  -3  -2  172.87    3.92
   3  -3  -2   29.28    1.33
   4  -3  -2   65.32    2.32
   5  -3  -2  122.38    4.66
   6  -3  -2   30.94    2.29
   7  -3  -2  154.72    6.07
   8  -3  -2   37.49    2.66
   9  -3  -2   40.43    3.01
  10  -3  -2   13.26    1.84
  11  -3  -2    6.70    1.50
  12  -3  -2    1.43    1.92
  13  -3  -2    6.94    2.76
  14  -3  -2    2.81    2.60
 -12  -2  -2    6.79    3.01
 -11  -2  -2   22.78    4.10
 -10  -2  -2   24.62    3.26
  -9  -2  -2    1.79    1.49
  -8  -2  -2   34.84    3.24
  -7  -2  -2   23.83    2.00
  -6  -2  -2   37.23    2.26
  -5  -2  -2   33.34    1.92
  -4  -2  -2   70.05    2.73
  -3  -2  -2  125.65    4.07
  -2  -2  -2  174.31    5.33
  -1  -2  -2  173.61    4.61
   0  -2  -2  318.52    7.17
   1  -2  -2   65.67    1.86
   2  -2  -2  320.78    8.03
   3  -2  -2  156.76    4.42
   4  -2  -2  170.60    4.98
   5  -2  -2  120.45    4.78
   6  -2  -2   71.17    3.38
   7  -2  -2   32.45    2.33
   8  -2  -2   30.90    2.56
   9  -2  -2   16.96    1.95
  10  -2  -2   35.72    2.91
  11  -2  -2    1.97    1.86
  12  -2  -2   24.92    3.74
  13  -2  -2   14.07    3.15
  14  -2  -2    4.27    2.69
 -12  -1  -2    3.79    2.54
 -11  -1  -2   15.78    3.63
 -10  -1  -2   11.87    2.85
  -9  -1  -2   14.84    2.38
  -8  -1  -2   65.32    3.18
  -7  -1  -2   14.18    1.54
  -6  -1  -2   26.16    1.96
  -5  -1  -2  133.17    4.58
  -4  -1  -2   27.00    1.75
  -3  -1  -2   63.05    2.47
  -2  -1  -2  153.82    6.02
  -1  -1  -2   67.01    2.06
   0  -1  -2  243.76    6.08
   1  -1  -2  239.32    6.15
   2  -1  -2   68.44    2.54
   3  -1  -2  176.53    6.04
   4  -1  -2   63.41    2.29
   5  -1  -2   22.84    1.77
   6  -1  -2  135.02    5.24
   7  -1  -2   29.26    2.37
   8  -1  -2   14.16    1.77
   9  -1  -2   74.82    3.90
  10  -1  -2    9.52    2.52
  11  -1  -2   14.18    3.04
  12  -1  -2   17.22    3.31
  13  -1  -2    5.09    2.51
 -13   0  -2    7.15    3.23
 -12   0  -2   10.92    3.39
 -11   0  -2    1.78    1.97
 -10   0  -2   22.49    2.59
  -9   0  -2    3.10    1.21
  -8   0  -2  170.09    7.05
  -7   0  -2   18.99    1.98
  -6   0  -2   12.96    1.35
  -5   0  -2   90.76    3.43
  -4   0  -2   45.84    2.34
  -3   0  -2   31.68    1.70
  -2   0  -2  313.63    8.93
  -1   0  -2  237.70    6.85
   0   0  -2  414.02   10.23
   1   0  -2  245.64    6.15
   2   0  -2  322.26    9.43
   3   0  -2   30.57    1.41
   4   0  -2   44.80    1.83
   5   0  -2   88.54    3.81
   6   0  -2   12.14    1.47
   7   0  -2   20.28    1.96
   8   0  -2  168.87    6.67
   9   0  -2    3.14    1.81
  10   0  -2   19.87    3.36
  11   0  -2    0.06    2.00
  12   0  -2   11.90    3.10
  13   0  -2   14.11    3.46
 -13   1  -2    3.60    2.97
 -12   1  -2   18.49    3.97
 -11   1  -2   12.43    2.17
 -10   1  -2   13.48    1.98
  -9   1  -2   77.03    4.07
  -8   1  -2   15.90    1.83
  -7   1  -2   32.67    2.57
  -6   1  -2  130.55    5.36
  -5   1  -2   19.56    1.64
  -4   1  -2   62.01    2.27
  -3   1  -2  181.09    5.25
  -2   1  -2   67.28    2.31
  -1   1  -2  239.54    6.06
   0   1  -2  239.81    6.08
   1   1  -2   67.29    2.43
   2   1  -2  144.99    4.84
   3   1  -2   66.54    2.23
   4   1  -2   26.01    1.42
   5   1  -2  127.76    5.05
   6   1  -2   26.92    2.23
   7   1  -2   13.01    1.67
   8   1  -2   52.28    5.07
   9   1  -2    7.79    2.33
  10   1  -2   12.30    2.92
  11   1  -2   15.36    3.42
  12   1  -2    3.17    2.72
 -14   2  -2    3.60    2.75
 -13   2  -2   18.10    4.09
 -12   2  -2   31.54    3.16
 -11   2  -2    3.14    1.34
 -10   2  -2   37.36    3.25
  -9   2  -2   17.39    1.99
  -8   2  -2   32.03    2.61
  -7   2  -2   33.19    1.76
  -6   2  -2   80.02    2.80
  -5   2  -2  129.49    4.04
  -4   2  -2  168.60    5.17
  -3   2  -2  153.65    4.72
  -2   2  -2  315.63    7.90
  -1   2  -2   67.92    2.03
   0   2  -2  316.55    7.91
   1   2  -2  181.76    7.04
   2   2  -2  171.64    4.78
   3   2  -2  119.24    3.61
   4   2  -2   64.76    3.03
   5   2  -2   36.41    2.35
   6   2  -2   36.90    2.48
   7   2  -2   23.45    2.24
   8   2  -2   27.09    3.70
   9   2  -2    3.50    2.05
  10   2  -2   23.29    3.88
  11   2  -2   15.68    3.58
  12   2  -2    5.92    3.15
 -14   3  -2    2.33    1.89
 -13   3  -2   11.80    2.32
 -12   3  -2    1.67    1.37
 -11   3  -2    6.86    1.61
 -10   3  -2   14.40    2.08
  -9   3  -2   33.08    2.80
  -8   3  -2   36.78    1.97
  -7   3  -2  164.30    5.17
  -6   3  -2   30.22    1.63
  -5   3  -2  113.55    3.88
  -4   3  -2   63.60    2.01
  -3   3  -2   29.08    1.15
  -2   3  -2  181.13    4.62
  -1   3  -2  151.71    4.63
   0   3  -2   29.26    1.38
   1   3  -2   61.49    2.33
   2   3  -2  127.84    3.69
   3   3  -2   30.01    1.94
   4   3  -2  128.03    5.23
   5   3  -2   41.71    2.62
   6   3  -2   47.93    2.91
   7   3  -2   15.25    2.76
   8   3  -2   12.32    2.77
   9   3  -2   -1.31    1.71
  10   3  -2    6.01    2.70
  11   3  -2    0.50    2.43
 -15   4  -2    5.27    2.13
 -14   4  -2   26.98    3.31
 -13   4  -2    4.16    1.66
 -12   4  -2   31.13    3.22
 -11   4  -2  128.31    6.03
 -10   4  -2  101.70    4.83
  -9   4  -2   25.21    1.87
  -8   4  -2    6.06    0.96
  -7   4  -2  133.41    4.64
  -6   4  -2   64.87    2.59
  -5   4  -2   25.88    1.24
  -4   4  -2   45.55    1.61
  -3   4  -2   62.10    1.98
  -2   4  -2  173.59    4.53
  -1   4  -2   62.92    2.40
   0   4  -2   45.30    1.67
   1   4  -2   20.01    1.54
   2   4  -2   79.30    3.23
   3   4  -2  155.87    5.78
   4   4  -2    5.35    1.03
   5   4  -2   32.33    2.35
   6   4  -2   74.90    5.32
   7   4  -2  119.69    7.31
   8   4  -2   27.42    3.91
   9   4  -2    3.43    2.33
  10   4  -2   19.18    3.83
  11   4  -2    4.95    3.00
 -15   5  -2    3.19    1.99
 -14   5  -2   28.47    3.39
 -13   5  -2   26.86    3.16
 -12   5  -2    8.32    1.84
 -11   5  -2   54.69    4.03
 -10   5  -2    1.25    0.79
  -9   5  -2   32.59    2.25
  -8   5  -2   45.36    2.17
  -7   5  -2   37.38    1.96
  -6   5  -2  131.76    4.36
  -5   5  -2   93.30    2.83
  -4   5  -2   18.48    1.00
  -3   5  -2  129.71    4.23
  -2   5  -2  118.15    4.05
  -1   5  -2   24.51    1.41
   0   5  -2   92.26    3.65
   1   5  -2  125.37    4.87
   2   5  -2   35.96    2.23
   3   5  -2   36.74    2.38
   4   5  -2   30.53    2.34
   5   5  -2    1.40    1.34
   6   5  -2   33.23    3.94
   7   5  -2    9.83    2.58
   8   5  -2   30.59    4.33
   9   5  -2   20.64    3.88
  10   5  -2    2.44    2.71
 -15   6  -2   11.41    2.51
 -14   6  -2   11.98    2.34
 -13   6  -2    3.33    1.69
 -12   6  -2   20.43    2.59
 -11   6  -2   37.07    2.58
 -10   6  -2   63.28    3.98
  -9   6  -2   48.68    2.42
  -8   6  -2   37.67    2.14
  -7   6  -2   29.69    1.81
  -6   6  -2   15.36    1.08
  -5   6  -2  136.61    3.80
  -4   6  -2   77.75    2.95
  -3   6  -2   28.91    1.63
  -2   6  -2   66.83    2.66
  -1   6  -2  131.94    4.87
   0   6  -2   13.61    1.41
   1   6  -2   27.75    2.13
   2   6  -2   35.19    2.32
   3   6  -2   37.77    2.53
   4   6  -2  100.10    5.88
   5   6  -2   47.41    4.65
   6   6  -2   18.41    3.31
   7   6  -2    3.64    2.30
   8   6  -2    9.23    2.80
   9   6  -2   12.86    3.47
 -15   7  -2    6.82    2.28
 -14   7  -2    1.47    1.68
 -13   7  -2    5.55    1.73
 -12   7  -2    9.35    1.52
 -11   7  -2  122.83    4.83
 -10   7  -2   17.98    1.77
  -9   7  -2   29.65    2.12
  -8   7  -2   15.89    1.48
  -7   7  -2   18.73    1.29
  -6   7  -2   31.01    2.06
  -5   7  -2   32.86    1.98
  -4   7  -2  163.22    5.37
  -3   7  -2  135.21    6.28
  -2   7  -2   36.72    1.87
  -1   7  -2   29.47    2.18
   0   7  -2   18.30    1.76
   1   7  -2   14.58    1.63
   2   7  -2   19.21    1.89
   3   7  -2   14.22    2.36
   4   7  -2  118.87    7.14
   5   7  -2    7.63    2.31
   6   7  -2    6.15    2.44
   7   7  -2    5.37    2.65
   8   7  -2    8.53    2.87
 -15   8  -2    1.34    2.80
 -14   8  -2    3.00    2.21
 -13   8  -2   42.23    5.62
 -12   8  -2   24.58    2.75
 -11   8  -2    8.89    1.91
 -10   8  -2   26.72    2.80
  -9   8  -2   66.79    3.22
  -8   8  -2  174.85    6.09
  -7   8  -2   15.15    1.53
  -6   8  -2   34.08    2.16
  -5   8  -2   31.71    2.06
  -4   8  -2    5.50    0.93
  -3   8  -2   39.68    2.23
  -2   8  -2   40.80    3.35
  -1   8  -2   12.12    1.48
   0   8  -2  165.51    6.44
   1   8  -2   77.65    3.72
   2   8  -2   41.34    2.85
   3   8  -2    8.22    2.19
   4   8  -2   31.16    4.03
   5   8  -2   35.75    4.34
   6   8  -2    9.49    2.90
   7   8  -2    5.24    2.85
 -15   9  -2    7.12    3.33
 -14   9  -2   16.94    3.79
 -13   9  -2    4.99    1.85
 -12   9  -2    0.87    1.41
 -11   9  -2    3.68    1.49
 -10   9  -2    8.76    1.42
  -9   9  -2    2.86    1.07
  -8   9  -2   81.63    3.55
  -7   9  -2   14.98    1.63
  -6   9  -2   35.92    2.46
  -5   9  -2   25.92    2.01
  -4   9  -2   31.75    2.07
  -3   9  -2   45.84    3.23
  -2   9  -2   20.87    2.01
  -1   9  -2   61.60    3.32
   0   9  -2    4.59    1.23
   1   9  -2   14.02    1.85
   2   9  -2    3.43    1.82
   3   9  -2    0.97    1.57
   4   9  -2    6.98    2.47
   5   9  -2   29.93    4.37
   6   9  -2   20.10    3.99
 -15  10  -2    5.82    3.40
 -14  10  -2   27.48    3.29
 -13  10  -2   15.66    2.63
 -12  10  -2   29.66    3.32
 -11  10  -2   18.90    2.16
 -10  10  -2   22.25    2.23
  -9  10  -2   14.43    1.73
  -8  10  -2   40.01    2.83
  -7  10  -2   13.67    1.59
  -6  10  -2   99.73    3.99
  -5  10  -2    0.46    0.92
  -4  10  -2   76.19    4.62
  -3  10  -2   18.12    2.33
  -2  10  -2   30.58    2.59
  -1  10  -2   10.72    1.60
   0  10  -2   21.00    2.24
   1  10  -2   11.16    2.46
   2  10  -2   25.70    3.59
   3  10  -2   12.35    2.95
   4  10  -2   41.86    5.09
   5  10  -2    5.45    2.86
 -14  11  -2   -0.37    1.83
 -13  11  -2   16.81    2.72
 -12  11  -2   17.71    2.69
 -11  11  -2    2.69    1.26
 -10  11  -2   11.91    1.80
  -9  11  -2    0.16    0.94
  -8  11  -2    8.01    1.39
  -7  11  -2  123.56    5.03
  -6  11  -2   46.86    4.03
  -5  11  -2   30.21    3.28
  -4  11  -2  119.64    6.46
  -3  11  -2    6.39    1.35
  -2  11  -2    5.88    1.42
  -1  11  -2   16.47    2.15
   0  11  -2    2.74    1.79
   1  11  -2   21.66    3.47
   2  11  -2   22.03    3.45
   3  11  -2    4.43    2.45
   4  11  -2    6.46    2.91
 -14  12  -2    2.48    1.97
 -13  12  -2    4.22    2.03
 -12  12  -2   12.77    2.56
 -11  12  -2   24.14    2.51
 -10  12  -2   31.62    2.75
  -9  12  -2    2.12    1.14
  -8  12  -2   30.56    3.34
  -7  12  -2    6.20    1.72
  -6  12  -2   25.25    3.15
  -5  12  -2    6.44    1.79
  -4  12  -2   21.29    2.37
  -3  12  -2    1.49    1.16
  -2  12  -2   26.42    2.69
  -1  12  -2   18.28    3.14
   0  12  -2   10.58    2.73
   1  12  -2    6.02    2.34
   2  12  -2    4.50    2.66
 -14  13  -2    4.84    2.17
 -13  13  -2   16.27    3.00
 -12  13  -2    5.29    1.73
 -11  13  -2   17.57    2.31
 -10  13  -2   11.86    1.85
  -9  13  -2    5.93    1.82
  -8  13  -2   23.27    3.14
  -7  13  -2    5.19    1.73
  -6  13  -2    4.32    1.73
  -5  13  -2   38.63    3.92
  -4  13  -2    4.97    1.43
  -3  13  -2   11.83    2.01
  -2  13  -2   19.77    3.27
  -1  13  -2    5.59    2.34
   0  13  -2   16.96    3.64
   1  13  -2    1.66    4.03
 -13  14  -2    2.05    2.83
 -12  14  -2    8.96    2.03
 -11  14  -2    3.00    1.97
 -10  14  -2   31.42    3.85
  -9  14  -2   22.66    3.21
  -8  14  -2    6.52    2.12
  -7  14  -2    2.60    1.61
  -6  14  -2    4.88    1.85
  -5  14  -2   17.66    2.38
  -4  14  -2   18.89    2.45
  -3  14  -2    1.97    1.96
  -2  14  -2    3.68    2.33
  -1  14  -2    0.49    3.59
 -12  15  -2    4.29    2.90
 -11  15  -2    2.24    2.51
 -10  15  -2    2.04    1.80
  -9  15  -2    7.55    2.31
  -8  15  -2    5.69    2.09
  -7  15  -2    5.10    2.14
  -6  15  -2    8.34    1.98
  -5  15  -2    2.34    1.56
  -4  15  -2    7.14    4.07
   3 -15  -1    3.36    2.98
   4 -15  -1    2.71    2.84
   5 -15  -1    7.33    3.57
   6 -15  -1   11.11    2.96
   7 -15  -1    3.64    3.19
   8 -15  -1    4.02    3.19
   9 -15  -1    6.68    3.67
  10 -15  -1    9.71    3.97
  11 -15  -1    2.35    3.49
   1 -14  -1    2.81    2.85
   2 -14  -1   19.44    4.89
   3 -14  -1    0.60    2.60
   4 -14  -1   18.60    4.72
   5 -14  -1   10.25    2.47
   6 -14  -1    6.79    2.24
   7 -14  -1   31.57    6.36
   8 -14  -1    5.26    2.93
   9 -14  -1    9.27    3.71
  10 -14  -1    7.74    3.98
  11 -14  -1    0.92    3.14
  12 -14  -1   25.28    4.16
  13 -14  -1    2.06    2.53
  -1 -13  -1    1.34    3.01
   0 -13  -1   -0.58    2.39
   1 -13  -1   22.03    4.86
   2 -13  -1   13.08    3.91
   3 -13  -1   34.19    5.79
   4 -13  -1    4.17    1.88
   5 -13  -1    1.20    1.55
   6 -13  -1    6.67    2.15
   7 -13  -1    9.31    2.29
   8 -13  -1    0.38    2.07
   9 -13  -1    3.69    2.78
  10 -13  -1   29.03    4.14
  11 -13  -1   12.95    3.11
  12 -13  -1   27.74    4.28
  13 -13  -1    0.60    2.50
  14 -13  -1    4.47    2.90
  -2 -12  -1   27.35    5.72
  -1 -12  -1   14.51    4.04
   0 -12  -1   16.38    4.14
   1 -12  -1   12.01    3.73
   2 -12  -1    2.48    2.21
   3 -12  -1    1.37    1.36
   4 -12  -1   13.71    2.37
   5 -12  -1    6.93    1.97
   6 -12  -1    3.63    1.47
   7 -12  -1   12.84    2.21
   8 -12  -1    8.86    2.39
   9 -12  -1    1.83    1.59
  10 -12  -1    4.13    2.14
  11 -12  -1    7.88    2.45
  12 -12  -1   21.06    3.88
  13 -12  -1   17.32    3.66
  14 -12  -1   16.81    3.88
  15 -12  -1    2.92    3.61
  -4 -11  -1    4.17    3.49
  -3 -11  -1    1.26    2.75
  -2 -11  -1   14.94    4.30
  -1 -11  -1   13.08    3.64
   0 -11  -1    5.72    2.90
   1 -11  -1   33.61    5.31
   2 -11  -1    4.29    2.15
   3 -11  -1   68.73    4.85
   4 -11  -1   13.65    2.31
   5 -11  -1   40.42    3.68
   6 -11  -1   26.92    3.01
   7 -11  -1   16.64    2.06
   8 -11  -1   74.37    5.04
   9 -11  -1    2.68    1.47
  10 -11  -1   29.06    3.90
  11 -11  -1    7.66    2.48
  12 -11  -1   14.48    3.36
  13 -11  -1   12.62    3.01
  14 -11  -1    3.89    2.50
  15 -11  -1    3.77    2.79
  -5 -10  -1    8.79    3.93
  -4 -10  -1   26.88    5.60
  -3 -10  -1   27.26    5.30
  -2 -10  -1    4.52    2.40
  -1 -10  -1   23.31    4.56
   0 -10  -1   32.95    4.97
   1 -10  -1   80.49    6.81
   2 -10  -1    9.15    1.96
   3 -10  -1   13.54    2.21
   4 -10  -1    6.33    1.57
   5 -10  -1    5.45    1.42
   6 -10  -1    7.54    1.34
   7 -10  -1   12.84    1.61
   8 -10  -1    7.52    1.89
   9 -10  -1   78.41    5.38
  10 -10  -1   28.34    3.80
  11 -10  -1   29.05    3.96
  12 -10  -1    5.82    2.34
  13 -10  -1   16.24    3.48
  14 -10  -1   16.54    3.47
  15 -10  -1    5.96    2.87
  -6  -9  -1   10.85    4.32
  -5  -9  -1   10.28    4.15
  -4  -9  -1    9.77    3.52
  -3  -9  -1    1.48    2.18
  -2  -9  -1    7.88    2.80
  -1  -9  -1   69.07    6.59
   0  -9  -1    3.11    1.93
   1  -9  -1   48.12    5.59
   2  -9  -1   22.23    2.61
   3  -9  -1   28.52    2.82
   4  -9  -1   44.16    3.09
   5  -9  -1   42.23    2.81
   6  -9  -1   26.51    2.08
   7  -9  -1   16.75    2.53
   8  -9  -1   52.54    4.65
   9  -9  -1    2.04    1.49
  10  -9  -1   79.38    5.55
  11  -9  -1    3.65    1.99
  12  -9  -1   -0.15    1.68
  13  -9  -1    4.46    2.38
  14  -9  -1    7.66    2.84
  15  -9  -1    5.13    2.61
  -7  -8  -1    4.65    3.42
  -6  -8  -1    8.92    3.45
  -5  -8  -1   -0.17    2.08
  -4  -8  -1   10.07    3.31
  -3  -8  -1   70.87    6.40
  -2  -8  -1    8.05    2.46
  -1  -8  -1   48.38    4.91
   0  -8  -1    8.33    2.30
   1  -8  -1   50.85    3.57
   2  -8  -1   48.83    3.27
   3  -8  -1   81.12    4.44
   4  -8  -1   51.73    2.69
   5  -8  -1   72.69    3.24
   6  -8  -1   47.41    3.38
   7  -8  -1   50.55    4.03
   8  -8  -1   11.69    2.11
   9  -8  -1   54.32    4.96
  10  -8  -1    8.38    2.19
  11  -8  -1   77.21    7.63
  12  -8  -1    8.43    2.50
  13  -8  -1    1.37    1.97
  14  -8  -1    1.82    2.20
  15  -8  -1    1.05    3.69
  -8  -7  -1    4.55    3.44
  -7  -7  -1   51.89    7.38
  -6  -7  -1    8.95    2.00
  -5  -7  -1    9.95    1.83
  -4  -7  -1   15.59    2.17
  -3  -7  -1    9.76    1.58
  -2  -7  -1   23.07    2.21
  -1  -7  -1   52.35    2.88
   0  -7  -1    1.10    0.61
   1  -7  -1  174.87    7.89
   2  -7  -1  105.13    5.05
   3  -7  -1   92.95    3.96
   4  -7  -1   89.13    3.59
   5  -7  -1   92.13    3.81
   6  -7  -1  176.23    8.66
   7  -7  -1    1.82    1.08
   8  -7  -1   51.57    4.66
   9  -7  -1   20.80    2.94
  10  -7  -1   10.67    2.38
  11  -7  -1   15.91    2.89
  12  -7  -1    7.56    2.42
  13  -7  -1    9.15    2.75
  14  -7  -1   46.47    5.23
  15  -7  -1    4.31    4.11
  -9  -6  -1    6.71    2.26
  -8  -6  -1    5.96    1.93
  -7  -6  -1    4.98    1.63
  -6  -6  -1    2.53    1.26
  -5  -6  -1   32.57    2.99
  -4  -6  -1    9.32    1.61
  -3  -6  -1   29.44    2.58
  -2  -6  -1   52.05    2.77
  -1  -6  -1  185.21    7.41
   0  -6  -1   17.15    1.53
   1  -6  -1   18.42    1.23
   2  -6  -1   72.01    3.13
   3  -6  -1   64.26    2.79
   4  -6  -1   69.86    2.95
   5  -6  -1   16.35    1.99
   6  -6  -1   14.37    2.00
   7  -6  -1  193.56    8.60
   8  -6  -1   54.77    4.26
   9  -6  -1   27.39    3.44
  10  -6  -1    6.98    2.15
  11  -6  -1   29.35    3.74
  12  -6  -1    2.74    1.79
  13  -6  -1    4.68    2.08
  14  -6  -1    9.41    2.88
  15  -6  -1   11.70    5.23
 -10  -5  -1   13.12    3.54
  -9  -5  -1   16.06    2.78
  -8  -5  -1    0.02    1.29
  -7  -5  -1    6.32    1.71
  -6  -5  -1   37.84    3.48
  -5  -5  -1    4.53    1.25
  -4  -5  -1   44.45    2.92
  -3  -5  -1   73.42    3.60
  -2  -5  -1   95.32    4.28
  -1  -5  -1   20.63    1.72
   0  -5  -1  201.84    6.70
   1  -5  -1  151.37    4.83
   2  -5  -1   85.05    2.71
   3  -5  -1   74.69    2.97
   4  -5  -1  157.80    5.82
   5  -5  -1  207.83    7.17
   6  -5  -1   15.36    1.56
   7  -5  -1   97.82    4.22
   8  -5  -1   66.08    3.62
   9  -5  -1   43.16    2.85
  10  -5  -1    3.34    1.65
  11  -5  -1   29.73    3.75
  12  -5  -1    8.73    2.40
  13  -5  -1    0.73    1.86
  14  -5  -1   13.42    5.28
  15  -5  -1   10.89    5.38
 -11  -4  -1    6.91    2.93
 -10  -4  -1   10.58    3.34
  -9  -4  -1    7.12    2.03
  -8  -4  -1   12.85    2.25
  -7  -4  -1   16.68    2.41
  -6  -4  -1    7.98    1.57
  -5  -4  -1   42.60    2.97
  -4  -4  -1   48.79    2.93
  -3  -4  -1   93.66    4.08
  -2  -4  -1   69.48    3.31
  -1  -4  -1  167.12    6.52
   0  -4  -1  114.78    3.89
   1  -4  -1  104.72    2.69
   2  -4  -1   11.91    0.67
   3  -4  -1   98.45    3.39
   4  -4  -1  110.37    4.19
   5  -4  -1  155.79    5.33
   6  -4  -1   71.31    3.29
   7  -4  -1   87.56    4.09
   8  -4  -1   50.81    2.93
   9  -4  -1   42.89    2.91
  10  -4  -1    9.62    1.57
  11  -4  -1   14.48    2.87
  12  -4  -1   11.35    2.62
  13  -4  -1    4.50    2.20
  14  -4  -1    4.64    4.20
  15  -4  -1   -1.59    3.75
 -12  -3  -1    5.01    3.00
 -11  -3  -1    0.04    2.05
 -10  -3  -1   25.97    4.29
  -9  -3  -1    0.30    1.25
  -8  -3  -1   72.39    4.49
  -7  -3  -1   12.33    1.88
  -6  -3  -1   27.00    2.60
  -5  -3  -1   81.91    4.13
  -4  -3  -1   98.18    4.51
  -3  -3  -1   66.07    3.18
  -2  -3  -1   77.35    3.39
  -1  -3  -1   90.25    3.72
   0  -3  -1  412.88   12.09
   1  -3  -1  130.34    2.84
   2  -3  -1  129.11    2.87
   3  -3  -1  400.51   12.53
   4  -3  -1   92.11    5.00
   5  -3  -1   80.35    3.49
   6  -3  -1   60.65    2.97
   7  -3  -1   94.29    3.85
   8  -3  -1   82.66    4.87
   9  -3  -1   27.32    2.38
  10  -3  -1    9.53    1.53
  11  -3  -1   66.08    5.33
  12  -3  -1   -0.15    1.65
  13  -3  -1   21.89    3.66
  14  -3  -1    1.20    4.06
 -12  -2  -1   19.52    4.05
 -11  -2  -1    8.85    2.72
 -10  -2  -1    5.29    2.14
  -9  -2  -1    9.07    1.97
  -8  -2  -1   11.49    2.08
  -7  -2  -1   17.61    1.59
  -6  -2  -1   48.30    2.27
  -5  -2  -1   96.99    3.54
  -4  -2  -1   74.53    2.75
  -3  -2  -1   87.63    2.97
  -2  -2  -1   12.83    0.88
  -1  -2  -1  128.95    3.87
   0  -2  -1  119.73    2.63
   1  -2  -1   29.62    0.83
   2  -2  -1  121.59    3.37
   3  -2  -1  127.46    4.45
   4  -2  -1   11.12    1.13
   5  -2  -1   77.31    3.21
   6  -2  -1   70.76    3.19
   7  -2  -1   99.25    4.08
   8  -2  -1   44.10    2.76
   9  -2  -1   21.67    2.03
  10  -2  -1    7.40    2.16
  11  -2  -1    3.88    1.88
  12  -2  -1    3.57    1.98
  13  -2  -1    6.75    3.91
  14  -2  -1    8.02    4.72
 -13  -1  -1    2.64    2.81
 -12  -1  -1   18.26    3.90
 -11  -1  -1    6.00    2.43
 -10  -1  -1   18.53    3.73
  -9  -1  -1   71.73    4.46
  -8  -1  -1   49.53    2.66
  -7  -1  -1   54.63    2.59
  -6  -1  -1  173.34    5.69
  -5  -1  -1   21.51    1.49
  -4  -1  -1  145.76    4.62
  -3  -1  -1  105.48    3.43
  -2  -1  -1  130.90    3.93
  -1  -1  -1   30.04    1.16
   0  -1  -1   16.07    0.52
   1  -1  -1   14.97    0.59
   2  -1  -1   28.43    1.13
   3  -1  -1  131.00    4.53
   4  -1  -1   91.26    3.53
   5  -1  -1  173.74    6.03
   6  -1  -1   15.56    1.51
   7  -1  -1  197.21    6.87
   8  -1  -1   52.11    2.98
   9  -1  -1   40.25    4.25
  10  -1  -1   73.25    5.47
  11  -1  -1   24.14    3.58
  12  -1  -1    5.78    2.40
  13  -1  -1   16.83    5.35
  14  -1  -1    0.92    4.21
 -13   0  -1    2.57    2.22
 -12   0  -1   18.23    3.99
 -11   0  -1   10.80    3.11
 -10   0  -1   37.03    3.08
  -9   0  -1    1.10    0.86
  -8   0  -1    9.66    1.33
  -7   0  -1    1.65    0.70
  -6   0  -1   16.64    1.42
  -5   0  -1  209.26    6.48
  -4   0  -1  113.28    3.77
  -3   0  -1  404.90   11.48
  -2   0  -1  118.28    3.71
  -1   0  -1   14.73    0.69
   0   0  -1    0.17    0.19
   1   0  -1   15.02    0.77
   2   0  -1  124.74    3.40
   3   0  -1  417.40   12.63
   4   0  -1  110.78    4.22
   5   0  -1  209.13    7.20
   6   0  -1   16.19    1.54
   7   0  -1    1.99    0.81
   8   0  -1    9.82    2.13
   9   0  -1    1.59    1.71
  10   0  -1   26.66    3.74
  11   0  -1    7.47    2.52
  12   0  -1   10.70    4.25
  13   0  -1    2.88    3.77
 -14   1  -1    4.88    3.00
 -13   1  -1   12.21    3.71
 -12   1  -1   14.47    3.68
 -11   1  -1   36.79    3.26
 -10   1  -1   74.22    4.10
  -9   1  -1   45.09    3.12
  -8   1  -1   47.45    2.89
  -7   1  -1  198.10    7.27
  -6   1  -1   11.12    1.30
  -5   1  -1  179.56    5.12
  -4   1  -1   85.98    2.87
  -3   1  -1  127.00    3.83
  -2   1  -1   28.98    1.11
  -1   1  -1   14.84    0.60
   0   1  -1   14.69    0.61
   1   1  -1   29.25    1.04
   2   1  -1  128.57    3.56
   3   1  -1  109.32    3.85
   4   1  -1  144.44    5.17
   5   1  -1   20.19    1.62
   6   1  -1  176.09    6.31
   7   1  -1   55.88    3.05
   8   1  -1   50.12    4.30
   9   1  -1   66.26    5.52
  10   1  -1   18.35    3.35
  11   1  -1    6.13    2.63
  12   1  -1    5.33    4.34
  13   1  -1    2.03    4.32
 -14   2  -1   19.62    3.87
 -13   2  -1    5.92    2.68
 -12   2  -1    4.87    1.71
 -11   2  -1    6.87    1.67
 -10   2  -1    7.55    1.51
  -9   2  -1   26.27    2.45
  -8   2  -1   41.21    2.03
  -7   2  -1   94.64    3.33
  -6   2  -1   68.59    2.57
  -5   2  -1   67.15    3.13
  -4   2  -1   12.55    0.88
  -3   2  -1  127.81    3.84
  -2   2  -1  121.74    3.14
  -1   2  -1   29.00    0.96
   0   2  -1  121.21    3.27
   1   2  -1  130.16    4.31
   2   2  -1   11.90    0.99
   3   2  -1   91.15    3.36
   4   2  -1   74.40    3.10
   5   2  -1  103.53    4.01
   6   2  -1   51.56    3.73
   7   2  -1   16.43    2.53
   8   2  -1   10.57    2.32
   9   2  -1    4.84    2.10
  10   2  -1    2.62    2.10
  11   2  -1   12.86    3.27
  12   2  -1   15.54    5.79
 -14   3  -1   -0.23    1.73
 -13   3  -1   23.63    3.00
 -12   3  -1    0.49    1.22
 -11   3  -1   63.96    3.94
 -10   3  -1   10.72    1.75
  -9   3  -1   28.20    1.89
  -8   3  -1   63.57    2.72
  -7   3  -1   79.66    3.07
  -6   3  -1   66.65    2.46
  -5   3  -1   92.12    2.99
  -4   3  -1  113.76    3.39
  -3   3  -1  411.21   11.21
  -2   3  -1  131.55    4.02
  -1   3  -1  130.66    3.97
   0   3  -1  412.08   12.42
   1   3  -1   90.82    3.28
   2   3  -1   73.25    2.94
   3   3  -1   64.20    2.73
   4   3  -1  104.97    3.93
   5   3  -1   84.43    3.53
   6   3  -1   22.89    3.00
   7   3  -1   12.26    2.35
   8   3  -1   72.99    5.57
   9   3  -1    1.77    1.93
  10   3  -1   27.90    4.05
  11   3  -1    2.42    3.73
 -15   4  -1    3.10    1.75
 -14   4  -1   24.27    3.17
 -13   4  -1    3.92    1.63
 -12   4  -1   12.10    2.02
 -11   4  -1   23.64    2.69
 -10   4  -1    9.75    1.29
  -9   4  -1   51.45    2.37
  -8   4  -1   51.63    2.30
  -7   4  -1  103.86    3.54
  -6   4  -1   77.37    2.76
  -5   4  -1  140.40    5.57
  -4   4  -1  112.53    3.59
  -3   4  -1   87.37    3.70
  -2   4  -1   10.27    0.85
  -1   4  -1  109.59    3.44
   0   4  -1  109.22    4.04
   1   4  -1  167.40    5.74
   2   4  -1   68.36    2.89
   3   4  -1   83.34    3.44
   4   4  -1   52.62    2.53
   5   4  -1   36.05    3.57
   6   4  -1    3.95    1.61
   7   4  -1   16.76    2.89
   8   4  -1    9.50    2.54
   9   4  -1    5.92    2.44
  10   4  -1   17.35    3.66
  11   4  -1    3.21    4.66
 -15   5  -1    5.49    2.14
 -14   5  -1   12.34    2.45
 -13   5  -1   -0.21    1.25
 -12   5  -1   11.93    2.04
 -11   5  -1   21.87    1.88
 -10   5  -1    5.04    1.01
  -9   5  -1   38.60    2.17
  -8   5  -1   90.10    3.23
  -7   5  -1  103.09    3.56
  -6   5  -1   20.91    1.41
  -5   5  -1  213.76    6.24
  -4   5  -1  177.06    5.41
  -3   5  -1   71.39    2.73
  -2   5  -1   88.53    3.04
  -1   5  -1  150.26    9.08
   0   5  -1  205.23    6.98
   1   5  -1   15.97    1.39
   2   5  -1   95.22    3.75
   3   5  -1   66.99    3.04
   4   5  -1   50.70    4.26
   5   5  -1    2.44    1.47
   6   5  -1   39.99    4.24
   7   5  -1    7.10    2.28
   8   5  -1    2.04    1.79
   9   5  -1   12.90    3.18
  10   5  -1    3.85    4.44
 -15   6  -1    5.81    2.11
 -14   6  -1    1.95    1.53
 -13   6  -1   10.44    2.11
 -12   6  -1    1.68    1.19
 -11   6  -1   47.15    2.95
 -10   6  -1    7.40    1.17
  -9   6  -1   21.32    1.72
  -8   6  -1   51.10    2.31
  -7   6  -1  170.31    5.54
  -6   6  -1   17.27    1.24
  -5   6  -1   14.13    1.48
  -4   6  -1   69.33    2.73
  -3   6  -1   64.58    2.52
  -2   6  -1   76.89    2.77
  -1   6  -1   20.04    1.93
   0   6  -1   15.23    1.42
   1   6  -1  183.21    6.55
   2   6  -1   45.29    2.47
   3   6  -1   30.03    2.05
   4   6  -1    7.50    1.84
   5   6  -1   30.93    3.57
   6   6  -1    2.32    1.71
   7   6  -1    7.95    2.62
   8   6  -1    7.45    2.54
   9   6  -1    5.24    2.69
 -15   7  -1    2.68    1.87
 -14   7  -1   39.85    3.95
 -13   7  -1   10.67    2.01
 -12   7  -1    4.73    1.20
 -11   7  -1   15.58    1.72
 -10   7  -1   13.95    1.58
  -9   7  -1   15.73    1.51
  -8   7  -1   57.66    2.51
  -7   7  -1    1.66    0.62
  -6   7  -1  192.41    7.39
  -5   7  -1   90.33    3.51
  -4   7  -1   81.85    3.88
  -3   7  -1  103.78    3.60
  -2   7  -1   92.21    4.65
  -1   7  -1  175.51    6.24
   0   7  -1    2.26    0.75
   1   7  -1   47.75    2.59
   2   7  -1   22.76    1.97
   3   7  -1    8.07    1.82
   4   7  -1   18.18    2.83
   5   7  -1   11.62    2.52
   6   7  -1    9.86    2.62
   7   7  -1   40.24    4.99
   8   7  -1    2.20    2.52
 -15   8  -1    1.28    1.83
 -14   8  -1   11.92    2.41
 -13   8  -1    1.28    1.09
 -12   8  -1   16.20    1.90
 -11   8  -1   83.72    3.56
 -10   8  -1   12.01    1.48
  -9   8  -1   56.08    3.53
  -8   8  -1   10.25    1.63
  -7   8  -1   51.53    3.01
  -6   8  -1   43.71    2.27
  -5   8  -1   61.38    2.86
  -4   8  -1   54.79    2.40
  -3   8  -1   85.59    3.17
  -2   8  -1   49.40    3.10
  -1   8  -1   53.83    2.81
   0   8  -1   10.70    1.38
   1   8  -1   49.78    2.74
   2   8  -1   10.14    2.13
   3   8  -1   63.18    4.92
   4   8  -1   14.76    2.68
   5   8  -1    0.20    1.62
   6   8  -1    7.08    2.57
   7   8  -1    4.34    2.76
 -15   9  -1   16.26    4.25
 -14   9  -1   13.49    2.35
 -13   9  -1   11.74    2.34
 -12   9  -1   -0.38    1.22
 -11   9  -1    5.20    1.50
 -10   9  -1   71.69    4.26
  -9   9  -1    0.69    0.93
  -8   9  -1   45.79    2.66
  -7   9  -1   25.07    2.03
  -6   9  -1   28.90    2.10
  -5   9  -1   46.98    2.38
  -4   9  -1   41.15    2.18
  -3   9  -1   24.88    2.49
  -2   9  -1   22.23    2.03
  -1   9  -1   50.05    2.85
   0   9  -1    1.50    0.90
   1   9  -1   71.05    4.88
   2   9  -1    4.26    1.83
   3   9  -1    1.40    1.45
   4   9  -1    3.46    2.07
   5   9  -1   13.35    2.91
   6   9  -1    5.50    2.66
   7   9  -1   15.51    5.08
 -15  10  -1    9.24    3.54
 -14  10  -1   14.63    2.66
 -13  10  -1   29.41    3.27
 -12  10  -1    4.26    1.55
 -11  10  -1   28.66    3.22
 -10  10  -1   25.60    2.79
  -9  10  -1   72.90    3.59
  -8  10  -1    9.20    1.41
  -7  10  -1    8.12    1.29
  -6  10  -1    8.32    1.21
  -5  10  -1    3.03    1.08
  -4  10  -1    3.91    1.22
  -3  10  -1   12.41    1.96
  -2  10  -1   10.33    1.53
  -1  10  -1   76.36    3.77
   0  10  -1   32.36    3.67
   1  10  -1   29.90    3.78
   2  10  -1    1.61    1.64
   3  10  -1   31.49    4.00
   4  10  -1   26.67    4.13
   5  10  -1    9.53    3.15
   6  10  -1    7.47    4.22
 -15  11  -1    0.57    1.99
 -14  11  -1    4.99    2.07
 -13  11  -1   17.46    2.76
 -12  11  -1   11.19    2.16
 -11  11  -1   11.43    1.79
 -10  11  -1   30.63    2.63
  -9  11  -1    4.51    1.20
  -8  11  -1   66.47    3.39
  -7  11  -1   13.99    1.68
  -6  11  -1   24.37    2.85
  -5  11  -1   33.44    3.20
  -4  11  -1   12.97    2.12
  -3  11  -1   73.57    3.87
  -2  11  -1    4.42    1.21
  -1  11  -1   32.12    2.90
   0  11  -1   11.03    2.37
   1  11  -1   13.16    2.87
   2  11  -1    7.61    2.46
   3  11  -1    0.56    1.95
   4  11  -1    0.36    2.28
 -15  12  -1    3.95    3.23
 -14  12  -1   20.06    3.17
 -13  12  -1   28.91    2.88
 -12  12  -1   22.42    2.58
 -11  12  -1   14.18    2.05
 -10  12  -1    1.64    1.16
  -9  12  -1    0.21    0.94
  -8  12  -1   11.42    2.11
  -7  12  -1    8.23    1.96
  -6  12  -1   -0.09    1.00
  -5  12  -1    6.39    1.69
  -4  12  -1   16.71    2.48
  -3  12  -1    1.12    1.10
  -2  12  -1    4.81    1.42
  -1  12  -1   11.44    2.50
   0  12  -1   29.19    3.95
   1  12  -1   18.67    3.44
   2  12  -1   21.20    3.80
   3  12  -1    7.38    3.06
 -14  13  -1    2.50    2.12
 -13  13  -1    2.57    1.69
 -12  13  -1   16.36    2.31
 -11  13  -1    8.02    1.82
 -10  13  -1   23.48    2.61
  -9  13  -1    3.93    1.67
  -8  13  -1    1.88    1.37
  -7  13  -1    7.04    1.90
  -6  13  -1    6.60    1.78
  -5  13  -1    1.51    1.29
  -4  13  -1    7.20    1.62
  -3  13  -1   24.42    2.71
  -2  13  -1   12.73    2.88
  -1  13  -1   24.47    3.77
   0  13  -1    1.11    2.29
   1  13  -1    0.95    2.39
 -13  14  -1    0.44    1.64
 -12  14  -1   29.00    3.02
 -11  14  -1    1.01    1.74
 -10  14  -1   18.39    3.08
  -9  14  -1    7.63    2.13
  -8  14  -1    1.88    1.50
  -7  14  -1   42.50    4.29
  -6  14  -1    9.71    2.24
  -5  14  -1   11.75    2.06
  -4  14  -1   17.77    2.48
  -3  14  -1    1.70    1.91
  -2  14  -1   20.86    3.46
  -1  14  -1    4.85    2.53
 -12  15  -1    6.50    3.91
 -11  15  -1    1.01    1.88
 -10  15  -1    7.06    2.31
  -9  15  -1    6.53    2.10
  -8  15  -1    5.18    1.98
  -7  15  -1    5.75    2.11
  -6  15  -1   11.01    2.16
  -5  15  -1    9.52    2.05
  -4  15  -1    3.33    2.37
  -3  15  -1    4.48    3.90
  -8  16  -1    5.97    3.09
  -7  16  -1   15.93    4.29
   3 -15   0    9.87    4.02
   4 -15   0   10.38    3.93
   5 -15   0   -0.42    2.55
   6 -15   0   32.68    4.33
   7 -15   0    1.47    1.87
   8 -15   0    1.06    2.94
  10 -15   0    0.56    2.84
  11 -15   0   15.73    5.04
  12 -15   0    6.82    4.79
   1 -14   0    9.99    4.19
   2 -14   0    3.47    3.05
   3 -14   0    2.71    2.79
   4 -14   0    8.29    3.21
   5 -14   0    3.26    1.93
   6 -14   0   22.58    3.37
   7 -14   0    1.30    1.67
   8 -14   0   12.16    4.26
   9 -14   0    4.81    3.24
  10 -14   0    1.76    3.02
  11 -14   0    3.14    3.45
  12 -14   0    4.32    3.83
  13 -14   0   16.23    5.58
  14 -14   0    3.67    4.29
  -1 -13   0   16.10    4.60
   0 -13   0    9.89    3.87
   1 -13   0   16.65    4.32
   2 -13   0   14.04    4.06
   3 -13   0    3.25    2.54
   4 -13   0   39.87    4.56
   5 -13   0   58.74    4.94
   6 -13   0   17.28    2.82
   7 -13   0   18.23    2.67
   8 -13   0   59.19    7.96
   9 -13   0   41.19    7.10
  10 -13   0   -0.34    1.95
  11 -13   0    4.46    3.61
  12 -13   0   13.43    3.35
  13 -13   0    8.28    2.95
  14 -13   0   10.89    3.35
  -3 -12   0    9.86    4.12
  -2 -12   0    8.06    3.78
  -1 -12   0   15.02    4.63
   0 -12   0   11.34    3.85
   1 -12   0    3.75    2.38
   2 -12   0   80.90    7.58
   3 -12   0    1.09    2.15
   4 -12   0    1.76    1.41
   5 -12   0    1.24    1.40
   6 -12   0   -0.11    1.23
   7 -12   0    1.88    1.43
   8 -12   0    1.45    1.40
   9 -12   0    7.70    3.29
  10 -12   0   77.65    6.26
  11 -12   0    3.03    2.14
  12 -12   0   10.59    2.81
  13 -12   0    6.99    2.84
  14 -12   0    2.36    2.64
  15 -12   0    7.93    4.83
  -4 -11   0   10.68    4.28
  -3 -11   0   15.96    4.36
  -2 -11   0   14.32    4.36
  -1 -11   0    6.97    3.04
   0 -11   0   -0.82    1.63
   1 -11   0   19.45    4.10
   2 -11   0   15.49    3.57
   3 -11   0   59.02    4.94
   4 -11   0   79.07    4.93
   5 -11   0   88.26    5.29
   6 -11   0   90.42    5.41
   7 -11   0   87.05    5.28
   8 -11   0   50.79    3.34
   9 -11   0   14.47    2.66
  10 -11   0   31.34    3.91
  11 -11   0    0.59    1.70
  12 -11   0    3.13    2.15
  13 -11   0   18.50    3.63
  14 -11   0    6.94    2.72
  15 -11   0   14.17    5.81
  -5 -10   0    2.70    2.96
  -4 -10   0    5.38    2.93
  -3 -10   0   -1.21    1.95
  -2 -10   0   79.91    7.92
  -1 -10   0   25.62    4.50
   0 -10   0   12.79    3.19
   1 -10   0   42.31    5.43
   2 -10   0   -0.03    0.99
   3 -10   0   10.13    1.87
   4 -10   0   86.84    4.97
   5 -10   0   77.62    4.64
   6 -10   0   92.46    5.30
   7 -10   0    8.55    1.42
   8 -10   0    1.19    0.91
   9 -10   0   31.48    3.70
  10 -10   0   17.29    2.77
  11 -10   0   25.14    3.61
  12 -10   0  106.39    6.72
  13 -10   0    2.04    2.01
  14 -10   0    6.82    2.64
  15 -10   0    2.17    3.74
  -7  -9   0    0.54    3.22
  -6  -9   0   47.31    7.38
  -5  -9   0    4.91    3.03
  -4  -9   0   55.97    7.18
  -3  -9   0    9.24    3.26
  -2  -9   0   17.78    3.77
  -1  -9   0   36.82    5.05
   0  -9   0   51.88    5.22
   1  -9   0   11.20    2.70
   2  -9   0   92.35    5.08
   3  -9   0   99.11    5.60
   4  -9   0   28.44    2.82
   5  -9   0   30.19    2.94
   6  -9   0   96.51    4.11
   7  -9   0   88.06    3.83
   8  -9   0    9.88    1.96
   9  -9   0   56.19    4.59
  10  -9   0   37.47    4.16
  11  -9   0   15.62    3.01
  12  -9   0    2.69    2.02
  13  -9   0   39.97    4.83
  14  -9   0    5.17    4.47
  15  -9   0   33.28    7.69
  -8  -8   0    2.54    3.47
  -7  -8   0   -0.41    2.55
  -6  -8   0   25.79    5.16
  -5  -8   0   62.28    7.38
  -4  -8   0    1.41    1.93
  -3  -8   0   54.04    6.36
  -2  -8   0    2.31    1.75
  -1  -8   0   11.03    2.50
   0  -8   0  101.60    7.18
   1  -8   0  143.09    6.83
   2  -8   0   42.99    3.10
   3  -8   0   42.07    2.83
   4  -8   0    1.09    0.82
   5  -8   0   39.32    2.32
   6  -8   0   51.25    2.72
   7  -8   0  152.17    5.95
   8  -8   0  100.71    5.62
   9  -8   0    9.58    2.16
  10  -8   0    0.59    1.31
  11  -8   0   49.10    4.81
  12  -8   0   -0.60    1.56
  14  -8   0   21.96    6.05
  15  -8   0    1.15    3.61
  -8  -7   0    2.02    2.97
  -7  -7   0    2.60    2.87
  -6  -7   0   17.20    3.89
  -5  -7   0    3.53    2.39
  -4  -7   0   90.20    4.80
  -3  -7   0    8.13    1.42
  -2  -7   0   83.91    4.01
  -1  -7   0  155.63    6.44
   0  -7   0    4.14    1.61
   1  -7   0   84.64    4.42
   2  -7   0   23.38    2.32
   3  -7   0   79.28    4.17
   4  -7   0   83.82    3.57
   5  -7   0   28.07    1.87
   6  -7   0   85.50    5.05
   7  -7   0    7.66    1.59
   8  -7   0  162.76    7.54
   9  -7   0   78.09    5.36
  10  -7   0    9.76    2.14
  11  -7   0  102.91    6.02
  12  -7   0    2.63    1.95
  13  -7   0   21.17    3.54
  14  -7   0    0.69    3.65
  15  -7   0    0.20    4.23
  -9  -6   0   41.13    5.81
  -8  -6   0   27.63    3.24
  -7  -6   0   17.26    2.58
  -6  -6   0    0.63    1.03
  -5  -6   0   96.00    4.93
  -4  -6   0   93.31    4.76
  -3  -6   0   97.24    4.43
  -2  -6   0   59.16    3.00
  -1  -6   0   94.34    4.17
   0  -6   0   28.97    3.39
   1  -6   0   62.33    3.44
   2  -6   0   30.49    2.15
   3  -6   0  360.95   11.63
   4  -6   0   30.33    1.65
   5  -6   0   56.78    2.52
   6  -6   0   25.84    2.56
   7  -6   0  102.47    5.05
   8  -6   0   53.75    4.00
   9  -6   0   98.73    8.05
  10  -6   0   94.53    5.68
  11  -6   0   95.53    5.98
  12  -6   0    1.10    1.57
  13  -6   0   12.28    4.58
  14  -6   0   17.44    5.61
  15  -6   0   21.77    6.39
 -10  -5   0    3.24    2.23
  -9  -5   0    1.09    2.08
  -8  -5   0   63.41    5.02
  -7  -5   0    0.14    1.08
  -6  -5   0   82.85    4.63
  -5  -5   0   81.93    4.21
  -4  -5   0   34.08    2.73
  -3  -5   0   43.25    2.54
  -2  -5   0   25.76    1.85
  -1  -5   0   57.24    2.63
   0  -5   0    1.34    0.88
   1  -5   0  131.76    5.83
   2  -5   0   38.75    2.29
   3  -5   0   35.96    1.77
   4  -5   0  121.25    4.17
   5  -5   0    0.44    0.60
   6  -5   0   56.09    3.67
   7  -5   0   23.34    2.50
   8  -5   0   37.66    3.62
   9  -5   0   30.74    3.33
  10  -5   0   77.33    5.29
  11  -5   0   96.01    6.10
  12  -5   0    0.56    1.66
  13  -5   0   67.04    9.45
  14  -5   0    1.10    3.57
  15  -5   0    0.30    3.98
 -11  -4   0    9.58    3.33
 -10  -4   0    4.86    2.48
  -9  -4   0   51.97    6.06
  -8  -4   0    0.58    1.20
  -7  -4   0   75.86    4.38
  -6  -4   0   86.37    4.46
  -5  -4   0   28.04    2.48
  -4  -4   0    0.61    0.69
  -3  -4   0   93.15    4.02
  -2  -4   0   27.78    1.69
  -1  -4   0  114.29    4.49
   0  -4   0  108.58    4.80
   1  -4   0  176.13    7.21
   2  -4   0  960.89   29.02
   3  -4   0  190.75    6.40
   4  -4   0  108.02    5.00
   5  -4   0  113.98    6.02
   6  -4   0   31.46    2.94
   7  -4   0   91.91    4.85
   8  -4   0    0.66    1.01
   9  -4   0   26.47    3.26
  10  -4   0   93.94    6.01
  11  -4   0   88.52    6.00
  12  -4   0    2.96    1.87
  13  -4   0   50.54    8.35
  14  -4   0   11.34    5.08
  15  -4   0   15.39    5.80
 -12  -3   0   12.52    3.55
 -11  -3   0    7.36    2.87
 -10  -3   0    1.48    1.94
  -9  -3   0    3.18    2.05
  -8  -3   0   60.65    3.85
  -7  -3   0    7.89    1.59
  -6  -3   0  107.62    5.17
  -5  -3   0   42.17    2.59
  -4  -3   0   87.31    3.86
  -3  -3   0  357.56   13.04
  -2  -3   0   37.52    1.93
  -1  -3   0  197.41    7.14
   0  -3   0   19.85    0.96
   1  -3   0   26.42    1.55
   2  -3   0   29.81    1.33
   3  -3   0   21.94    1.60
   4  -3   0  194.88    7.60
   5  -3   0   39.78    2.68
   6  -3   0  356.48   14.95
   7  -3   0   83.68    4.94
   8  -3   0   42.96    3.85
   9  -3   0  103.16    5.77
  10  -3   0   11.97    2.31
  11  -3   0   43.92    4.51
  12  -3   0    0.92    3.03
  13  -3   0    1.11    3.77
  14  -3   0   10.29    4.99
 -12  -2   0    6.14    3.11
 -11  -2   0   11.32    3.04
 -10  -2   0   85.37    7.05
  -9  -2   0   14.01    2.99
  -8  -2   0    1.25    0.98
  -7  -2   0   88.17    3.50
  -6  -2   0   49.90    2.18
  -5  -2   0   20.70    1.90
  -4  -2   0   33.96    2.03
  -3  -2   0   38.22    2.08
  -2  -2   0  966.86   32.78
  -1  -2   0   30.99    1.45
   0  -2   0   31.68    1.17
   1  -2   0    4.03    0.49
   2  -2   0   29.27    1.27
   3  -2   0   28.03    1.33
   4  -2   0  941.61   28.62
   5  -2   0   36.71    1.85
   6  -2   0   28.82    1.79
   7  -2   0   26.50    1.82
   8  -2   0   54.52    4.19
   9  -2   0   72.86    5.01
  10  -2   0    2.18    1.49
  11  -2   0   10.93    2.42
  13  -2   0    5.92    3.89
  14  -2   0    9.01    4.85
 -13  -1   0   14.59    4.02
 -12  -1   0    9.55    3.31
 -11  -1   0    1.64    1.76
 -10  -1   0   30.45    4.61
  -9  -1   0   34.23    4.68
  -8  -1   0    9.63    1.21
  -7  -1   0  139.33    4.79
  -6  -1   0   82.52    3.07
  -5  -1   0   63.30    2.42
  -4  -1   0  135.43    4.19
  -3  -1   0  177.63    5.20
  -2  -1   0   26.15    1.05
  -1  -1   0    3.53    0.52
   0  -1   0    2.15    0.31
   1  -1   0    2.00    0.32
   2  -1   0    2.71    0.47
   3  -1   0   29.23    1.41
   4  -1   0  194.92    6.44
   5  -1   0  115.03    4.18
   6  -1   0   56.65    2.56
   7  -1   0   99.27    3.93
   8  -1   0  156.62    8.09
   9  -1   0   11.28    2.16
  10  -1   0   36.57    3.91
  11  -1   0   20.81    5.38
  12  -1   0    4.58    3.36
  13  -1   0    7.10    4.71
  14  -1   0    9.03    5.39
 -13   0   0    7.65    2.86
 -12   0   0   16.83    3.84
 -11   0   0   -2.07    1.24
 -10   0   0   13.38    1.88
  -9   0   0   50.57    3.14
  -8   0   0   90.59    4.30
  -7   0   0    5.10    0.98
  -6   0   0   23.62    1.60
  -5   0   0    0.59    0.44
  -4   0   0  109.85    3.47
  -3   0   0   20.76    0.98
  -2   0   0   31.66    1.14
  -1   0   0    2.20    0.21
   1   0   0    3.50    0.46
   2   0   0   33.03    1.31
   3   0   0   22.30    1.15
   4   0   0  108.36    3.84
   5   0   0    0.83    0.42
   6   0   0   25.87    2.76
   7   0   0    5.97    1.64
   8   0   0   91.48    5.62
   9   0   0   56.48    4.96
  10   0   0   13.40    2.75
  11   0   0   -1.22    2.71
  12   0   0   11.70    5.10
  13   0   0    7.23    4.35
 -14   1   0   11.25    3.58
 -13   1   0   15.36    3.86
 -12   1   0    2.62    2.08
 -11   1   0   19.26    2.27
 -10   1   0   36.56    3.13
  -9   1   0   11.35    1.63
  -8   1   0  164.18    5.18
  -7   1   0   96.26    4.21
  -6   1   0   49.95    2.63
  -5   1   0  103.61    4.38
  -4   1   0  201.38    6.91
  -3   1   0   29.51    1.44
  -2   1   0    3.28    0.49
  -1   1   0    2.81    0.22
   0   1   0    2.59    0.28
   1   1   0    4.15    0.66
   2   1   0   27.10    1.67
   3   1   0  177.83    7.46
   4   1   0  137.01    6.17
   5   1   0   66.40    3.79
   6   1   0   77.99    4.66
   7   1   0  135.24    7.23
   8   1   0    8.67    2.02
   9   1   0   35.62    4.10
  10   1   0   24.70    3.62
  11   1   0    2.49    3.62
  12   1   0    3.56    4.34
  13   1   0    4.70    5.03
 -14   2   0   11.43    3.54
 -13   2   0   10.80    3.32
 -12   2   0   99.42    5.15
 -11   2   0   15.01    2.10
 -10   2   0    1.30    1.00
  -9   2   0   76.48    3.17
  -8   2   0   59.16    2.42
  -7   2   0   25.39    1.56
  -6   2   0   24.73    1.37
  -5   2   0   37.25    1.92
  -4   2   0  938.81   31.16
  -3   2   0   25.69    1.09
  -2   2   0   30.92    1.11
  -1   2   0    3.90    0.49
   0   2   0   31.56    1.46
   1   2   0   27.85    1.24
   2   2   0  964.44   36.22
   3   2   0   39.15    2.47
   4   2   0   32.57    2.39
   5   2   0   18.09    2.12
   6   2   0   46.32    3.65
   7   2   0   92.23    5.37
   8   2   0   -0.33    1.30
   9   2   0    9.38    2.37
  10   2   0   86.47   11.10
  11   2   0   25.11    6.32
  12   2   0    7.03    5.07
 -15   3   0   10.90    3.89
 -14   3   0    8.63    2.30
 -13   3   0    0.02    1.26
 -12   3   0    4.11    2.18
 -11   3   0   51.22    3.56
 -10   3   0   12.69    1.45
  -9   3   0   89.13    6.04
  -8   3   0   48.93    2.14
  -7   3   0   90.16    3.19
  -6   3   0  361.43   10.30
  -5   3   0   40.51    1.67
  -4   3   0  162.72    5.16
  -3   3   0   21.03    0.95
  -2   3   0   30.01    1.42
  -1   3   0   28.50    1.09
   0   3   0   21.82    1.25
   1   3   0  196.58    6.24
   2   3   0   35.48    2.27
   3   3   0  363.70   14.59
   4   3   0   77.74    4.37
   5   3   0   43.24    3.34
   6   3   0  115.96    6.13
   7   3   0    7.30    1.92
   8   3   0   61.61    4.79
   9   3   0    2.34    1.85
  10   3   0    1.23    3.41
  11   3   0    4.94    4.62
 -15   4   0    9.30    2.40
 -14   4   0    3.76    1.69
 -13   4   0   44.57    4.00
 -12   4   0    1.08    1.23
 -11   4   0   90.87    4.75
 -10   4   0  104.63    3.89
  -9   4   0   34.09    2.16
  -8   4   0   -0.16    0.50
  -7   4   0   77.70    2.98
  -6   4   0   34.38    1.59
  -5   4   0  143.33    4.23
  -4   4   0  107.44    3.39
  -3   4   0  197.33    7.01
  -2   4   0  978.32   26.74
  -1   4   0  179.29    6.82
   0   4   0  105.11    3.75
   1   4   0  115.89    4.00
   2   4   0   25.59    2.29
   3   4   0   89.43    4.64
   4   4   0   -0.07    0.75
   5   4   0   21.95    2.61
   6   4   0   79.88    5.14
   7   4   0   71.56    5.14
   8   4   0    0.95    1.53
   9   4   0   45.97    7.67
  10   4   0    4.99    4.10
  11   4   0   12.02    5.78
 -15   5   0    1.66    1.72
 -14   5   0    3.51    1.84
 -13   5   0   41.09    3.74
 -12   5   0    1.51    1.18
 -11   5   0  101.00    3.99
 -10   5   0   79.78    3.36
  -9   5   0   23.30    1.79
  -8   5   0   39.45    2.00
  -7   5   0   17.69    1.34
  -6   5   0   68.18    2.46
  -5   5   0    1.12    0.41
  -4   5   0  109.32    4.16
  -3   5   0   36.13    1.85
  -2   5   0   41.84    1.65
  -1   5   0  136.84    5.52
   0   5   0    1.03    0.46
   1   5   0   56.46    2.40
   2   5   0   29.51    1.75
   3   5   0   47.63    3.18
   4   5   0   33.01    3.25
   5   5   0   74.60    4.86
   6   5   0   90.27    5.55
   7   5   0    1.20    1.53
   8   5   0   63.27    5.91
   9   5   0    2.01    3.22
  10   5   0   -4.19    4.11
 -16   6   0    3.16    2.97
 -15   6   0   48.81    4.54
 -14   6   0   30.58    3.47
 -13   6   0   31.63    3.31
 -12   6   0    2.00    1.01
 -11   6   0   87.90    3.75
 -10   6   0   79.80    3.46
  -9   6   0  118.70    4.14
  -8   6   0   47.27    2.24
  -7   6   0   77.03    3.02
  -6   6   0   25.75    1.50
  -5   6   0   50.50    2.04
  -4   6   0   24.91    1.71
  -3   6   0  362.88   10.63
  -2   6   0   31.89    2.03
  -1   6   0   60.53    3.14
   0   6   0   25.43    1.67
   1   6   0   95.11    3.77
   2   6   0   54.17    3.55
   3   6   0   86.13    5.08
   4   6   0   94.47    5.57
   5   6   0  102.15    5.89
   6   6   0    1.09    1.47
   7   6   0   13.85    2.83
   8   6   0   22.39    5.60
   9   6   0   33.18    7.02
 -16   7   0    3.55    2.07
 -15   7   0    1.24    1.63
 -14   7   0    1.76    1.56
 -13   7   0   14.79    1.82
 -12   7   0    0.81    0.91
 -11   7   0   71.99    3.39
 -10   7   0    5.17    1.07
  -9   7   0   91.74    3.56
  -8   7   0  134.24    4.74
  -7   7   0    5.23    0.81
  -6   7   0  103.03    3.40
  -5   7   0   27.89    1.96
  -4   7   0   86.53    3.25
  -3   7   0   77.29    2.98
  -2   7   0   20.17    1.96
  -1   7   0   76.98    3.96
   0   7   0    5.24    0.93
   1   7   0  158.24    5.77
   2   7   0   83.25    4.83
   3   7   0   12.06    2.23
   4   7   0   98.25    5.74
   5   7   0    3.14    1.55
   6   7   0   18.34    3.23
   7   7   0    6.35    2.44
   8   7   0    1.21    3.83
 -16   8   0    5.15    3.18
 -15   8   0    2.22    1.79
 -14   8   0   16.05    2.02
 -13   8   0   75.66    3.65
 -12   8   0    1.12    0.98
 -11   8   0   57.53    2.92
 -10   8   0    0.34    0.76
  -9   8   0    7.99    1.19
  -8   8   0   94.14    3.58
  -7   8   0  161.51    6.64
  -6   8   0   56.41    3.06
  -5   8   0   42.77    2.15
  -4   8   0    0.44    0.46
  -3   8   0   40.02    1.92
  -2   8   0   47.67    2.94
  -1   8   0  135.40    5.29
   0   8   0   92.86    3.97
   1   8   0   11.17    1.98
   2   8   0    0.67    1.16
   3   8   0   49.49    4.55
   4   8   0    2.79    1.63
   5   8   0   51.09    4.95
   6   8   0   29.19    3.93
   7   8   0    0.77    3.25
 -15   9   0   36.40    5.40
 -14   9   0    4.38    1.76
 -13   9   0   48.37    4.14
 -12   9   0    5.14    1.57
 -11   9   0   17.01    2.36
 -10   9   0   34.08    3.22
  -9   9   0   52.65    3.42
  -8   9   0    8.43    1.57
  -7   9   0   78.19    4.07
  -6   9   0   81.78    3.63
  -5   9   0   29.57    1.91
  -4   9   0   25.85    1.73
  -3   9   0  113.17    5.44
  -2   9   0   90.78    4.63
  -1   9   0    9.83    1.35
   0   9   0   57.54    2.99
   1   9   0   34.67    3.64
   2   9   0   11.61    2.23
   3   9   0    2.20    1.71
   4   9   0   41.82    4.63
   5   9   0    2.22    2.06
   6   9   0   52.07    5.76
 -15  10   0    1.30    1.95
 -14  10   0    5.34    2.06
 -13  10   0    2.20    1.45
 -12  10   0   75.43    4.86
 -11  10   0   26.80    4.20
 -10  10   0   13.94    2.19
  -9  10   0   33.85    3.10
  -8  10   0    2.04    1.06
  -7  10   0    7.99    1.26
  -6  10   0  101.48    4.04
  -5  10   0   79.41    3.38
  -4  10   0   78.79    4.58
  -3  10   0    7.39    1.52
  -2  10   0    1.29    0.82
  -1  10   0   40.00    2.91
   0  10   0   13.92    2.48
   1  10   0   23.71    3.21
   2  10   0   90.78    6.05
   3  10   0    1.11    1.66
   4  10   0    1.62    1.92
   5  10   0    4.12    2.45
 -15  11   0   17.35    3.04
 -14  11   0    9.32    2.32
 -13  11   0    9.38    2.14
 -12  11   0    0.89    1.52
 -11  11   0    1.11    1.26
 -10  11   0   19.09    2.54
  -9  11   0   12.55    1.74
  -8  11   0   48.94    3.28
  -7  11   0   96.58    4.07
  -6  11   0   92.18    5.32
  -5  11   0   81.95    4.92
  -4  11   0   71.64    4.47
  -3  11   0   50.19    3.86
  -2  11   0   17.83    2.10
  -1  11   0   24.51    3.37
   0  11   0   -0.49    1.40
   1  11   0    2.77    1.85
   2  11   0   27.34    3.87
   3  11   0   11.93    2.90
   4  11   0    8.58    2.73
 -15  12   0    5.99    2.54
 -14  12   0    7.77    2.42
 -13  12   0   15.21    2.66
 -12  12   0   14.80    2.39
 -11  12   0    3.94    1.58
 -10  12   0   97.47    5.87
  -9  12   0    7.11    1.45
  -8  12   0    0.49    0.87
  -7  12   0    1.37    1.20
  -6  12   0    1.36    1.12
  -5  12   0    1.91    1.33
  -4  12   0   -0.87    0.88
  -3  12   0    7.75    1.51
  -2  12   0   76.43    5.84
  -1  12   0    1.67    1.61
   0  12   0   11.83    2.76
   1  12   0    9.90    2.85
   2  12   0    3.46    2.34
   3  12   0   16.22    4.77
 -14  13   0   14.50    2.97
 -13  13   0   13.32    2.32
 -12  13   0   11.76    2.04
 -11  13   0   21.83    2.51
 -10  13   0    0.93    1.13
  -9  13   0   43.36    4.49
  -8  13   0   44.37    4.33
  -7  13   0   21.24    3.03
  -6  13   0   14.54    2.48
  -5  13   0   71.54    4.95
  -4  13   0   46.64    3.66
  -3  13   0    2.78    1.82
  -2  13   0    7.13    2.27
  -1  13   0   11.52    2.88
   0  13   0    9.00    2.67
   1  13   0    8.06    2.90
 -14  14   0    9.32    2.81
 -13  14   0    7.57    2.09
 -12  14   0    3.60    1.77
 -11  14   0   10.54    2.63
 -10  14   0    5.20    1.90
  -9  14   0    2.61    1.68
  -8  14   0   33.92    3.88
  -7  14   0    0.49    1.45
  -6  14   0   17.34    2.72
  -5  14   0    1.56    1.35
  -4  14   0    6.38    2.17
  -3  14   0    6.54    2.31
  -2  14   0    8.58    2.60
  -1  14   0   14.42    3.33
 -12  15   0    9.30    2.94
 -11  15   0   12.17    2.94
 -10  15   0   -0.02    1.74
  -9  15   0   49.43    5.24
  -8  15   0    3.22    1.86
  -7  15   0    3.45    1.94
  -6  15   0   30.88    3.95
  -5  15   0    0.06    1.77
  -4  15   0   11.98    2.95
  -3  15   0   10.94    3.03
  -9  16   0    0.23    2.59
  -8  16   0    2.55    2.65
  -7  16   0    2.92    2.67
   8 -16   1   11.62    5.23
   4 -15   1    0.57    2.51
   5 -15   1    6.38    3.41
   6 -15   1    6.24    2.48
   7 -15   1    4.31    2.44
   8 -15   1    5.02    2.37
   9 -15   1    9.56    4.32
  10 -15   1    9.39    4.11
  11 -15   1   -1.22    3.29
  12 -15   1    4.44    4.43
   1 -14   1    3.24    3.11
   2 -14   1   30.90    5.96
   3 -14   1    2.23    2.82
   4 -14   1   14.43    4.21
   5 -14   1    9.35    2.57
   6 -14   1    7.56    2.26
   7 -14   1   48.90    5.05
   8 -14   1    3.43    1.99
   9 -14   1   10.61    3.79
  10 -14   1   13.26    4.81
  11 -14   1   -0.15    3.25
  12 -14   1   23.01    6.28
  13 -14   1    5.05    3.97
  -1 -13   1    3.39    3.46
   0 -13   1    1.45    2.66
   1 -13   1   25.48    5.23
   2 -13   1   15.40    4.26
   3 -13   1   33.28    5.77
   4 -13   1    3.80    1.71
   5 -13   1   -0.28    1.43
   6 -13   1   12.58    2.63
   7 -13   1    9.04    2.34
   8 -13   1    2.12    1.52
   9 -13   1    3.61    2.89
  10 -13   1   22.30    5.26
  11 -13   1    9.29    4.30
  12 -13   1   19.38    5.45
  13 -13   1    1.60    4.02
  14 -13   1    1.69    4.30
  -2 -12   1   33.76    5.96
  -1 -12   1   20.54    5.09
   0 -12   1   28.89    5.50
   1 -12   1   10.52    3.54
   2 -12   1    3.71    2.32
   3 -12   1   -1.14    1.31
   4 -12   1    8.46    2.26
   5 -12   1   10.34    2.20
   6 -12   1    2.29    1.32
   7 -12   1    8.53    1.86
   8 -12   1   11.01    2.26
   9 -12   1    1.70    2.62
  10 -12   1    3.30    2.81
  11 -12   1    9.65    4.18
  12 -12   1   18.94    3.57
  13 -12   1   17.59    3.45
  14 -12   1   20.27    6.20
  15 -12   1    1.01    4.11
  -4 -11   1    3.97    3.23
  -3 -11   1    1.24    2.91
  -2 -11   1   17.94    4.52
  -1 -11   1    7.44    3.31
   0 -11   1    7.27    3.00
   1 -11   1   32.55    5.13
   2 -11   1    9.87    2.87
   3 -11   1   73.70    4.95
   4 -11   1   16.09    2.54
   5 -11   1   29.56    3.39
   6 -11   1   34.22    3.50
   7 -11   1   15.16    2.39
   8 -11   1   64.28    4.42
   9 -11   1    2.00    2.12
  10 -11   1   30.59    3.90
  11 -11   1   10.76    2.56
  12 -11   1   13.07    3.04
  13 -11   1    8.78    4.34
  14 -11   1    3.08    3.95
  15 -11   1    2.63    4.45
  -5 -10   1    5.48    3.18
  -4 -10   1   15.48    4.35
  -3 -10   1   22.28    4.69
  -2 -10   1    1.99    2.12
  -1 -10   1   27.59    4.97
   0 -10   1   24.79    4.30
   1 -10   1   64.27    6.34
   2 -10   1    8.04    2.48
   3 -10   1   10.01    2.00
   4 -10   1    6.33    1.62
   5 -10   1    4.18    1.37
   6 -10   1    6.89    1.65
   7 -10   1    6.76    1.65
   8 -10   1   10.23    1.90
   9 -10   1   79.30    4.01
  10 -10   1   28.07    3.51
  11 -10   1   33.03    3.97
  12 -10   1    4.87    2.05
  13 -10   1   21.28    5.73
  14 -10   1   15.51    5.41
  15 -10   1    3.91    3.79
  -6  -9   1   13.82    4.12
  -5  -9   1    9.31    3.52
  -4  -9   1    6.46    3.10
  -3  -9   1   -0.06    1.96
  -2  -9   1    5.40    2.41
  -1  -9   1   77.55    6.59
   0  -9   1    0.98    1.46
   1  -9   1   50.20    4.97
   2  -9   1   19.88    2.50
   3  -9   1   32.38    3.02
   4  -9   1   45.22    3.14
   5  -9   1   47.13    3.54
   6  -9   1   31.85    3.00
   7  -9   1   20.66    2.43
   8  -9   1   47.27    2.80
   9  -9   1    1.84    1.38
  10  -9   1   79.83    5.24
  11  -9   1    8.06    2.21
  12  -9   1    1.18    1.81
  13  -9   1    5.37    3.66
  14  -9   1    7.75    4.68
  15  -9   1    4.46    4.70
  -7  -8   1    7.18    3.45
  -6  -8   1   13.26    3.85
  -5  -8   1    0.88    2.31
  -4  -8   1   10.79    3.33
  -3  -8   1   70.62    6.33
  -2  -8   1   10.66    2.88
  -1  -8   1   48.91    4.82
   0  -8   1   14.50    2.75
   1  -8   1   50.82    4.77
   2  -8   1   52.25    3.34
   3  -8   1   73.92    4.35
   4  -8   1   54.38    3.31
   5  -8   1   71.73    3.98
   6  -8   1   46.87    3.10
   7  -8   1   54.65    2.80
   8  -8   1   10.72    1.46
   9  -8   1   49.05    4.42
  10  -8   1    8.85    2.10
  11  -8   1   65.21    5.21
  12  -8   1    6.51    3.48
  13  -8   1    2.85    3.43
  14  -8   1    2.44    3.44
  15  -8   1    4.25    4.23
  -7  -7   1   40.03    6.08
  -6  -7   1    8.89    3.15
  -5  -7   1    8.92    2.87
  -4  -7   1   22.63    3.94
  -3  -7   1   13.99    2.99
  -2  -7   1   20.88    3.44
  -1  -7   1   51.06    4.64
   0  -7   1    1.90    1.23
   1  -7   1  176.02    7.83
   2  -7   1   93.94    4.91
   3  -7   1   97.88    4.88
   4  -7   1   84.90    4.37
   5  -7   1   93.02    4.74
   6  -7   1  180.40    6.68
   7  -7   1    0.30    0.66
   8  -7   1   54.92    2.96
   9  -7   1   24.41    2.89
  10  -7   1    9.11    2.07
  11  -7   1   18.36    2.83
  12  -7   1   19.49    5.20
  13  -7   1   12.33    5.00
  14  -7   1   41.09    8.37
  15  -7   1    3.29    4.42
  -8  -6   1   11.26    3.16
  -7  -6   1    9.06    2.06
  -6  -6   1    0.51    1.04
  -5  -6   1   26.21    2.66
  -4  -6   1    9.34    1.58
  -3  -6   1   32.79    2.58
  -2  -6   1   41.27    2.49
  -1  -6   1  185.47    7.23
   0  -6   1   19.15    2.82
   1  -6   1   17.86    1.99
   2  -6   1   74.88    3.84
   3  -6   1   66.80    3.49
   4  -6   1   72.46    3.68
   5  -6   1   19.17    1.58
   6  -6   1   16.82    1.53
   7  -6   1  173.53    6.34
   8  -6   1   49.63    3.71
   9  -6   1   34.60    3.38
  10  -6   1    9.12    2.01
  11  -6   1   26.27    3.26
  12  -6   1    1.94    3.08
  13  -6   1   15.59    5.03
  14  -6   1    6.45    4.60
  15  -6   1   11.09    5.25
 -10  -5   1   10.97    3.47
  -9  -5   1   13.26    3.26
  -8  -5   1    1.47    1.92
  -7  -5   1    7.40    1.70
  -6  -5   1   33.01    3.13
  -5  -5   1    5.71    1.27
  -4  -5   1   50.12    2.91
  -3  -5   1   69.94    3.49
  -2  -5   1   89.66    4.09
  -1  -5   1   16.83    1.43
   0  -5   1  213.70   11.97
   1  -5   1  141.68    6.30
   2  -5   1   88.77    4.15
   3  -5   1   79.21    3.72
   4  -5   1  156.06    5.79
   5  -5   1  211.29    7.12
   6  -5   1   17.84    1.54
   7  -5   1  101.18    5.26
   8  -5   1   78.27    6.00
   9  -5   1   44.82    3.59
  10  -5   1    5.05    1.68
  11  -5   1   36.98    6.77
  12  -5   1    4.33    3.49
  13  -5   1    0.78    3.20
  14  -5   1   11.31    5.06
  15  -5   1    7.20    4.81
 -11  -4   1    3.34    2.63
 -10  -4   1   14.87    3.78
  -9  -4   1    4.69    2.39
  -8  -4   1   11.57    2.93
  -7  -4   1   15.35    2.09
  -6  -4   1   11.43    1.75
  -5  -4   1   41.63    2.70
  -4  -4   1   49.08    2.84
  -3  -4   1   83.78    3.86
  -2  -4   1   71.85    3.22
  -1  -4   1  173.51    6.41
   0  -4   1  119.14    6.95
   1  -4   1  108.19    4.68
   2  -4   1   11.58    1.27
   3  -4   1   96.07    4.14
   4  -4   1  118.43    4.14
   5  -4   1  160.35    5.26
   6  -4   1   74.74    3.21
   7  -4   1   90.93    5.07
   8  -4   1   51.31    3.75
   9  -4   1   44.94    3.77
  10  -4   1    5.18    1.80
  11  -4   1   16.49    4.59
  12  -4   1   17.65    5.28
  13  -4   1    8.93    4.92
  14  -4   1   21.61    6.30
  15  -4   1    3.28    4.42
 -12  -3   1    1.08    2.45
 -11  -3   1    5.41    2.75
 -10  -3   1   32.73    4.80
  -9  -3   1   -0.69    1.41
  -8  -3   1   69.29    5.88
  -7  -3   1   11.57    1.78
  -6  -3   1   26.09    2.37
  -5  -3   1   84.10    4.00
  -4  -3   1  104.40    4.45
  -3  -3   1   65.55    3.06
  -2  -3   1   77.45    3.29
  -1  -3   1   87.72    3.60
   0  -3   1  411.27   14.10
   1  -3   1  125.62    5.29
   2  -3   1  131.26    5.36
   3  -3   1  397.59   12.60
   4  -3   1   90.37    4.74
   5  -3   1   80.50    3.42
   6  -3   1   64.52    2.92
   7  -3   1  100.10    4.84
   8  -3   1   78.75    4.38
   9  -3   1   28.57    3.01
  10  -3   1    8.94    3.56
  11  -3   1   68.10    8.90
  12  -3   1   -1.51    2.79
  13  -3   1   33.15    6.85
  14  -3   1    3.04    4.18
 -12  -2   1   21.40    4.36
 -11  -2   1   12.64    3.26
 -10  -2   1    3.25    1.98
  -9  -2   1    5.79    2.14
  -8  -2   1   12.06    2.63
  -7  -2   1   17.06    2.00
  -6  -2   1   51.71    2.22
  -5  -2   1  102.75    3.45
  -4  -2   1   79.16    2.68
  -3  -2   1   97.25    3.79
  -2  -2   1   11.08    1.04
  -1  -2   1  131.79    4.82
   0  -2   1  121.83    4.44
   1  -2   1   25.29    2.12
   2  -2   1  126.65    5.04
   3  -2   1  132.03    4.40
   4  -2   1   11.11    1.02
   5  -2   1   92.02    3.29
   6  -2   1   78.28    3.23
   7  -2   1   98.82    4.10
   8  -2   1   47.68    2.83
   9  -2   1   20.58    2.69
  10  -2   1    7.48    3.25
  11  -2   1    7.36    3.40
  12  -2   1    5.04    3.87
  13  -2   1    6.80    4.25
  14  -2   1    9.03    5.25
 -13  -1   1    0.69    2.36
 -12  -1   1   21.08    4.16
 -11  -1   1    7.55    2.47
 -10  -1   1   34.23    4.78
  -9  -1   1   74.88    6.03
  -8  -1   1   57.33    3.06
  -7  -1   1   59.02    3.00
  -6  -1   1  167.09    6.59
  -5  -1   1   20.38    1.67
  -4  -1   1  144.85    4.52
  -3  -1   1  111.81    3.96
  -2  -1   1  124.37    4.80
  -1  -1   1   28.76    1.35
   0  -1   1   14.91    1.34
   1  -1   1   15.29    1.57
   2  -1   1   29.08    1.86
   3  -1   1  129.64    4.46
   4  -1   1   96.64    3.51
   5  -1   1  167.85    6.04
   6  -1   1   15.74    1.57
   7  -1   1  180.73    6.89
   8  -1   1   54.16    3.06
   9  -1   1   55.74    4.25
  10  -1   1   63.33    8.40
  11  -1   1   20.89    5.47
  12  -1   1    7.78    4.18
  13  -1   1   21.42    6.01
  14  -1   1    4.44    4.68
 -13   0   1   -1.26    1.87
 -12   0   1   21.68    4.04
 -11   0   1   10.62    2.97
 -10   0   1   16.59    3.31
  -9   0   1    1.80    0.94
  -8   0   1   10.91    1.53
  -7   0   1    1.95    0.78
  -6   0   1   19.32    1.71
  -5   0   1  211.13    7.58
  -4   0   1  115.46    4.35
  -3   0   1  403.01   13.50
  -2   0   1  114.01    6.13
  -1   0   1   15.26    0.83
   0   0   1   -0.71    0.52
   1   0   1   16.63    1.93
   2   0   1  126.97    7.52
   3   0   1  405.33   15.75
   4   0   1  123.13    5.28
   5   0   1  213.62    9.07
   6   0   1   22.00    2.37
   7   0   1    2.16    1.20
   8   0   1   10.33    2.10
   9   0   1    1.91    1.56
  10   0   1   25.08    5.62
  11   0   1    4.78    4.22
  12   0   1   20.78    5.64
  13   0   1    1.74    4.27
 -14   1   1    1.06    2.57
 -13   1   1   11.60    3.18
 -12   1   1    8.36    2.83
 -11   1   1   31.81    3.13
 -10   1   1   70.23    3.96
  -9   1   1   46.47    2.92
  -8   1   1   47.96    2.84
  -7   1   1  197.13    7.21
  -6   1   1   14.79    1.45
  -5   1   1  174.12    6.28
  -4   1   1   80.64    4.84
  -3   1   1  131.20    4.66
  -2   1   1   25.71    1.87
   1   1   1   27.99    1.43
   2   1   1  132.57    5.31
   3   1   1  107.23    4.72
   4   1   1  147.47    6.47
   5   1   1   20.42    2.14
   6   1   1  173.19    8.05
   7   1   1   61.05    4.12
   8   1   1   52.63    4.23
   9   1   1   74.54    9.35
  10   1   1   30.26    6.32
  11   1   1    9.93    4.57
  12   1   1   17.55    5.77
  13   1   1    1.17    4.88
 -14   2   1   13.43    3.52
 -13   2   1    7.87    2.90
 -12   2   1    3.41    1.46
 -11   2   1    2.85    1.31
 -10   2   1    9.16    1.57
  -9   2   1   21.58    2.17
  -8   2   1   41.38    2.60
  -7   2   1   91.47    4.11
  -6   2   1   67.40    3.20
  -5   2   1   71.08    3.19
  -4   2   1    9.21    0.97
  -3   2   1  120.15    4.60
  -2   2   1  121.15    6.05
   1   2   1  128.26    5.33
   2   2   1   13.29    1.25
   3   2   1   88.54    4.19
   4   2   1   78.66    3.98
   5   2   1  102.15    5.15
   6   2   1   48.36    3.43
   7   2   1   14.64    2.34
   8   2   1   12.93    3.92
   9   2   1    7.89    3.98
  10   2   1    1.70    3.61
  11   2   1   13.20    4.78
  12   2   1   20.52    6.33
 -14   3   1    1.37    1.90
 -13   3   1   25.15    2.98
 -12   3   1   -0.17    1.21
 -11   3   1   63.33    3.88
 -10   3   1    8.13    1.47
  -9   3   1   33.34    2.71
  -8   3   1   72.13    4.85
  -7   3   1   79.88    3.79
  -6   3   1   66.30    3.02
  -5   3   1   91.30    3.64
  -4   3   1  116.82    4.11
  -3   3   1  400.79   13.48
  -2   3   1  124.31    4.54
   0   3   1  401.68   14.58
   1   3   1   92.13    4.10
   2   3   1   80.19    3.74
   3   3   1   61.27    3.44
   4   3   1  102.61    5.03
   5   3   1   80.80    4.56
   6   3   1   22.51    2.69
   7   3   1   15.44    2.56
   8   3   1   80.75    8.16
   9   3   1   -0.25    3.04
  10   3   1   27.39    6.25
  11   3   1   -1.65    4.05
 -15   4   1    1.48    1.79
 -14   4   1   22.48    2.97
 -13   4   1    4.00    1.59
 -12   4   1   14.98    2.24
 -11   4   1   19.29    1.88
 -10   4   1    8.19    1.19
  -9   4   1   49.36    2.93
  -8   4   1   48.56    2.80
  -7   4   1  104.60    4.35
  -6   4   1   74.85    3.33
  -5   4   1  133.67    5.44
  -4   4   1  123.57    4.37
  -3   4   1   81.75    3.35
  -2   4   1   12.39    1.06
  -1   4   1  108.60    4.39
   0   4   1  115.97    4.63
   1   4   1  163.71    7.24
   2   4   1   73.16    3.73
   3   4   1   84.82    4.45
   4   4   1   48.57    3.27
   5   4   1   38.27    3.25
   6   4   1    6.57    1.69
   7   4   1   13.67    2.43
   8   4   1    8.99    3.92
   9   4   1    1.82    3.51
  10   4   1    7.97    4.84
  11   4   1    5.16    5.15
 -15   5   1    6.32    1.94
 -14   5   1   11.14    2.29
 -13   5   1    1.22    1.41
 -12   5   1   10.43    1.62
 -11   5   1   23.51    1.99
 -10   5   1    3.47    0.91
  -9   5   1   40.83    2.26
  -8   5   1   84.06    3.23
  -7   5   1  101.40    3.59
  -6   5   1   21.01    1.53
  -5   5   1  214.74    6.30
  -4   5   1  175.60    5.12
  -3   5   1   73.85    2.96
  -2   5   1   95.13    3.54
  -1   5   1  139.61    5.88
   0   5   1  211.50    6.86
   1   5   1   17.57    1.88
   2   5   1   90.04    4.75
   3   5   1   68.69    4.01
   4   5   1   51.63    3.44
   5   5   1    4.61    1.53
   6   5   1   32.91    3.67
   7   5   1    6.32    3.34
   8   5   1    0.45    3.09
   9   5   1    6.23    4.16
  10   5   1    4.75    4.83
 -15   6   1    8.00    2.13
 -14   6   1    3.51    1.60
 -13   6   1    9.89    1.72
 -12   6   1    0.24    0.95
 -11   6   1   41.75    2.86
 -10   6   1    8.93    1.29
  -9   6   1   22.99    1.82
  -8   6   1   49.23    2.33
  -7   6   1  172.12    5.59
  -6   6   1   15.43    1.24
  -5   6   1   16.72    1.20
  -4   6   1   69.71    2.49
  -3   6   1   67.82    2.95
  -2   6   1   77.55    2.75
  -1   6   1   21.80    1.82
   0   6   1   17.57    1.39
   1   6   1  181.35    8.36
   2   6   1   49.63    3.17
   3   6   1   34.86    3.24
   4   6   1    7.49    1.79
   5   6   1   27.56    3.10
   6   6   1    1.27    1.48
   7   6   1    9.27    3.80
   8   6   1    7.30    4.54
   9   6   1    8.15    4.70
 -16   7   1   12.04    2.78
 -15   7   1    4.10    1.77
 -14   7   1   46.46    4.23
 -13   7   1    7.84    1.59
 -12   7   1    5.16    1.21
 -11   7   1   11.36    1.51
 -10   7   1   14.44    1.57
  -9   7   1   18.64    1.68
  -8   7   1   60.05    2.61
  -7   7   1    1.29    0.58
  -6   7   1  190.66    5.86
  -5   7   1   95.36    3.26
  -4   7   1   81.58    3.77
  -3   7   1  104.56    3.60
  -2   7   1   92.49    4.54
  -1   7   1  174.42    7.23
   0   7   1    0.75    0.54
   1   7   1   51.46    3.42
   2   7   1   23.45    2.71
   3   7   1    9.10    1.83
   4   7   1   22.03    2.87
   5   7   1    9.76    2.20
   6   7   1   13.05    4.01
   7   7   1   40.90    7.22
   8   7   1    8.48    5.03
 -16   8   1    7.56    3.50
 -15   8   1    1.92    1.74
 -14   8   1    6.12    1.57
 -13   8   1    0.57    1.10
 -12   8   1   13.49    1.74
 -11   8   1   80.42    3.55
 -10   8   1   12.29    1.48
  -9   8   1   55.16    2.62
  -8   8   1   10.46    1.20
  -7   8   1   48.81    2.26
  -6   8   1   41.87    2.05
  -5   8   1   63.55    3.37
  -4   8   1   49.22    2.32
  -3   8   1   84.27    3.14
  -2   8   1   48.16    2.94
  -1   8   1   61.64    2.82
   0   8   1   11.05    1.34
   1   8   1   52.03    3.61
   2   8   1    9.37    1.90
   3   8   1   61.66    4.86
   4   8   1   12.75    2.49
   5   8   1    1.02    1.63
   6   8   1    2.00    3.37
   7   8   1    7.26    4.23
 -15   9   1   11.88    2.53
 -14   9   1    7.52    2.11
 -13   9   1    4.47    1.83
 -12   9   1   -0.22    1.13
 -11   9   1    5.71    1.56
 -10   9   1   75.00    4.33
  -9   9   1    1.20    1.02
  -8   9   1   44.21    3.22
  -7   9   1   22.94    2.28
  -6   9   1   32.40    2.65
  -5   9   1   48.62    2.40
  -4   9   1   41.54    2.19
  -3   9   1   24.94    2.44
  -2   9   1   18.23    2.10
  -1   9   1   53.06    2.77
   0   9   1    2.27    1.26
   1   9   1   74.76    4.87
   2   9   1    6.63    1.85
   3   9   1   -0.14    1.29
   4   9   1    4.51    2.00
   5   9   1    5.06    3.78
   6   9   1    6.04    4.00
 -15  10   1    8.90    2.47
 -14  10   1   14.69    2.64
 -13  10   1   23.54    3.10
 -12  10   1    6.41    1.87
 -11  10   1   33.05    3.35
 -10  10   1   17.44    2.46
  -9  10   1   74.16    4.33
  -8  10   1    8.52    1.60
  -7  10   1    9.02    1.57
  -6  10   1    7.37    1.17
  -5  10   1    4.76    0.96
  -4  10   1    6.61    1.39
  -3  10   1   12.65    1.92
  -2  10   1    8.83    1.39
  -1  10   1   75.17    4.89
   0  10   1   32.68    3.68
   1  10   1   37.34    3.99
   2  10   1    4.35    1.81
   3  10   1   32.33    4.05
   4  10   1   29.62    6.27
   5  10   1    3.61    3.95
 -15  11   1   -0.54    1.88
 -14  11   1    0.38    1.64
 -13  11   1   13.07    2.50
 -12  11   1   11.39    2.29
 -11  11   1    9.76    2.05
 -10  11   1   29.01    3.16
  -9  11   1    7.79    1.72
  -8  11   1   62.07    3.93
  -7  11   1   12.71    1.65
  -6  11   1   23.55    2.75
  -5  11   1   34.41    3.35
  -4  11   1   13.84    2.07
  -3  11   1   75.71    4.47
  -2  11   1    4.50    1.69
  -1  11   1   34.79    3.91
   0  11   1   14.19    2.64
   1  11   1   18.95    3.20
   2  11   1    8.44    2.57
   3  11   1    0.38    1.98
   4  11   1    4.74    3.86
 -15  12   1    4.14    3.24
 -14  12   1   13.22    2.64
 -13  12   1   14.12    2.49
 -12  12   1   17.20    2.75
 -11  12   1   10.89    2.14
 -10  12   1    3.38    1.37
  -9  12   1   -0.21    0.90
  -8  12   1   10.47    1.60
  -7  12   1    8.38    1.97
  -6  12   1    2.31    1.36
  -5  12   1    5.73    1.61
  -4  12   1   14.16    2.31
  -3  12   1    0.82    1.33
  -2  12   1    6.01    2.01
  -1  12   1   13.88    2.60
   0  12   1   22.47    3.50
   1  12   1   20.27    3.19
   2  12   1   23.02    3.83
 -14  13   1    4.81    2.17
 -13  13   1    1.84    1.84
 -12  13   1   17.72    2.89
 -11  13   1   10.06    2.29
 -10  13   1   23.61    2.64
  -9  13   1    7.73    2.14
  -8  13   1    1.65    1.55
  -7  13   1    9.09    2.06
  -6  13   1   12.65    2.29
  -5  13   1    2.39    1.42
  -4  13   1    4.74    1.54
  -3  13   1   28.28    3.79
  -2  13   1   11.24    2.70
  -1  13   1   22.28    3.60
   0  13   1    1.93    2.04
   1  13   1    2.78    2.49
 -13  14   1    1.76    1.63
 -12  14   1   20.40    2.71
 -11  14   1    1.83    1.69
 -10  14   1   17.37    3.19
  -9  14   1   12.18    2.56
  -8  14   1    5.98    2.00
  -7  14   1   52.27    4.91
  -6  14   1    5.62    2.02
  -5  14   1   11.27    2.43
  -4  14   1   13.05    2.90
  -3  14   1    2.63    2.04
  -2  14   1   26.16    3.78
  -1  14   1    2.34    2.23
   0  14   1    2.28    3.20
 -11  15   1    2.17    2.00
 -10  15   1    8.68    2.59
  -9  15   1    7.06    2.45
  -8  15   1    4.67    2.13
  -7  15   1    9.29    2.58
  -6  15   1   12.70    2.80
  -5  15   1   10.18    2.95
  -4  15   1    2.64    2.24
  -3  15   1   10.13    3.97
  -9  16   1   15.21    4.46
  -8  16   1    2.59    2.97
   4 -15   2    4.58    3.34
   5 -15   2    1.66    2.78
   6 -15   2   10.61    4.10
   7 -15   2    6.58    2.55
   8 -15   2    7.54    2.54
   9 -15   2   12.83    4.76
  10 -15   2    5.70    3.59
  11 -15   2    7.47    3.93
   2 -14   2    2.62    2.88
   3 -14   2    0.90    2.43
   4 -14   2   20.83    4.90
   5 -14   2   17.45    4.41
   6 -14   2    7.55    2.50
   7 -14   2    3.73    2.02
   8 -14   2    5.89    2.27
   9 -14   2   24.80    3.66
  10 -14   2   15.96    5.16
  11 -14   2    0.52    3.27
  12 -14   2    5.22    4.02
  13 -14   2    1.17    3.54
   0 -13   2   26.74    5.52
   1 -13   2    6.81    3.15
   2 -13   2   16.73    4.27
   3 -13   2   11.66    3.97
   4 -13   2    5.05    2.62
   5 -13   2   33.31    4.11
   6 -13   2    4.26    1.92
   7 -13   2    4.57    2.00
   8 -13   2   25.63    3.43
   9 -13   2    3.36    1.97
  10 -13   2    8.78    4.00
  11 -13   2   14.18    4.64
  12 -13   2    1.31    3.03
  13 -13   2   21.56    6.05
  14 -13   2    3.11    4.28
  -2 -12   2    6.26    3.37
  -1 -12   2    1.48    2.95
   0 -12   2    8.50    3.60
   1 -12   2   12.79    3.80
   2 -12   2   28.89    5.07
   3 -12   2    0.34    1.84
   4 -12   2   32.72    3.74
   5 -12   2   11.55    2.37
   6 -12   2   23.56    3.06
   7 -12   2    9.22    2.15
   8 -12   2   32.51    3.71
   9 -12   2    1.54    1.59
  10 -12   2   20.58    5.01
  11 -12   2    8.92    3.85
  12 -12   2   12.90    4.88
  13 -12   2    2.87    3.41
  14 -12   2    4.41    4.33
  -4 -11   2    6.28    3.66
  -3 -11   2    0.21    3.02
  -2 -11   2   19.12    4.57
  -1 -11   2   35.80    5.81
   0 -11   2    3.03    2.48
   1 -11   2   13.19    3.59
   2 -11   2    4.38    2.25
   3 -11   2   11.33    3.03
   4 -11   2  133.76   10.21
   5 -11   2   40.72    3.85
   6 -11   2   41.22    4.00
   7 -11   2  131.78    6.95
   8 -11   2    8.77    2.08
   9 -11   2    3.04    1.63
  10 -11   2   17.35    4.51
  11 -11   2    3.39    2.97
  12 -11   2   18.20    5.17
  13 -11   2   18.99    5.91
  14 -11   2    4.27    4.25
  15 -11   2    3.28    4.44
  -5 -10   2    3.21    3.43
  -4 -10   2   29.64    5.79
  -3 -10   2   12.00    3.72
  -2 -10   2   33.56    5.54
  -1 -10   2   12.36    3.49
   0 -10   2   20.29    4.16
   1 -10   2    8.80    2.60
   2 -10   2   36.19    4.90
   3 -10   2   19.02    2.57
   4 -10   2   82.09    4.89
   5 -10   2   -0.11    0.99
   6 -10   2   86.87    5.23
   7 -10   2   15.10    2.33
   8 -10   2   37.38    3.68
   9 -10   2   12.81    2.39
  10 -10   2   21.62    4.93
  11 -10   2    9.76    4.21
  12 -10   2   28.39    6.36
  13 -10   2    6.26    4.37
  14 -10   2   33.06    7.13
  15 -10   2   -0.25    3.51
  -6  -9   2   13.08    4.28
  -5  -9   2   34.95    5.89
  -4  -9   2    6.66    3.14
  -3  -9   2    1.25    2.13
  -2  -9   2    5.42    2.46
  -1  -9   2   13.69    3.29
   0  -9   2    2.43    1.80
   1  -9   2   70.55    6.06
   2  -9   2   21.47    3.56
   3  -9   2   42.47    3.48
   4  -9   2   29.03    2.99
   5  -9   2   23.67    2.71
   6  -9   2   46.86    3.28
   7  -9   2   16.49    2.31
   8  -9   2   69.11    4.69
   9  -9   2    4.75    1.69
  10  -9   2   14.12    2.49
  11  -9   2    3.01    2.74
  12  -9   2   -0.24    2.91
  13  -9   2    2.92    3.51
  14  -9   2   20.90    5.78
  15  -9   2   16.24    5.98
  -6  -8   2    6.46    3.34
  -5  -8   2   31.22    5.46
  -4  -8   2   24.61    4.70
  -3  -8   2    7.35    2.66
  -2  -8   2   50.17    5.95
  -1  -8   2   79.95    6.45
   0  -8   2  170.62   11.10
   1  -8   2   15.44    2.93
   2  -8   2   40.78    3.45
   3  -8   2   44.38    3.23
   4  -8   2    4.25    1.24
   5  -8   2   39.69    3.06
   6  -8   2   34.21    3.13
   7  -8   2   13.99    2.10
   8  -8   2  174.11    8.28
   9  -8   2   78.84    3.69
  10  -8   2   51.14    4.22
  11  -8   2    5.34    3.70
  12  -8   2   28.93    6.25
  13  -8   2   20.80    5.80
  14  -8   2   10.17    4.84
  15  -8   2    7.69    4.58
  -7  -7   2    4.08    3.09
  -6  -7   2    7.23    2.96
  -5  -7   2    8.52    2.93
  -4  -7   2  129.80    9.32
  -3  -7   2   17.68    3.47
  -2  -7   2   19.99    3.36
  -1  -7   2    9.71    2.44
   0  -7   2   17.63    3.02
   1  -7   2   30.40    3.80
   2  -7   2   37.42    2.85
   3  -7   2  148.17    6.54
   4  -7   2  155.23    7.21
   5  -7   2   34.50    2.73
   6  -7   2   30.54    2.85
   7  -7   2   17.15    2.24
   8  -7   2   12.84    1.63
   9  -7   2   21.96    2.09
  10  -7   2   19.76    2.74
  11  -7   2  121.76   11.15
  12  -7   2    8.77    4.32
  13  -7   2    4.88    4.12
  14  -7   2    3.97    4.28
  15  -7   2    9.35    4.97
  -7  -6   2    3.48    2.77
  -6  -6   2   27.03    2.94
  -5  -6   2   49.73    3.82
  -4  -6   2   91.60    4.64
  -3  -6   2   39.85    2.72
  -2  -6   2   33.10    2.33
  -1  -6   2   27.76    1.96
   0  -6   2    9.07    2.09
   1  -6   2  129.98    8.36
   2  -6   2   71.39    3.65
   3  -6   2   28.26    2.32
   4  -6   2   71.68    3.89
   5  -6   2  136.36    6.22
   6  -6   2   10.41    1.70
   7  -6   2   29.50    2.10
   8  -6   2   37.13    2.52
   9  -6   2   41.60    2.79
  10  -6   2  115.27    9.45
  11  -6   2   51.38    7.74
  12  -6   2   18.89    5.26
  13  -6   2    4.74    3.66
  14  -6   2    2.73    3.90
  15  -6   2   22.49    6.42
 -10  -5   2    3.98    2.67
  -9  -5   2   17.31    3.74
  -8  -5   2   36.65    4.95
  -7  -5   2    9.67    1.81
  -6  -5   2   33.33    3.13
  -5  -5   2   -0.25    0.80
  -4  -5   2   25.12    2.36
  -3  -5   2   35.55    2.34
  -2  -5   2   37.19    2.29
  -1  -5   2  136.63    5.37
   0  -5   2   97.83    3.90
   1  -5   2   24.89    2.12
   2  -5   2  114.58    5.34
   3  -5   2  118.99    5.57
   4  -5   2   23.38    1.94
   5  -5   2   87.39    4.62
   6  -5   2  132.61    5.01
   7  -5   2   33.79    2.26
   8  -5   2   36.83    2.51
   9  -5   2   29.37    3.07
  10  -5   2   -0.02    1.37
  11  -5   2   36.49    6.57
  12  -5   2    4.63    3.60
  13  -5   2   42.71    7.57
  14  -5   2   19.26    5.92
  15  -5   2   -0.35    4.44
 -11  -4   2   11.93    3.55
 -10  -4   2   24.66    4.33
  -9  -4   2    5.15    2.46
  -8  -4   2   23.83    3.93
  -7  -4   2  125.93    6.04
  -6  -4   2   77.68    4.21
  -5  -4   2   35.11    2.83
  -4  -4   2    4.50    1.06
  -3  -4   2  162.93    6.48
  -2  -4   2   76.78    3.44
  -1  -4   2   17.70    1.38
   0  -4   2   47.67    2.20
   1  -4   2   64.25    2.77
   2  -4   2  166.11    9.93
   3  -4   2   65.60    4.69
   4  -4   2   43.52    3.89
   5  -4   2   20.80    3.27
   6  -4   2   75.09    3.06
   7  -4   2  164.11    5.50
   8  -4   2    5.78    1.11
   9  -4   2   28.69    3.21
  10  -4   2   88.57    5.76
  11  -4   2  127.78   11.61
  12  -4   2   29.86    6.29
  13  -4   2    2.75    3.95
  14  -4   2   23.35    6.03
  15  -4   2   13.18    5.70
 -11  -3   2    1.69    2.41
 -10  -3   2   11.42    2.98
  -9  -3   2    2.66    1.95
  -8  -3   2    7.68    2.27
  -7  -3   2   16.33    2.17
  -6  -3   2   42.30    2.85
  -5  -3   2   45.27    2.67
  -4  -3   2  137.39    5.81
  -3  -3   2   32.12    1.91
  -2  -3   2  125.03    5.00
  -1  -3   2   66.06    2.82
   0  -3   2   31.45    1.60
   1  -3   2  148.05    8.85
   2  -3   2  174.39   10.12
   3  -3   2   29.45    3.45
   4  -3   2   70.59    5.02
   5  -3   2  127.22    4.51
   6  -3   2   31.68    1.92
   7  -3   2  140.25   10.27
   8  -3   2   49.43    3.77
   9  -3   2   42.40    3.92
  10  -3   2   16.12    2.62
  11  -3   2    9.94    4.06
  12  -3   2    2.72    3.53
  13  -3   2   16.80    5.17
  14  -3   2    1.27    4.18
 -12  -2   2    4.73    2.85
 -11  -2   2   24.59    4.30
 -10  -2   2   16.19    3.44
  -9  -2   2    8.78    2.66
  -8  -2   2   36.65    4.42
  -7  -2   2   26.13    3.71
  -6  -2   2   36.89    1.89
  -5  -2   2   33.85    1.69
  -4  -2   2   65.41    2.46
  -3  -2   2  116.39    4.86
  -2  -2   2  168.41    6.45
  -1  -2   2  182.43    6.56
   0  -2   2  327.27   16.94
   1  -2   2   71.50    4.65
   2  -2   2  336.85   17.36
   3  -2   2  191.13    9.69
   4  -2   2  166.01    7.53
   5  -2   2  112.25    6.01
   6  -2   2   71.24    3.15
   7  -2   2   35.59    2.22
   8  -2   2   36.16    3.65
   9  -2   2   24.95    3.03
  10  -2   2   38.66    5.24
  11  -2   2    6.34    3.54
  12  -2   2   25.21    5.81
  13  -2   2   21.68    5.75
  14  -2   2    5.06    4.30
 -13  -1   2    2.87    2.53
 -12  -1   2    6.69    2.76
 -11  -1   2   11.67    3.04
 -10  -1   2   15.81    3.33
  -9  -1   2    3.66    1.80
  -8  -1   2   66.56    3.52
  -7  -1   2   12.18    1.54
  -6  -1   2   30.37    2.08
  -5  -1   2  132.16    5.13
  -4  -1   2   23.28    1.58
  -3  -1   2   60.75    2.83
  -2  -1   2  155.56    8.50
  -1  -1   2   70.49    2.87
   0  -1   2  244.67   13.09
   1  -1   2  238.26   13.32
   2  -1   2   70.77    5.07
   3  -1   2  152.27   10.44
   4  -1   2   62.39    3.63
   5  -1   2   22.44    2.42
   6  -1   2  131.55    6.62
   7  -1   2   32.72    3.27
   8  -1   2   12.40    2.17
   9  -1   2   79.12    6.76
  10  -1   2   12.04    2.41
  11  -1   2   15.64    5.04
  12  -1   2   21.39    5.59
  13  -1   2    6.04    4.38
  14  -1   2   -1.29    3.99
 -13   0   2   18.22    3.98
 -12   0   2    6.97    2.80
 -11   0   2    3.71    2.00
 -10   0   2   24.14    3.98
  -9   0   2    5.47    1.35
  -8   0   2  169.01    6.92
  -7   0   2   18.72    1.88
  -6   0   2   10.54    1.32
  -5   0   2   97.06    3.92
  -4   0   2   40.92    2.15
  -3   0   2   26.13    2.24
  -2   0   2  317.48   15.38
  -1   0   2  227.42   12.81
   0   0   2  423.48   22.05
   1   0   2  238.21   13.54
   2   0   2  302.83   17.52
   3   0   2   30.58    2.37
   4   0   2   46.63    3.00
   5   0   2   98.29    5.08
   6   0   2   12.94    1.45
   7   0   2   20.14    2.70
   8   0   2  174.75    8.72
   9   0   2    4.45    1.84
  10   0   2   19.82    3.16
  11   0   2    4.32    4.04
  12   0   2    8.48    4.56
  13   0   2   16.14    5.80
 -13   1   2    7.06    2.90
 -12   1   2   23.38    4.31
 -11   1   2   11.63    1.99
 -10   1   2   14.93    2.03
  -9   1   2   80.28    4.05
  -8   1   2   10.55    1.64
  -7   1   2   28.59    2.34
  -6   1   2  128.70    5.24
  -5   1   2   16.58    1.50
  -4   1   2   62.91    2.78
  -3   1   2  179.85    9.06
  -2   1   2   70.09    3.97
  -1   1   2  253.97   13.17
   0   1   2  249.30   13.38
   3   1   2   70.83    5.02
   4   1   2   29.96    3.98
   5   1   2  129.69    6.02
   6   1   2   27.81    2.41
   7   1   2   10.68    3.37
   8   1   2   65.72    7.24
   9   1   2   12.70    2.68
  10   1   2   10.19    2.60
  11   1   2   19.26    5.50
  12   1   2    7.86    5.02
  13   1   2   -4.71    4.57
 -14   2   2    6.03    2.83
 -13   2   2   10.23    3.19
 -12   2   2   30.04    3.19
 -11   2   2    5.51    1.45
 -10   2   2   51.22    3.68
  -9   2   2   19.35    2.08
  -8   2   2   32.74    2.63
  -7   2   2   33.71    2.30
  -6   2   2   75.91    3.43
  -5   2   2  122.29    4.90
  -4   2   2  169.91    6.25
  -3   2   2  142.81    7.92
   1   2   2  177.25    7.06
   2   2   2  171.36    6.99
   3   2   2  117.05    5.25
   4   2   2   67.47    3.52
   5   2   2   40.20    2.76
   6   2   2   41.79    5.72
   7   2   2   18.89    4.25
   8   2   2   32.72    6.04
   9   2   2    9.31    4.20
  10   2   2   33.02    4.40
  11   2   2   20.59    5.76
  12   2   2    6.94    5.20
 -14   3   2    3.91    2.76
 -13   3   2   11.85    2.26
 -12   3   2    0.58    1.21
 -11   3   2    5.11    1.48
 -10   3   2   15.46    2.01
  -9   3   2   32.51    2.80
  -8   3   2   32.93    2.63
  -7   3   2  158.12    6.27
  -6   3   2   28.34    1.85
  -5   3   2  117.50    4.74
  -4   3   2   66.01    2.84
  -3   3   2   28.98    2.21
   1   3   2   64.15    3.08
   2   3   2  120.79    5.47
   3   3   2   30.59    2.05
   4   3   2  137.68    6.39
   5   3   2   47.02    3.19
   6   3   2   58.57    6.97
   7   3   2   17.11    4.31
   8   3   2    9.17    3.57
   9   3   2   -1.37    2.98
  10   3   2   11.85    4.99
  11   3   2   -0.69    4.11
 -15   4   2    7.10    3.08
 -14   4   2   33.19    3.69
 -13   4   2    4.81    1.72
 -12   4   2   30.92    3.18
 -11   4   2  124.71    5.96
 -10   4   2   98.14    4.74
  -9   4   2   20.76    2.22
  -8   4   2    5.66    1.14
  -7   4   2  127.91    5.62
  -6   4   2   59.85    3.08
  -5   4   2   22.86    1.69
  -4   4   2   47.42    2.24
  -3   4   2   63.76    3.81
   0   4   2   47.39    2.56
   1   4   2   20.46    1.68
   2   4   2   70.92    3.77
   3   4   2  159.12    7.13
   4   4   2    6.94    1.38
   5   4   2   32.84    3.08
   6   4   2   75.57    7.60
   7   4   2  116.28   10.53
   8   4   2   34.20    6.19
   9   4   2    5.06    4.27
  10   4   2   31.22    7.48
  11   4   2   -3.10    3.92
 -15   5   2    2.98    1.82
 -14   5   2   27.53    3.29
 -13   5   2   30.55    3.26
 -12   5   2    7.58    1.37
 -11   5   2   45.68    3.61
 -10   5   2    0.15    0.88
  -9   5   2   28.71    2.55
  -8   5   2   40.52    2.70
  -7   5   2   37.61    2.29
  -6   5   2  128.78    5.26
  -5   5   2   89.09    3.84
  -4   5   2   18.46    1.48
  -3   5   2  126.54    4.76
   0   5   2   91.43    3.43
   1   5   2  125.54    6.01
   2   5   2   34.03    2.59
   3   5   2   34.59    2.77
   4   5   2   25.22    2.66
   5   5   2    0.77    1.89
   6   5   2   39.06    6.24
   7   5   2   13.21    4.34
   8   5   2   39.50    7.11
   9   5   2   22.57    6.01
  10   5   2    6.31    4.83
 -15   6   2   14.22    2.83
 -14   6   2    7.65    2.09
 -13   6   2    6.06    1.48
 -12   6   2   23.86    2.28
 -11   6   2   31.59    3.04
 -10   6   2   79.65    5.97
  -9   6   2   42.25    2.99
  -8   6   2   35.21    2.51
  -7   6   2   28.98    2.30
  -6   6   2   11.17    1.40
  -5   6   2  135.01    5.18
  -4   6   2   79.37    3.25
  -3   6   2   28.53    1.82
  -2   6   2   65.18    3.03
  -1   6   2  126.52    5.55
   0   6   2   11.26    1.14
   1   6   2   35.08    2.99
   2   6   2   36.43    2.87
   3   6   2   39.55    3.20
   4   6   2   92.42    5.31
   5   6   2   55.83    7.42
   6   6   2   16.76    4.88
   7   6   2    6.13    3.41
   8   6   2    6.64    4.32
   9   6   2   14.06    5.27
 -15   7   2    4.37    2.05
 -14   7   2    1.05    1.27
 -13   7   2    4.20    1.33
 -12   7   2   10.38    1.64
 -11   7   2  127.27    4.94
 -10   7   2   21.39    1.94
  -9   7   2   26.40    2.04
  -8   7   2   13.68    1.43
  -7   7   2   17.68    1.51
  -6   7   2   28.63    1.78
  -5   7   2   35.67    1.81
  -4   7   2  171.24    5.07
  -3   7   2  129.28    5.55
  -2   7   2   35.03    1.75
  -1   7   2   31.83    2.20
   0   7   2   14.96    1.45
   1   7   2   15.52    2.06
   2   7   2   21.26    2.54
   3   7   2   17.23    2.45
   4   7   2  128.54   10.51
   5   7   2    7.49    3.41
   6   7   2    3.50    3.27
   7   7   2    2.92    3.28
   8   7   2    4.16    4.74
 -15   8   2   10.36    2.37
 -14   8   2    6.16    1.69
 -13   8   2   39.29    3.05
 -12   8   2   27.76    2.45
 -11   8   2   11.29    1.61
 -10   8   2   32.38    2.39
  -9   8   2   63.09    3.04
  -8   8   2  169.04    5.81
  -7   8   2   12.16    1.30
  -6   8   2   34.74    2.03
  -5   8   2   34.89    1.87
  -4   8   2    5.98    0.77
  -3   8   2   44.08    2.11
  -2   8   2   41.02    2.02
  -1   8   2   11.96    1.37
   0   8   2  168.09    8.12
   1   8   2   75.98    4.66
   2   8   2   48.73    4.24
   3   8   2   11.02    2.22
   4   8   2   32.26    5.98
   5   8   2   27.63    5.83
   6   8   2   11.46    4.22
   7   8   2    7.61    4.41
 -15   9   2   10.96    2.47
 -14   9   2   19.47    2.38
 -13   9   2    7.51    1.57
 -12   9   2   -0.06    1.00
 -11   9   2    7.20    1.42
 -10   9   2    9.18    1.83
  -9   9   2    2.21    1.20
  -8   9   2   76.15    4.28
  -7   9   2   17.84    2.16
  -6   9   2   37.81    3.09
  -5   9   2   24.73    2.37
  -4   9   2   29.25    2.14
  -3   9   2   45.09    2.99
  -2   9   2   24.64    2.44
  -1   9   2   72.53    4.41
   0   9   2    2.10    1.20
   1   9   2   17.60    2.74
   2   9   2    2.64    1.65
   3   9   2    1.24    2.34
   4   9   2    6.83    3.61
   5   9   2   27.36    6.19
   6   9   2   22.72    6.10
 -15  10   2    4.89    2.05
 -14  10   2   21.41    3.13
 -13  10   2   10.17    2.40
 -12  10   2   37.51    3.62
 -11  10   2   17.82    2.49
 -10  10   2   24.92    2.81
  -9  10   2   10.79    1.92
  -8  10   2   42.43    3.46
  -7  10   2   14.66    2.05
  -6  10   2  105.42    4.84
  -5  10   2    1.39    0.79
  -4  10   2   78.20    4.50
  -3  10   2   18.23    2.24
  -2  10   2   34.75    2.68
  -1  10   2   13.19    2.27
   0  10   2   29.89    3.49
   1  10   2   11.69    2.42
   2  10   2   35.59    4.14
   3  10   2    8.49    3.84
   4  10   2   39.97    7.50
   5  10   2    4.01    3.82
 -15  11   2   11.09    4.14
 -14  11   2    1.33    1.82
 -13  11   2   19.12    2.84
 -12  11   2   14.43    2.51
 -11  11   2    0.82    1.31
 -10  11   2   14.08    2.37
  -9  11   2    3.07    1.43
  -8  11   2    9.29    1.84
  -7  11   2  128.86    6.08
  -6  11   2   51.54    4.38
  -5  11   2   36.67    3.56
  -4  11   2  124.78    6.36
  -3  11   2   10.16    1.82
  -2  11   2    5.63    1.80
  -1  11   2   14.00    2.62
   0  11   2    4.95    2.15
   1  11   2   28.06    3.86
   2  11   2   11.48    4.39
   3  11   2    7.05    3.71
 -14  12   2    4.69    2.00
 -13  12   2    2.26    1.86
 -12  12   2    8.68    2.27
 -11  12   2   18.93    4.24
 -10  12   2   28.66    3.11
  -9  12   2   -0.82    1.11
  -8  12   2   28.13    3.08
  -7  12   2    6.19    1.88
  -6  12   2   24.09    2.96
  -5  12   2    6.70    1.81
  -4  12   2   27.98    3.18
  -3  12   2    1.43    1.42
  -2  12   2   42.76    4.52
  -1  12   2   29.50    3.76
   0  12   2    7.44    2.48
   1  12   2    7.86    2.59
   2  12   2    9.70    4.54
 -14  13   2    2.83    3.00
 -13  13   2   15.20    2.83
 -12  13   2    6.96    2.19
 -11  13   2   15.16    2.74
 -10  13   2    6.67    2.03
  -9  13   2    1.92    1.62
  -8  13   2   28.57    3.67
  -7  13   2    4.11    1.71
  -6  13   2    7.32    1.92
  -5  13   2   41.65    4.06
  -4  13   2    6.06    2.22
  -3  13   2   13.65    2.92
  -2  13   2   23.43    3.68
  -1  13   2    4.57    2.30
   0  13   2   22.31    3.82
 -13  14   2   -0.51    2.52
 -12  14   2    7.36    2.33
 -11  14   2    4.26    2.18
 -10  14   2   40.02    4.53
  -9  14   2   30.18    3.95
  -8  14   2   11.53    2.66
  -7  14   2    2.45    1.72
  -6  14   2    5.98    2.09
  -5  14   2   20.41    4.66
  -4  14   2   23.51    3.60
  -3  14   2    5.58    2.38
  -2  14   2    6.61    2.74
  -1  14   2    1.73    2.88
 -11  15   2   -0.26    2.68
 -10  15   2    3.49    2.21
  -9  15   2   16.04    3.22
  -8  15   2    4.74    2.21
  -7  15   2    9.36    2.71
  -6  15   2   10.29    3.90
  -5  15   2    4.07    2.39
  -4  15   2    4.33    3.46
  -3  15   2    8.69    4.53
   6 -15   3    1.72    2.60
   7 -15   3    2.00    2.96
   8 -15   3    5.14    3.76
   9 -15   3    5.47    3.52
   3 -14   3   -2.35    2.15
   4 -14   3    9.19    3.49
   5 -14   3    2.81    2.85
   6 -14   3    8.24    3.56
   7 -14   3   23.44    5.47
   8 -14   3    7.17    3.25
   9 -14   3    5.58    3.36
   0 -13   3    0.94    2.91
   1 -13   3   16.72    4.63
   2 -13   3    8.35    3.87
   3 -13   3   26.66    5.22
   4 -13   3    5.61    2.97
   5 -13   3   -0.03    2.10
   6 -13   3   19.51    2.85
   7 -13   3   14.74    2.87
   8 -13   3   -0.16    1.71
   9 -13   3    3.31    2.08
  10 -13   3   24.39    4.92
  -2 -12   3   15.76    4.86
  -1 -12   3   16.72    4.69
   0 -12   3   16.70    4.56
   1 -12   3   26.58    5.26
   2 -12   3    8.33    3.08
   3 -12   3    0.25    1.99
   4 -12   3    5.24    2.48
   5 -12   3   10.40    2.35
   6 -12   3    2.60    1.64
   7 -12   3    7.10    2.13
   8 -12   3    9.76    2.34
   9 -12   3   -0.55    1.63
  10 -12   3    4.80    2.14
  11 -12   3   16.83    4.75
  12 -12   3    8.64    4.32
  -3 -11   3    0.97    2.60
  -2 -11   3    8.02    3.62
  -1 -11   3   20.23    4.65
   0 -11   3   14.67    3.96
   1 -11   3   14.91    3.88
   2 -11   3   17.45    3.98
   3 -11   3   35.93    5.57
   4 -11   3   13.15    2.27
   5 -11   3   12.28    2.23
   6 -11   3   15.79    2.54
   7 -11   3   10.78    2.26
   8 -11   3   41.30    4.10
   9 -11   3   14.12    2.64
  10 -11   3   13.91    2.64
  11 -11   3   14.85    4.37
  12 -11   3   24.29    5.88
  13 -11   3   10.56    4.68
  -4 -10   3   11.60    3.89
  -3 -10   3   25.17    5.09
  -2 -10   3   11.02    3.48
  -1 -10   3   24.25    4.63
   0 -10   3   25.35    4.61
   1 -10   3   65.52    6.22
   2 -10   3   14.84    3.36
   3 -10   3    9.28    2.80
   4 -10   3   12.18    2.17
   5 -10   3    2.55    1.31
   6 -10   3   13.20    2.22
   7 -10   3   14.51    2.39
   8 -10   3   17.61    2.71
   9 -10   3   56.60    4.84
  10 -10   3   15.96    2.80
  11 -10   3   14.28    4.28
  12 -10   3    6.75    3.82
  13 -10   3   12.71    4.73
  14 -10   3    8.60    4.65
  -5  -9   3   11.35    4.07
  -4  -9   3    4.94    3.09
  -3  -9   3   -0.32    2.04
  -2  -9   3   19.17    4.12
  -1  -9   3   62.47    6.05
   0  -9   3    3.22    1.93
   1  -9   3   36.16    4.97
   2  -9   3    6.53    2.35
   3  -9   3   33.98    3.25
   4  -9   3   58.78    3.79
   5  -9   3   58.31    4.04
   6  -9   3   33.72    3.40
   7  -9   3   10.88    2.07
   8  -9   3   37.08    3.72
   9  -9   3    3.89    1.76
  10  -9   3   63.45    5.03
  11  -9   3   13.47    4.20
  12  -9   3    0.22    2.77
  13  -9   3    1.66    3.40
  14  -9   3   11.47    4.88
  15  -9   3    1.46    3.72
  -6  -8   3    9.66    3.57
  -5  -8   3    2.76    2.43
  -4  -8   3   10.18    3.31
  -3  -8   3   56.14    6.50
  -2  -8   3   24.89    4.21
  -1  -8   3   35.28    4.86
   0  -8   3    0.11    1.52
   1  -8   3   44.25    5.43
   2  -8   3   37.17    4.70
   3  -8   3   94.54    4.97
   4  -8   3    9.80    1.69
   5  -8   3   89.35    4.81
   6  -8   3   40.53    3.17
   7  -8   3   46.52    3.74
   8  -8   3    2.07    1.36
   9  -8   3   31.41    3.68
  10  -8   3   14.11    2.73
  11  -8   3   39.22    7.04
  12  -8   3    2.39    3.31
  13  -8   3    2.56    3.78
  14  -8   3    3.09    4.02
  15  -8   3    3.21    4.03
  -6  -7   3   24.30    4.67
  -5  -7   3   12.81    3.41
  -4  -7   3   10.48    3.16
  -3  -7   3   13.08    3.10
  -2  -7   3    9.63    2.76
  -1  -7   3   49.94    4.76
   0  -7   3   14.54    2.85
   1  -7   3  146.99    9.28
   2  -7   3   63.23    3.60
   3  -7   3   67.48    5.80
   4  -7   3   61.60    5.57
   5  -7   3   48.69    5.06
   6  -7   3  140.81    6.98
   7  -7   3    8.45    1.81
   8  -7   3   42.75    4.12
   9  -7   3   11.36    2.33
  10  -7   3   11.54    2.54
  11  -7   3   15.08    4.50
  12  -7   3   15.61    4.83
  13  -7   3   23.31    6.07
  14  -7   3   20.14    6.06
  15  -7   3    0.11    4.21
  -6  -6   3    3.03    2.24
  -5  -6   3   16.58    2.22
  -4  -6   3   13.07    1.96
  -3  -6   3   43.91    2.91
  -2  -6   3   33.02    2.42
  -1  -6   3  144.25    5.95
   0  -6   3   35.62    2.30
   1  -6   3   41.26    4.06
   2  -6   3   49.37    4.58
   3  -6   3   48.54    4.41
   4  -6   3   54.37    5.01
   5  -6   3   43.14    4.94
   6  -6   3   41.25    5.07
   7  -6   3  157.26    7.15
   8  -6   3   31.81    3.62
   9  -6   3   46.69    4.15
  10  -6   3   17.36    2.81
  11  -6   3   17.79    4.67
  12  -6   3    5.99    3.50
  13  -6   3   20.81    5.38
  14  -6   3    5.86    4.22
  15  -6   3   12.87    5.19
  -9  -5   3   11.47    3.47
  -8  -5   3    2.02    2.02
  -7  -5   3    6.16    2.15
  -6  -5   3   19.28    2.44
  -5  -5   3    3.49    1.20
  -4  -5   3   60.39    3.54
  -3  -5   3   82.02    4.06
  -2  -5   3   56.71    3.00
  -1  -5   3   39.59    2.27
   0  -5   3  111.11    4.57
   1  -5   3   80.23    3.58
   2  -5   3   71.17    5.42
   3  -5   3   62.09    5.01
   4  -5   3   89.44    6.85
   5  -5   3  103.14    7.73
   6  -5   3   44.50    5.46
   7  -5   3   52.85    4.13
   8  -5   3   78.67    5.22
   9  -5   3   62.62    4.33
  10  -5   3    4.10    1.76
  11  -5   3   17.50    4.63
  12  -5   3    6.53    4.01
  13  -5   3   -0.21    3.54
  14  -5   3    8.81    5.26
  15  -5   3   14.51    5.54
 -10  -4   3   10.01    3.41
  -9  -4   3    6.48    2.55
  -8  -4   3   10.21    2.79
  -7  -4   3   10.85    2.83
  -6  -4   3   10.49    1.67
  -5  -4   3   48.36    3.14
  -4  -4   3   10.70    1.47
  -3  -4   3   64.16    3.39
  -2  -4   3   57.99    2.95
  -1  -4   3   94.99    4.08
   0  -4   3  117.66    4.91
   1  -4   3   98.35    6.53
   2  -4   3    3.47    1.39
   3  -4   3   95.75    6.37
   4  -4   3  117.43    8.38
   5  -4   3   93.00    6.72
   6  -4   3   69.18    5.63
   7  -4   3   61.78    4.42
   8  -4   3    7.27    2.04
   9  -4   3   60.57    4.75
  10  -4   3   12.18    2.46
  11  -4   3   14.35    2.83
  12  -4   3    9.42    4.29
  13  -4   3    9.16    4.58
  14  -4   3    9.41    4.83
 -11  -3   3    2.06    2.64
 -10  -3   3   20.38    3.95
  -9  -3   3   -0.83    1.54
  -8  -3   3   60.97    6.14
  -7  -3   3    9.69    2.53
  -6  -3   3   27.03    2.55
  -5  -3   3   90.09    3.31
  -4  -3   3   72.99    3.59
  -3  -3   3   45.94    2.60
  -2  -3   3   59.20    2.92
  -1  -3   3   83.62    3.68
   0  -3   3  243.02    8.80
   1  -3   3   99.79    6.51
   2  -3   3  114.32    7.24
   3  -3   3  245.83   13.95
   4  -3   3   88.15    6.91
   5  -3   3   54.12    5.55
   6  -3   3   47.24    5.57
   7  -3   3   72.47    4.55
   8  -3   3   96.13    5.51
   9  -3   3   27.00    3.45
  10  -3   3    8.92    2.39
  11  -3   3   48.53    4.60
  12  -3   3   -2.39    2.69
  13  -3   3   29.05    6.40
  14  -3   3    3.21    4.84
 -12  -2   3   21.48    4.50
 -11  -2   3   11.26    3.25
 -10  -2   3   11.15    2.99
  -9  -2   3    6.77    2.38
  -8  -2   3   12.93    2.82
  -7  -2   3    6.48    2.04
  -6  -2   3   42.88    2.62
  -5  -2   3   57.98    2.40
  -4  -2   3   52.97    2.82
  -3  -2   3   68.61    3.30
  -2  -2   3    4.30    0.85
  -1  -2   3  103.95    4.31
   0  -2   3  172.12   10.63
   1  -2   3   11.82    2.24
   2  -2   3  177.70   11.16
   3  -2   3  104.42    7.10
   4  -2   3    2.38    1.73
   5  -2   3   67.15    5.63
   6  -2   3   52.02    3.83
   7  -2   3   52.20    4.20
   8  -2   3   39.01    3.80
   9  -2   3    8.78    2.13
  10  -2   3   15.06    2.93
  11  -2   3   16.77    3.02
  12  -2   3    9.92    4.49
  13  -2   3    6.03    4.48
  14  -2   3   12.73    5.61
 -12  -1   3   16.03    3.85
 -11  -1   3   11.83    3.17
 -10  -1   3   15.63    3.36
  -9  -1   3   52.45    5.96
  -8  -1   3   43.03    3.28
  -7  -1   3   52.27    3.00
  -6  -1   3  141.02    5.60
  -5  -1   3   40.86    2.33
  -4  -1   3   80.80    3.65
  -3  -1   3   95.76    4.08
  -2  -1   3   95.57    4.07
  -1  -1   3    9.54    1.12
   0  -1   3   22.70    2.81
   1  -1   3   25.41    3.28
   2  -1   3   12.72    2.59
   3  -1   3   96.97    7.36
   4  -1   3   83.10    6.56
   5  -1   3   89.86    7.13
   6  -1   3   40.77    3.69
   7  -1   3  139.17   10.16
   8  -1   3   44.96    4.38
   9  -1   3   28.41    3.64
  10  -1   3   59.50    5.27
  11  -1   3   17.04    3.11
  12  -1   3   15.52    4.77
  13  -1   3   11.55    5.49
 -13   0   3    0.73    1.98
 -12   0   3   11.28    3.29
 -11   0   3   10.14    3.09
 -10   0   3   17.83    3.70
  -9   0   3    4.02    1.26
  -8   0   3    1.04    0.96
  -7   0   3    9.00    1.42
  -6   0   3   38.72    2.54
  -5   0   3  104.04    4.46
  -4   0   3  115.51    6.88
  -3   0   3  249.61   12.09
  -2   0   3  171.65    7.03
  -1   0   3   23.95    2.84
   0   0   3    1.38    1.14
   1   0   3   26.87    3.64
   2   0   3  171.67   11.34
   3   0   3  238.96   14.15
   4   0   3  118.80    8.45
   5   0   3  104.67    5.71
   6   0   3   38.54    3.69
   7   0   3    6.81    1.96
   8   0   3    2.64    1.74
   9   0   3    2.90    1.84
  10   0   3   16.39    3.14
  11   0   3   11.07    2.87
  12   0   3    7.64    4.72
  13   0   3    1.12    4.00
 -13   1   3    5.11    2.61
 -12   1   3   18.19    3.90
 -11   1   3   20.83    2.56
 -10   1   3   49.96    3.58
  -9   1   3   28.79    2.80
  -8   1   3   37.40    2.83
  -7   1   3  143.41    5.94
  -6   1   3   35.99    2.28
  -5   1   3   96.15    5.86
  -4   1   3   75.04    5.09
  -3   1   3  101.31    5.95
  -2   1   3    9.18    1.11
  -1   1   3   22.53    2.96
   0   1   3   31.41    3.76
   1   1   3    7.73    1.97
   2   1   3   94.89    6.92
   3   1   3   99.21    7.20
   4   1   3   77.00    4.46
   5   1   3   42.53    3.75
   6   1   3  130.01    7.05
   7   1   3   53.09    4.61
   8   1   3   35.38    3.86
   9   1   3   48.51    4.94
  10   1   3   16.72    3.19
  11   1   3   16.56    3.45
  12   1   3   12.69    5.23
 -13   2   3    4.95    2.39
 -12   2   3    6.28    1.73
 -11   2   3   17.02    2.45
 -10   2   3   14.42    2.12
  -9   2   3   10.74    1.76
  -8   2   3   26.56    2.41
  -7   2   3   53.50    3.00
  -6   2   3   57.01    2.96
  -4   2   3    4.02    1.18
  -3   2   3   93.44    5.63
  -2   2   3  183.69   10.67
  -1   2   3    9.10    2.07
   0   2   3  188.50   11.23
   1   2   3  110.40    7.38
   3   2   3   69.24    5.42
   4   2   3   49.22    4.84
   5   2   3   57.35    5.55
   6   2   3   47.26    6.01
   7   2   3   10.95    2.28
   8   2   3   19.05    3.17
   9   2   3   12.11    2.77
  10   2   3    4.82    2.63
  11   2   3    2.99    4.23
  12   2   3    9.10    5.33
 -14   3   3    1.71    2.34
 -13   3   3   17.28    2.62
 -12   3   3    1.17    1.30
 -11   3   3   33.33    3.29
 -10   3   3   16.26    2.18
  -9   3   3   35.09    3.05
  -8   3   3   82.53    4.09
  -7   3   3   64.25    3.39
  -6   3   3   50.58    2.69
  -5   3   3   70.66    3.31
  -4   3   3   97.55    5.76
  -3   3   3  246.44   12.01
  -2   3   3  105.33    6.73
   1   3   3   84.36    3.85
   2   3   3   56.45    2.94
   3   3   3   46.82    2.66
   4   3   3   73.22    6.24
   5   3   3   86.91    7.60
   6   3   3   28.19    4.92
   7   3   3   13.86    3.88
   8   3   3   55.98    7.51
   9   3   3   -0.56    2.20
  10   3   3   16.79    5.52
  11   3   3    3.42    4.41
 -14   4   3   15.05    2.65
 -13   4   3    2.32    1.52
 -12   4   3    8.47    1.93
 -11   4   3   13.19    2.13
 -10   4   3   12.28    1.95
  -9   4   3   62.55    3.60
  -8   4   3    6.82    1.38
  -7   4   3   71.58    3.58
  -6   4   3   49.30    2.78
  -5   4   3   78.78    3.64
  -4   4   3  107.73    6.67
  -3   4   3   83.41    5.07
   0   4   3  116.72    7.87
   1   4   3   96.64    4.43
   2   4   3   53.47    3.12
   3   4   3   68.57    3.64
   4   4   3   10.93    2.94
   5   4   3   56.93    5.99
   6   4   3   10.79    3.57
   7   4   3   12.33    4.07
   8   4   3   13.77    4.56
   9   4   3   16.56    5.55
  10   4   3   11.48    3.26
 -15   5   3    8.01    3.49
 -14   5   3    5.91    2.05
 -13   5   3   -0.86    1.17
 -12   5   3   12.11    2.07
 -11   5   3   12.42    1.97
 -10   5   3    3.77    1.28
  -9   5   3   53.82    3.29
  -8   5   3   88.95    4.31
  -7   5   3   58.67    3.13
  -6   5   3   41.29    2.47
  -5   5   3  108.14    4.52
  -4   5   3   93.73    5.60
   0   5   3  109.07    5.08
   1   5   3   38.01    2.50
   2   5   3   55.65    3.29
   3   5   3   82.17    7.07
   4   5   3   63.24    6.36
   5   5   3    6.43    2.78
   6   5   3   22.23    5.01
   7   5   3    7.24    3.69
   8   5   3    0.13    3.32
   9   5   3    1.75    4.17
  10   5   3   10.02    5.68
 -15   6   3    4.18    2.08
 -14   6   3    7.44    1.69
 -13   6   3   23.99    2.85
 -12   6   3    1.12    1.34
 -11   6   3   16.26    2.27
 -10   6   3    9.50    1.73
  -9   6   3   26.32    2.63
  -8   6   3   40.27    2.87
  -7   6   3  128.52    5.67
  -6   6   3   35.49    2.47
  -5   6   3   34.25    2.17
  -4   6   3   57.02    2.84
  -1   6   3   40.10    3.65
   0   6   3   39.31    2.01
   1   6   3  145.38    6.71
   2   6   3   35.84    2.78
   3   6   3   42.09    5.93
   4   6   3   18.72    4.22
   5   6   3   20.12    4.39
   6   6   3    4.64    3.52
   7   6   3   19.55    5.39
   8   6   3    4.08    4.32
   9   6   3   10.51    5.31
 -15   7   3    3.09    1.99
 -14   7   3   29.95    2.83
 -13   7   3   17.15    2.16
 -12   7   3    7.02    1.73
 -11   7   3   13.71    2.17
 -10   7   3   16.00    2.14
  -9   7   3   11.84    1.82
  -8   7   3   51.97    3.11
  -7   7   3   13.25    1.62
  -6   7   3  148.06    5.90
  -5   7   3   58.31    2.94
  -4   7   3   63.82    3.16
  -3   7   3   79.70    4.85
  -2   7   3   57.22    4.36
  -1   7   3  137.36    5.11
   0   7   3    9.71    1.68
   1   7   3   48.29    3.57
   2   7   3   13.99    2.15
   3   7   3   17.99    4.45
   4   7   3   13.96    4.13
   5   7   3    9.60    3.80
   6   7   3   22.61    5.55
   7   7   3   34.48    7.01
   8   7   3    2.55    4.63
 -15   8   3    6.99    1.93
 -14   8   3    9.72    2.01
 -13   8   3    0.45    1.16
 -12   8   3   14.42    1.86
 -11   8   3   52.43    3.15
 -10   8   3   14.38    2.11
  -9   8   3   44.08    3.35
  -8   8   3    1.14    0.93
  -7   8   3   46.78    2.84
  -6   8   3   35.94    2.42
  -5   8   3   77.71    3.20
  -4   8   3    8.73    1.10
  -3   8   3  101.83    4.30
  -2   8   3   41.95    2.15
  -1   8   3   52.14    2.68
   0   8   3    1.22    1.01
   1   8   3   34.59    3.34
   2   8   3   21.47    4.43
   3   8   3   48.35    7.08
   4   8   3   10.44    3.91
   5   8   3   -0.44    2.95
   6   8   3    4.14    3.93
   7   8   3    4.37    4.50
 -15   9   3   10.55    2.15
 -14   9   3    8.45    1.88
 -13   9   3    3.91    1.54
 -12   9   3   -0.01    1.08
 -11   9   3   12.05    1.70
 -10   9   3   63.49    3.32
  -9   9   3    2.23    0.97
  -8   9   3   31.87    2.38
  -7   9   3    8.29    1.61
  -6   9   3   40.27    3.22
  -5   9   3   69.37    3.72
  -4   9   3   47.41    3.04
  -3   9   3   33.27    3.00
  -2   9   3   12.08    1.76
  -1   9   3   47.27    4.06
   0   9   3    1.87    1.30
   1   9   3   65.65    4.66
   2   9   3   25.78    5.08
   3   9   3    0.69    2.78
   4   9   3    6.63    3.66
   5   9   3    9.79    4.49
   6   9   3    6.98    4.54
 -15  10   3    4.73    3.25
 -14  10   3   11.84    2.55
 -13  10   3   23.75    3.14
 -12  10   3    7.88    2.02
 -11  10   3   14.87    2.55
 -10  10   3   19.59    2.70
  -9  10   3   59.03    4.60
  -8  10   3   22.19    2.74
  -7  10   3   13.71    2.09
  -6  10   3   10.47    1.82
  -5  10   3    3.43    1.15
  -4  10   3   12.97    2.08
  -3  10   3   15.36    2.09
  -2  10   3   19.70    2.77
  -1  10   3   63.96    4.35
   0  10   3   23.98    3.16
   1  10   3   24.09    5.26
   2  10   3    5.89    3.46
   3  10   3   24.72    5.69
   4  10   3   21.01    5.62
 -14  11   3    0.74    1.91
 -13  11   3    8.55    2.18
 -12  11   3   14.60    2.50
 -11  11   3   12.87    2.35
 -10  11   3   18.80    2.58
  -9  11   3   19.46    2.79
  -8  11   3   45.53    3.96
  -7  11   3   14.46    2.15
  -6  11   3   20.09    3.75
  -5  11   3   19.16    2.64
  -4  11   3   11.28    2.06
  -3  11   3   57.41    5.00
  -2  11   3   17.16    2.73
  -1  11   3   20.85    3.24
   0  11   3    8.69    2.34
   1  11   3   16.01    4.78
   2  11   3    9.31    4.35
   3  11   3    3.48    3.33
 -13  12   3    8.67    2.33
 -12  12   3    9.24    2.41
 -11  12   3   13.67    2.39
 -10  12   3    5.93    1.90
  -9  12   3   -0.29    1.27
  -8  12   3   10.66    2.12
  -7  12   3   12.00    2.40
  -6  12   3    2.01    1.45
  -5  12   3    6.92    1.86
  -4  12   3   20.20    4.20
  -3  12   3   -0.53    1.40
  -2  12   3   13.81    2.79
  -1  12   3   19.56    3.20
   0  12   3   11.37    4.46
   1  12   3   17.63    4.85
   2  12   3   21.46    6.16
 -13  13   3   -0.15    1.86
 -12  13   3   13.34    2.72
 -11  13   3    5.87    2.05
 -10  13   3   19.99    3.03
  -9  13   3    2.89    2.60
  -8  13   3    3.52    1.81
  -7  13   3   28.94    3.74
  -6  13   3   19.81    3.06
  -5  13   3    0.70    2.26
  -4  13   3    7.78    2.31
  -3  13   3   23.56    3.55
  -2  13   3   15.75    3.17
  -1  13   3   20.75    5.43
   0  13   3   -0.46    3.02
 -12  14   3    8.41    3.44
 -11  14   3    0.72    2.57
 -10  14   3   22.12    3.92
  -9  14   3    6.04    2.28
  -8  14   3    5.55    2.18
  -7  14   3   32.65    3.96
  -6  14   3    7.48    3.74
  -5  14   3    7.13    2.52
  -4  14   3   13.77    3.05
  -3  14   3    1.14    2.07
  -2  14   3   21.57    5.18
 -10  15   3    6.24    3.63
  -9  15   3    2.13    2.17
  -8  15   3    7.27    2.59
  -7  15   3    7.00    3.66
  -6  15   3    9.41    2.99
  -5  15   3   11.49    4.01
   5 -14   4    2.82    3.00
   6 -14   4    8.57    3.61
   7 -14   4    6.29    3.72
   8 -14   4    7.32    3.84
   9 -14   4    0.84    3.27
  10 -14   4    1.22    3.59
   2 -13   4    0.47    2.68
   3 -13   4    3.88    3.04
   4 -13   4   17.93    4.80
   5 -13   4    8.02    3.61
   6 -13   4    4.18    3.42
   7 -13   4    5.65    3.49
   8 -13   4   10.73    3.91
   9 -13   4   17.65    4.87
  10 -13   4   -0.51    3.30
  -1 -12   4   11.82    4.34
   0 -12   4    1.59    3.02
   1 -12   4    4.41    3.15
   2 -12   4   44.29    6.65
   3 -12   4    9.38    3.58
   4 -12   4    4.06    2.97
   5 -12   4    1.28    2.40
   6 -12   4    5.25    2.86
   7 -12   4    2.06    2.61
   8 -12   4    0.83    2.84
   9 -12   4    3.33    2.72
  10 -12   4   33.50    6.20
  -2 -11   4    8.14    3.34
  -1 -11   4    1.69    2.63
   0 -11   4    2.89    2.63
   1 -11   4    8.90    3.31
   2 -11   4   15.15    4.24
   3 -11   4   26.98    5.14
   4 -11   4   15.20    3.74
   5 -11   4   34.63    5.66
   6 -11   4   36.70    5.76
   7 -11   4   10.30    3.53
   8 -11   4   18.02    4.48
   9 -11   4    5.90    3.30
  10 -11   4    3.09    3.19
  11 -11   4   -1.22    3.02
  -4 -10   4    2.75    3.36
  -3 -10   4    5.65    3.26
  -2 -10   4   48.01    6.67
  -1 -10   4    3.74    2.64
   0 -10   4    9.72    3.44
   1 -10   4   12.37    3.60
   2 -10   4    6.14    2.87
   3 -10   4    8.02    2.94
   4 -10   4   29.46    4.88
   5 -10   4   12.04    3.61
   6 -10   4   34.29    5.43
   7 -10   4   -0.19    2.16
   8 -10   4    7.55    2.94
   9 -10   4   14.56    4.16
  10 -10   4    3.17    2.98
  11 -10   4    2.04    2.80
  -5  -9   4    1.66    3.04
  -4  -9   4   13.47    4.03
  -3  -9   4    0.80    2.29
  -2  -9   4    8.86    3.21
  -1  -9   4   12.38    3.29
   0  -9   4    9.50    3.10
   1  -9   4   14.25    3.41
   2  -9   4   41.23    5.74
   3  -9   4   26.19    4.44
   4  -9   4   16.54    3.67
   5  -9   4   12.50    3.33
   6  -9   4   23.47    4.44
   7  -9   4   38.89    5.68
   8  -9   4    9.84    3.17
   9  -9   4    2.96    2.86
  10  -9   4   10.43    3.55
  11  -9   4    8.45    3.80
  -5  -8   4   17.30    4.31
  -4  -8   4    0.65    2.39
  -3  -8   4   30.57    4.88
  -2  -8   4    5.08    2.49
  -1  -8   4   13.50    3.54
   0  -8   4   26.21    4.51
   1  -8   4   41.85    5.37
   2  -8   4   26.35    4.16
   3  -8   4   17.55    3.56
   4  -8   4   10.49    2.94
   5  -8   4   19.82    3.91
   6  -8   4   19.77    4.15
   7  -8   4   35.09    5.50
   8  -8   4   23.55    4.68
   9  -8   4   11.36    3.54
  10  -8   4   14.85    3.98
  11  -8   4   18.97    4.58
  -5  -7   4    0.80    2.32
  -4  -7   4   16.75    3.50
  -3  -7   4   11.25    3.15
  -2  -7   4   48.14    5.47
  -1  -7   4   42.97    5.29
   0  -7   4   11.05    2.80
   1  -7   4   46.35    5.46
   2  -7   4   12.81    2.99
   3  -7   4   31.37    4.50
   4  -7   4   29.44    4.65
   5  -7   4   13.34    3.21
   6  -7   4   45.62    6.12
   7  -7   4   10.95    3.15
   8  -7   4   39.79    5.85
   9  -7   4   34.39    5.69
  10  -7   4    6.83    3.08
  11  -7   4   15.51    4.12
  -5  -6   4   52.63    6.04
  -4  -6   4   46.51    5.60
  -3  -6   4   26.75    4.01
  -2  -6   4   32.75    2.78
  -1  -6   4   53.30    3.09
   0  -6   4    5.27    1.07
   1  -6   4   38.71    2.58
   2  -6   4   19.50    1.88
   3  -6   4   66.94    6.09
   4  -6   4   19.69    3.65
   5  -6   4   35.40    5.16
   6  -6   4    2.83    2.18
   7  -6   4   56.69    6.59
   8  -6   4   33.78    5.22
   9  -6   4   31.26    5.19
  10  -6   4   27.96    5.31
  11  -6   4   36.29    5.82
  -8  -5   4   16.83    4.05
  -7  -5   4    4.61    2.38
  -6  -5   4   39.41    4.93
  -5  -5   4    9.63    1.76
  -4  -5   4   22.15    2.34
  -3  -5   4   26.14    2.51
  -2  -5   4    7.60    1.28
  -1  -5   4   36.17    2.49
   0  -5   4    7.57    1.24
   1  -5   4   30.33    2.18
   2  -5   4   54.28    4.87
   3  -5   4   48.92    4.88
   4  -5   4   31.94    4.66
   5  -5   4    7.85    2.70
   6  -5   4   34.23    5.32
   7  -5   4   10.71    3.28
   8  -5   4   19.86    4.06
   9  -5   4   17.92    3.93
  10  -5   4   14.08    3.54
  11  -5   4   42.41    5.86
 -10  -4   4    4.57    2.71
  -9  -4   4   23.11    4.32
  -8  -4   4    1.43    1.76
  -7  -4   4   11.19    2.78
  -6  -4   4   25.09    3.72
  -5  -4   4   15.83    1.99
  -4  -4   4   16.33    1.96
  -3  -4   4   36.93    2.63
  -2  -4   4   14.01    1.67
  -1  -4   4   30.61    2.30
   0  -4   4   35.93    2.34
   1  -4   4   68.60    5.52
   2  -4   4  168.16   10.42
   3  -4   4   74.01    6.32
   4  -4   4   36.30    5.06
   5  -4   4   29.42    4.55
   6  -4   4   12.79    3.30
   7  -4   4   35.08    5.07
   8  -4   4   18.24    4.08
   9  -4   4   14.09    2.65
  10  -4   4   36.39    4.05
  11  -4   4    7.58    3.50
 -10  -3   4    6.83    3.23
  -9  -3   4    4.44    2.48
  -8  -3   4   34.49    4.75
  -7  -3   4    5.13    2.17
  -6  -3   4   31.12    4.14
  -5  -3   4   21.46    1.68
  -4  -3   4   30.43    2.51
  -3  -3   4   69.06    3.58
  -2  -3   4   48.42    2.75
  -1  -3   4   73.49    3.63
   0  -3   4   81.35    3.77
   1  -3   4   21.99    3.22
   2  -3   4   20.99    3.46
   3  -3   4   67.50    6.10
   4  -3   4   75.76    6.20
   5  -3   4   43.51    5.76
   6  -3   4   66.00    6.46
   7  -3   4   21.18    4.11
   8  -3   4   21.21    4.20
   9  -3   4   28.14    3.50
  10  -3   4    6.25    2.26
  11  -3   4   24.00    3.47
 -11  -2   4    5.47    2.47
 -10  -2   4   31.56    4.86
  -9  -2   4    8.41    2.87
  -8  -2   4    7.56    2.50
  -7  -2   4   51.17    5.34
  -6  -2   4   24.91    2.22
  -5  -2   4   10.78    1.54
  -4  -2   4   17.90    1.91
  -3  -2   4   47.58    2.73
  -2  -2   4  156.41    6.42
  -1  -2   4   18.76    1.83
   0  -2   4   11.73    2.31
   1  -2   4   36.88    4.47
   2  -2   4   10.81    2.59
   3  -2   4   20.09    3.41
   4  -2   4  146.14   10.63
   5  -2   4   42.20    5.79
   6  -2   4   14.90    3.69
   7  -2   4   12.69    3.40
   8  -2   4   22.56    3.09
   9  -2   4   41.54    4.24
  10  -2   4    6.09    2.29
  11  -2   4   10.06    2.63
 -12  -1   4    8.29    3.28
 -11  -1   4    1.35    2.20
 -10  -1   4    5.39    2.40
  -9  -1   4   20.01    3.82
  -8  -1   4   12.82    1.90
  -7  -1   4   37.99    2.98
  -6  -1   4   49.69    2.84
  -5  -1   4   42.72    3.81
  -4  -1   4   27.95    2.19
  -3  -1   4   66.20    3.34
  -2  -1   4   12.46    1.40
  -1  -1   4   37.17    3.64
   0  -1   4   10.42    2.12
   1  -1   4    5.84    1.95
   2  -1   4   37.07    5.01
   3  -1   4   15.77    3.34
   4  -1   4   62.52    6.26
   5  -1   4   32.40    4.88
   6  -1   4   42.82    5.70
   7  -1   4   36.13    5.56
   8  -1   4   31.37    3.70
   9  -1   4    8.48    2.42
  10  -1   4   15.26    2.79
  11  -1   4    6.38    2.63
 -12   0   4    3.74    2.61
 -11   0   4    2.75    2.17
 -10   0   4    6.42    2.47
  -9   0   4    5.08    1.45
  -8   0   4   31.50    2.89
  -7   0   4    9.50    1.55
  -6   0   4    3.01    1.06
  -5   0   4    9.53    2.10
  -4   0   4   35.20    3.20
  -3   0   4   76.29    3.65
  -2   0   4   12.35    1.44
  -1   0   4    9.79    2.11
   0   0   4  877.54   46.68
   1   0   4    9.99    2.47
   2   0   4   14.96    3.05
   3   0   4   81.75    6.60
   4   0   4   33.46    4.81
   5   0   4    7.69    2.63
   6   0   4    4.92    2.31
   7   0   4   10.50    2.17
   8   0   4   26.57    3.39
   9   0   4    2.75    1.99
  10   0   4    6.18    2.36
  11   0   4   -1.26    2.03
  12   0   4    3.81    4.49
 -12   1   4    0.32    1.81
 -11   1   4    1.42    2.00
 -10   1   4   14.32    2.15
  -9   1   4    8.26    1.55
  -8   1   4   39.88    3.28
  -7   1   4   57.53    3.22
  -6   1   4   28.83    2.45
  -5   1   4   37.91    3.98
  -4   1   4   66.87    4.97
  -3   1   4   16.90    1.70
  -2   1   4   43.53    3.65
  -1   1   4   14.63    2.70
   0   1   4   12.53    2.65
   1   1   4   40.59    4.96
   2   1   4   19.27    3.42
   3   1   4   61.37    5.85
   4   1   4   31.28    4.79
   5   1   4   38.25    5.41
   6   1   4   48.86    4.42
   7   1   4   38.64    4.05
   8   1   4    6.11    2.26
   9   1   4   14.31    2.79
  10   1   4    3.69    2.45
  11   1   4   -0.71    2.58
 -13   2   4    3.86    2.52
 -12   2   4   55.83    6.74
 -11   2   4    8.91    1.87
 -10   2   4    8.45    1.72
  -9   2   4   38.09    3.08
  -8   2   4   30.58    2.83
  -7   2   4    6.65    1.31
  -6   2   4   13.81    1.69
  -5   2   4   44.63    3.86
  -4   2   4  157.60    8.93
  -3   2   4   17.64    2.40
  -2   2   4   15.13    2.57
  -1   2   4   42.27    4.02
   0   2   4   19.36    3.19
   1   2   4   15.44    3.21
   2   2   4  154.14   10.58
   3   2   4   49.33    6.01
   4   2   4   20.45    3.90
   5   2   4   10.29    2.09
   6   2   4   27.06    3.34
   7   2   4   47.96    6.50
   8   2   4   11.61    2.75
   9   2   4    9.84    2.95
  10   2   4   42.90    4.90
  11   2   4    2.05    2.90
 -13   3   4    2.57    1.62
 -12   3   4    0.53    1.31
 -11   3   4   17.46    2.55
 -10   3   4    6.37    1.67
  -9   3   4   20.20    2.32
  -8   3   4   27.75    2.67
  -7   3   4   38.32    2.98
  -6   3   4   65.62    3.53
  -5   3   4   49.05    3.96
  -4   3   4   67.03    4.65
  -3   3   4   79.63    3.80
  -2   3   4   19.23    2.98
  -1   3   4   17.20    3.01
   0   3   4   81.01    6.30
   1   3   4   82.47    6.51
   2   3   4   42.99    5.78
   3   3   4   62.69    6.36
   4   3   4   31.21    3.35
   5   3   4   17.04    2.71
   6   3   4   29.57    3.61
   7   3   4    5.69    2.18
   8   3   4   23.23    3.51
   9   3   4    2.19    2.26
  10   3   4    1.66    2.62
 -14   4   4    5.17    2.11
 -13   4   4   17.28    2.66
 -12   4   4    1.39    1.45
 -11   4   4   12.73    2.21
 -10   4   4   46.90    3.92
  -9   4   4   20.55    2.49
  -8   4   4   15.93    2.00
  -7   4   4   29.49    2.58
  -6   4   4   17.06    1.93
  -5   4   4   28.86    3.37
  -4   4   4   34.68    3.10
  -3   4   4   76.54    5.60
  -2   4   4  154.90    9.93
  -1   4   4   55.45    5.47
   1   4   4   31.50    2.82
   2   4   4   20.11    3.37
   3   4   4   50.83    5.85
   4   4   4   16.12    3.60
   5   4   4   25.29    4.62
   6   4   4   43.13    6.23
   7   4   4   15.00    2.98
   8   4   4    1.38    2.07
   9   4   4   15.12    3.69
  10   4   4    1.66    2.93
 -14   5   4    2.40    1.91
 -13   5   4    8.68    2.11
 -12   5   4    3.71    1.68
 -11   5   4   41.76    3.74
 -10   5   4   10.56    1.90
  -9   5   4   15.15    2.03
  -8   5   4   24.54    2.44
  -7   5   4   12.08    1.71
  -6   5   4   43.43    2.89
  -5   5   4    7.96    1.89
  -4   5   4   33.07    3.60
  -3   5   4   44.49    4.39
   0   5   4    6.79    1.27
   1   5   4   37.82    4.75
   2   5   4   11.74    3.01
   3   5   4   29.94    4.68
   4   5   4   27.99    4.61
   5   5   4   13.68    3.81
   6   5   4   48.42    6.95
   7   5   4    6.41    4.04
   8   5   4   12.74    3.29
   9   5   4    2.53    2.99
 -14   6   4   16.99    2.69
 -13   6   4   16.15    2.63
 -12   6   4    4.01    1.56
 -11   6   4   34.98    3.49
 -10   6   4   35.84    3.30
  -9   6   4   32.90    2.98
  -8   6   4   21.78    2.32
  -7   6   4   44.56    3.11
  -6   6   4    3.81    1.06
  -5   6   4   32.93    3.70
  -4   6   4   19.32    2.67
  -1   6   4   38.90    4.17
   0   6   4    4.60    1.14
   1   6   4   59.95    5.42
   2   6   4   33.14    5.05
   3   6   4   24.17    4.77
   4   6   4   53.83    6.93
   5   6   4   50.50    7.08
   6   6   4    1.56    2.97
   7   6   4   11.68    4.75
   8   6   4   10.03    3.40
 -14   7   4   11.95    2.12
 -13   7   4    5.21    1.89
 -12   7   4    2.87    1.55
 -11   7   4   10.77    2.00
 -10   7   4    6.75    1.62
  -9   7   4   49.47    3.86
  -8   7   4   35.79    3.10
  -7   7   4   10.22    1.56
  -6   7   4   55.29    3.11
  -5   7   4    8.49    1.38
  -4   7   4   37.65    3.33
  -1   7   4   50.04    3.28
   0   7   4   11.26    1.83
   1   7   4   50.32    6.34
   2   7   4   43.65    5.98
   3   7   4    5.09    3.18
   4   7   4   22.63    4.88
   5   7   4    1.52    3.30
   6   7   4   16.24    4.96
   7   7   4    9.49    5.23
 -14   8   4    7.08    1.80
 -13   8   4   18.54    2.11
 -12   8   4    0.97    1.37
 -11   8   4   29.10    3.12
 -10   8   4   12.14    2.04
  -9   8   4   15.17    2.15
  -8   8   4   36.61    3.06
  -7   8   4   41.65    2.94
  -6   8   4   38.83    2.95
  -5   8   4   27.85    2.45
  -4   8   4   18.55    1.98
  -2   8   4   27.55    2.62
  -1   8   4   44.32    3.76
   0   8   4   43.33    5.88
   1   8   4   16.41    3.91
   2   8   4   10.58    3.66
   3   8   4   31.86    5.74
   4   8   4   -0.19    2.82
   5   8   4   17.80    5.11
   6   8   4   11.04    4.73
 -14   9   4    2.94    1.63
 -13   9   4   21.63    2.50
 -12   9   4   -0.98    1.05
 -11   9   4    8.77    1.88
 -10   9   4   16.54    2.35
  -9   9   4    3.35    1.39
  -8   9   4   12.40    1.84
  -7   9   4   40.95    3.18
  -6   9   4   27.65    2.57
  -5   9   4   24.37    2.56
  -4   9   4   15.37    2.05
  -3   9   4   33.08    2.45
  -2   9   4   52.49    4.02
  -1   9   4   17.10    2.51
   0   9   4    7.28    3.05
   1   9   4   17.51    4.28
   2   9   4    4.54    3.26
   3   9   4    1.86    3.02
   4   9   4   15.55    4.92
   5   9   4    0.65    3.91
 -14  10   4    3.29    3.22
 -13  10   4    6.14    2.21
 -12  10   4   31.62    3.76
 -11  10   4    6.49    1.89
 -10  10   4    7.03    1.87
  -9  10   4   12.65    2.19
  -8  10   4    7.48    1.75
  -7  10   4    6.17    1.54
  -6  10   4   53.65    3.68
  -5  10   4   14.74    2.11
  -4  10   4   36.55    3.52
  -3  10   4    4.20    2.07
  -2  10   4    9.77    2.12
  -1  10   4   17.33    4.16
   0  10   4   12.84    3.83
   1  10   4    1.84    2.84
   2  10   4   61.54    8.69
   3  10   4    5.21    3.87
   4  10   4    0.54    3.67
 -13  11   4    4.20    2.08
 -12  11   4    3.50    1.91
 -11  11   4    0.08    1.51
 -10  11   4    3.01    1.68
  -9  11   4    7.42    2.03
  -8  11   4   26.56    3.23
  -7  11   4   15.65    2.36
  -6  11   4   59.25    6.80
  -5  11   4   39.83    3.93
  -4  11   4   15.83    3.60
  -3  11   4   25.89    3.38
  -2  11   4   11.94    2.51
  -1  11   4    6.51    3.43
   0  11   4   -1.65    2.53
   1  11   4    1.09    3.16
   2  11   4    6.63    4.02
 -13  12   4    9.44    3.39
 -12  12   4    0.39    1.76
 -11  12   4    2.35    1.71
 -10  12   4   54.86    7.47
  -9  12   4    3.75    1.82
  -8  12   4    2.06    1.63
  -7  12   4    1.62    2.12
  -6  12   4    3.76    1.70
  -5  12   4    2.99    2.42
  -4  12   4    0.50    1.62
  -3  12   4    4.42    2.01
  -2  12   4   48.43    7.24
  -1  12   4    1.02    2.99
   0  12   4    3.39    3.72
   1  12   4    8.99    4.75
 -12  13   4    8.48    3.54
 -11  13   4    2.96    2.09
 -10  13   4    3.16    1.98
  -9  13   4   15.10    4.53
  -8  13   4   18.15    3.30
  -7  13   4   10.61    2.73
  -6  13   4   13.71    3.89
  -5  13   4   18.47    4.51
  -4  13   4   29.39    4.03
  -3  13   4    3.62    3.25
  -2  13   4    9.14    4.18
  -1  13   4   14.24    5.02
 -10  14   4    1.88    3.25
  -9  14   4    4.37    2.05
  -8  14   4   17.13    3.17
  -7  14   4   10.18    3.83
  -6  14   4   15.46    4.25
  -5  14   4   -0.14    2.01
  -4  14   4    5.50    2.40
   4 -13   5   11.17    4.48
   5 -13   5   -0.19    3.36
   6 -13   5    3.36    3.57
   7 -13   5    4.65    3.83
   8 -13   5    0.21    3.30
   9 -13   5    6.31    3.93
  10 -13   5    0.25    3.28
   1 -12   5    0.71    3.19
   2 -12   5    4.10    3.05
   3 -12   5   -0.32    2.88
   4 -12   5   19.38    5.11
   5 -12   5    9.26    4.00
   6 -12   5    8.52    4.06
   7 -12   5    9.15    3.89
   8 -12   5    9.26    4.11
   9 -12   5    2.56    3.29
  10 -12   5    2.64    3.67
  11 -12   5    2.93    3.86
  -1 -11   5    2.68    3.18
   0 -11   5    7.24    3.54
   1 -11   5   10.81    3.94
   2 -11   5    5.62    3.22
   3 -11   5   23.09    5.15
   4 -11   5   10.48    3.75
   5 -11   5    8.91    3.68
   6 -11   5    9.57    3.92
   7 -11   5    6.36    3.38
   8 -11   5   10.62    4.31
   9 -11   5    1.82    3.44
  10 -11   5   14.99    4.76
  11 -11   5    6.84    4.31
  -3 -10   5    0.81    3.08
  -2 -10   5    3.23    2.95
  -1 -10   5   20.07    4.67
   0 -10   5   43.98    6.53
   1 -10   5   28.15    5.45
   2 -10   5    9.81    3.46
   3 -10   5    7.73    3.38
   4 -10   5    7.80    3.16
   5 -10   5    1.04    2.34
   6 -10   5    1.04    2.78
   7 -10   5   10.86    3.83
   8 -10   5    3.52    3.13
   9 -10   5   29.26    5.85
  10 -10   5   38.43    6.62
  11 -10   5    8.03    4.10
  -3  -9   5   -1.28    2.20
  -2  -9   5    2.17    2.65
  -1  -9   5   37.18    5.59
   0  -9   5   -0.63    2.07
   1  -9   5   14.41    3.97
   2  -9   5    6.81    2.97
   3  -9   5    4.77    2.63
   4  -9   5   16.48    4.29
   5  -9   5   29.61    5.28
   6  -9   5    4.14    2.74
   7  -9   5    2.42    3.00
   8  -9   5    7.44    3.30
   9  -9   5   -0.07    2.57
  10  -9   5   19.86    5.11
  11  -9   5    4.21    3.55
  -4  -8   5   16.34    3.95
  -3  -8   5   19.69    4.29
  -2  -8   5   11.06    3.37
  -1  -8   5   16.79    3.79
   0  -8   5    1.12    2.09
   1  -8   5   16.76    4.11
   2  -8   5   46.46    6.31
   3  -8   5   38.33    5.99
   4  -8   5   34.34    5.57
   5  -8   5   45.83    6.25
   6  -8   5   33.92    5.64
   7  -8   5   12.08    3.78
   8  -8   5    2.38    2.69
   9  -8   5    7.83    3.61
  10  -8   5   10.34    3.97
  11  -8   5   14.63    4.40
  -4  -7   5   10.97    3.44
  -3  -7   5   11.16    3.18
  -2  -7   5    5.57    2.70
  -1  -7   5   15.34    3.48
   0  -7   5    7.21    2.79
   1  -7   5   79.35    6.81
   2  -7   5   37.28    5.41
   3  -7   5   18.92    3.92
   4  -7   5   11.30    3.33
   5  -7   5   33.96    5.44
   7  -7   5    5.70    2.91
   8  -7   5    7.45    3.31
   9  -7   5    7.87    3.37
  10  -7   5    9.54    3.87
  11  -7   5   12.75    4.06
  12  -7   5    5.21    3.74
  -4  -6   5    9.95    2.99
  -3  -6   5    8.93    2.75
  -2  -6   5   41.81    5.47
  -1  -6   5   79.98    7.01
   0  -6   5    0.60    0.96
   1  -6   5   27.15    2.55
   2  -6   5    5.77    1.34
   3  -6   5   25.21    4.35
   4  -6   5    7.39    2.86
   5  -6   5   26.60    4.74
   6  -6   5    1.96    2.27
   7  -6   5   81.91    7.69
   8  -6   5   26.27    5.44
   9  -6   5   10.95    3.63
  10  -6   5    5.13    3.30
  11  -6   5    8.61    3.85
  12  -6   5    2.89    3.52
  -6  -5   5   13.70    3.29
  -5  -5   5    3.95    1.79
  -4  -5   5   22.28    2.46
  -3  -5   5   35.63    3.02
  -2  -5   5   38.20    3.14
  -1  -5   5   21.65    2.29
   0  -5   5   58.63    3.36
   1  -5   5   48.02    3.13
   2  -5   5   45.46    5.71
   3  -5   5   55.66    6.27
   4  -5   5   54.44    6.50
   5  -5   5   57.59    7.15
   6  -5   5   23.10    4.59
   7  -5   5   29.41    5.23
   8  -5   5   29.82    5.55
   9  -5   5   15.00    4.08
  10  -5   5    3.26    2.79
  11  -5   5   10.25    3.60
  12  -5   5    9.73    3.77
  -9  -4   5   11.25    3.63
  -8  -4   5   10.25    3.34
  -7  -4   5   10.78    2.96
  -6  -4   5    3.00    1.93
  -5  -4   5   37.08    4.62
  -4  -4   5   41.42    3.39
  -3  -4   5   15.87    2.04
  -2  -4   5    6.05    1.30
  -1  -4   5   56.74    3.29
   0  -4   5    2.86    1.00
   1  -4   5   62.88    5.95
   2  -4   5    4.93    2.45
   3  -4   5   76.80    6.51
   4  -4   5    4.09    2.41
   5  -4   5   70.24    6.44
   6  -4   5    2.86    2.04
   7  -4   5    8.81    3.31
   8  -4   5   37.45    5.81
   9  -4   5   23.15    4.65
  10  -4   5    2.46    2.85
  11  -4   5   12.45    3.85
  12  -4   5   13.97    4.06
 -10  -3   5    5.52    3.07
  -9  -3   5   -1.35    2.09
  -8  -3   5   22.57    4.25
  -7  -3   5   12.79    2.96
  -6  -3   5    5.92    2.12
  -5  -3   5   53.79    5.49
  -4  -3   5   14.91    1.89
  -3  -3   5   25.92    2.48
  -2  -3   5   46.58    2.85
  -1  -3   5   64.37    3.43
   0  -3   5   81.89    4.11
   1  -3   5   81.50    6.39
   2  -3   5   77.78    6.82
   3  -3   5   75.33    6.89
   4  -3   5   46.01    6.37
   5  -3   5   37.22    5.58
   6  -3   5   19.54    4.20
   7  -3   5   13.11    3.64
   8  -3   5   45.16    6.22
   9  -3   5    7.05    3.22
  10  -3   5   10.37    3.47
  11  -3   5   12.21    4.11
  12  -3   5    2.17    3.04
 -10  -2   5    6.88    3.21
  -9  -2   5    2.52    2.31
  -8  -2   5    7.93    2.57
  -7  -2   5    6.90    2.19
  -6  -2   5   42.73    3.11
  -5  -2   5   40.78    4.64
  -4  -2   5    5.67    1.30
  -3  -2   5   50.23    3.02
  -2  -2   5    7.75    1.36
  -1  -2   5   73.42    3.94
   0  -2   5   31.48    4.31
   1  -2   5   13.98    3.08
   2  -2   5   19.21    3.78
   3  -2   5   74.00    6.68
   4  -2   5    2.92    2.19
   5  -2   5   40.30    5.56
   6  -2   5    5.48    2.80
   7  -2   5   29.62    5.25
   8  -2   5   25.69    5.21
   9  -2   5    7.02    3.40
  10  -2   5    6.57    3.54
  11  -2   5    3.13    3.33
  12  -2   5   -1.26    3.17
 -11  -1   5   -1.77    2.07
 -10  -1   5   10.61    3.27
  -9  -1   5   28.20    4.55
  -8  -1   5    8.43    2.40
  -7  -1   5   17.07    2.23
  -5  -1   5   30.52    4.01
  -4  -1   5   50.35    2.99
  -3  -1   5   66.84    3.64
  -2  -1   5   70.32    3.77
  -1  -1   5   12.40    2.71
   0  -1   5   54.54    4.84
   1  -1   5   41.10    5.22
   2  -1   5   21.39    3.93
   3  -1   5   66.55    6.76
   4  -1   5   71.90    6.62
   5  -1   5   41.93    6.20
   6  -1   5   24.27    4.71
   8  -1   5   14.99    4.24
   9  -1   5    9.74    3.58
  10  -1   5   20.66    4.93
  11  -1   5    4.56    3.35
  12  -1   5    0.40    3.38
 -11   0   5    5.85    2.74
 -10   0   5   34.50    5.09
  -9   0   5   -0.04    1.10
  -8   0   5    3.15    1.28
  -7   0   5    8.76    1.59
  -6   0   5    0.35    1.36
  -5   0   5   57.67    4.83
  -4   0   5    3.52    1.51
  -3   0   5   75.21    3.90
  -2   0   5   28.39    2.56
  -1   0   5   43.60    4.40
   0   0   5    1.42    1.67
   1   0   5   48.82    5.77
   2   0   5   28.06    4.60
   3   0   5   73.74    7.02
   4   0   5    1.47    1.78
   5   0   5   49.17    6.58
   6   0   5   -0.31    1.92
   7   0   5   11.01    3.65
   8   0   5    0.48    2.50
   9   0   5   -1.75    2.42
  10   0   5   26.44    5.51
  11   0   5    6.66    3.82
 -12   1   5    3.30    2.55
 -11   1   5   11.84    3.31
 -10   1   5   26.68    2.80
  -9   1   5   12.25    2.04
  -8   1   5   13.99    1.96
  -7   1   5   83.58    4.42
  -6   1   5   21.01    3.30
  -5   1   5   52.55    4.64
  -4   1   5   60.06    4.75
  -3   1   5   77.47    3.96
  -2   1   5   15.67    2.76
  -1   1   5   43.10    4.50
   0   1   5   49.47    5.66
   1   1   5   15.68    3.46
   2   1   5   81.31    6.80
   3   1   5   66.64    6.50
   4   1   5   38.82    5.82
   5   1   5   14.54    3.55
   6   1   5   64.10    8.07
   7   1   5   11.07    3.59
   8   1   5   10.40    3.58
   9   1   5   15.53    4.27
  10   1   5   13.21    4.37
  11   1   5    0.12    3.56
 -12   2   5    3.68    2.56
 -11   2   5    0.68    1.24
 -10   2   5   10.14    1.98
  -9   2   5    4.19    1.45
  -8   2   5   34.55    3.19
  -7   2   5   31.38    2.90
  -6   2   5    4.06    1.71
  -5   2   5   44.74    4.03
  -4   2   5    8.08    1.95
  -3   2   5   67.67    3.68
  -2   2   5   28.50    3.91
  -1   2   5   18.99    3.36
   0   2   5   34.24    4.67
   1   2   5   76.61    6.69
   2   2   5    8.96    2.89
   3   2   5   46.45    6.09
   4   2   5    6.90    2.70
   5   2   5   33.27    5.20
   6   2   5   26.58    5.08
   7   2   5    2.54    2.51
   8   2   5   10.20    3.85
   9   2   5   -0.03    2.73
  10   2   5    1.14    3.55
 -12   3   5    0.71    1.55
 -11   3   5   25.86    3.14
 -10   3   5    8.27    1.69
  -9   3   5   12.83    2.07
  -8   3   5   30.10    4.03
  -7   3   5   17.36    2.18
  -6   3   5   25.30    3.59
  -5   3   5   48.93    4.22
  -4   3   5   67.13    5.06
  -3   3   5   72.39    3.99
  -2   3   5   81.17    6.37
  -1   3   5   70.67    6.14
   0   3   5   79.39    6.68
   1   3   5   61.38    5.90
   2   3   5   49.65    6.13
   3   3   5   32.41    5.03
   4   3   5    7.79    3.27
   5   3   5   43.16    6.30
   6   3   5    6.76    3.03
   7   3   5   11.40    3.79
   8   3   5   12.23    4.32
   9   3   5    3.09    3.39
  10   3   5    1.75    3.93
 -13   4   5    2.71    1.74
 -12   4   5   18.14    2.82
 -11   4   5    7.81    1.96
 -10   4   5    5.70    1.73
  -9   4   5   16.93    2.27
  -8   4   5   44.82    3.59
  -7   4   5   17.68    2.16
  -6   4   5    4.43    1.85
  -5   4   5   47.27    4.22
  -4   4   5    3.43    1.44
  -3   4   5   61.06    5.22
  -2   4   5    8.56    2.51
  -1   4   5   71.87    6.17
   0   4   5    0.10    1.69
   1   4   5   63.64    7.06
   2   4   5    4.79    2.73
   3   4   5   20.11    4.41
   4   4   5   39.60    6.27
   5   4   5   27.25    5.07
   6   4   5    3.31    2.69
   7   4   5    9.67    3.96
   8   4   5   16.70    4.93
   9   4   5    3.94    3.82
 -13   5   5   -0.09    1.60
 -12   5   5    8.84    2.15
 -11   5   5    9.07    1.94
 -10   5   5    2.25    1.34
  -9   5   5   29.88    2.91
  -8   5   5   52.31    4.03
  -7   5   5   38.13    3.21
  -6   5   5   34.91    4.28
  -5   5   5   53.88    4.59
  -4   5   5   54.23    4.49
  -3   5   5   43.23    5.07
  -2   5   5   56.98    5.24
  -1   5   5   48.98    5.88
   0   5   5   63.43    7.26
   1   5   5   34.41    5.42
   2   5   5   36.30    5.82
   3   5   5   35.82    6.15
   4   5   5   18.17    4.59
   5   5   5    1.58    2.62
   6   5   5   16.39    4.69
   7   5   5    9.51    4.29
   8   5   5    1.84    3.69
 -13   6   5    0.53    1.73
 -12   6   5    4.65    1.68
 -11   6   5   13.06    2.33
 -10   6   5    1.90    1.28
  -9   6   5    8.86    1.90
  -8   6   5   47.37    3.82
  -7   6   5   63.52    3.75
  -6   6   5    0.31    0.89
  -5   6   5   21.37    3.01
  -4   6   5    4.19    1.22
  -3   6   5   30.63    4.43
  -2   6   5    7.32    2.69
  -1   6   5   23.66    4.42
   1   6   5   93.15    7.39
   2   6   5   42.12    5.71
   3   6   5   17.15    4.14
   4   6   5    6.91    3.43
   5   6   5   16.64    4.98
   6   6   5    7.93    4.26
   7   6   5    9.40    4.79
 -13   7   5    3.23    1.97
 -12   7   5    7.02    2.09
 -11   7   5    8.95    1.97
 -10   7   5   11.83    2.11
  -9   7   5    3.42    1.36
  -8   7   5   19.58    2.42
  -7   7   5   14.85    1.93
  -6   7   5   92.05    4.49
  -5   7   5   43.15    4.44
  -4   7   5   17.96    2.22
  -3   7   5   10.67    3.15
  -2   7   5   44.11    5.38
  -1   7   5   74.72    6.26
   0   7   5   11.57    3.15
   1   7   5   14.40    3.64
   2   7   5    9.79    3.47
   3   7   5   10.75    3.84
   6   7   5    0.99    3.68
 -13   8   5    1.75    1.70
 -12   8   5   19.92    2.85
 -11   8   5   21.29    2.97
 -10   8   5   11.54    2.15
  -9   8   5   10.30    1.88
  -8   8   5    0.74    1.10
  -7   8   5   16.34    2.13
  -6   8   5   36.56    3.05
  -5   8   5   46.24    3.42
  -4   8   5   45.78    4.15
  -2   8   5   52.67    6.21
  -1   8   5   16.94    3.74
   0   8   5    4.35    2.59
   1   8   5   12.96    3.78
   2   8   5    7.59    3.48
   3   8   5   33.74    6.09
 -13   9   5    8.17    2.38
 -12   9   5    0.15    1.67
 -11   9   5    2.15    1.62
 -10   9   5   27.82    3.06
  -9   9   5   -0.47    1.15
  -8   9   5   18.56    2.34
  -7   9   5    7.94    1.61
  -6   9   5   11.73    1.85
  -5   9   5   20.09    2.26
  -4   9   5   31.42    2.83
  -3   9   5    7.29    1.59
  -2   9   5    5.63    2.72
  -1   9   5    7.49    3.02
   0   9   5   -0.45    2.36
   1   9   5   26.95    5.35
   2   9   5    1.35    2.94
   3   9   5   -1.05    3.34
 -12  10   5    2.19    1.85
 -11  10   5    9.77    2.26
 -10  10   5   34.93    5.14
  -9  10   5   30.64    4.66
  -8  10   5    6.97    2.68
  -7  10   5    9.07    2.05
  -6  10   5    7.57    1.82
  -5  10   5    3.21    1.36
  -4  10   5    4.03    1.57
  -3  10   5   14.75    3.76
  -2  10   5   14.77    3.96
  -1  10   5   31.42    5.71
   0  10   5   60.31    7.77
   1  10   5   16.51    4.88
   2  10   5    7.66    4.41
 -12  11   5   -2.06    1.53
 -11  11   5    7.36    2.35
 -10  11   5   11.28    2.35
  -9  11   5    0.18    1.40
  -8  11   5   20.88    2.97
  -7  11   5    9.48    2.17
  -6  11   5   10.24    3.51
  -5  11   5   13.80    2.62
  -4  11   5    9.37    2.34
  -3  11   5   24.09    4.89
  -2  11   5    3.86    3.26
  -1  11   5   19.97    4.94
   0  11   5   10.45    4.35
   1  11   5    0.88    3.53
 -11  12   5    0.22    1.73
 -10  12   5    1.11    1.83
  -9  12   5    0.11    1.63
  -8  12   5   22.86    3.34
  -7  12   5   10.25    3.58
  -6  12   5    4.00    1.91
  -5  12   5    7.95    3.39
  -4  12   5   19.81    4.73
  -3  12   5    0.42    2.70
  -2  12   5    5.54    3.72
  -1  12   5   -1.33    3.04
 -10  13   5    1.29    2.02
  -9  13   5    6.09    3.29
  -8  13   5    0.04    2.63
  -7  13   5    1.95    1.92
  -6  13   5    5.51    3.20
  -5  13   5    1.83    3.02
  -4  13   5    4.17    3.58
  -3  13   5    2.16    3.57
   4 -12   6   12.53    4.54
   5 -12   6    1.01    3.68
   6 -12   6   11.76    5.17
   7 -12   6    2.88    4.65
   8 -12   6    4.15    4.09
   9 -12   6    1.46    3.99
   1 -11   6    8.46    3.74
   2 -11   6   -3.21    2.64
   3 -11   6   -1.64    2.72
   4 -11   6   25.93    6.26
   5 -11   6   15.85    5.22
   6 -11   6    6.75    3.71
   7 -11   6   22.90    5.72
   8 -11   6    0.97    3.58
   9 -11   6    0.55    3.52
  10 -11   6    6.89    4.47
  -1 -10   6    4.13    3.44
   0 -10   6    8.65    3.82
   1 -10   6    2.49    2.69
   2 -10   6   16.28    4.54
   3 -10   6    4.31    3.03
   4 -10   6   16.06    4.61
   5 -10   6    6.57    4.03
   6 -10   6   15.25    4.69
   7 -10   6    2.37    3.62
   8 -10   6    5.43    4.23
   9 -10   6    2.24    3.48
  10 -10   6    4.86    4.35
  11 -10   6   -0.55    3.62
  -3  -9   6    0.13    3.25
  -2  -9   6   -0.86    2.57
  -1  -9   6    0.05    2.65
   0  -9   6    3.64    2.83
   1  -9   6   22.81    5.05
   2  -9   6    0.35    2.78
   3  -9   6   11.72    3.89
   4  -9   6    7.08    3.59
   5  -9   6    6.90    3.78
   6  -9   6    3.69    3.41
   7  -9   6   -0.39    3.01
   8  -9   6   19.74    5.43
   9  -9   6    7.93    3.79
  10  -9   6    0.20    3.36
  11  -9   6    1.42    3.74
  12  -9   6    0.01    3.94
  -3  -8   6    0.62    2.67
  -2  -8   6   12.43    3.78
  -1  -8   6   38.48    5.84
   0  -8   6   20.87    4.46
   1  -8   6   11.86    3.83
   2  -8   6    8.82    3.70
   3  -8   6   12.96    4.22
   4  -8   6    6.22    3.16
   5  -8   6    6.18    3.51
   6  -8   6   11.48    3.97
   7  -8   6   13.26    4.23
   8  -8   6   20.68    5.04
   9  -8   6   23.62    5.57
  10  -8   6   16.17    4.60
  11  -8   6   -0.12    3.22
  12  -8   6    9.80    4.38
  -3  -7   6    3.19    2.67
  -2  -7   6    1.78    2.29
  -1  -7   6   12.25    3.49
   0  -7   6    6.41    2.73
   1  -7   6    6.12    2.97
   2  -7   6    9.16    3.27
   3  -7   6   38.78    5.84
   4  -7   6   34.70    6.30
   5  -7   6   11.47    3.92
   6  -7   6    5.00    2.99
   7  -7   6    5.91    3.42
   8  -7   6    8.64    3.82
   9  -7   6   -2.94    2.62
  10  -7   6    8.25    3.85
  11  -7   6   20.73    5.29
  12  -7   6    0.85    3.33
  -3  -6   6   12.61    3.24
  -2  -6   6    9.26    3.08
  -1  -6   6    5.13    2.60
   0  -6   6    3.83    2.50
   1  -6   6   43.81    6.06
   2  -6   6   12.83    3.47
   3  -6   6   42.29    6.26
   4  -6   6   16.20    3.91
   5  -6   6   35.37    5.86
   6  -6   6    4.15    3.03
   7  -6   6   -1.59    2.13
   8  -6   6    2.01    2.84
   9  -6   6    8.43    3.99
  10  -6   6    8.90    3.82
  11  -6   6    4.58    3.50
  12  -6   6   13.30    4.51
  -4  -5   6    5.44    2.19
  -3  -5   6    5.42    1.58
  -2  -5   6    6.58    1.53
  -1  -5   6   41.38    3.49
   0  -5   6   32.95    3.07
   1  -5   6   24.83    2.52
   2  -5   6   35.74    5.57
   3  -5   6   39.31    5.89
   4  -5   6   29.63    5.30
   5  -5   6   28.25    5.20
   6  -5   6   29.95    5.53
   7  -5   6    5.55    3.04
   8  -5   6    6.73    3.44
   9  -5   6    5.55    3.28
  10  -5   6    3.36    3.26
  11  -5   6    6.51    3.71
  12  -5   6    0.31    3.39
  -8  -4   6    0.77    2.43
  -7  -4   6   39.18    5.42
  -6  -4   6   10.40    2.67
  -5  -4   6    7.53    2.48
  -4  -4   6    1.10    1.41
  -3  -4   6   40.34    3.52
  -2  -4   6   16.53    2.27
  -1  -4   6   21.64    2.48
   0  -4   6    3.44    1.27
   1  -4   6    7.20    1.57
   2  -4   6   10.02    3.33
   3  -4   6   10.11    3.07
   4  -4   6    2.71    2.54
   5  -4   6   21.00    4.62
   6  -4   6   18.54    4.13
   7  -4   6   24.81    4.70
   8  -4   6   -0.43    2.34
   9  -4   6    2.59    2.74
  10  -4   6    9.97    3.76
  11  -4   6   24.12    5.26
  12  -4   6    0.18    3.55
  -9  -3   6    1.88    2.44
  -8  -3   6   -1.40    2.02
  -7  -3   6    8.47    2.63
  -6  -3   6   15.09    3.27
  -5  -3   6    5.32    2.30
  -4  -3   6   24.09    3.46
  -3  -3   6   46.44    3.30
  -2  -3   6   33.61    3.14
  -1  -3   6    7.21    1.59
   0  -3   6   10.91    1.80
   1  -3   6   36.09    4.89
   2  -3   6   32.92    5.53
   3  -3   6   10.43    3.40
   4  -3   6    6.44    2.96
   5  -3   6   31.21    5.27
   6  -3   6   27.28    5.15
   7  -3   6   16.92    4.37
   8  -3   6    4.51    2.97
   9  -3   6    8.83    3.58
  10  -3   6    0.87    2.93
  11  -3   6    1.69    3.40
  12  -3   6   -2.37    3.12
  -9  -2   6    0.15    2.19
  -8  -2   6    7.07    2.64
  -7  -2   6    2.68    1.98
  -6  -2   6    7.87    2.46
  -5  -2   6    8.79    2.59
  -4  -2   6   12.69    2.70
  -3  -2   6   32.96    2.99
  -2  -2   6    7.25    1.59
  -1  -2   6   49.51    3.83
   0  -2   6   45.45    5.70
   1  -2   6   32.37    5.00
   2  -2   6   52.79    6.55
   3  -2   6   33.72    5.12
   4  -2   6    8.82    3.37
   5  -2   6   29.73    5.35
   6  -2   6    4.24    2.92
   7  -2   6    4.58    2.64
   8  -2   6    2.92    2.65
   9  -2   6    0.11    2.31
  10  -2   6   10.84    3.77
  11  -2   6    2.17    3.12
 -10  -1   6    4.74    3.04
  -9  -1   6    2.02    1.88
  -8  -1   6   16.96    3.60
  -7  -1   6   12.80    2.01
  -6  -1   6    5.52    2.26
  -5  -1   6   37.24    4.80
  -4  -1   6   28.51    3.90
  -3  -1   6    6.85    1.52
  -2  -1   6   34.20    2.94
  -1  -1   6   30.40    2.88
   0  -1   6   47.59    5.76
   1  -1   6   38.11    5.28
   2  -1   6   37.23    5.32
   3  -1   6   30.64    5.37
   4  -1   6    5.93    2.65
   5  -1   6   20.79    4.53
   6  -1   6   33.77    5.88
   7  -1   6    4.15    3.07
   8  -1   6    7.71    3.70
   9  -1   6   16.04    4.51
  10  -1   6   -0.77    3.27
  11  -1   6    5.99    4.04
 -10   0   6    2.25    2.24
  -9   0   6    3.06    2.13
  -8   0   6   28.42    2.98
  -7   0   6    7.15    1.59
  -6   0   6    1.17    1.75
  -5   0   6   35.30    4.62
  -4   0   6    4.63    1.84
  -3   0   6    8.70    1.58
  -2   0   6   53.88    3.45
  -1   0   6   34.49    4.83
   0   0   6    1.32    1.85
   1   0   6   43.62    5.74
   2   0   6   57.05    6.81
   3   0   6    8.73    3.28
   4   0   6    2.15    2.34
   5   0   6   24.92    4.91
   6   0   6   -1.12    2.09
   7   0   6    1.24    2.87
   8   0   6   25.87    5.49
   9   0   6    1.22    3.29
  10   0   6    5.58    3.83
 -11   1   6    1.22    2.04
 -10   1   6   -0.01    1.43
  -9   1   6   24.72    3.02
  -8   1   6   10.05    1.99
  -7   1   6    4.59    1.48
  -6   1   6   38.49    4.84
  -5   1   6   19.18    3.53
  -4   1   6    6.87    2.21
  -3   1   6   45.52    3.27
  -2   1   6   32.56    2.89
  -1   1   6   54.73    5.98
   0   1   6   44.53    5.61
   1   1   6   31.93    5.04
   2   1   6   39.88    5.70
   3   1   6    8.70    3.36
   4   1   6   28.45    5.25
   5   1   6   35.40    5.89
   6   1   6    5.29    2.98
   7   1   6   12.71    3.86
   8   1   6   18.55    4.93
   9   1   6   -0.64    3.02
  10   1   6    0.30    3.71
 -11   2   6    1.26    1.51
 -10   2   6   13.95    2.43
  -9   2   6    0.59    1.19
  -8   2   6    3.54    1.30
  -7   2   6    7.49    1.58
  -6   2   6   13.38    3.00
  -5   2   6   31.96    4.21
  -4   2   6    4.67    1.89
  -3   2   6   34.39    2.86
  -2   2   6   51.06    5.26
  -1   2   6   32.73    4.67
   0   2   6   59.63    5.85
   1   2   6   54.74    6.78
   2   2   6    7.27    3.15
   3   2   6   38.86    6.01
   4   2   6   15.19    4.21
   5   2   6   10.12    3.38
   6   2   6    9.21    3.53
   7   2   6    0.82    2.67
   8   2   6   15.06    4.50
   9   2   6   -0.97    3.17
 -12   3   6    3.39    2.64
 -11   3   6   -0.10    1.34
 -10   3   6    4.86    1.63
  -9   3   6   12.65    2.06
  -8   3   6    7.55    1.65
  -7   3   6   39.46    3.55
  -6   3   6   48.41    5.29
  -5   3   6   34.48    4.56
  -4   3   6    7.38    2.07
  -3   3   6    9.13    1.63
  -2   3   6   46.32    5.82
  -1   3   6   33.59    4.99
   0   3   6   11.08    3.06
   1   3   6   14.84    3.76
   2   3   6   35.38    5.79
   3   3   6   46.61    6.82
   4   3   6   32.57    5.75
   5   3   6    3.49    3.17
   6   3   6    7.67    3.92
   7   3   6    5.87    3.67
   8   3   6   -1.84    3.04
 -12   4   6    6.36    1.96
 -11   4   6   20.78    2.89
 -10   4   6   22.30    2.95
  -9   4   6    5.87    1.63
  -8   4   6    1.51    1.18
  -7   4   6   22.14    3.47
  -6   4   6    9.82    2.53
  -5   4   6   29.99    4.07
  -4   4   6    7.03    2.07
  -3   4   6    9.18    1.71
  -2   4   6    9.02    2.89
  -1   4   6    8.30    2.77
   0   4   6    4.03    2.61
   1   4   6   30.06    5.35
   2   4   6   14.82    4.17
   3   4   6   45.07    6.78
   4   4   6    3.36    3.01
   5   4   6    5.81    3.58
   6   4   6   15.97    4.85
   7   4   6   29.18    6.17
   8   4   6    6.22    4.42
 -12   5   6    0.41    1.54
 -11   5   6    5.58    1.87
 -10   5   6    3.83    1.56
  -9   5   6    4.13    1.48
  -8   5   6    6.51    1.65
  -7   5   6   13.70    2.07
  -6   5   6   43.32    5.17
  -5   5   6   38.18    4.54
  -4   5   6   27.14    3.76
  -3   5   6   38.94    5.16
  -2   5   6   45.23    5.87
  -1   5   6   16.92    4.04
   0   5   6   41.06    6.03
   1   5   6   41.22    6.42
   2   5   6    4.30    3.13
   3   5   6    8.18    3.64
   4   5   6   -0.05    2.60
   5   5   6   11.18    4.41
   6   5   6    4.54    3.70
   7   5   6    2.71    3.85
 -12   6   6   10.50    2.43
 -11   6   6    3.78    1.72
 -10   6   6   10.13    2.07
  -9   6   6   12.33    2.14
  -8   6   6    8.19    1.85
  -7   6   6    7.27    1.70
  -6   6   6   -0.74    1.40
  -5   6   6   42.37    4.85
  -4   6   6   17.61    3.27
  -3   6   6   52.33    6.18
  -2   6   6   13.78    3.58
  -1   6   6   42.87    6.36
   0   6   6    6.03    3.26
   1   6   6    6.18    3.46
   2   6   6    3.22    3.00
   3   6   6   15.64    4.65
   4   6   6   23.79    5.43
   5   6   6    6.32    4.33
   6   6   6   10.74    5.06
 -12   7   6    0.45    1.53
 -11   7   6   33.30    3.62
 -10   7   6    7.70    1.90
  -9   7   6    1.04    1.36
  -8   7   6   16.27    2.34
  -7   7   6    6.79    1.64
  -6   7   6    3.44    1.35
  -5   7   6   10.93    2.48
  -4   7   6   51.20    5.55
  -3   7   6   30.29    4.83
  -2   7   6   15.18    3.88
  -1   7   6    6.89    3.23
   0   7   6    5.78    3.52
   1   7   6   14.36    4.57
   2   7   6    4.12    3.54
   3   7   6    8.33    4.12
   4   7   6   44.99    8.06
   5   7   6    4.33    3.92
 -12   8   6    6.52    2.14
 -11   8   6    0.21    1.48
 -10   8   6   11.02    2.16
  -9   8   6   19.95    2.68
  -8   8   6   29.37    3.19
  -7   8   6   14.98    2.22
  -6   8   6    5.69    1.49
  -5   8   6    4.87    2.02
  -4   8   6    1.26    1.60
  -2   8   6   11.05    3.66
  -1   8   6   31.09    6.02
   0   8   6   53.85    7.97
   1   8   6   37.63    6.82
   2   8   6   22.53    5.82
   3   8   6    0.44    3.70
   4   8   6    1.12    3.79
 -12   9   6    0.99    2.57
 -11   9   6    2.08    1.59
 -10   9   6    1.19    1.55
  -9   9   6    2.61    1.41
  -8   9   6   28.29    3.18
  -7   9   6    3.28    1.59
  -6   9   6   10.20    2.02
  -5   9   6    6.41    1.66
  -4   9   6    5.65    1.56
  -2   9   6    2.58    2.87
  -1   9   6   31.68    6.53
   0   9   6    1.81    3.59
   1   9   6   -0.18    3.52
   2   9   6    1.49    3.85
 -11  10   6    3.16    2.87
 -10  10   6    5.03    2.56
  -9  10   6   -0.07    1.93
  -8  10   6   14.96    3.47
  -7  10   6    7.54    2.83
  -6  10   6   18.50    3.69
  -5  10   6    7.24    1.88
  -2  10   6   20.28    5.34
  -1  10   6    3.93    3.78
   0  10   6   10.16    4.63
   1  10   6    7.33    4.38
 -10  11   6    5.02    2.10
  -9  11   6    3.34    1.86
  -8  11   6    0.02    1.56
  -7  11   6   30.83    3.57
  -6  11   6    1.50    2.58
  -2  11   6    2.57    3.59
  -9  12   6    3.16    2.13
  -8  12   6    4.70    3.21
  -7  12   6    4.69    3.46
   2 -10   7   11.74    4.23
   3 -10   7    1.69    3.33
   4 -10   7    7.68    4.23
   5 -10   7    2.69    3.96
   6 -10   7    2.13    4.07
   7 -10   7    1.48    4.25
   8 -10   7   -0.32    3.82
  -1  -9   7    9.34    3.83
   0  -9   7    1.29    2.98
   1  -9   7   13.42    4.46
   2  -9   7    2.42    3.32
   3  -9   7   12.80    4.71
   4  -9   7   19.63    5.71
   5  -9   7   13.07    5.38
   6  -9   7    3.56    3.98
   7  -9   7   -3.82    3.66
   8  -9   7    8.29    4.33
   9  -9   7   -0.41    3.40
  10  -9   7    2.47    4.27
  -2  -8   7    8.54    3.80
  -1  -8   7    6.89    3.44
   0  -8   7    1.22    2.86
   1  -8   7   16.98    4.20
   2  -8   7   12.60    4.46
   3  -8   7   11.14    4.33
   4  -8   7    2.76    3.48
   5  -8   7    3.43    4.03
   6  -8   7    2.99    3.65
   7  -8   7    7.63    4.06
   8  -8   7    2.48    3.71
   9  -8   7    1.54    3.64
  10  -8   7    5.20    4.18
  -2  -7   7    3.36    2.90
  -1  -7   7    6.46    3.32
   0  -7   7    4.54    2.89
   1  -7   7   18.58    4.51
   2  -7   7    6.97    3.76
   3  -7   7    6.20    3.55
   4  -7   7    9.41    3.71
   5  -7   7    2.36    3.24
   6  -7   7   15.16    4.81
   7  -7   7    4.66    3.74
   8  -7   7    2.90    3.69
   9  -7   7    2.58    3.43
  10  -7   7    1.82    3.78
  -2  -6   7    5.59    3.18
  -1  -6   7   12.05    3.59
   0  -6   7   17.86    4.20
   1  -6   7    1.75    2.84
   2  -6   7   14.56    4.23
   3  -6   7    7.90    3.66
   4  -6   7    9.35    3.95
   5  -6   7    7.56    3.68
   6  -6   7    9.97    4.29
   7  -6   7   12.95    4.28
   8  -6   7   13.46    4.30
   9  -6   7    4.17    3.73
  10  -6   7    1.29    3.52
  11  -6   7   -3.98    3.44
  -2  -5   7    2.44    1.63
  -1  -5   7    2.11    1.42
   0  -5   7    6.67    1.74
   1  -5   7   10.46    2.00
   2  -5   7   20.15    2.72
   3  -5   7   28.38    5.48
   4  -5   7   10.88    4.07
   5  -5   7    7.77    3.65
   6  -5   7    1.50    3.06
   7  -5   7    1.94    3.17
   8  -5   7    3.27    3.34
   9  -5   7   11.08    4.15
  10  -5   7    5.44    3.89
  11  -5   7    4.39    3.96
  -6  -4   7    3.32    2.50
  -5  -4   7   10.49    3.00
  -4  -4   7   -0.31    1.81
  -3  -4   7    8.43    2.54
  -2  -4   7    9.25    1.95
  -1  -4   7   11.68    1.99
   0  -4   7   19.06    2.58
   1  -4   7   11.69    2.20
   2  -4   7    0.60    2.40
   3  -4   7    8.38    3.30
   4  -4   7   14.60    4.25
   5  -4   7    4.46    3.45
   6  -4   7   13.99    4.42
   7  -4   7    8.78    3.78
   8  -4   7    0.16    2.48
   9  -4   7   11.11    3.96
  10  -4   7    3.67    3.21
  -7  -3   7    1.12    2.41
  -6  -3   7    5.83    2.50
  -5  -3   7    1.28    2.10
  -4  -3   7   13.66    3.18
  -3  -3   7    5.72    2.20
  -2  -3   7   17.23    2.43
  -1  -3   7    6.74    1.61
   0  -3   7   29.00    3.14
   1  -3   7    5.84    2.96
   2  -3   7    5.88    2.99
   3  -3   7   32.50    5.93
   4  -3   7    9.77    4.04
   5  -3   7   22.53    5.02
   6  -3   7    4.77    3.12
   7  -3   7    4.43    3.16
   8  -3   7    6.84    3.33
   9  -3   7    4.36    3.29
  10  -3   7    2.14    3.33
  -8  -2   7    3.51    2.36
  -7  -2   7    0.66    1.93
  -6  -2   7    2.64    2.16
  -5  -2   7    5.95    2.53
  -4  -2   7   12.45    3.08
  -3  -2   7   22.98    3.92
  -2  -2   7   -0.44    1.12
  -1  -2   7    6.34    1.61
   0  -2   7   36.75    3.52
   1  -2   7    3.95    2.83
   2  -2   7   36.47    6.02
   3  -2   7   -0.71    2.51
   4  -2   7   -1.48    2.28
   5  -2   7   19.28    4.51
   6  -2   7    8.17    3.75
   7  -2   7    4.35    3.32
   8  -2   7    5.37    3.83
   9  -2   7    0.51    3.07
  10  -2   7    4.63    3.79
  -9  -1   7    1.90    2.55
  -8  -1   7    6.44    2.98
  -7  -1   7   10.69    2.26
  -6  -1   7   10.85    2.89
  -5  -1   7    2.56    1.83
  -4  -1   7   13.45    3.08
  -3  -1   7    9.47    2.69
  -2  -1   7    5.05    1.54
  -1  -1   7    1.38    1.16
   0  -1   7   23.04    4.38
   1  -1   7   16.65    3.94
   2  -1   7   -0.73    2.24
   3  -1   7   11.10    3.66
   4  -1   7    3.37    2.84
   5  -1   7    8.91    3.96
   6  -1   7    1.30    3.05
   7  -1   7    9.71    3.58
   8  -1   7   11.39    4.17
   9  -1   7    9.41    4.00
  -9   0   7    0.78    2.14
  -8   0   7    2.36    1.55
  -7   0   7    3.17    1.49
  -6   0   7   12.49    3.31
  -5   0   7    9.94    2.87
  -4   0   7   14.74    2.97
  -3   0   7   34.46    4.40
  -2   0   7   41.14    3.58
  -1   0   7   21.51    4.33
   0   0   7   -0.90    1.82
   1   0   7   17.75    4.03
   2   0   7   36.60    6.03
   3   0   7   29.57    5.35
   4   0   7   13.44    4.07
   5   0   7    5.36    3.32
   6   0   7   14.00    4.57
   7   0   7   -1.99    2.84
   8   0   7    6.61    4.28
   9   0   7   -3.36    3.50
  -9   1   7    4.35    1.70
  -8   1   7    6.06    1.78
  -7   1   7    9.49    3.02
  -6   1   7    2.38    1.84
  -5   1   7    6.62    2.41
  -4   1   7    5.73    2.24
  -3   1   7    5.06    1.91
  -2   1   7    1.89    1.16
  -1   1   7   18.57    3.90
   0   1   7   18.80    4.09
   1   1   7    1.25    2.40
   2   1   7    6.70    3.44
   3   1   7    7.61    3.69
   4   1   7   10.43    3.80
   5   1   7    1.87    2.99
   6   1   7    7.76    3.94
   7   1   7    6.19    3.68
   8   1   7    9.03    4.38
 -10   2   7    7.73    2.10
  -9   2   7    3.24    1.64
  -8   2   7    4.71    1.63
  -7   2   7    6.99    2.82
  -6   2   7   15.48    3.23
  -5   2   7   15.92    3.20
  -4   2   7    0.32    1.52
  -3   2   7    6.25    2.13
  -2   2   7   35.96    3.39
  -1   2   7    0.09    2.12
   0   2   7   34.03    5.37
   1   2   7    3.83    2.97
   2   2   7   -0.05    2.33
   3   2   7   29.72    5.90
   4   2   7   11.39    4.04
   5   2   7    5.32    3.51
   6   2   7    2.46    3.50
   7   2   7    6.15    4.27
   8   2   7   14.12    5.15
 -10   3   7    0.43    1.42
  -9   3   7    9.68    2.19
  -8   3   7    3.29    1.49
  -7   3   7    6.47    2.26
  -6   3   7    8.46    2.51
  -5   3   7   26.43    4.17
  -4   3   7   11.12    2.71
  -3   3   7   38.51    4.74
  -2   3   7    4.09    2.36
  -1   3   7    5.19    2.83
   0   3   7   30.25    5.31
   1   3   7    5.72    2.99
   2   3   7   23.79    5.26
   3   3   7    8.72    3.63
   4   3   7    3.56    3.54
   5   3   7   10.40    4.31
   6   3   7    2.95    3.66
   7   3   7   -1.81    3.86
 -11   4   7    1.66    2.50
 -10   4   7    2.63    1.55
  -9   4   7   17.73    2.66
  -8   4   7    0.27    1.23
  -7   4   7   12.49    3.45
  -6   4   7   16.41    3.49
  -5   4   7   11.44    2.87
  -4   4   7   23.28    3.82
  -3   4   7    9.88    2.54
  -2   4   7    1.20    2.19
  -1   4   7    7.21    2.95
   0   4   7   16.92    4.42
   1   4   7    7.85    3.36
   2   4   7   14.66    4.45
   3   4   7    6.70    3.42
   4   4   7    4.26    3.41
   5   4   7   15.03    4.75
   6   4   7   13.57    4.73
 -10   5   7    1.30    1.44
  -9   5   7   11.55    2.28
  -8   5   7    5.92    1.72
  -7   5   7    3.59    1.56
  -6   5   7    3.91    2.10
  -5   5   7   11.61    3.12
  -4   5   7   15.60    3.35
  -3   5   7   25.56    4.00
  -2   5   7   35.55    5.66
  -1   5   7   13.83    3.80
   0   5   7   11.62    3.77
   1   5   7    2.15    2.69
   2   5   7    3.17    3.63
   3   5   7    5.94    3.62
   4   5   7   23.98    5.92
   5   5   7    2.58    3.64
 -10   6   7    6.29    1.91
  -9   6   7    8.79    1.91
  -8   6   7    3.87    1.52
  -7   6   7   13.05    2.30
  -6   6   7   18.82    3.54
  -5   6   7    0.46    1.62
  -4   6   7   12.67    3.16
  -3   6   7    9.00    2.69
  -2   6   7   13.30    3.74
  -1   6   7    2.21    2.39
   0   6   7   20.51    4.98
   1   6   7   21.40    5.36
   2   6   7    6.65    3.71
   3   6   7   13.11    4.37
   4   6   7    8.98    4.62
 -10   7   7    1.03    1.59
  -9   7   7    3.09    1.64
  -8   7   7   17.62    2.53
  -7   7   7    1.30    1.42
  -6   7   7   22.96    4.17
  -5   7   7    7.07    2.53
  -4   7   7    7.41    2.68
  -3   7   7   10.41    3.03
  -2   7   7    4.20    2.84
  -1   7   7   14.63    4.32
   0   7   7   -0.68    2.73
   1   7   7   10.24    4.01
   2   7   7    8.23    4.22
   3   7   7   -0.20    3.15
 -10   8   7    9.54    2.26
  -9   8   7    6.25    2.07
  -8   8   7    4.69    1.88
  -7   8   7   10.86    2.05
  -6   8   7   11.27    2.17
  -5   8   7    5.27    2.35
  -4   8   7    0.49    1.95
  -3   8   7    5.64    2.82
  -1   8   7   16.91    4.78
   0   8   7    6.56    3.77
   1   8   7    6.04    3.81
   2   8   7    7.83    4.48
 -10   9   7    0.11    2.44
  -9   9   7    0.34    1.58
  -8   9   7    8.10    2.17
  -7   9   7    3.20    1.73
  -6   9   7   17.77    2.66
  -5   9   7   22.83    2.86
  -4   9   7   14.88    3.42
  -3   9   7   18.14    3.97
  -1   9   7    6.65    4.14
   0   9   7   -2.10    3.21
  -9  10   7    4.63    2.97
  -8  10   7    7.41    2.92
  -7  10   7    1.10    1.90
  -6  10   7    2.58    2.24
  -5  10   7    1.68    2.17
  -7  11   7    3.57    2.05
   1  -8   8   14.96    4.64
   2  -8   8    2.51    4.12
   3  -8   8    7.78    3.92
   4  -8   8    5.95    3.87
   5  -8   8    1.78    3.86
   6  -8   8    7.13    4.55
  -1  -7   8    7.01    3.80
   0  -7   8   -0.61    2.81
   1  -7   8    4.23    3.51
   2  -7   8    2.16    3.71
   3  -7   8    7.55    3.85
   4  -7   8    2.39    3.95
   5  -7   8    4.18    4.00
   6  -7   8    1.54    3.84
   7  -7   8    3.61    3.99
  -1  -6   8    4.99    3.49
   0  -6   8    0.53    3.06
   1  -6   8   11.87    4.02
   2  -6   8    6.24    4.14
   3  -6   8   21.83    5.43
   4  -6   8    2.53    3.95
   5  -6   8   11.90    5.03
   6  -6   8    2.37    3.85
   7  -6   8    4.11    4.15
   8  -6   8    5.89    4.79
  -1  -5   8   11.60    3.76
   0  -5   8   10.71    3.89
   1  -5   8   19.51    4.87
   2  -5   8   11.18    2.36
   3  -5   8   12.77    4.35
   4  -5   8   11.74    4.78
   5  -5   8    3.01    4.22
   6  -5   8    7.48    4.37
   7  -5   8   -2.56    3.40
   8  -5   8    7.15    4.90
  -4  -4   8    0.75    2.33
  -3  -4   8    6.20    2.83
  -2  -4   8    1.26    2.21
  -1  -4   8   16.86    2.74
   0  -4   8    3.53    1.66
   1  -4   8    7.84    2.04
   2  -4   8   25.14    3.27
   3  -4   8    7.53    3.85
   4  -4   8    3.82    3.22
   5  -4   8   10.87    4.58
   6  -4   8   -4.45    3.12
   7  -4   8    4.95    4.12
   8  -4   8    5.55    4.29
  -6  -3   8    5.97    2.84
  -5  -3   8    1.00    2.44
  -4  -3   8    7.40    2.77
  -3  -3   8   26.28    4.41
  -2  -3   8    5.91    2.43
  -1  -3   8    9.80    2.18
   0  -3   8    8.13    2.10
   1  -3   8    9.90    2.36
   2  -3   8   13.65    4.17
   3  -3   8    7.84    3.98
   4  -3   8    7.45    4.05
   5  -3   8    4.73    3.50
   6  -3   8   10.75    4.86
   7  -3   8    9.15    4.26
   8  -3   8    7.61    4.08
  -6  -2   8   -0.13    2.04
  -5  -2   8   -0.34    2.05
  -4  -2   8    4.38    2.41
  -3  -2   8   10.08    2.97
  -2  -2   8   27.76    4.50
  -1  -2   8   10.70    2.21
   0  -2   8    1.01    1.48
   1  -2   8   12.56    3.75
   2  -2   8   -2.19    2.74
   3  -2   8    8.66    3.97
   4  -2   8   22.60    5.40
   5  -2   8    8.75    3.65
   6  -2   8    1.54    3.08
   7  -2   8    4.77    3.66
   8  -2   8    5.10    3.80
  -7  -1   8   15.90    3.94
  -6  -1   8    6.59    2.80
  -5  -1   8   11.73    3.21
  -4  -1   8   12.49    3.20
  -3  -1   8    4.63    2.38
  -2  -1   8    7.72    2.52
  -1  -1   8   10.14    2.25
   0  -1   8    3.07    1.51
   1  -1   8    4.15    3.19
   2  -1   8   10.70    3.95
   3  -1   8   16.67    4.44
   4  -1   8   10.16    3.83
   5  -1   8   12.83    4.11
   6  -1   8    5.85    3.71
   7  -1   8    7.97    4.46
  -8   0   8   -1.37    2.22
  -7   0   8    3.71    1.71
  -6   0   8    0.44    2.02
  -5   0   8   14.44    3.57
  -4   0   8    5.10    2.24
  -3   0   8    6.55    2.44
  -2   0   8    1.33    1.64
  -1   0   8   -0.46    1.35
   0   0   8  123.15   10.11
   1   0   8    3.03    2.58
   2   0   8   -0.19    2.56
   3   0   8   10.14    3.78
   4   0   8    3.53    3.43
   5   0   8    8.52    3.96
   6   0   8   -0.77    2.89
   7   0   8    0.06    3.36
  -8   1   8   14.38    3.37
  -7   1   8    6.17    2.76
  -6   1   8    2.17    2.18
  -5   1   8   14.58    3.57
  -4   1   8    7.29    2.55
  -3   1   8   12.93    3.16
  -2   1   8    9.21    2.74
  -1   1   8    1.32    1.48
   0   1   8    1.09    2.29
   1   1   8   15.75    3.93
   2   1   8    5.73    3.47
   3   1   8    4.73    3.22
   4   1   8   11.31    4.16
   5   1   8   19.66    5.70
   6   1   8    2.51    3.55
  -8   2   8    4.63    1.73
  -7   2   8    0.57    1.91
  -6   2   8   -0.12    1.75
  -5   2   8    5.07    2.12
  -4   2   8   18.60    3.91
  -3   2   8    5.63    2.19
  -2   2   8   -1.63    1.34
  -1   2   8   11.76    3.50
   0   2   8   -0.76    2.27
   1   2   8   17.94    4.53
   2   2   8   28.54    5.73
   3   2   8    7.51    3.75
   4   2   8    0.22    3.33
   5   2   8    7.20    3.91
   6   2   8    4.03    3.85
  -8   3   8    4.78    1.83
  -7   3   8   12.09    3.31
  -6   3   8   28.19    4.74
  -5   3   8    6.85    2.52
  -4   3   8    4.41    2.09
  -3   3   8    7.43    2.51
  -2   3   8    8.78    2.72
  -1   3   8   12.89    3.80
   0   3   8   11.51    3.71
   1   3   8    2.15    3.12
   2   3   8   15.00    4.46
   3   3   8   30.88    6.05
   4   3   8   13.25    4.50
   5   3   8    3.55    4.00
  -8   4   8    0.94    1.40
  -7   4   8    7.49    2.71
  -6   4   8    3.70    2.18
  -5   4   8   17.11    3.42
  -4   4   8    5.38    2.21
  -3   4   8    9.07    2.67
  -2   4   8   21.84    4.11
  -1   4   8    2.57    2.90
   0   4   8    7.12    3.72
   1   4   8   22.42    5.16
   2   4   8    4.20    3.48
   3   4   8    7.47    3.78
   4   4   8    3.65    3.87
  -8   5   8    3.37    1.63
  -7   5   8    3.16    2.38
  -6   5   8   12.23    3.41
  -5   5   8    8.76    3.11
  -4   5   8   17.34    3.56
  -3   5   8    8.20    2.66
  -1   5   8   25.18    5.22
   0   5   8   11.10    4.17
   1   5   8   14.06    4.58
   2   5   8    1.41    3.17
   3   5   8    5.24    4.10
  -8   6   8    1.93    1.61
  -7   6   8    5.39    1.85
  -6   6   8    0.62    2.03
  -5   6   8   10.81    3.30
  -4   6   8    2.88    2.09
  -3   6   8   32.94    4.95
  -1   6   8   13.66    4.67
   0   6   8   -2.02    2.88
   1   6   8   12.64    4.65
   2   6   8    5.03    3.84
  -8   7   8   17.08    4.03
  -7   7   8    3.02    1.81
  -6   7   8   11.23    3.42
  -5   7   8    5.28    2.62
  -4   7   8   11.57    3.22
  -3   7   8    8.42    3.00
   0   7   8    1.12    3.36
   1   7   8   16.78    4.87
  -7   8   8   18.24    2.88
  -6   8   8    6.19    2.07
  -5   8   8    7.47    3.08
  -4   8   8    0.36    2.22
  -3   8   8    6.07    2.90
  -6   9   8    8.64    3.14
  -5   9   8    4.83    2.03
  -4   9   8    2.97    2.84
  -3   9   8   14.63    3.92
   1  -5   9    7.16    4.04
   2  -5   9    3.70    3.80
   3  -5   9    0.78    4.16
   4  -5   9    9.61    4.69
  -1  -4   9    2.92    2.38
   0  -4   9    0.52    1.98
   1  -4   9    3.56    2.06
   2  -4   9    2.03    1.78
   3  -4   9    7.53    4.54
   4  -4   9   -2.79    2.92
   5  -4   9    4.91    4.25
  -3  -3   9   -0.08    2.29
  -2  -3   9   -0.03    2.33
  -1  -3   9    1.62    2.22
   0  -3   9    3.11    1.88
   1  -3   9   14.01    2.61
   2  -3   9   13.02    2.64
   3  -3   9    4.99    3.92
   4  -3   9    3.85    3.83
   5  -3   9    2.16    4.13
  -4  -2   9    1.37    2.51
  -3  -2   9    2.06    2.31
  -2  -2   9   -1.30    1.96
  -1  -2   9   10.50    3.26
   0  -2   9    5.26    2.03
   1  -2   9    1.05    1.94
   2  -2   9   12.34    4.10
   3  -2   9   12.94    4.82
   4  -2   9    0.79    3.60
   5  -2   9    1.86    3.75
  -4  -1   9    3.12    2.60
  -3  -1   9    1.90    2.47
  -2  -1   9    8.84    3.09
  -1  -1   9    2.22    1.97
   0  -1   9    2.51    1.85
   1  -1   9    2.54    3.63
   2  -1   9    5.10    3.88
   3  -1   9   13.93    4.83
   4  -1   9   -1.66    2.64
   5  -1   9    7.95    4.13
  -4   0   9   -1.64    2.05
  -3   0   9    4.70    2.48
  -2   0   9   11.74    3.15
  -1   0   9    2.58    2.22
   0   0   9   -0.76    1.55
   1   0   9    4.47    3.46
   2   0   9    6.74    3.53
   3   0   9    4.22    3.36
   4   0   9    0.36    2.82
  -5   1   9    6.50    2.91
  -4   1   9    0.54    2.00
  -3   1   9   15.00    3.52
  -2   1   9    3.30    2.09
  -1   1   9    1.06    1.87
   0   1   9    1.55    2.80
   1   1   9    2.06    3.05
   2   1   9   13.56    4.30
   3   1   9    5.40    3.34
   4   1   9    6.55    3.56
  -5   2   9    0.87    2.31
  -4   2   9    0.78    1.89
  -3   2   9    9.16    2.98
  -2   2   9    6.29    2.39
  -1   2   9    2.73    2.31
   0   2   9    8.55    3.69
   1   2   9   11.15    3.83
   2   2   9    1.51    3.03
   3   2   9    1.63    3.30
  -5   3   9    1.15    2.18
  -4   3   9   -0.78    1.64
  -3   3   9    3.87    2.19
  -2   3   9   11.67    3.27
  -1   3   9    5.63    2.64
   0   3   9    1.95    3.02
   1   3   9    1.41    3.29
   2   3   9    3.51    3.37
  -4   4   9   -0.28    1.93
  -3   4   9   -0.44    1.82
  -2   4   9    2.15    2.24
   0   4   9    4.28    3.54
   1   4   9    9.72    3.88
  -4   5   9    5.13    2.69
  -3   5   9    1.06    2.14
  -2   5   9    2.74    2.49
   0   0   0    0.00    0.00
;
_shelx_hkl_checksum              81574
loop_
_space_group_symop_operation_xyz
'x, y, z'
'-y, x-y, z'
'-x+y, -x, z'
'-x, -y, z+1/2'
'y, -x+y, z+1/2'
'x-y, x, z+1/2'
loop_
_atom_site_label
_atom_site_type_symbol
_atom_site_fract_x
_atom_site_fract_y
_atom_site_fract_z
_atom_site_U_iso_or_equiv
_atom_site_adp_type
_atom_site_occupancy
_atom_site_site_symmetry_order
_atom_site_calc_flag
_atom_site_refinement_flags_posn
_atom_site_refinement_flags_adp
_atom_site_refinement_flags_occupancy
_atom_site_disorder_assembly
_atom_site_disorder_group
La La 0.14809(12) 0.36952(11) 0.0555(2) 0.0230(2) Uani 1 1 d . . . . .
Cu1A Cu 0.0000 0.0000 0.0000(18) 0.0232(16) Uani 0.68(2) 3 d S T P . .
Cu1B Cu 0.0000 0.0000 -0.092(4) 0.0232(16) Uani 0.32(2) 3 d S T P . .
Ga Ga 0.3333 0.6667 0.6421(6) 0.0245(8) Uani 1 3 d S T P . .
Se1 Se 0.25444(19) 0.1501(2) 0.0177(3) 0.0202(4) Uani 1 1 d . . . . .
Se2 Se 0.52186(19) 0.09187(19) 0.2881(3) 0.0197(4) Uani 1 1 d . . . . .
Se3 Se 0.3333 0.6667 0.2693(5) 0.0168(6) Uani 1 3 d S T P . .
loop_
_atom_site_aniso_label
_atom_site_aniso_U_11
_atom_site_aniso_U_22
_atom_site_aniso_U_33
_atom_site_aniso_U_23
_atom_site_aniso_U_13
_atom_site_aniso_U_12
La 0.0221(5) 0.0168(5) 0.0295(4) 0.0029(5) 0.0029(5) 0.0093(4)
Cu1A 0.0152(11) 0.0152(11) 0.039(5) 0.000 0.000 0.0076(6)
Cu1B 0.0152(11) 0.0152(11) 0.039(5) 0.000 0.000 0.0076(6)
Ga 0.0290(12) 0.0290(12) 0.0156(15) 0.000 0.000 0.0145(6)
Se1 0.0168(8) 0.0164(7) 0.0277(10) 0.0045(7) 0.0024(7) 0.0086(6)
Se2 0.0175(8) 0.0190(8) 0.0200(7) 0.0015(7) -0.0011(8) 0.0072(6)
Se3 0.0180(8) 0.0180(8) 0.0144(12) 0.000 0.000 0.0090(4)
loop_
_atom_type_symbol
_atom_type_description
_atom_type_scat_dispersion_real
_atom_type_scat_dispersion_imag
_atom_type_scat_source
Cu Cu 0.3201 1.2651 'International Tables Vol C Tables 4.2.6.8 and 6.1.1.4'
Ga Ga 0.2307 1.6083 'International Tables Vol C Tables 4.2.6.8 and 6.1.1.4'
Se Se -0.0929 2.2259 'International Tables Vol C Tables 4.2.6.8 and 6.1.1.4'
La La -0.2871 2.4523 'International Tables Vol C Tables 4.2.6.8 and 6.1.1.4'
loop_
_geom_angle_atom_site_label_1
_geom_angle_atom_site_label_2
_geom_angle_atom_site_label_3
_geom_angle
_geom_angle_site_symmetry_1
_geom_angle_site_symmetry_3
Se2 La Se1 97.35(6) 5_564 2
Se2 La Se1 140.45(8) 5_564 .
Se1 La Se1 84.13(7) 2 .
Se2 La Se3 77.18(8) 5_564 .
Se1 La Se3 145.75(6) 2 .
Se1 La Se3 121.63(5) . .
Se2 La Se2 78.47(8) 5_564 6_554
Se1 La Se2 136.93(7) 2 6_554
Se1 La Se2 74.17(5) . 6_554
Se3 La Se2 75.81(8) . 6_554
Se2 La Se1 139.92(6) 5_564 6
Se1 La Se1 80.22(6) 2 6
Se1 La Se1 79.47(6) . 6
Se3 La Se1 82.88(9) . 6
Se2 La Se1 129.50(7) 6_554 6
Se2 La Se2 70.77(7) 5_564 2
Se1 La Se2 70.32(5) 2 2
Se1 La Se2 143.36(6) . 2
Se3 La Se2 76.06(5) . 2
Se2 La Se2 142.01(6) 6_554 2
Se1 La Se2 70.84(7) 6 2
Se2 La Cu1A 127.50(17) 5_564 .
Se1 La Cu1A 42.17(4) 2 .
Se1 La Cu1A 41.97(4) . .
Se3 La Cu1A 155.26(18) . .
Se2 La Cu1A 108.02(13) 6_554 .
Se1 La Cu1A 76.0(2) 6 .
Se2 La Cu1A 108.26(10) 2 .
Se2 La Cu1B 119.7(3) 5_564 .
Se1 La Cu1B 42.97(8) 2 .
Se1 La Cu1B 42.80(8) . .
Se3 La Cu1B 162.5(3) . .
Se2 La Cu1B 102.0(3) 6_554 .
Se1 La Cu1B 85.5(4) 6 .
Se2 La Cu1B 112.27(17) 2 .
Cu1A La Cu1B 9.5(3) . .
Cu1B Cu1A Se1 92.7(3) . .
Cu1B Cu1A Se1 92.7(3) . 3
Se1 Cu1A Se1 119.77(5) . 3
Cu1B Cu1A Se1 92.7(3) . 2
Se1 Cu1A Se1 119.77(5) . 2
Se1 Cu1A Se1 119.77(5) 3 2
Cu1B Cu1A Cu1B 180.0 . 4
Se1 Cu1A Cu1B 87.3(3) . 4
Se1 Cu1A Cu1B 87.3(3) 3 4
Se1 Cu1A Cu1B 87.3(3) 2 4
Cu1B Cu1A La 95.9(2) . 2
Se1 Cu1A La 171.3(5) . 2
Se1 Cu1A La 59.27(5) 3 2
Se1 Cu1A La 60.50(5) 2 2
Cu1B Cu1A La 84.1(2) 4 2
Cu1B Cu1A La 95.9(2) . 3
Se1 Cu1A La 59.27(5) . 3
Se1 Cu1A La 60.50(5) 3 3
Se1 Cu1A La 171.3(5) 2 3
Cu1B Cu1A La 84.1(2) 4 3
La Cu1A La 118.95(7) 2 3
Cu1B Cu1A La 95.9(2) . .
Se1 Cu1A La 60.50(5) . .
Se1 Cu1A La 171.3(5) 3 .
Se1 Cu1A La 59.27(5) 2 .
Cu1B Cu1A La 84.1(2) 4 .
La Cu1A La 118.95(7) 2 .
La Cu1A La 118.95(7) 3 .
Cu1A Cu1B Se1 73.4(6) . .
Cu1A Cu1B Se1 73.4(6) . 3
Se1 Cu1B Se1 112.2(5) . 3
Cu1A Cu1B Se1 73.4(6) . 2
Se1 Cu1B Se1 112.2(5) . 2
Se1 Cu1B Se1 112.2(5) 3 2
Cu1A Cu1B Cu1A 180.0 . 4_554
Se1 Cu1B Cu1A 106.6(6) . 4_554
Se1 Cu1B Cu1A 106.6(6) 3 4_554
Se1 Cu1B Cu1A 106.6(6) 2 4_554
Cu1A Cu1B La 74.6(4) . 2
Se1 Cu1B La 148.0(10) . 2
Se1 Cu1B La 56.88(16) 3 2
Se1 Cu1B La 58.05(16) 2 2
Cu1A Cu1B La 105.4(4) 4_554 2
Cu1A Cu1B La 74.6(4) . 3
Se1 Cu1B La 56.88(16) . 3
Se1 Cu1B La 58.05(16) 3 3
Se1 Cu1B La 148.0(10) 2 3
Cu1A Cu1B La 105.4(4) 4_554 3
La Cu1B La 113.2(3) 2 3
Cu1A Cu1B La 74.6(4) . .
Se1 Cu1B La 58.05(16) . .
Se1 Cu1B La 148.0(10) 3 .
Se1 Cu1B La 56.88(16) 2 .
Cu1A Cu1B La 105.4(4) 4_554 .
La Cu1B La 113.2(3) 2 .
La Cu1B La 113.2(3) 3 .
Se3 Ga Se2 112.66(10) . 4_665
Se3 Ga Se2 112.66(10) . 5_565
Se2 Ga Se2 106.10(11) 4_665 5_565
Se3 Ga Se2 112.66(10) . 6
Se2 Ga Se2 106.10(11) 4_665 6
Se2 Ga Se2 106.10(11) 5_565 6
Cu1A Se1 Cu1B 13.8(4) . .
Cu1A Se1 La 78.56(6) . 3
Cu1B Se1 La 80.15(10) . 3
Cu1A Se1 La 77.53(6) . .
Cu1B Se1 La 79.15(10) . .
La Se1 La 153.92(7) 3 .
Cu1A Se1 La 107.1(3) . 5_554
Cu1B Se1 La 93.3(6) . 5_554
La Se1 La 98.95(6) 3 5_554
La Se1 La 97.90(6) . 5_554
Ga Se2 La 88.63(9) 4_664 6_655
Ga Se2 La 86.48(8) 4_664 5
La Se2 La 102.74(9) 6_655 5
Ga Se2 La 120.27(11) 4_664 3
La Se2 La 147.49(6) 6_655 3
La Se2 La 94.22(7) 5 3
Ga Se3 La 116.33(7) . .
Ga Se3 La 116.33(7) . 3_565
La Se3 La 101.82(8) . 3_565
Ga Se3 La 116.33(7) . 2_665
La Se3 La 101.82(8) . 2_665
La Se3 La 101.82(8) 3_565 2_665
loop_
_geom_bond_atom_site_label_1
_geom_bond_atom_site_label_2
_geom_bond_distance
_geom_bond_site_symmetry_2
La Se2 3.015(3) 5_564
La Se1 3.018(4) 2
La Se1 3.067(4) .
La Se3 3.082(3) .
La Se2 3.109(3) 6_554
La Se1 3.142(4) 6
La Se2 3.281(3) 2
La Cu1A 3.441(4) .
La Cu1B 3.550(8) .
Cu1A Cu1B 0.588(18) .
Cu1A Se1 2.357(3) .
Cu1A Se1 2.357(3) 3
Cu1A Se1 2.357(3) 2
Cu1A Cu1B 2.608(18) 4
Cu1A La 3.441(4) 2
Cu1A La 3.441(4) 3
Cu1B Se1 2.456(8) .
Cu1B Se1 2.456(8) 3
Cu1B Se1 2.456(8) 2
Cu1B Cu1A 2.608(18) 4_554
Cu1B La 3.550(8) 2
Cu1B La 3.550(8) 3
Ga Se3 2.383(5) .
Ga Se2 2.424(3) 4_665
Ga Se2 2.424(3) 5_565
Ga Se2 2.424(3) 6
Se1 La 3.018(4) 3
Se1 La 3.142(4) 5_554
Se2 Ga 2.424(3) 4_664
Se2 La 3.015(3) 6_655
Se2 La 3.109(3) 5
Se2 La 3.281(3) 3
Se3 La 3.082(3) 3_565
Se3 La 3.082(3) 2_665
