#------------------------------------------------------------------------------
#$Date: 2021-03-30 12:24:14 +0300 (Tue, 30 Mar 2021) $
#$Revision: 263446 $
#$URL: file:///home/coder/svn-repositories/cod/cif/1/56/13/1561369.cif $
#------------------------------------------------------------------------------
#
# This file is available in the Crystallography Open Database (COD),
# http://www.crystallography.net/
#
# All data on this site have been placed in the public domain by the
# contributors.
#
data_1561369
loop_
_publ_author_name
'Nolas, George S.'
'Hassan, M. Shafiq'
'Dong, Yongkwan'
'Martin, Joshua'
_publ_section_title
;
 Synthesis, crystal structure and electrical properties of the tetrahedral
 quaternary chalcogenides CuM2InTe4 (M=Zn, Cd)
;
_journal_name_full               'Journal of Solid State Chemistry'
_journal_page_first              50
_journal_page_last               54
_journal_paper_doi               10.1016/j.jssc.2016.03.038
_journal_volume                  242
_journal_year                    2016
_chemical_formula_sum            'Cu0.25 In0.25 Te Zn0.5'
_chemical_formula_weight         204.88
_space_group_IT_number           216
_space_group_name_Hall           'F -4 2 3'
_space_group_name_H-M_alt        'F -4 3 m'
_symmetry_cell_setting           cubic
_symmetry_space_group_name_H-M   'F -4 3 m'
_cell_angle_alpha                90.0
_cell_angle_beta                 90.0
_cell_angle_gamma                90.0
_cell_formula_units_Z            4
_cell_length_a                   6.15203(9)
_cell_length_b                   6.15203
_cell_length_c                   6.15203
_cell_volume                     232.839(3)
_computing_structure_refinement  GSAS
_diffrn_radiation_polarisn_ratio 0.87
_diffrn_radiation_probe          x-ray
_exptl_absorpt_correction_T_max  1.00000
_exptl_absorpt_correction_T_min  1.00000
_exptl_absorpt_process_details
;   GSAS Absorption/surface roughness correction: function number 0
 No correction is applied.
;
_pd_calc_method                  'Rietveld Refinement'
_pd_instr_location               ' ?'
_pd_meas_2theta_range_inc        0.01998
_pd_meas_2theta_range_max        99.98992
_pd_meas_2theta_range_min        10.0
_pd_meas_number_of_points        4505
_pd_phase_name                   1
_pd_proc_2theta_range_inc        0.01998
_pd_proc_2theta_range_max        99.98992
_pd_proc_2theta_range_min        10.0
_pd_proc_info_datetime           2015-03-13T09:32:20
_pd_proc_info_excluded_regions   ' ?'
_pd_proc_ls_background_function
;   GSAS Background function number 1 with 18 terms.
 Shifted Chebyshev function of 1st kind
      1:    2076.93     2:   -2314.45     3:    1821.96     4:   -1366.75    
      5:    1027.18     6:   -776.995     7:    585.522     8:   -423.945    
      9:    313.862    10:   -252.430    11:    187.615    12:   -117.192    
     13:    73.2532    14:   -33.7718    15:    21.7319    16:    15.2528    
     17:   -25.6451    18:    25.5204    
;
_pd_proc_ls_peak_cutoff          0.00100
_pd_proc_ls_profile_function
;
 CW Profile function number 3 with  19 terms
 Pseudovoigt profile coefficients as parameterized in
 P. Thompson, D.E. Cox & J.B. Hastings (1987). J. Appl. Cryst.,20,79-83.
 Asymmetry correction of L.W. Finger, D.E. Cox & A. P. Jephcoat (1994).
 J. Appl. Cryst.,27,892-900.
 #1(GU)   =    0.000 #2(GV)   =   53.083 #3(GW)   =   -0.724
 #4(GP)   =    3.956 #5(LX)   =    4.665 #6(LY)   =   23.489
 #7(S/L)  =   0.0005 #8(H/L)  =   0.0065
 #9(trns) =    -0.29 #10(shft)=  -7.8405
 #11(stec)=    14.98 #12(ptec)=     2.06 #13(sfec)=     0.00
 #14(L11) =    0.235 #15(L22) =    0.000 #16(L33) =    0.000
 #17(L12) =    0.000 #18(L13) =    0.000 #19(L23) =    0.000
 Peak tails are ignored  where the intensity is below 0.0010 times the peak
   Aniso. broadening axis   0.0   0.0   1.0
;
_pd_proc_ls_prof_R_factor        0.0353
_pd_proc_ls_prof_wR_expected     0.0234
_pd_proc_ls_prof_wR_factor       0.0479
_pd_proc_number_of_points        4505
_pd_spec_mounting                ' ?'
_refine_ls_goodness_of_fit_all   2.05
_refine_ls_matrix_type           full
_refine_ls_number_parameters     28
_refine_ls_number_restraints     0
_refine_ls_R_Fsqd_factor         0.02635
_reflns_d_resolution_high        1.025
_reflns_d_resolution_low         3.552
_reflns_limit_h_max              6
_reflns_limit_h_min              1
_reflns_limit_k_max              4
_reflns_limit_k_min              0
_reflns_limit_l_max              3
_reflns_limit_l_min              0
_reflns_number_total             30
_cod_data_source_file            mmc2.cif
_cod_data_source_block           CuZn2InTe4
_cod_depositor_comments
;
The following automatic conversions were performed:

data item '_geom_angle_publ_flag' value 'N' was changed to 'n' in
accordance with the built-in table derived from the CIF Core
dictionary named 'cif_core.dic' version 2.4.5 last updated on
2014-11-21 (84 times).

data item '_geom_bond_publ_flag' value 'N' was changed to 'n' in
accordance with the built-in table derived from the CIF Core
dictionary named 'cif_core.dic' version 2.4.5 last updated on
2014-11-21 (24 times).

Automatic conversion script
Id: cif_fix_values 8369 2020-08-20 11:38:08Z andrius 
;
_cod_original_cell_volume        232.839(10)
_cod_original_formula_sum        'Cu0.25 In0.25 Te Zn0.50'
_cod_database_code               1561369
_gsas_exptl_extinct_corr_t_min   1.00000
_gsas_exptl_extinct_corr_t_max   1.00000
loop_
_symmetry_equiv_pos_site_id
_symmetry_equiv_pos_as_xyz
1 +x,+y,+z
2 +z,+x,+y
3 +y,+z,+x
4 +y,-x,-z
5 -z,+y,-x
6 -x,-z,+y
7 -x,-y,+z
8 -z,+x,-y
9 -y,-z,+x
10 +x,-y,-z
11 +z,-x,-y
12 -y,+z,-x
13 -y,+x,-z
14 -z,-y,+x
15 +x,-z,-y
16 +x,+z,+y
17 +y,+x,+z
18 +z,+y,+x
19 +y,-z,-x
20 -y,-x,+z
21 +z,-y,-x
22 -x,+z,-y
23 -x,+y,-z
24 -z,-x,+y
101 +x,+y+1/2,+z+1/2
102 +z,+x+1/2,+y+1/2
103 +y,+z+1/2,+x+1/2
104 +y,-x+1/2,-z+1/2
105 -z,+y+1/2,-x+1/2
106 -x,-z+1/2,+y+1/2
107 -x,-y+1/2,+z+1/2
108 -z,+x+1/2,-y+1/2
109 -y,-z+1/2,+x+1/2
110 +x,-y+1/2,-z+1/2
111 +z,-x+1/2,-y+1/2
112 -y,+z+1/2,-x+1/2
113 -y,+x+1/2,-z+1/2
114 -z,-y+1/2,+x+1/2
115 +x,-z+1/2,-y+1/2
116 +x,+z+1/2,+y+1/2
117 +y,+x+1/2,+z+1/2
118 +z,+y+1/2,+x+1/2
119 +y,-z+1/2,-x+1/2
120 -y,-x+1/2,+z+1/2
121 +z,-y+1/2,-x+1/2
122 -x,+z+1/2,-y+1/2
123 -x,+y+1/2,-z+1/2
124 -z,-x+1/2,+y+1/2
201 +x+1/2,+y,+z+1/2
202 +z+1/2,+x,+y+1/2
203 +y+1/2,+z,+x+1/2
204 +y+1/2,-x,-z+1/2
205 -z+1/2,+y,-x+1/2
206 -x+1/2,-z,+y+1/2
207 -x+1/2,-y,+z+1/2
208 -z+1/2,+x,-y+1/2
209 -y+1/2,-z,+x+1/2
210 +x+1/2,-y,-z+1/2
211 +z+1/2,-x,-y+1/2
212 -y+1/2,+z,-x+1/2
213 -y+1/2,+x,-z+1/2
214 -z+1/2,-y,+x+1/2
215 +x+1/2,-z,-y+1/2
216 +x+1/2,+z,+y+1/2
217 +y+1/2,+x,+z+1/2
218 +z+1/2,+y,+x+1/2
219 +y+1/2,-z,-x+1/2
220 -y+1/2,-x,+z+1/2
221 +z+1/2,-y,-x+1/2
222 -x+1/2,+z,-y+1/2
223 -x+1/2,+y,-z+1/2
224 -z+1/2,-x,+y+1/2
301 +x+1/2,+y+1/2,+z
302 +z+1/2,+x+1/2,+y
303 +y+1/2,+z+1/2,+x
304 +y+1/2,-x+1/2,-z
305 -z+1/2,+y+1/2,-x
306 -x+1/2,-z+1/2,+y
307 -x+1/2,-y+1/2,+z
308 -z+1/2,+x+1/2,-y
309 -y+1/2,-z+1/2,+x
310 +x+1/2,-y+1/2,-z
311 +z+1/2,-x+1/2,-y
312 -y+1/2,+z+1/2,-x
313 -y+1/2,+x+1/2,-z
314 -z+1/2,-y+1/2,+x
315 +x+1/2,-z+1/2,-y
316 +x+1/2,+z+1/2,+y
317 +y+1/2,+x+1/2,+z
318 +z+1/2,+y+1/2,+x
319 +y+1/2,-z+1/2,-x
320 -y+1/2,-x+1/2,+z
321 +z+1/2,-y+1/2,-x
322 -x+1/2,+z+1/2,-y
323 -x+1/2,+y+1/2,-z
324 -z+1/2,-x+1/2,+y
loop_
_atom_site_type_symbol
_atom_site_label
_atom_site_fract_x
_atom_site_fract_y
_atom_site_fract_z
_atom_site_occupancy
_atom_site_thermal_displace_type
_atom_site_U_iso_or_equiv
_atom_site_symmetry_multiplicity
Cu CU1 0.0 0.0 0.0 0.25 Uiso 0.0255(6) 4
In IN2 0.0 0.0 0.0 0.25 Uiso 0.0255(6) 4
Zn ZN3 0.0 0.0 0.0 0.5 Uiso 0.0255(6) 4
Te TE4 0.25 0.25 0.25 1.0 Uiso 0.02329(34) 4
loop_
_atom_type_symbol
_atom_type_number_in_cell
_atom_type_scat_dispersion_real
_atom_type_scat_dispersion_imag
_atom_type_scat_Cromer_Mann_a1
_atom_type_scat_Cromer_Mann_a2
_atom_type_scat_Cromer_Mann_a3
_atom_type_scat_Cromer_Mann_a4
_atom_type_scat_Cromer_Mann_b1
_atom_type_scat_Cromer_Mann_b2
_atom_type_scat_Cromer_Mann_b3
_atom_type_scat_Cromer_Mann_b4
_atom_type_scat_Cromer_Mann_c
_atom_type_scat_source
Cu 1.0 0.000 0.000 13.3380 3.58280 7.16760 0.24700 5.61580 11.3966 1.67350
64.8126 1.19100 International_Tables_Vol_C
In 1.0 0.000 0.000 19.1624 0.54760 18.5596 6.37760 4.29480 25.8499 2.03960
92.8029 4.93910 International_Tables_Vol_C
Zn 2.0 0.000 0.000 14.0743 3.26550 7.03180 0.23330 5.16520 10.3163 2.41000
58.7097 1.30410 International_Tables_Vol_C
Te 4.0 0.000 0.000 19.9644 4.81742 19.0138 0.42088 6.14487 28.5284 2.52390
70.8403 4.35200 International_Tables_Vol_C
loop_
_diffrn_radiation_wavelength
_diffrn_radiation_wavelength_wt
_diffrn_radiation_type
_diffrn_radiation_wavelength_id
1.540600 1.000 K\a~1~ 1
1.544400 0.500 K\a~2~ 2
loop_
_geom_angle_atom_site_label_1
_geom_angle_atom_site_label_2
_geom_angle_atom_site_label_3
_geom_angle
_geom_angle_site_symmetry_1
_geom_angle_site_symmetry_2
_geom_angle_site_symmetry_3
_geom_angle_publ_flag
TE4 CU1 TE4 109.4712(6) 1_555 . 4_555 n
TE4 CU1 TE4 109.4712(6) 1_555 . 5_555 n
TE4 CU1 TE4 109.4712(11) 1_555 . 6_555 n
TE4 CU1 TE4 109.4712(11) 4_555 . 5_555 n
TE4 CU1 TE4 109.4712(6) 4_555 . 6_555 n
TE4 CU1 TE4 109.4712(6) 5_555 . 6_555 n
TE4 IN2 TE4 109.4712(6) 1_555 . 4_555 n
TE4 IN2 TE4 109.4712(6) 1_555 . 5_555 n
TE4 IN2 TE4 109.4712(11) 1_555 . 6_555 n
TE4 IN2 TE4 109.4712(11) 4_555 . 5_555 n
TE4 IN2 TE4 109.4712(6) 4_555 . 6_555 n
TE4 IN2 TE4 109.4712(6) 5_555 . 6_555 n
TE4 ZN3 TE4 109.4712(6) 1_555 . 4_555 n
TE4 ZN3 TE4 109.4712(6) 1_555 . 5_555 n
TE4 ZN3 TE4 109.4712(11) 1_555 . 6_555 n
TE4 ZN3 TE4 109.4712(11) 4_555 . 5_555 n
TE4 ZN3 TE4 109.4712(6) 4_555 . 6_555 n
TE4 ZN3 TE4 109.4712(6) 5_555 . 6_555 n
CU1 TE4 CU1 109.4712(6) 1_555 . 101_555 n
CU1 TE4 CU1 109.4712(6) 1_555 . 201_555 n
CU1 TE4 CU1 109.4712(11) 1_555 . 301_555 n
CU1 TE4 IN2 0.0 1_555 . 1_555 n
CU1 TE4 IN2 109.4712(6) 1_555 . 101_555 n
CU1 TE4 IN2 109.4712(6) 1_555 . 201_555 n
CU1 TE4 IN2 109.4712(11) 1_555 . 301_555 n
CU1 TE4 ZN3 0.0 1_555 . 1_555 n
CU1 TE4 ZN3 109.4712(6) 1_555 . 101_555 n
CU1 TE4 ZN3 109.4712(6) 1_555 . 201_555 n
CU1 TE4 ZN3 109.4712(11) 1_555 . 301_555 n
CU1 TE4 CU1 109.4712(11) 101_555 . 201_555 n
CU1 TE4 CU1 109.4712(6) 101_555 . 301_555 n
CU1 TE4 IN2 109.4712(6) 101_555 . 1_555 n
CU1 TE4 IN2 0.0 101_555 . 101_555 n
CU1 TE4 IN2 109.4712(11) 101_555 . 201_555 n
CU1 TE4 IN2 109.4712(6) 101_555 . 301_555 n
CU1 TE4 ZN3 109.4712(6) 101_555 . 1_555 n
CU1 TE4 ZN3 0.0 101_555 . 101_555 n
CU1 TE4 ZN3 109.4712(11) 101_555 . 201_555 n
CU1 TE4 ZN3 109.4712(6) 101_555 . 301_555 n
CU1 TE4 CU1 109.4712(6) 201_555 . 301_555 n
CU1 TE4 IN2 109.4712(6) 201_555 . 1_555 n
CU1 TE4 IN2 109.4712(11) 201_555 . 101_555 n
CU1 TE4 IN2 0.0 201_555 . 201_555 n
CU1 TE4 IN2 109.4712(6) 201_555 . 301_555 n
CU1 TE4 ZN3 109.4712(6) 201_555 . 1_555 n
CU1 TE4 ZN3 109.4712(11) 201_555 . 101_555 n
CU1 TE4 ZN3 0.0 201_555 . 201_555 n
CU1 TE4 ZN3 109.4712(6) 201_555 . 301_555 n
CU1 TE4 IN2 109.4712(11) 301_555 . 1_555 n
CU1 TE4 IN2 109.4712(6) 301_555 . 101_555 n
CU1 TE4 IN2 109.4712(6) 301_555 . 201_555 n
CU1 TE4 IN2 0.0 301_555 . 301_555 n
CU1 TE4 ZN3 109.4712(11) 301_555 . 1_555 n
CU1 TE4 ZN3 109.4712(6) 301_555 . 101_555 n
CU1 TE4 ZN3 109.4712(6) 301_555 . 201_555 n
CU1 TE4 ZN3 0.0 301_555 . 301_555 n
IN2 TE4 IN2 109.4712(6) 1_555 . 101_555 n
IN2 TE4 IN2 109.4712(6) 1_555 . 201_555 n
IN2 TE4 IN2 109.4712(11) 1_555 . 301_555 n
IN2 TE4 ZN3 0.0 1_555 . 1_555 n
IN2 TE4 ZN3 109.4712(6) 1_555 . 101_555 n
IN2 TE4 ZN3 109.4712(6) 1_555 . 201_555 n
IN2 TE4 ZN3 109.4712(11) 1_555 . 301_555 n
IN2 TE4 IN2 109.4712(11) 101_555 . 201_555 n
IN2 TE4 IN2 109.4712(6) 101_555 . 301_555 n
IN2 TE4 ZN3 109.4712(6) 101_555 . 1_555 n
IN2 TE4 ZN3 0.0 101_555 . 101_555 n
IN2 TE4 ZN3 109.4712(11) 101_555 . 201_555 n
IN2 TE4 ZN3 109.4712(6) 101_555 . 301_555 n
IN2 TE4 IN2 109.4712(6) 201_555 . 301_555 n
IN2 TE4 ZN3 109.4712(6) 201_555 . 1_555 n
IN2 TE4 ZN3 109.4712(11) 201_555 . 101_555 n
IN2 TE4 ZN3 0.0 201_555 . 201_555 n
IN2 TE4 ZN3 109.4712(6) 201_555 . 301_555 n
IN2 TE4 ZN3 109.4712(11) 301_555 . 1_555 n
IN2 TE4 ZN3 109.4712(6) 301_555 . 101_555 n
IN2 TE4 ZN3 109.4712(6) 301_555 . 201_555 n
IN2 TE4 ZN3 0.0 301_555 . 301_555 n
ZN3 TE4 ZN3 109.4712(6) 1_555 . 101_555 n
ZN3 TE4 ZN3 109.4712(6) 1_555 . 201_555 n
ZN3 TE4 ZN3 109.4712(11) 1_555 . 301_555 n
ZN3 TE4 ZN3 109.4712(11) 101_555 . 201_555 n
ZN3 TE4 ZN3 109.4712(6) 101_555 . 301_555 n
ZN3 TE4 ZN3 109.4712(6) 201_555 . 301_555 n
loop_
_geom_bond_atom_site_label_1
_geom_bond_atom_site_label_2
_geom_bond_distance
_geom_bond_site_symmetry_1
_geom_bond_site_symmetry_2
_geom_bond_publ_flag
CU1 TE4 2.663910(30) . 1_555 n
CU1 TE4 2.663910(30) . 4_555 n
CU1 TE4 2.663910(30) . 5_555 n
CU1 TE4 2.663910(30) . 6_555 n
IN2 TE4 2.663910(30) . 1_555 n
IN2 TE4 2.663910(30) . 4_555 n
IN2 TE4 2.663910(30) . 5_555 n
IN2 TE4 2.663910(30) . 6_555 n
ZN3 TE4 2.663910(30) . 1_555 n
ZN3 TE4 2.663910(30) . 4_555 n
ZN3 TE4 2.663910(30) . 5_555 n
ZN3 TE4 2.663910(30) . 6_555 n
TE4 CU1 2.663910(30) . 1_555 n
TE4 CU1 2.663910(30) . 101_555 n
TE4 CU1 2.663910(30) . 201_555 n
TE4 CU1 2.663910(30) . 301_555 n
TE4 IN2 2.663910(30) . 1_555 n
TE4 IN2 2.663910(30) . 101_555 n
TE4 IN2 2.663910(30) . 201_555 n
TE4 IN2 2.663910(30) . 301_555 n
TE4 ZN3 2.663910(30) . 1_555 n
TE4 ZN3 2.663910(30) . 101_555 n
TE4 ZN3 2.663910(30) . 201_555 n
TE4 ZN3 2.663910(30) . 301_555 n
loop_
_pd_meas_counts_total
_pd_proc_ls_weight
_pd_proc_intensity_bkg_calc
_pd_calc_intensity_total
11005.0 0.0000909 11327.16992 11327.15527
11028.0 0.0000907 11249.15430 11249.14063
10818.0 0.0000924 11171.64063 11171.62793
10686.0 0.0000936 11094.64258 11094.62988
10822.0 0.0000924 11018.15234 11018.14063
10802.0 0.0000926 10942.17676 10942.16504
10508.0 0.0000952 10866.70605 10866.69531
10565.0 0.0000947 10791.74609 10791.73535
10394.0 0.0000962 10717.30176 10717.29102
10582.0 0.0000945 10643.35645 10643.34668
10557.0 0.0000947 10569.91699 10569.90820
10429.0 0.0000959 10496.99609 10496.98730
10330.0 0.0000968 10424.57520 10424.56738
9992.0 0.0001001 10352.66602 10352.65820
9984.0 0.0001002 10281.25391 10281.24609
9936.0 0.0001006 10210.35449 10210.34766
10251.0 0.0000976 10139.95801 10139.95117
9974.0 0.0001003 10070.06152 10070.05566
9972.0 0.0001003 10000.67188 10000.66602
9847.0 0.0001016 9931.77832 9931.77246
9714.0 0.0001029 9863.39453 9863.38867
9685.0 0.0001033 9795.50195 9795.49707
9538.0 0.0001048 9728.10840 9728.10449
9641.0 0.0001037 9661.22070 9661.21680
9635.0 0.0001038 9594.82129 9594.81738
9288.0 0.0001077 9528.91309 9528.90918
9543.0 0.0001048 9463.51270 9463.50879
9348.0 0.0001070 9398.59570 9398.59180
9396.0 0.0001064 9334.17480 9334.17188
9137.0 0.0001094 9270.23828 9270.23535
9240.0 0.0001082 9206.79004 9206.78809
9260.0 0.0001080 9143.83887 9143.83691
9138.0 0.0001094 9081.36621 9081.36426
8993.0 0.0001112 9019.38086 9019.37793
9121.0 0.0001096 8957.87500 8957.87305
9010.0 0.0001110 8896.84766 8896.84570
8986.0 0.0001113 8836.30957 8836.30859
8876.0 0.0001127 8776.24609 8776.24414
8928.0 0.0001120 8716.65625 8716.65527
8700.0 0.0001149 8657.54688 8657.54590
8631.0 0.0001159 8598.90137 8598.90039
8747.0 0.0001143 8540.74121 8540.74023
8745.0 0.0001144 8483.04004 8483.03906
8498.0 0.0001177 8425.80859 8425.80762
8453.0 0.0001183 8369.04590 8369.04590
8461.0 0.0001182 8312.74219 8312.74219
8209.0 0.0001218 8256.91016 8256.91016
8357.0 0.0001197 8201.53223 8201.53125
8362.0 0.0001196 8146.61230 8146.61182
8150.0 0.0001227 8092.15381 8092.15332
8245.0 0.0001213 8038.14502 8038.14453
8079.0 0.0001238 7984.58838 7984.58838
8190.0 0.0001221 7931.49072 7931.49023
8099.0 0.0001235 7878.83398 7878.83398
8016.0 0.0001248 7826.63037 7826.63037
8078.0 0.0001238 7774.86816 7774.86768
7957.0 0.0001257 7723.54150 7723.54150
7911.0 0.0001264 7672.66943 7672.66895
7944.0 0.0001259 7622.22754 7622.22754
7750.0 0.0001290 7572.22461 7572.22461
7638.0 0.0001309 7522.65430 7522.65430
7679.0 0.0001302 7473.51367 7473.51318
7646.0 0.0001308 7424.80713 7424.80713
7610.0 0.0001314 7376.52686 7376.52686
7657.0 0.0001306 7328.66992 7328.66992
7379.0 0.0001355 7281.24023 7281.24023
7575.0 0.0001320 7234.22656 7234.22607
7304.0 0.0001369 7187.63965 7187.63965
7162.0 0.0001396 7141.46289 7141.46289
7293.0 0.0001371 7095.70068 7095.70020
7183.0 0.0001392 7050.35254 7050.35254
7239.0 0.0001381 7005.40869 7005.40869
7222.0 0.0001385 6960.88086 6960.88037
7201.0 0.0001389 6916.75098 6916.75098
7141.0 0.0001400 6873.02637 6873.02588
6887.0 0.0001452 6829.70313 6829.70264
7017.0 0.0001425 6786.77490 6786.77441
6936.0 0.0001442 6744.24170 6744.24121
6789.0 0.0001473 6702.10693 6702.10645
6944.0 0.0001440 6660.36133 6660.36084
6725.0 0.0001487 6619.00293 6619.00244
6815.0 0.0001467 6578.02930 6578.02881
6687.0 0.0001495 6537.43799 6537.43750
6549.0 0.0001527 6497.23779 6497.23682
6543.0 0.0001528 6457.40820 6457.40771
6756.0 0.0001480 6417.95605 6417.95508
6559.0 0.0001525 6378.87988 6378.87891
6562.0 0.0001524 6340.16943 6340.16846
6488.0 0.0001541 6301.83838 6301.83691
6457.0 0.0001549 6263.86865 6263.86768
6420.0 0.0001558 6226.26221 6226.26123
6276.0 0.0001593 6189.02002 6189.01855
6190.0 0.0001616 6152.13525 6152.13379
6264.0 0.0001596 6115.61133 6115.60986
6325.0 0.0001581 6079.43848 6079.43701
6242.0 0.0001602 6043.61865 6043.61670
6099.0 0.0001640 6008.15137 6008.14990
6091.0 0.0001642 5973.02783 5973.02588
5991.0 0.0001669 5938.24707 5938.24512
5940.0 0.0001684 5903.81689 5903.81494
5926.0 0.0001687 5869.72168 5869.71973
5873.0 0.0001703 5835.96533 5835.96289
5864.0 0.0001705 5802.54297 5802.54053
5885.0 0.0001699 5769.45020 5769.44824
5783.0 0.0001729 5736.69336 5736.69092
5772.0 0.0001733 5704.26270 5704.26025
5594.0 0.0001788 5672.15674 5672.15430
5709.0 0.0001752 5640.37451 5640.37207
5693.0 0.0001757 5608.91016 5608.90723
5568.0 0.0001796 5577.76709 5577.76416
5518.0 0.0001812 5546.93799 5546.93506
5552.0 0.0001801 5516.42139 5516.41846
5404.0 0.0001850 5486.21924 5486.21631
5341.0 0.0001872 5456.31934 5456.31641
5230.0 0.0001912 5426.73242 5426.72900
5294.0 0.0001889 5397.44385 5397.44043
5287.0 0.0001891 5368.45703 5368.45361
5225.0 0.0001914 5339.77100 5339.76758
5240.0 0.0001908 5311.37891 5311.37549
5268.0 0.0001898 5283.28320 5283.27979
5157.0 0.0001939 5255.47754 5255.47363
5001.0 0.0002000 5227.95996 5227.95605
5195.0 0.0001925 5200.73096 5200.72705
5143.0 0.0001944 5173.78516 5173.78125
5092.0 0.0001964 5147.12012 5147.11621
5049.0 0.0001981 5120.73828 5120.73438
4830.0 0.0002070 5094.63184 5094.62744
4966.0 0.0002014 5068.80127 5068.79688
4960.0 0.0002016 5043.24219 5043.23779
4922.0 0.0002032 5017.94922 5017.94482
4702.0 0.0002127 4992.93262 4992.92822
4839.0 0.0002067 4968.17578 4968.17090
4754.0 0.0002103 4943.68457 4943.68018
4764.0 0.0002099 4919.45264 4919.44775
4763.0 0.0002100 4895.47803 4895.47314
4633.0 0.0002158 4871.76318 4871.75830
4656.0 0.0002148 4848.30029 4848.29541
4706.0 0.0002125 4825.08838 4825.08350
4634.0 0.0002158 4802.12842 4802.12354
4756.0 0.0002103 4779.41260 4779.40771
4622.0 0.0002164 4756.94678 4756.94141
4540.0 0.0002203 4734.71875 4734.71338
4614.0 0.0002167 4712.73096 4712.72559
4559.0 0.0002193 4690.98584 4690.98047
4520.0 0.0002212 4669.47168 4669.46631
4557.0 0.0002194 4648.19580 4648.18994
4470.0 0.0002237 4627.14844 4627.14307
4438.0 0.0002253 4606.33203 4606.32666
4362.0 0.0002293 4585.74219 4585.73633
4253.0 0.0002351 4565.37695 4565.37109
4312.0 0.0002319 4545.23291 4545.22705
4284.0 0.0002334 4525.31348 4525.30762
4324.0 0.0002313 4505.61084 4505.60498
4269.0 0.0002342 4486.12451 4486.11816
4166.0 0.0002400 4466.85156 4466.84570
4287.0 0.0002333 4447.79102 4447.78516
4186.0 0.0002389 4428.94336 4428.93701
4264.0 0.0002345 4410.30029 4410.29395
4212.0 0.0002374 4391.86475 4391.85840
4219.0 0.0002370 4373.63135 4373.62500
4123.0 0.0002425 4355.59912 4355.59277
4267.0 0.0002344 4337.77002 4337.76367
4143.0 0.0002414 4320.13623 4320.12988
4141.0 0.0002415 4302.69775 4302.69092
4109.0 0.0002434 4285.45361 4285.44727
4086.0 0.0002447 4268.39990 4268.39355
4189.0 0.0002387 4251.53809 4251.53174
4218.0 0.0002371 4234.86182 4234.85547
3970.0 0.0002519 4218.37109 4218.36426
3975.0 0.0002516 4202.06445 4202.05811
4055.0 0.0002466 4185.93848 4185.93164
4034.0 0.0002479 4169.99512 4169.98828
3983.0 0.0002511 4154.22803 4154.22119
3979.0 0.0002513 4138.63525 4138.62842
4138.0 0.0002417 4123.21826 4123.21143
4050.0 0.0002469 4107.97168 4107.96484
4013.0 0.0002492 4092.89404 4092.88721
3998.0 0.0002501 4077.98877 4077.98169
3956.0 0.0002528 4063.24707 4063.23999
3949.0 0.0002532 4048.67065 4048.66382
3981.0 0.0002512 4034.25635 4034.24927
3869.0 0.0002585 4020.00220 4019.99512
3847.0 0.0002599 4005.90918 4005.90210
3967.0 0.0002521 3991.97192 3991.96484
3856.0 0.0002593 3978.18970 3978.18262
3898.0 0.0002565 3964.56201 3964.55493
3941.0 0.0002537 3951.08521 3951.07813
3837.0 0.0002606 3937.76025 3937.75317
3855.0 0.0002594 3924.58203 3924.57495
3793.0 0.0002636 3911.55127 3911.54395
3798.0 0.0002633 3898.66479 3898.65747
3951.0 0.0002531 3885.92065 3885.91357
3791.0 0.0002638 3873.32031 3873.31299
3828.0 0.0002612 3860.85742 3860.85010
3897.0 0.0002566 3848.53394 3848.52661
3816.0 0.0002621 3836.34595 3836.33887
3693.0 0.0002708 3824.29370 3824.28638
3804.0 0.0002629 3812.37256 3812.36523
3781.0 0.0002645 3800.58496 3800.57764
3818.0 0.0002619 3788.92700 3788.91968
3766.0 0.0002655 3777.39844 3777.39111
3693.0 0.0002708 3765.99414 3765.98706
3836.0 0.0002607 3754.71436 3754.70703
3763.0 0.0002657 3743.56128 3743.55396
3593.0 0.0002783 3732.52734 3732.52002
3656.0 0.0002735 3721.61572 3721.60840
3779.0 0.0002646 3710.82178 3710.81445
3645.0 0.0002743 3700.14404 3700.13672
3763.0 0.0002657 3689.58447 3689.57715
3640.0 0.0002747 3679.13770 3679.13062
3636.0 0.0002750 3668.80420 3668.79688
3624.0 0.0002759 3658.58276 3658.57544
3614.0 0.0002767 3648.46997 3648.46265
3692.0 0.0002709 3638.46729 3638.45996
3739.0 0.0002675 3628.57007 3628.56274
3641.0 0.0002746 3618.77832 3618.77100
3712.0 0.0002694 3609.09229 3609.08496
3587.0 0.0002788 3599.50708 3599.49976
3697.0 0.0002705 3590.02515 3590.01807
3685.0 0.0002714 3580.64282 3580.63550
3583.0 0.0002791 3571.35791 3571.35083
3619.0 0.0002763 3562.17188 3562.16455
3625.0 0.0002759 3553.08057 3553.07324
3598.0 0.0002779 3544.08325 3544.07617
3509.0 0.0002850 3535.18066 3535.17358
3540.0 0.0002825 3526.36914 3526.36206
3656.0 0.0002735 3517.64917 3517.64209
3555.0 0.0002813 3509.01758 3509.01050
3606.0 0.0002773 3500.47388 3500.46704
3469.0 0.0002883 3492.01807 3492.01123
3619.0 0.0002763 3483.64722 3483.64014
3629.0 0.0002756 3475.36108 3475.35425
3571.0 0.0002800 3467.15796 3467.15112
3669.0 0.0002726 3459.03589 3459.02881
3551.0 0.0002816 3450.99634 3450.98950
3473.0 0.0002879 3443.03467 3443.02783
3421.0 0.0002923 3435.15210 3435.14526
3486.0 0.0002869 3427.34619 3427.33936
3494.0 0.0002862 3419.61572 3419.60889
3501.0 0.0002856 3411.96167 3411.95483
3567.0 0.0002803 3404.37988 3404.37305
3373.0 0.0002965 3396.87183 3396.86523
3493.0 0.0002863 3389.43433 3389.42749
3571.0 0.0002800 3382.06689 3382.06006
3416.0 0.0002927 3374.77075 3374.76416
3495.0 0.0002861 3367.54077 3367.53418
3343.0 0.0002991 3360.37842 3360.37183
3559.0 0.0002810 3353.28271 3353.27637
3394.0 0.0002946 3346.25122 3346.24463
3401.0 0.0002940 3339.28320 3339.27661
3457.0 0.0002893 3332.37939 3332.37305
3376.0 0.0002962 3325.53687 3325.53052
3404.0 0.0002938 3318.75586 3318.74951
3433.0 0.0002913 3312.03369 3312.02734
3416.0 0.0002927 3305.37061 3305.36426
3290.0 0.0003040 3298.76636 3298.76025
3379.0 0.0002959 3292.21802 3292.21191
3349.0 0.0002986 3285.72681 3285.72070
3357.0 0.0002979 3279.28979 3279.28369
3303.0 0.0003028 3272.90674 3272.90063
3286.0 0.0003043 3266.57837 3266.57227
3398.0 0.0002943 3260.30151 3260.29565
3343.0 0.0002991 3254.07593 3254.06982
3270.0 0.0003058 3247.90039 3247.89453
3361.0 0.0002975 3241.77490 3241.76904
3306.0 0.0003025 3235.69897 3235.69287
3342.0 0.0002992 3229.67065 3229.66455
3191.0 0.0003134 3223.68872 3223.68286
3229.0 0.0003097 3217.75366 3217.74780
3267.0 0.0003061 3211.86353 3211.85767
3306.0 0.0003025 3206.01758 3206.01172
3346.0 0.0002989 3200.21655 3200.21094
3314.0 0.0003017 3194.45728 3194.45166
3279.0 0.0003050 3188.74121 3188.73560
3365.0 0.0002972 3183.06567 3183.06030
3196.0 0.0003129 3177.43091 3177.42554
3237.0 0.0003089 3171.83716 3171.83154
3186.0 0.0003139 3166.28101 3166.27539
3294.0 0.0003036 3160.76440 3160.75879
3251.0 0.0003076 3155.28418 3155.27881
3184.0 0.0003141 3149.84131 3149.83594
3194.0 0.0003131 3144.43481 3144.42944
3228.0 0.0003098 3139.06372 3139.05835
3246.0 0.0003081 3133.72754 3133.72217
3141.0 0.0003184 3128.42480 3128.41968
3172.0 0.0003153 3123.15601 3123.15088
3209.0 0.0003116 3117.92017 3117.91504
3231.0 0.0003095 3112.71606 3112.71094
3149.0 0.0003176 3107.54346 3107.53833
3234.0 0.0003092 3102.40186 3102.39697
3127.0 0.0003198 3097.28906 3097.28418
3185.0 0.0003140 3092.20776 3092.20288
3183.0 0.0003142 3087.15430 3087.14941
3118.0 0.0003207 3082.12891 3082.12402
3129.0 0.0003196 3077.13159 3077.12695
3154.0 0.0003171 3072.16113 3072.15625
3080.0 0.0003247 3067.21704 3067.21216
3179.0 0.0003146 3062.29907 3062.29443
3066.0 0.0003262 3057.40649 3057.40186
3155.0 0.0003170 3052.53833 3052.53369
3037.0 0.0003293 3047.69458 3047.68994
3088.0 0.0003238 3042.87402 3042.86938
3072.0 0.0003255 3038.07764 3038.07324
3162.0 0.0003163 3033.30371 3033.29907
3142.0 0.0003183 3028.55176 3028.54736
2977.0 0.0003359 3023.82056 3023.81616
3193.0 0.0003132 3019.11084 3019.10645
3056.0 0.0003272 3014.42236 3014.41797
3179.0 0.0003146 3009.75317 3009.74878
3061.0 0.0003267 3005.10449 3005.10010
2986.0 0.0003349 3000.47412 3000.46973
3022.0 0.0003309 2995.86255 2995.85840
2961.0 0.0003377 2991.27002 2991.26587
3012.0 0.0003320 2986.69434 2986.69019
2980.0 0.0003356 2982.13623 2982.13208
3045.0 0.0003284 2977.59497 2977.59106
3003.0 0.0003330 2973.06982 2973.06567
3111.0 0.0003214 2968.56104 2968.55688
3099.0 0.0003227 2964.06812 2964.06421
2935.0 0.0003407 2959.58984 2959.58594
2934.0 0.0003408 2955.12695 2955.12329
2902.0 0.0003446 2950.67798 2950.67407
2922.0 0.0003422 2946.24316 2946.23950
2967.0 0.0003370 2941.82202 2941.81836
2908.0 0.0003439 2937.41406 2937.41016
2953.0 0.0003386 2933.01953 2933.01563
2918.0 0.0003427 2928.63672 2928.63306
2888.0 0.0003463 2924.26636 2924.26270
2923.0 0.0003421 2919.90796 2919.90430
2915.0 0.0003431 2915.56152 2915.55786
2900.0 0.0003448 2911.22559 2911.22192
2962.0 0.0003376 2906.89990 2906.89648
2902.0 0.0003446 2902.58545 2902.58203
2858.0 0.0003499 2898.28198 2898.27832
3010.0 0.0003322 2893.98657 2893.98315
2904.0 0.0003444 2889.70190 2889.69849
2967.0 0.0003370 2885.42651 2885.42310
2926.0 0.0003418 2881.15967 2881.15625
2922.0 0.0003422 2876.90161 2876.89819
2890.0 0.0003460 2872.65210 2872.64868
2927.0 0.0003416 2868.41040 2868.40698
2872.0 0.0003482 2864.17725 2864.17383
2850.0 0.000351 2859.95044 2859.94727
2889.0 0.0003461 2855.73242 2855.72925
2843.0 0.000352 2851.52075 2851.51758
2918.0 0.0003427 2847.31567 2847.31250
2813.0 0.000355 2843.11792 2843.11475
2964.0 0.0003374 2838.92578 2838.92261
2800.0 0.000357 2834.73999 2834.73682
2799.0 0.000357 2830.56030 2830.55713
2925.0 0.0003419 2826.38672 2826.38354
2773.0 0.000361 2822.21777 2822.21484
2827.0 0.000354 2818.05420 2818.05103
2885.0 0.0003466 2813.89575 2813.89282
2813.0 0.000355 2809.74292 2809.73975
2895.0 0.0003454 2805.59375 2805.59082
2791.0 0.000358 2801.44946 2801.44653
2817.0 0.000355 2797.30957 2797.30664
2792.0 0.000358 2793.17334 2793.17041
2817.0 0.000355 2789.04199 2789.03906
2740.0 0.000365 2784.91382 2784.91089
2812.0 0.000356 2780.78906 2780.78613
2850.0 0.000351 2776.66797 2776.66504
2817.0 0.000355 2772.55005 2772.54712
2782.0 0.000359 2768.43506 2768.43213
2772.0 0.000361 2764.32349 2764.32080
2709.0 0.000369 2760.21436 2760.21143
2700.0 0.000370 2756.10840 2756.10547
2810.0 0.000356 2752.00464 2752.00171
2834.0 0.000353 2747.90308 2747.90039
2754.0 0.000363 2743.80444 2743.80176
2703.0 0.000370 2739.70752 2739.70459
2751.0 0.000364 2735.61328 2735.61035
2796.0 0.000358 2731.52051 2731.51782
2763.0 0.000362 2727.42896 2727.42627
2752.0 0.000363 2723.34033 2723.33740
2723.0 0.000367 2719.25317 2719.25049
2709.0 0.000369 2715.16675 2715.16406
2654.0 0.000377 2711.08203 2711.07935
2746.0 0.000364 2706.99878 2706.99609
2721.0 0.000368 2702.91772 2702.91504
2697.0 0.000371 2698.83618 2698.83350
2712.0 0.000369 2694.75684 2694.75415
2602.0 0.000384 2690.67847 2690.67578
2604.0 0.000384 2686.60059 2686.59790
2754.0 0.000363 2682.52441 2682.52173
2571.0 0.000389 2678.44824 2678.44531
2700.0 0.000370 2674.37280 2674.37012
2696.0 0.000371 2670.29858 2670.29590
2792.0 0.000358 2666.22388 2666.22119
2581.0 0.000387 2662.15137 2662.14868
2628.0 0.000381 2658.07886 2658.07617
2630.0 0.000380 2654.00635 2654.00366
2672.0 0.000374 2649.93481 2649.93213
2631.0 0.000380 2645.86304 2645.86035
2618.0 0.000382 2641.79224 2641.78955
2659.0 0.000376 2637.72168 2637.71899
2633.0 0.000380 2633.65161 2633.64893
2637.0 0.000379 2629.58130 2629.57861
2585.0 0.000387 2625.51147 2625.50854
2600.0 0.000385 2621.44165 2621.43896
2629.0 0.000380 2617.37280 2617.36987
2680.0 0.000373 2613.30396 2613.30127
2527.0 0.000396 2609.23511 2609.23242
2596.0 0.000385 2605.16577 2605.16284
2553.0 0.000392 2601.09692 2601.09399
2439.0 0.000410 2597.02930 2597.02637
2557.0 0.000391 2592.96069 2592.95776
2447.0 0.000409 2588.89233 2588.88940
2525.0 0.000396 2584.82446 2584.82178
2570.0 0.000389 2580.75635 2580.75342
2482.0 0.000403 2576.68848 2576.68555
2590.0 0.000386 2572.62134 2572.61841
2536.0 0.000394 2568.55371 2568.55078
2580.0 0.000388 2564.48682 2564.48389
2604.0 0.000384 2560.41895 2560.41602
2450.0 0.000408 2556.35278 2556.34985
2418.0 0.000414 2552.28638 2552.28320
2477.0 0.000404 2548.21997 2548.21704
2519.0 0.000397 2544.15405 2544.15112
2555.0 0.000391 2540.08862 2540.08545
2496.0 0.000401 2536.02271 2536.01953
2474.0 0.000404 2531.95801 2531.95483
2502.0 0.000400 2527.89355 2527.89038
2479.0 0.000403 2523.82910 2523.82593
2526.0 0.000396 2519.76514 2519.76196
2471.0 0.000405 2515.70166 2515.69849
2452.0 0.000408 2511.63965 2511.63623
2372.0 0.000422 2507.57666 2507.57349
2494.0 0.000401 2503.51587 2503.51270
2454.0 0.000407 2499.45483 2499.45166
2442.0 0.000410 2495.39429 2495.39087
2460.0 0.000407 2491.33521 2491.33179
2483.0 0.000403 2487.27612 2487.27295
2424.0 0.000413 2483.21802 2483.21460
2479.0 0.000403 2479.16138 2479.15796
2419.0 0.000413 2475.10498 2475.10156
2392.0 0.000418 2471.05005 2471.04663
2380.0 0.000420 2466.99609 2466.99243
2331.0 0.000429 2462.94287 2462.93921
2349.0 0.000426 2458.89136 2458.88770
2404.0 0.000416 2454.84058 2454.83691
2487.0 0.000402 2450.79102 2450.78735
2456.0 0.000407 2446.74341 2446.73975
2263.0 0.000442 2442.69702 2442.69336
2375.0 0.000421 2438.65186 2438.64819
2388.0 0.000419 2434.60840 2434.60449
2317.0 0.000432 2430.56567 2430.56177
2361.0 0.000424 2426.52588 2426.52197
2339.0 0.000428 2422.48730 2422.48340
2308.0 0.000433 2418.45044 2418.44653
2388.0 0.000419 2414.41479 2414.41089
2331.0 0.000429 2410.38159 2410.37769
2267.0 0.000441 2406.35132 2406.34717
2303.0 0.000434 2402.32202 2402.31787
2328.0 0.000430 2398.29468 2398.29077
2245.0 0.000445 2394.27051 2394.26636
2278.0 0.000439 2390.24780 2390.24365
2249.0 0.000445 2386.22754 2386.22339
2195.0 0.000456 2382.21045 2382.20630
2244.0 0.000446 2378.19482 2378.19067
2210.0 0.000452 2374.18286 2374.17871
2265.0 0.000442 2370.17236 2370.16797
2265.0 0.000442 2366.16577 2366.16162
2247.0 0.000445 2362.16138 2362.15698
2207.0 0.000453 2358.15991 2358.15527
2306.0 0.000434 2354.16187 2354.15723
2266.0 0.000441 2350.16699 2350.16235
2223.0 0.000450 2346.17432 2346.16968
2209.0 0.000453 2342.18530 2342.18066
2187.0 0.000457 2338.19995 2338.19531
2206.0 0.000453 2334.21777 2334.21289
2223.0 0.000450 2330.23853 2330.23364
2162.0 0.000463 2326.26318 2326.25830
2211.0 0.000452 2322.29224 2322.28735
2205.0 0.000454 2318.32397 2318.31909
2190.0 0.000457 2314.36060 2314.35571
2086.0 0.000479 2310.40015 2310.39502
2186.0 0.000457 2306.44360 2306.43872
2147.0 0.000466 2302.49219 2302.48706
2166.0 0.000462 2298.54395 2298.53882
2123.0 0.000471 2294.60010 2294.59473
2121.0 0.000471 2290.66089 2290.65552
2195.0 0.000456 2286.72583 2286.72046
2175.0 0.000460 2282.79541 2282.79004
2186.0 0.000457 2278.86938 2278.86401
2183.0 0.000458 2274.94775 2274.94238
2085.0 0.000480 2271.03174 2271.02637
2160.0 0.000463 2267.11987 2267.11426
2162.0 0.000463 2263.21362 2263.20801
2162.0 0.000463 2259.31201 2259.30640
2105.0 0.000475 2255.41528 2255.40967
2131.0 0.000469 2251.52368 2251.51807
2128.0 0.000470 2247.63794 2247.63208
2166.0 0.000462 2243.75635 2243.75049
2121.0 0.000471 2239.88135 2239.87549
2187.0 0.000457 2236.01172 2236.00586
2234.0 0.000448 2232.14795 2232.14185
2184.0 0.000458 2228.28882 2228.28271
2207.0 0.000453 2224.43604 2224.42993
2176.0 0.000460 2220.58984 2220.58374
2151.0 0.000465 2216.74902 2216.74268
2235.0 0.000447 2212.91382 2212.90771
2260.0 0.000442 2209.08545 2209.07910
2183.0 0.000458 2205.26270 2205.25635
2189.0 0.000457 2201.44702 2201.44043
2241.0 0.000446 2197.63696 2197.63062
2172.0 0.000460 2193.83423 2193.82764
2175.0 0.000460 2190.03735 2190.03076
2161.0 0.000463 2186.24658 2186.23999
2176.0 0.000460 2182.46387 2182.45728
2193.0 0.000456 2178.68726 2178.68066
2272.0 0.000440 2174.91772 2174.91089
2194.0 0.000456 2171.15503 2171.14819
2183.0 0.000458 2167.39941 2167.39258
2218.0 0.000451 2163.65137 2163.64453
2074.0 0.000482 2159.90991 2159.90283
2145.0 0.000466 2156.17627 2156.16919
2164.0 0.000462 2152.44971 2152.44263
2249.0 0.000445 2148.73047 2148.72339
2231.0 0.000448 2145.01880 2145.01147
2256.0 0.000443 2141.31567 2141.30835
2212.0 0.000452 2137.61938 2137.61206
2172.0 0.000460 2133.93115 2133.92383
2326.0 0.000430 2130.25049 2130.24292
2246.0 0.000445 2126.57764 2126.57031
2173.0 0.000460 2122.91357 2122.90601
2229.0 0.000449 2119.25684 2119.24927
2322.0 0.000431 2115.60889 2115.60132
2211.0 0.000452 2111.96826 2111.96045
2270.0 0.000441 2108.33765 2108.32983
2361.0 0.000424 2104.71411 2104.70630
2285.0 0.000438 2101.09912 2101.09131
2331.0 0.000429 2097.49292 2097.48486
2368.0 0.000422 2093.89551 2093.88745
2302.0 0.000434 2090.30713 2090.29883
2310.0 0.000433 2086.72656 2086.71826
2376.0 0.000421 2083.15576 2083.14746
2332.0 0.000429 2079.59326 2079.58496
2384.0 0.000419 2076.03906 2076.03052
2434.0 0.000411 2072.49536 2072.48706
2437.0 0.000410 2068.96021 2068.95190
2508.0 0.000399 2065.43408 2065.42554
2513.0 0.000398 2061.91748 2061.90894
2460.0 0.000407 2058.40991 2058.40137
2477.0 0.000404 2054.91235 2054.90356
2470.0 0.000405 2051.42358 2051.41479
2431.0 0.000411 2047.94495 2047.93616
2433.0 0.000411 2044.47522 2044.46643
2277.0 0.000439 2041.01538 2041.00635
2387.0 0.000419 2037.56482 2037.55579
2379.0 0.000420 2034.12549 2034.11646
2222.0 0.000450 2030.69519 2030.68604
2238.0 0.000447 2027.27417 2027.26501
2221.0 0.000450 2023.86414 2023.85486
2194.0 0.000456 2020.46338 2020.45410
2232.0 0.000448 2017.07312 2017.06372
2159.0 0.000463 2013.69275 2013.68335
2141.0 0.000467 2010.32251 2010.31311
2174.0 0.000460 2006.96252 2006.95300
2114.0 0.000473 2003.61279 2003.60327
2143.0 0.000467 2000.27441 2000.26477
2167.0 0.000461 1996.94556 1996.93579
2026.0 0.000494 1993.62695 1993.61719
2103.0 0.000476 1990.31958 1990.30981
2101.0 0.000476 1987.02209 1987.01233
2092.0 0.000478 1983.73608 1983.72620
2029.0 0.000493 1980.46057 1980.45056
2091.0 0.000478 1977.19531 1977.18518
1950.0 0.000513 1973.94092 1973.93079
1939.0 0.000516 1970.69690 1970.68677
2043.0 0.000489 1967.46484 1967.45471
1995.0 0.000501 1964.24316 1964.23291
1874.0 0.000534 1961.03259 1961.02234
1917.0 0.000522 1957.83301 1957.82263
1939.0 0.000516 1954.64441 1954.63391
1901.0 0.000526 1951.46667 1951.45618
2010.0 0.000498 1948.30103 1948.29041
1927.0 0.000519 1945.14587 1945.13525
1957.0 0.000511 1942.00159 1941.99097
2019.0 0.000495 1938.86902 1938.85828
1887.0 0.000530 1935.74756 1935.73682
2007.0 0.000498 1932.63831 1932.62744
1954.0 0.000512 1929.53955 1929.52869
1887.0 0.000530 1926.45276 1926.44177
1887.0 0.000530 1923.37695 1923.36597
1927.0 0.000519 1920.31274 1920.30164
1949.0 0.000513 1917.26025 1917.24915
1890.0 0.000529 1914.21924 1914.20801
1842.0 0.000543 1911.18970 1911.17847
1867.0 0.000536 1908.17200 1908.16077
1866.0 0.000536 1905.16553 1905.15417
1891.0 0.000529 1902.17175 1902.16040
1952.0 0.000512 1899.18933 1899.17786
1925.0 0.000519 1896.21838 1896.20691
1889.0 0.000529 1893.25903 1893.24744
1816.0 0.000551 1890.31165 1890.29993
1910.0 0.000524 1887.37598 1887.36438
1847.0 0.000541 1884.45288 1884.44116
1889.0 0.000529 1881.54138 1881.52966
1870.0 0.000535 1878.64148 1878.62964
1922.0 0.000520 1875.75391 1875.74194
1820.0 0.000549 1872.87744 1872.86548
1888.0 0.000530 1870.01416 1870.00220
1883.0 0.000531 1867.16223 1867.15015
1884.0 0.000531 1864.32227 1864.31030
1885.0 0.000531 1861.49438 1861.48230
1855.0 0.000539 1858.67896 1858.66675
1809.0 0.000553 1855.87549 1855.86328
1782.0 0.000561 1853.08398 1853.07178
1733.0 0.000577 1850.30493 1850.29260
1835.0 0.000545 1847.53748 1847.52502
1749.0 0.000572 1844.78186 1844.76941
1803.0 0.000555 1842.03943 1842.02698
1737.0 0.000576 1839.30884 1839.29639
1775.0 0.000563 1836.59021 1836.57764
1810.0 0.000552 1833.88367 1833.87097
1829.0 0.000547 1831.18945 1831.17676
1748.0 0.000572 1828.50781 1828.49512
1785.0 0.000560 1825.83789 1825.82507
1859.0 0.000538 1823.18079 1823.16797
1786.0 0.000560 1820.53528 1820.52246
1819.0 0.000550 1817.90222 1817.88928
1775.0 0.000563 1815.28137 1815.26843
1858.0 0.000538 1812.67358 1812.66052
1827.0 0.000547 1810.07703 1839.83936
1836.0 0.000545 1807.49304 1837.71082
1887.0 0.000530 1804.92175 1835.60522
1819.0 0.000550 1802.36218 1848.32690
1845.0 0.000542 1799.81531 1846.49402
1808.0 0.000553 1797.28027 1844.68970
1840.0 0.000543 1794.75818 1842.91577
1832.0 0.000546 1792.24768 1841.17114
1809.0 0.000553 1789.74927 1839.45715
1887.0 0.000530 1787.26392 1837.77502
1891.0 0.000529 1784.79053 1836.12451
1800.0 0.000556 1782.32910 1834.50635
1763.0 0.000567 1779.88037 1832.92188
1910.0 0.000524 1777.44360 1831.37085
1827.0 0.000547 1775.01929 1829.85461
1863.0 0.000537 1772.60730 1828.37390
1694.0 0.000590 1770.20728 1826.92908
1849.0 0.000541 1767.81958 1825.52136
1722.0 0.000581 1765.44385 1824.15125
1752.0 0.000571 1763.08105 1822.82031
1779.0 0.000562 1760.72974 1821.52844
1854.0 0.000539 1758.39063 1820.27734
1796.0 0.000557 1756.06384 1819.06775
1818.0 0.000550 1753.74939 1817.90125
1790.0 0.000559 1751.44678 1816.77820
1802.0 0.000555 1749.15674 1815.70032
1882.0 0.000531 1746.87830 1814.66833
1771.0 0.000565 1744.61206 1813.68372
1812.0 0.000552 1742.35803 1812.74805
1822.0 0.000549 1740.11584 1811.86255
1814.0 0.000551 1737.88647 1811.02893
1826.0 0.000548 1735.66846 1810.24805
1876.0 0.000533 1733.46277 1809.52222
1870.0 0.000535 1731.26892 1808.85254
1770.0 0.000565 1729.08691 1808.24121
1801.0 0.000555 1726.91711 1807.68994
1869.0 0.000535 1724.75916 1807.20093
1858.0 0.000538 1722.61304 1806.77588
1797.0 0.000556 1720.47864 1806.41687
1779.0 0.000562 1718.35596 1806.12671
1844.0 0.000542 1716.24585 1805.90784
1735.0 0.000576 1714.14734 1805.76233
1829.0 0.000547 1712.06030 1805.69312
1754.0 0.000570 1709.98523 1805.70300
1721.0 0.000581 1707.92151 1805.79480
1724.0 0.000580 1705.86975 1805.97192
1748.0 0.000572 1703.82996 1806.23792
1748.0 0.000572 1701.80176 1806.59619
1752.0 0.000571 1699.78479 1807.05005
1706.0 0.000586 1697.77991 1807.60425
1733.0 0.000577 1695.78601 1808.26245
1772.0 0.000564 1693.80444 1809.02905
1750.0 0.000571 1691.83374 1809.90930
1773.0 0.000564 1689.87476 1810.90808
1762.0 0.000568 1687.92712 1812.03088
1722.0 0.000581 1685.99072 1813.28296
1786.0 0.000560 1684.06641 1814.67102
1784.0 0.000561 1682.15247 1816.20093
1772.0 0.000564 1680.25049 1817.88049
1774.0 0.000564 1678.35938 1819.71643
1720.0 0.000581 1676.47949 1821.71716
1677.0 0.000596 1674.61145 1823.89026
1743.0 0.000574 1672.75427 1826.24597
1839.0 0.000544 1670.90808 1828.79358
1805.0 0.000554 1669.07288 1831.54309
1722.0 0.000581 1667.24878 1834.50635
1741.0 0.000574 1665.43591 1837.69458
1811.0 0.000552 1663.63391 1841.12170
1751.0 0.000571 1661.84265 1844.80103
1777.0 0.000563 1660.06250 1848.74805
1763.0 0.000567 1658.29321 1852.97876
1794.0 0.000557 1656.53442 1857.51086
1878.0 0.000532 1654.78711 1862.36182
1851.0 0.000540 1653.05005 1867.55432
1803.0 0.000555 1651.32349 1873.10974
1848.0 0.000541 1649.60791 1879.05286
1767.0 0.000566 1647.90283 1885.40918
1784.0 0.000561 1646.20837 1892.20703
1826.0 0.000548 1644.52417 1899.47900
1751.0 0.000571 1642.85095 1907.25916
1814.0 0.000551 1641.18787 1915.58411
1864.0 0.000536 1639.53479 1924.49622
1889.0 0.000529 1637.89282 1934.03601
1862.0 0.000537 1636.26086 1944.25854
1966.0 0.000509 1634.63904 1955.21582
1983.0 0.000504 1633.02722 1966.96802
2002.0 0.000500 1631.42566 1979.58154
1997.0 0.000501 1629.83459 1993.12878
2126.0 0.000470 1628.25342 2007.69446
2050.0 0.000488 1626.68213 2023.36780
2144.0 0.000466 1625.12085 2040.25049
2176.0 0.000460 1623.56909 2058.45776
2190.0 0.000457 1622.02783 2078.10791
2259.0 0.000443 1620.49634 2099.35571
2196.0 0.000455 1618.97412 2122.35669
2182.0 0.000458 1617.46179 2147.29297
2298.0 0.000435 1615.95935 2174.37134
2252.0 0.000444 1614.46643 2203.82544
2214.0 0.000452 1612.98315 2235.91846
2355.0 0.000425 1611.50916 2270.96436
2276.0 0.000439 1610.04492 2309.31128
2379.0 0.000420 1608.58984 2351.36377
2381.0 0.000420 1607.14392 2397.59692
2406.0 0.000416 1605.70825 2448.53271
2365.0 0.000423 1604.28076 2504.83716
2331.0 0.000429 1602.86304 2567.24805
2347.0 0.000426 1601.45435 2636.64600
2502.0 0.000400 1600.05481 2714.07715
2505.0 0.000399 1598.66406 2800.77734
2549.0 0.000392 1597.28271 2898.26489
2658.0 0.000376 1595.90991 3008.33594
2807.0 0.000356 1594.54590 3133.18921
2929.0 0.0003414 1593.19092 3275.54028
3036.0 0.0003294 1591.84521 3438.65552
3257.0 0.0003070 1590.50757 3626.83398
3378.0 0.0002960 1589.17871 3845.43579
3762.0 0.0002658 1587.85852 4101.59180
4011.0 0.0002493 1586.54688 4405.08301
4270.0 0.0002342 1585.24365 4769.84619
4873.0 0.0002052 1583.94910 5216.67334
5416.0 0.0001846 1582.66272 5776.75098
6230.0 0.0001605 1581.38440 6496.95801
7306.0 0.0001369 1580.11475 7445.70508
8871.0 0.0001127 1578.85303 8718.20410
11309.0 0.0000884 1577.59985 10437.02539
14165.0 0.0000706 1576.35437 12749.90918
17873.0 0.0000560 1575.11743 15811.97754
21865.0 0.0000457 1573.88794 19758.64648
26223.0 0.0000381 1572.66663 24653.14648
30750.0 0.0000325 1571.45337 30389.05859
35599.0 0.0000281 1570.24756 36531.60938
40674.0 0.0000246 1569.04968 42160.14453
44577.0 0.0000224 1567.85950 46029.51563
47524.0 0.0000210 1566.67639 47255.10547
48184.0 0.0000208 1565.50171 45849.40234
44695.0 0.0000224 1564.33435 42372.60156
39171.0 0.0000255 1563.17432 37454.07422
32681.0 0.0000306 1562.02173 31811.19141
26359.0 0.0000379 1560.87610 26209.08398
20588.0 0.0000486 1559.73840 21205.31250
15718.0 0.0000636 1558.60767 17044.41016
12349.0 0.0000810 1557.48389 13745.09082
10102.0 0.0000990 1556.36731 11209.89551
8468.0 0.0001181 1555.25818 9299.79785
7322.0 0.0001366 1554.15527 7873.45068
6311.0 0.0001585 1553.06018 6807.11572
5410.0 0.0001848 1551.97156 6000.13086
4942.0 0.0002023 1550.88965 5377.70410
4339.0 0.0002305 1549.81458 4886.31738
3967.0 0.0002521 1548.74597 4489.20801
3570.0 0.0002801 1547.68457 4161.62695
3368.0 0.0002969 1546.62903 3886.75464
3096.0 0.0003230 1545.58044 3653.09717
2999.0 0.0003334 1544.53821 3452.42822
2782.0 0.000359 1543.50220 3278.64404
2696.0 0.000371 1542.47302 3127.16650
2690.0 0.000372 1541.44995 2994.24561
2582.0 0.000387 1540.43286 2876.99829
2489.0 0.000402 1539.42200 2773.05664
2450.0 0.000408 1538.41736 2680.48145
2336.0 0.000428 1537.41895 2597.68237
2240.0 0.000446 1536.42615 2523.30859
2302.0 0.000434 1535.43933 2456.25830
2296.0 0.000436 1534.45874 2395.59619
2226.0 0.000449 1533.48340 2340.52319
2131.0 0.000469 1532.51416 2290.39111
2008.0 0.000498 1531.55054 2244.59302
2206.0 0.000453 1530.59265 2202.64795
2013.0 0.000497 1529.64001 2164.12915
1958.0 0.000511 1528.69324 2128.66846
2042.0 0.000490 1527.75171 2095.94409
2107.0 0.000475 1526.81567 2065.68066
1899.0 0.000527 1525.88501 2037.62549
1915.0 0.000522 1524.95972 2011.56702
1966.0 0.000509 1524.03955 1987.31543
2011.0 0.000497 1523.12439 1964.70020
1897.0 0.000527 1522.21472 1943.58350
1920.0 0.000521 1521.30969 1923.81934
1939.0 0.000516 1520.40967 1905.29553
1920.0 0.000521 1519.51465 1887.90662
1889.0 0.000529 1518.62463 1871.55847
1811.0 0.000552 1517.73914 1856.16736
1815.0 0.000551 1516.85889 1841.65430
1831.0 0.000546 1515.98303 1827.95154
1824.0 0.000548 1515.11194 1814.99707
1778.0 0.000562 1514.24512 1802.73303
1824.0 0.000548 1513.38318 1791.11426
1801.0 0.000555 1512.52551 1780.08667
1760.0 0.000568 1511.67236 1769.61133
1692.0 0.000591 1510.82349 1759.64941
1823.0 0.000549 1509.97900 1750.16565
1813.0 0.000552 1509.13867 1741.12866
1775.0 0.000563 1508.30261 1732.50684
1832.0 0.000546 1507.47058 1724.27405
1726.0 0.000579 1506.64282 1716.40540
1693.0 0.000591 1505.81897 1708.87781
1692.0 0.000591 1504.99890 1701.66919
1710.0 0.000585 1504.18335 1694.76367
1769.0 0.000565 1503.37097 1689.57861
1743.0 0.000574 1502.56274 1683.24097
1700.0 0.000588 1501.75806 1677.15356
1663.0 0.000601 1500.95728 1671.30249
1752.0 0.000571 1500.15991 1666.39612
1709.0 0.000585 1499.36633 1660.98914
1595.0 0.000627 1498.57629 1655.78101
1717.0 0.000582 1497.78943 1650.76135
1720.0 0.000581 1497.00635 1645.91956
1762.0 0.000568 1496.22656 1641.24829
1712.0 0.000584 1495.44995 1636.73608
1640.0 0.000610 1494.67664 1632.37585
1775.0 0.000563 1493.90662 1628.16028
1652.0 0.000605 1493.13977 1624.08203
1675.0 0.000597 1492.37598 1620.13489
1621.0 0.000617 1491.61499 1616.31116
1756.0 0.000569 1490.85742 1612.60632
1675.0 0.000597 1490.10229 1609.01404
1707.0 0.000586 1489.35046 1605.52917
1633.0 0.000612 1488.60144 1602.14832
1643.0 0.000609 1487.85510 1598.86462
1636.0 0.000611 1487.11157 1595.67480
1703.0 0.000587 1486.37085 1592.57495
1671.0 0.000598 1485.63257 1589.56067
1597.0 0.000626 1484.89685 1586.62866
1624.0 0.000616 1484.16418 1583.77600
1573.0 0.000636 1483.43347 1580.99829
1627.0 0.000615 1482.70520 1578.29285
1643.0 0.000609 1481.97937 1575.65710
1624.0 0.000616 1481.25598 1573.08789
1649.0 0.000606 1480.53491 1570.58362
1587.0 0.000630 1479.81628 1568.14099
1596.0 0.000627 1479.09949 1565.75720
1609.0 0.000622 1478.38525 1563.43127
1499.0 0.000667 1477.67261 1561.15967
1600.0 0.000625 1476.96265 1558.94226
1594.0 0.000627 1476.25403 1556.77515
1578.0 0.000634 1475.54773 1554.65784
1709.0 0.000585 1474.84338 1552.58862
1613.0 0.000620 1474.14075 1550.56506
1649.0 0.000606 1473.44019 1548.58704
1610.0 0.000621 1472.74121 1546.65198
1649.0 0.000606 1472.04419 1544.75903
1619.0 0.000618 1471.34875 1542.90649
1706.0 0.000586 1470.65479 1541.09351
1608.0 0.000622 1469.96240 1539.31873
1729.0 0.000578 1469.27197 1537.58179
1751.0 0.000571 1468.58252 1535.88049
1650.0 0.000606 1467.89502 1534.21472
1782.0 0.000561 1467.20886 1532.58350
1782.0 0.000561 1466.52393 1530.98584
1778.0 0.000562 1465.84045 1529.42114
1679.0 0.000596 1465.15833 1527.88831
1802.0 0.000555 1464.47717 1526.38684
1880.0 0.000532 1463.79749 1524.91626
1928.0 0.000519 1463.11877 1523.47583
1896.0 0.000527 1462.44165 1522.06555
1998.0 0.000501 1461.76526 1520.68445
2054.0 0.000487 1461.09009 1519.33203
2033.0 0.000492 1460.41602 1518.00818
2180.0 0.000459 1459.74243 1516.71216
2123.0 0.000471 1459.07031 1515.44482
2071.0 0.000483 1458.39893 1514.20471
2053.0 0.000487 1457.72827 1512.99219
1958.0 0.000511 1457.05835 1511.80688
1943.0 0.000515 1456.38953 1510.64966
1814.0 0.000551 1455.72156 1479.64136
1821.0 0.000549 1455.05383 1478.98621
1743.0 0.000574 1454.38708 1478.34912
1675.0 0.000597 1453.72095 1462.81018
1733.0 0.000577 1453.05530 1462.43396
1555.0 0.000643 1452.39026 1462.07227
1585.0 0.000631 1451.72595 1461.72607
1580.0 0.000633 1451.06201 1461.39612
1635.0 0.000612 1450.39832 1461.08350
1576.0 0.000635 1449.73523 1460.78955
1538.0 0.000650 1449.07251 1460.51550
1532.0 0.000653 1448.41003 1460.26245
1582.0 0.000632 1447.74817 1460.03223
1531.0 0.000653 1447.08630 1459.82617
1509.0 0.000663 1446.42493 1459.64624
1461.0 0.000684 1445.76355 1459.49414
1537.0 0.000651 1445.10254 1459.37195
1527.0 0.000655 1444.44153 1459.28259
1591.0 0.000629 1443.78076 1459.22803
1498.0 0.000668 1443.12012 1459.21143
1521.0 0.000657 1442.45935 1459.23584
1518.0 0.000659 1441.79895 1459.30505
1524.0 0.000656 1441.13831 1459.42261
1463.0 0.000684 1440.47778 1459.59326
1463.0 0.000684 1439.81714 1459.82153
1496.0 0.000668 1439.15613 1460.11292
1500.0 0.000667 1438.49548 1460.47339
1601.0 0.000625 1437.83447 1460.91028
1577.0 0.000634 1437.17310 1461.43079
1482.0 0.000675 1436.51196 1462.04407
1494.0 0.000669 1435.85022 1462.75989
1518.0 0.000659 1435.18848 1463.58948
1441.0 0.000694 1434.52637 1464.54565
1469.0 0.000681 1433.86389 1465.64319
1454.0 0.000688 1433.20105 1466.89905
1508.0 0.000663 1432.53784 1468.33289
1489.0 0.000672 1431.87439 1469.96729
1490.0 0.000671 1431.21069 1471.82813
1501.0 0.000666 1430.54626 1473.94653
1541.0 0.000649 1429.88159 1476.35864
1570.0 0.000637 1429.21631 1479.10693
1591.0 0.000629 1428.55042 1482.24158
1470.0 0.000680 1427.88428 1485.82300
1552.0 0.000644 1427.21729 1489.92383
1550.0 0.000645 1426.55005 1494.63147
1464.0 0.000683 1425.88184 1500.05176
1516.0 0.000660 1425.21326 1506.31677
1605.0 0.000623 1424.54407 1513.58484
1525.0 0.000656 1423.87415 1522.06531
1565.0 0.000639 1423.20361 1532.02124
1571.0 0.000637 1422.53247 1543.80615
1619.0 0.000618 1421.86023 1557.91260
1519.0 0.000658 1421.18750 1575.05872
1650.0 0.000606 1420.51416 1596.32410
1634.0 0.000612 1419.83984 1623.36890
1706.0 0.000586 1419.16479 1658.69348
1717.0 0.000582 1418.48877 1705.94983
1746.0 0.000573 1417.81189 1770.18237
1905.0 0.000525 1417.13464 1857.78735
1953.0 0.000512 1416.45630 1976.28430
2069.0 0.000483 1415.77698 2133.25977
2365.0 0.000423 1415.09680 2334.83374
2471.0 0.000405 1414.41553 2582.87109
2652.0 0.000377 1413.73364 2870.01147
2869.0 0.0003486 1413.05054 3171.96899
3185.0 0.0003140 1412.36658 3441.13159
3296.0 0.0003034 1411.68164 3617.93311
3488.0 0.0002867 1410.99548 3666.73242
3389.0 0.0002951 1410.30884 3597.62964
3281.0 0.0003048 1409.62085 3441.09106
3083.0 0.0003244 1408.93201 3220.27490
2834.0 0.000353 1408.24194 2957.74658
2679.0 0.000373 1407.55078 2685.04932
2458.0 0.000407 1406.85876 2432.16113
2245.0 0.000445 1406.16553 2216.16382
2095.0 0.000477 1405.47107 2041.66956
1940.0 0.000515 1404.77563 1905.84875
1904.0 0.000525 1404.07910 1802.69934
1752.0 0.000571 1403.38135 1725.45044
1744.0 0.000573 1402.68262 1667.82837
1761.0 0.000568 1401.98279 1624.50623
1609.0 0.000622 1401.28137 1591.39075
1512.0 0.000661 1400.57910 1565.47864
1522.0 0.000657 1399.87573 1544.67590
1506.0 0.000664 1399.17126 1527.56934
1493.0 0.000670 1398.46533 1513.20923
1404.0 0.000712 1397.75806 1500.96008
1455.0 0.000687 1397.05005 1490.37927
1452.0 0.000689 1396.34033 1481.14526
1351.0 0.000740 1395.62976 1473.02344
1426.0 0.000701 1394.91797 1465.82263
1420.0 0.000704 1394.20483 1459.39783
1377.0 0.000726 1393.49023 1453.63025
1491.0 0.000671 1392.77441 1448.42297
1395.0 0.000717 1392.05750 1443.69714
1404.0 0.000712 1391.33936 1439.38525
1337.0 0.000748 1390.61987 1435.43250
1447.0 0.000691 1389.89917 1431.79272
1418.0 0.000705 1389.17712 1428.42627
1358.0 0.000736 1388.45386 1425.30115
1373.0 0.000728 1387.72937 1422.38708
1387.0 0.000721 1387.00366 1419.66077
1285.0 0.000778 1386.27625 1417.10046
1387.0 0.000721 1385.54785 1414.68872
1379.0 0.000725 1384.81812 1412.40955
1354.0 0.000739 1384.08716 1410.24927
1370.0 0.000730 1383.35474 1408.19519
1389.0 0.000720 1382.62122 1406.23743
1327.0 0.000754 1381.88623 1404.36621
1366.0 0.000732 1381.14978 1402.57349
1368.0 0.000731 1380.41248 1400.85266
1293.0 0.000773 1379.67358 1399.19604
1329.0 0.000752 1378.93323 1397.59851
1308.0 0.000765 1378.19189 1396.05481
1362.0 0.000734 1377.44897 1394.56030
1402.0 0.000713 1376.70496 1393.11108
1410.0 0.000709 1375.95959 1391.70288
1311.0 0.000763 1375.21301 1390.33289
1298.0 0.000770 1374.46509 1388.99792
1341.0 0.000746 1373.71570 1387.69482
1352.0 0.000740 1372.96521 1386.42175
1358.0 0.000736 1372.21326 1385.17578
1279.0 0.000782 1371.46008 1383.95532
1392.0 0.000718 1370.70569 1382.75830
1324.0 0.000755 1369.94995 1381.58313
1353.0 0.000739 1369.19275 1380.42810
1308.0 0.000765 1368.43469 1379.29199
1316.0 0.000760 1367.67493 1378.17297
1318.0 0.000759 1366.91394 1377.07043
1345.0 0.000743 1366.15173 1375.98291
1282.0 0.000780 1365.38843 1374.90967
1353.0 0.000739 1364.62390 1373.84949
1346.0 0.000743 1363.85791 1372.80164
1337.0 0.000748 1363.09082 1371.76514
1293.0 0.000773 1362.32239 1370.73938
1307.0 0.000765 1361.55286 1369.72388
1363.0 0.000734 1360.78198 1368.71753
1377.0 0.000726 1360.01001 1367.72021
1371.0 0.000729 1359.23669 1366.73083
1321.0 0.000757 1358.46204 1365.74915
1383.0 0.000723 1357.68628 1364.77478
1329.0 0.000752 1356.90955 1363.80750
1436.0 0.000696 1356.13123 1362.84631
1417.0 0.000706 1355.35217 1361.89136
1391.0 0.000719 1354.57178 1360.94189
1457.0 0.000686 1353.79028 1359.99780
1467.0 0.000682 1353.00757 1359.05884
1374.0 0.000728 1352.22351 1358.12402
1433.0 0.000698 1351.43848 1357.19397
1483.0 0.000674 1350.65222 1356.26794
1445.0 0.000692 1349.86499 1355.34607
1366.0 0.000732 1349.07654 1354.42761
1301.0 0.000769 1348.28723 1353.51294
1308.0 0.000765 1347.49646 1352.60120
1342.0 0.000745 1346.70508 1351.69287
1321.0 0.000757 1345.91223 1350.78699
1338.0 0.000747 1345.11841 1349.88403
1307.0 0.000765 1344.32373 1348.98376
1306.0 0.000766 1343.52783 1348.08594
1354.0 0.000739 1342.73096 1347.19019
1358.0 0.000736 1341.93311 1346.29700
1344.0 0.000744 1341.13403 1345.40515
1269.0 0.000788 1340.33447 1344.51611
1293.0 0.000773 1339.53357 1343.62830
1289.0 0.000776 1338.73169 1342.74231
1240.0 0.000806 1337.92896 1341.85791
1305.0 0.000766 1337.12524 1340.97498
1329.0 0.000752 1336.32080 1340.09387
1280.0 0.000781 1335.51514 1339.21375
1262.0 0.000792 1334.70874 1338.33496
1336.0 0.000749 1333.90137 1337.45740
1246.0 0.000803 1333.09302 1336.58081
1330.0 0.000752 1332.28406 1335.70557
1319.0 0.000758 1331.47424 1334.83154
1309.0 0.000764 1330.66345 1333.95801
1261.0 0.000793 1329.85193 1333.08569
1276.0 0.000784 1329.03955 1332.21399
1315.0 0.000760 1328.22644 1331.34351
1238.0 0.000808 1327.41260 1330.47363
1238.0 0.000808 1326.59790 1329.60425
1265.0 0.000791 1325.78271 1328.73608
1234.0 0.000810 1324.96655 1327.86804
1273.0 0.000786 1324.14954 1327.00073
1239.0 0.000807 1323.33215 1326.13440
1323.0 0.000756 1322.51404 1325.26843
1325.0 0.000755 1321.69519 1324.40295
1268.0 0.000789 1320.87549 1323.53784
1236.0 0.000809 1320.05542 1322.67358
1241.0 0.000806 1319.23474 1321.80957
1323.0 0.000756 1318.41321 1320.94592
1296.0 0.000772 1317.59143 1320.08301
1246.0 0.000803 1316.76892 1319.22034
1273.0 0.000786 1315.94580 1318.35803
1326.0 0.000754 1315.12231 1317.49634
1329.0 0.000752 1314.29834 1316.63501
1231.0 0.000812 1313.47351 1315.77380
1258.0 0.000795 1312.64844 1314.91321
1330.0 0.000752 1311.82300 1314.05286
1328.0 0.000753 1310.99707 1311.75195
1343.0 0.000745 1310.17065 1310.91370
1354.0 0.000739 1309.34375 1310.07556
1266.0 0.000790 1308.51672 1309.23730
1356.0 0.000737 1307.68896 1307.68433
1300.0 0.000769 1306.86096 1306.85632
1290.0 0.000775 1306.03271 1306.02808
1352.0 0.000740 1305.20422 1305.19946
1277.0 0.000783 1304.37512 1304.37048
1338.0 0.000747 1303.54614 1303.54150
1384.0 0.000723 1302.71667 1302.71204
1309.0 0.000764 1301.88696 1301.88245
1309.0 0.000764 1301.05713 1301.05261
1324.0 0.000755 1300.22693 1300.22241
1351.0 0.000740 1299.39661 1299.39209
1327.0 0.000754 1298.56616 1298.56165
1254.0 0.000797 1297.73560 1297.73120
1237.0 0.000808 1296.90491 1296.90039
1258.0 0.000795 1296.07397 1296.06946
1286.0 0.000778 1295.24304 1295.23865
1290.0 0.000775 1294.41199 1294.40747
1258.0 0.000795 1293.58093 1293.57654
1179.0 0.000848 1292.74976 1292.74536
1214.0 0.000824 1291.91895 1291.91455
1291.0 0.000775 1291.08752 1291.08325
1277.0 0.000783 1290.25647 1290.25220
1276.0 0.000784 1289.42542 1289.42102
1281.0 0.000781 1288.59460 1288.59033
1267.0 0.000789 1287.76379 1287.75952
1284.0 0.000779 1286.93298 1286.92871
1288.0 0.000776 1286.10217 1286.09802
1259.0 0.000794 1285.27173 1285.26758
1201.0 0.000833 1284.44141 1284.43726
1276.0 0.000784 1283.61121 1283.60706
1296.0 0.000772 1282.78137 1282.77722
1295.0 0.000772 1281.95166 1281.94751
1259.0 0.000794 1281.12195 1281.11780
1194.0 0.000838 1280.29297 1280.28882
1258.0 0.000795 1279.46399 1279.45996
1277.0 0.000783 1278.63550 1278.63147
1261.0 0.000793 1277.80737 1277.80322
1229.0 0.000814 1276.97937 1276.97534
1197.0 0.000835 1276.15210 1276.14795
1181.0 0.000847 1275.32471 1275.32068
1246.0 0.000803 1274.49805 1274.49402
1202.0 0.000832 1273.67188 1273.66785
1256.0 0.000796 1272.84583 1272.84180
1169.0 0.000855 1272.02063 1272.01660
1188.0 0.000842 1271.19580 1271.19177
1247.0 0.000802 1270.37146 1270.36743
1185.0 0.000844 1269.54749 1269.54358
1246.0 0.000803 1268.72437 1268.72046
1317.0 0.000759 1267.90149 1267.89758
1237.0 0.000808 1267.07971 1267.07568
1250.0 0.000800 1266.25818 1266.25427
1240.0 0.000806 1265.43750 1265.43359
1235.0 0.000810 1264.61719 1264.61328
1214.0 0.000824 1263.79761 1263.79370
1170.0 0.000855 1262.97925 1262.97534
1215.0 0.000823 1262.16113 1262.15723
1240.0 0.000806 1261.34399 1261.34009
1197.0 0.000835 1260.52734 1260.52344
1264.0 0.000791 1259.71179 1259.70789
1253.0 0.000798 1258.89673 1258.89282
1265.0 0.000791 1258.08289 1258.07910
1211.0 0.000826 1257.26953 1257.26575
1311.0 0.000763 1256.45715 1256.45337
1217.0 0.000822 1255.64575 1255.64197
1213.0 0.000824 1254.83521 1254.83142
1201.0 0.000833 1254.02576 1254.02197
1285.0 0.000778 1253.21716 1253.21338
1229.0 0.000814 1252.40942 1252.40564
1240.0 0.000806 1251.60278 1251.59900
1222.0 0.000818 1250.79712 1250.79333
1173.0 0.000853 1249.99243 1249.98865
1283.0 0.000779 1249.18909 1249.18530
1204.0 0.000831 1248.38647 1248.38269
1294.0 0.000773 1247.58521 1247.58142
1238.0 0.000808 1246.78491 1246.78113
1241.0 0.000806 1245.98596 1245.98218
1232.0 0.000812 1245.18787 1245.18408
1248.0 0.000801 1244.39124 1244.38745
1315.0 0.000760 1243.59558 1243.59180
1236.0 0.000809 1242.80127 1242.79749
1211.0 0.000826 1242.00830 1242.00452
1259.0 0.000794 1241.21643 1241.21265
1217.0 0.000822 1240.42590 1240.42212
1274.0 0.000785 1239.63660 1239.63281
1210.0 0.000826 1238.84851 1238.84485
1249.0 0.000801 1238.06226 1238.05859
1207.0 0.000829 1237.27710 1237.27332
1184.0 0.000845 1236.49304 1236.48938
1222.0 0.000818 1235.71069 1235.70691
1213.0 0.000824 1234.92981 1234.92603
1213.0 0.000824 1234.15027 1234.14648
1220.0 0.000820 1233.37219 1233.36841
1217.0 0.000822 1232.59534 1232.59167
1214.0 0.000824 1231.82019 1231.81653
1213.0 0.000824 1231.04663 1231.04285
1201.0 0.000833 1230.27478 1230.27100
1209.0 0.000827 1229.50427 1229.50049
1280.0 0.000781 1228.73535 1228.73157
1214.0 0.000824 1227.96814 1227.96436
1142.0 0.000876 1227.20239 1227.19861
1186.0 0.000843 1226.43823 1226.43457
1211.0 0.000826 1225.67590 1225.67212
1231.0 0.000812 1224.91516 1224.91138
1192.0 0.000839 1224.15588 1224.15222
1176.0 0.000850 1223.39856 1223.39478
1196.0 0.000836 1222.64282 1222.63904
1267.0 0.000789 1221.88916 1221.88550
1225.0 0.000816 1221.13721 1221.13342
1154.0 0.000867 1220.38672 1220.38293
1152.0 0.000868 1219.63818 1219.63440
1205.0 0.000830 1218.89148 1218.88770
1189.0 0.000841 1218.14685 1218.14307
1233.0 0.000811 1217.40381 1217.40002
1172.0 0.000853 1216.66260 1216.65881
1256.0 0.000796 1215.92334 1215.91956
1255.0 0.000797 1215.18604 1215.18225
1229.0 0.000814 1214.45056 1214.44678
1227.0 0.000815 1213.71716 1213.71338
1251.0 0.000799 1212.98572 1212.98193
1261.0 0.000793 1212.25610 1212.25232
1189.0 0.000841 1211.52844 1211.52466
1207.0 0.000829 1210.80298 1210.79907
1225.0 0.000816 1210.07959 1210.07568
1256.0 0.000796 1209.35815 1209.35437
1234.0 0.000810 1208.63879 1208.63489
1289.0 0.000776 1207.92139 1207.91748
1174.0 0.000852 1207.20618 1207.20239
1172.0 0.000853 1206.49329 1206.48938
1256.0 0.000796 1205.78223 1205.77832
1210.0 0.000826 1205.07336 1205.06958
1273.0 0.000786 1204.36658 1204.36267
1238.0 0.000808 1203.66223 1203.65833
1269.0 0.000788 1202.95984 1202.95593
1205.0 0.000830 1202.25977 1202.25586
1243.0 0.000805 1201.56177 1201.55786
1278.0 0.000782 1200.86621 1200.86230
1222.0 0.000818 1200.17273 1200.16882
1187.0 0.000842 1199.48181 1199.47791
1159.0 0.000863 1198.79285 1198.78894
1241.0 0.000806 1198.10632 1198.10229
1217.0 0.000822 1197.42200 1197.41809
1259.0 0.000794 1196.74011 1196.73621
1257.0 0.000796 1196.06079 1196.05676
1248.0 0.000801 1195.38330 1195.37939
1180.0 0.000847 1194.70850 1194.70447
1241.0 0.000806 1194.03613 1194.03210
1180.0 0.000847 1193.36597 1193.36194
1116.0 0.000896 1192.69812 1192.69409
1149.0 0.000870 1192.03320 1192.02917
1204.0 0.000831 1191.37036 1191.36633
1180.0 0.000847 1190.70996 1190.70593
1153.0 0.000867 1190.05200 1190.04797
1147.0 0.000872 1189.39661 1189.39246
1260.0 0.000794 1188.74377 1188.73962
1236.0 0.000809 1188.09338 1188.08936
1163.0 0.000860 1187.44531 1187.44116
1197.0 0.000835 1186.79993 1186.79578
1225.0 0.000816 1186.15710 1186.15295
1194.0 0.000838 1185.51685 1185.51270
1140.0 0.000877 1184.87927 1184.87512
1137.0 0.000880 1184.24402 1184.23975
1126.0 0.000888 1183.61145 1183.60730
1203.0 0.000831 1182.98145 1182.97729
1156.0 0.000865 1182.35413 1182.34985
1148.0 0.000871 1181.72937 1181.72522
1236.0 0.000809 1181.10742 1181.10315
1145.0 0.000873 1180.48779 1180.48364
1175.0 0.000851 1179.87109 1179.86682
1165.0 0.000858 1179.25696 1179.25269
1140.0 0.000877 1178.64551 1178.64124
1187.0 0.000842 1178.03674 1178.03247
1142.0 0.000876 1177.43066 1177.42639
1143.0 0.000875 1176.82727 1176.82288
1210.0 0.000826 1176.22656 1176.22229
1107.0 0.000903 1175.62878 1175.62439
1151.0 0.000869 1175.03357 1175.02917
1110.0 0.000901 1174.44116 1174.43677
1122.0 0.000891 1173.85132 1173.84692
1185.0 0.000844 1173.26440 1173.26001
1210.0 0.000826 1172.68042 1172.67603
1173.0 0.000853 1172.09900 1172.09460
1166.0 0.000858 1171.52039 1171.51587
1150.0 0.000870 1170.94470 1170.94019
1154.0 0.000867 1170.37158 1170.36719
1141.0 0.000876 1169.80164 1169.79712
1191.0 0.000840 1169.23413 1169.22961
1172.0 0.000853 1168.66968 1168.66516
1161.0 0.000861 1168.10803 1168.10352
1148.0 0.000871 1167.54919 1167.54456
1212.0 0.000825 1166.99341 1166.98877
1199.0 0.000834 1166.44031 1166.43567
1184.0 0.000845 1165.89001 1165.88538
1165.0 0.000858 1165.34253 1165.33789
1128.0 0.000887 1164.79797 1164.79333
1089.0 0.000918 1164.25647 1164.25183
1196.0 0.000836 1163.71777 1163.71313
1188.0 0.000842 1163.18213 1163.17737
1157.0 0.000864 1162.64905 1162.64441
1163.0 0.000860 1162.11914 1162.11438
1105.0 0.000905 1161.59204 1161.58728
1102.0 0.000907 1161.06799 1161.06323
1121.0 0.000892 1160.54688 1160.54211
1176.0 0.000850 1160.02844 1160.02368
1108.0 0.000903 1159.51318 1159.50830
1157.0 0.000864 1159.00098 1158.99609
1149.0 0.000870 1158.49146 1158.48657
1222.0 0.000818 1157.98499 1157.98010
1124.0 0.000890 1157.48145 1157.47656
1125.0 0.000889 1156.98083 1156.97595
1156.0 0.000865 1156.48328 1156.47839
1145.0 0.000873 1155.98865 1155.98364
1173.0 0.000853 1155.49707 1155.49207
1108.0 0.000903 1155.00830 1155.00342
1162.0 0.000861 1154.52271 1154.51770
1150.0 0.000870 1154.04004 1154.03503
1194.0 0.000838 1153.56030 1153.55530
1145.0 0.000873 1153.08350 1153.07837
1172.0 0.000853 1152.60986 1152.60486
1125.0 0.000889 1152.13904 1152.13391
1195.0 0.000837 1151.67139 1151.66626
1204.0 0.000831 1151.20667 1151.20154
1157.0 0.000864 1150.74487 1150.73975
1251.0 0.000799 1150.28613 1150.28101
1150.0 0.000870 1149.83044 1149.82532
1170.0 0.000855 1149.37769 1149.37244
1164.0 0.000859 1148.92798 1148.92285
1224.0 0.000817 1148.48145 1148.47620
1192.0 0.000839 1148.03760 1148.03235
1238.0 0.000808 1147.59692 1147.59167
1275.0 0.000784 1147.15930 1147.15405
1222.0 0.000818 1146.72449 1146.71924
1179.0 0.000848 1146.29297 1146.28772
1224.0 0.000817 1145.86438 1145.85901
1227.0 0.000815 1145.43860 1145.43323
1264.0 0.000791 1145.01611 1145.01074
1133.0 0.000883 1144.59656 1144.59119
1167.0 0.000857 1144.17993 1144.17456
1160.0 0.000862 1143.76636 1143.76099
1128.0 0.000887 1143.35571 1143.35034
1134.0 0.000882 1142.94824 1142.94275
1156.0 0.000865 1142.54370 1142.53821
1207.0 0.000829 1142.14233 1142.13684
1187.0 0.000842 1141.74377 1141.73828
1105.0 0.000905 1141.34827 1141.34265
1165.0 0.000858 1140.95569 1140.95007
1090.0 0.000917 1140.56616 1140.56055
1066.0 0.000938 1140.17969 1140.17407
1046.0 0.000956 1139.79614 1139.79053
1152.0 0.000868 1139.41565 1139.41003
1095.0 0.000913 1139.03796 1139.03223
1118.0 0.000894 1138.66345 1138.65771
1119.0 0.000894 1138.29187 1138.28625
1135.0 0.000881 1137.92334 1137.91760
1100.0 0.000909 1137.55774 1137.55200
1100.0 0.000909 1137.19507 1137.18933
1117.0 0.000895 1136.83545 1136.82959
1125.0 0.000889 1136.47876 1136.47290
1099.0 0.000910 1136.12512 1136.11926
1162.0 0.000861 1135.77429 1135.76843
1082.0 0.000924 1135.42639 1135.42053
1138.0 0.000879 1135.08154 1135.07568
1113.0 0.000898 1134.73975 1134.73376
1138.0 0.000879 1134.40063 1134.39478
1130.0 0.000885 1134.06470 1134.05872
1092.0 0.000916 1133.73157 1133.72559
1122.0 0.000891 1133.40125 1133.39526
1052.0 0.000951 1133.07410 1133.06799
1181.0 0.000847 1132.74976 1132.74365
1073.0 0.000932 1132.42834 1132.42224
1083.0 0.000923 1132.10974 1132.10364
1094.0 0.000914 1131.79407 1131.78796
1120.0 0.000893 1131.48132 1131.47522
1155.0 0.000866 1131.17139 1131.16528
1118.0 0.000894 1130.86462 1130.85840
1089.0 0.000918 1130.56042 1130.55432
1180.0 0.000847 1130.25928 1130.25305
1142.0 0.000876 1129.96082 1129.95459
1188.0 0.000842 1129.66528 1129.65906
1195.0 0.000837 1129.37268 1129.36646
1202.0 0.000832 1129.08264 1129.07642
1150.0 0.000870 1128.79565 1128.78943
1203.0 0.000831 1128.51147 1128.50513
1143.0 0.000875 1128.23010 1128.22375
1160.0 0.000862 1127.95154 1127.94519
1218.0 0.000821 1127.67578 1127.66931
1149.0 0.000870 1127.40271 1127.39624
1150.0 0.000870 1127.13245 1127.12610
1172.0 0.000853 1126.86511 1126.85864
1131.0 0.000884 1126.60046 1126.59399
1141.0 0.000876 1126.33850 1126.33203
1149.0 0.000870 1126.07922 1126.07275
1108.0 0.000903 1125.82288 1125.81641
1160.0 0.000862 1125.56909 1125.56262
1147.0 0.000872 1125.31812 1125.31152
1152.0 0.000868 1125.06982 1125.06323
1181.0 0.000847 1124.82434 1124.81775
1118.0 0.000894 1124.58130 1124.57471
1101.0 0.000908 1124.34106 1124.33447
1107.0 0.000903 1124.10364 1124.09692
1066.0 0.000938 1123.86865 1123.86194
1128.0 0.000887 1123.63635 1123.62964
1120.0 0.000893 1123.40686 1123.40015
1146.0 0.000873 1123.17981 1123.17310
1108.0 0.000903 1122.95544 1122.94861
1160.0 0.000862 1122.73364 1122.72693
1081.0 0.000925 1122.51453 1122.50781
1136.0 0.000880 1122.29785 1122.29102
1076.0 0.000929 1122.08386 1122.07703
1181.0 0.000847 1121.87231 1121.86548
1098.0 0.000911 1121.66357 1121.65662
1163.0 0.000860 1121.45703 1121.45020
1155.0 0.000866 1121.25330 1121.24646
1198.0 0.000835 1121.05200 1121.04504
1085.0 0.000922 1120.85315 1120.84619
1123.0 0.000890 1120.65674 1120.64978
1132.0 0.000883 1120.46289 1120.45593
1155.0 0.000866 1120.27148 1120.26453
1128.0 0.000887 1120.08252 1120.07556
1210.0 0.000826 1119.89600 1119.88892
1170.0 0.000855 1119.71191 1119.70483
1130.0 0.000885 1119.53027 1119.52319
1143.0 0.000875 1119.35107 1119.34387
1190.0 0.000840 1119.17419 1119.16699
1273.0 0.000786 1118.99951 1118.99243
1163.0 0.000860 1118.82739 1118.82019
1230.0 0.000813 1118.65759 1118.65051
1185.0 0.000844 1118.49011 1118.48291
1299.0 0.000770 1118.32495 1118.31775
1340.0 0.000746 1118.16199 1118.15479
1248.0 0.000801 1118.00146 1117.99426
1244.0 0.000804 1117.84326 1117.83594
1285.0 0.000778 1117.68726 1117.67993
1284.0 0.000779 1117.53333 1117.52600
1340.0 0.000746 1117.38184 1117.37451
1194.0 0.000838 1117.23254 1117.22522
1219.0 0.000820 1117.08545 1117.07813
1232.0 0.000812 1116.94055 1116.93323
1200.0 0.000833 1116.79785 1116.79041
1212.0 0.000825 1116.65723 1135.72144
1206.0 0.000829 1116.51880 1135.83875
1170.0 0.000855 1116.38245 1135.96338
1155.0 0.000866 1116.24829 1136.09546
1140.0 0.000877 1116.11609 1136.23499
1146.0 0.000873 1115.98608 1145.84583
1184.0 0.000845 1115.85815 1146.12744
1151.0 0.000869 1115.73218 1146.41980
1095.0 0.000913 1115.60840 1146.72266
1100.0 0.000909 1115.48645 1147.03662
1085.0 0.000922 1115.36670 1147.36206
1153.0 0.000867 1115.24878 1147.69861
1096.0 0.000912 1115.13306 1148.04724
1113.0 0.000898 1115.01929 1148.40771
1135.0 0.000881 1114.90710 1148.78040
1109.0 0.000902 1114.79712 1149.16565
1157.0 0.000864 1114.68909 1149.56396
1124.0 0.000890 1114.58289 1149.97534
1076.0 0.000929 1114.47827 1150.39966
1138.0 0.000879 1114.37585 1150.83826
1115.0 0.000897 1114.27515 1151.29102
1152.0 0.000868 1114.17639 1151.75830
1075.0 0.000930 1114.07935 1152.24048
1048.0 0.000954 1113.98401 1152.73767
1055.0 0.000948 1113.89063 1153.25085
1122.0 0.000891 1113.79895 1153.78015
1023.0 0.000978 1113.70886 1154.32568
1057.0 0.000946 1113.62061 1154.88855
1100.0 0.000909 1113.53418 1155.46863
1150.0 0.000870 1113.44934 1156.06689
1051.0 0.000951 1113.36609 1156.68347
1051.0 0.000951 1113.28455 1157.31909
1072.0 0.000933 1113.20459 1157.97424
1110.0 0.000901 1113.12634 1158.64978
1119.0 0.000894 1113.04968 1159.34595
1058.0 0.000945 1112.97449 1160.06360
1063.0 0.000941 1112.90100 1160.80334
1099.0 0.000910 1112.82910 1161.56592
1117.0 0.000895 1112.75854 1162.35217
1058.0 0.000945 1112.68958 1163.16223
1106.0 0.000904 1112.62207 1163.99756
1161.0 0.000861 1112.55615 1164.85889
1077.0 0.000929 1112.49170 1165.74719
1082.0 0.000924 1112.42847 1166.66272
1066.0 0.000938 1112.36682 1167.60706
1140.0 0.000877 1112.30652 1168.58118
1111.0 0.000900 1112.24768 1169.58594
1127.0 0.000887 1112.19006 1170.62256
1095.0 0.000913 1112.13379 1171.69189
1115.0 0.000897 1112.07898 1172.79541
1107.0 0.000903 1112.02539 1173.93445
1107.0 0.000903 1111.97314 1175.11035
1124.0 0.000890 1111.92212 1176.32446
1036.0 0.000965 1111.87231 1177.57788
1136.0 0.000880 1111.82385 1178.87292
1067.0 0.000937 1111.77661 1180.21021
1093.0 0.000915 1111.73035 1181.59229
1122.0 0.000891 1111.68542 1183.02075
1156.0 0.000865 1111.64148 1184.49731
1127.0 0.000887 1111.59900 1186.02466
1087.0 0.000920 1111.55737 1187.60352
1114.0 0.000898 1111.51685 1189.23730
1118.0 0.000894 1111.47754 1190.92822
1112.0 0.000899 1111.43933 1192.67859
1100.0 0.000909 1111.40198 1194.49097
1164.0 0.000859 1111.36560 1196.36780
1153.0 0.000867 1111.33044 1198.31299
1181.0 0.000847 1111.29614 1200.32910
1154.0 0.000867 1111.26294 1202.41943
1089.0 0.000918 1111.23059 1204.58777
1175.0 0.000851 1111.19910 1206.83679
1178.0 0.000849 1111.16858 1209.17175
1230.0 0.000813 1111.13892 1211.59644
1233.0 0.000811 1111.10999 1214.11536
1201.0 0.000833 1111.08203 1216.73315
1300.0 0.000769 1111.05505 1219.45471
1269.0 0.000788 1111.02869 1222.28577
1269.0 0.000788 1111.00317 1225.23242
1266.0 0.000790 1110.97839 1228.30005
1300.0 0.000769 1110.95435 1231.49585
1346.0 0.000743 1110.93103 1234.82690
1347.0 0.000742 1110.90857 1238.29932
1307.0 0.000765 1110.88660 1241.92297
1331.0 0.000751 1110.86536 1245.70618
1297.0 0.000771 1110.84473 1249.65784
1302.0 0.000768 1110.82495 1253.78833
1274.0 0.000785 1110.80554 1258.10718
1420.0 0.000704 1110.78674 1262.62769
1332.0 0.000751 1110.76855 1267.36169
1374.0 0.000728 1110.75098 1272.32263
1388.0 0.000720 1110.73389 1277.52539
1423.0 0.000703 1110.71716 1282.98364
1445.0 0.000692 1110.70105 1288.71741
1383.0 0.000723 1110.68555 1294.74414
1421.0 0.000704 1110.67029 1301.08374
1423.0 0.000703 1110.65564 1307.75806
1569.0 0.000637 1110.64124 1314.79016
1421.0 0.000704 1110.62732 1322.20764
1404.0 0.000712 1110.61377 1330.03821
1458.0 0.000686 1110.60046 1338.31262
1480.0 0.000676 1110.58765 1347.06616
1480.0 0.000676 1110.57495 1356.33167
1447.0 0.000691 1110.56287 1366.15601
1475.0 0.000678 1110.55066 1376.58154
1466.0 0.000682 1110.53894 1387.65869
1519.0 0.000658 1110.52747 1399.44263
1503.0 0.000665 1110.51611 1411.99414
1458.0 0.000686 1110.50500 1425.37964
1435.0 0.000697 1110.49414 1439.67786
1453.0 0.000688 1110.48340 1454.97131
1462.0 0.000684 1110.47266 1471.35413
1480.0 0.000676 1110.46228 1488.93420
1508.0 0.000663 1110.45178 1507.82068
1497.0 0.000668 1110.44128 1528.15869
1485.0 0.000673 1110.43115 1550.09448
1577.0 0.000634 1110.42090 1573.79895
1587.0 0.000630 1110.41064 1599.46655
1622.0 0.000617 1110.40039 1627.31519
1569.0 0.000637 1110.39014 1657.60522
1598.0 0.000626 1110.37976 1690.62439
1668.0 0.000600 1110.36938 1726.71338
1765.0 0.000567 1110.35901 1766.24121
1704.0 0.000587 1110.34839 1809.68298
1871.0 0.000534 1110.33789 1857.55664
1847.0 0.000541 1110.32690 1910.47974
1921.0 0.000521 1110.31604 1969.18127
2025.0 0.000494 1110.30493 2034.52515
2032.0 0.000492 1110.29370 2107.54370
2121.0 0.000471 1110.28210 2189.48022
2201.0 0.000454 1110.27026 2281.87671
2378.0 0.000421 1110.25842 2386.51709
2442.0 0.000410 1110.24609 2505.91455
2709.0 0.000369 1110.23364 2643.14893
2900.0 0.0003448 1110.22058 2802.44263
3041.0 0.0003288 1110.20740 2989.67773
3196.0 0.0003129 1110.19385 3213.22437
3519.0 0.0002842 1110.18005 3485.09351
3883.0 0.0002575 1110.16565 3822.37744
4367.0 0.0002290 1110.15100 4248.84131
4904.0 0.0002039 1110.13586 4796.31689
5460.0 0.0001832 1110.12036 5505.39600
6357.0 0.0001573 1110.10425 6424.52539
7305.0 0.0001369 1110.08777 7608.36670
8627.0 0.0001159 1110.07092 9111.45313
10397.0 0.0000962 1110.05334 10981.01270
12452.0 0.0000803 1110.03540 13244.39063
14908.0 0.0000671 1110.01672 15888.81543
17926.0 0.0000558 1109.99756 18827.91797
21308.0 0.0000469 1109.97791 21855.29688
24425.0 0.0000409 1109.95752 24614.36133
26771.0 0.0000374 1109.93665 26660.70703
28183.0 0.0000355 1109.91504 27662.49414
28035.0 0.0000357 1109.89282 27607.14258
27064.0 0.0000369 1109.86987 26757.74805
24923.0 0.0000401 1109.84631 25407.40820
23098.0 0.0000433 1109.82202 23694.88281
21465.0 0.0000466 1109.79688 21634.37500
19345.0 0.0000517 1109.77112 19267.51953
17186.0 0.0000582 1109.74463 16747.35742
14853.0 0.0000673 1109.71716 14280.82324
12259.0 0.0000816 1109.68896 12032.68262
10585.0 0.0000945 1109.66003 10088.11328
9011.0 0.0001110 1109.63025 8465.25977
7938.0 0.0001260 1109.59961 7145.29932
7000.0 0.0001429 1109.56799 6091.01123
6160.0 0.0001623 1109.53564 5259.27100
5480.0 0.0001825 1109.50244 4607.51074
5114.0 0.0001955 1109.46814 4097.16650
4517.0 0.0002214 1109.43311 3695.38110
4248.0 0.0002354 1109.39697 3375.55518
3829.0 0.0002612 1109.35999 3117.07886
3472.0 0.0002880 1109.32190 2904.51074
3254.0 0.0003073 1109.28271 2726.84375
2972.0 0.0003365 1109.24268 2575.84644
2753.0 0.000363 1109.20166 2445.90186
2505.0 0.000399 1109.15942 2332.89087
2490.0 0.000402 1109.11609 2233.77783
2206.0 0.000453 1109.07190 2146.26416
2188.0 0.000457 1109.02649 2068.55762
2027.0 0.000493 1108.97998 1999.22583
2008.0 0.000498 1108.93225 1937.10205
1967.0 0.000508 1108.88354 1881.22070
1844.0 0.000542 1108.83350 1830.78613
1888.0 0.000530 1108.78235 1785.09326
1831.0 0.000546 1108.72998 1743.57751
1786.0 0.000560 1108.67639 1705.74609
1735.0 0.000576 1108.62158 1671.17651
1708.0 0.000585 1108.56555 1639.50500
1654.0 0.000605 1108.50830 1610.41675
1676.0 0.000597 1108.44971 1583.63818
1623.0 0.000616 1108.38989 1558.93140
1594.0 0.000627 1108.32874 1536.08752
1554.0 0.000644 1108.26636 1514.91919
1539.0 0.000650 1108.20264 1495.28430
1496.0 0.000668 1108.13745 1477.01624
1398.0 0.000715 1108.07092 1459.99878
1425.0 0.000702 1108.00305 1444.12012
1447.0 0.000691 1107.93384 1429.28015
1396.0 0.000716 1107.86316 1415.39001
1441.0 0.000694 1107.79114 1402.36975
1431.0 0.000699 1107.71765 1390.14771
1360.0 0.000735 1107.64270 1378.65942
1414.0 0.000707 1107.56628 1367.84680
1346.0 0.000743 1107.48840 1357.65979
1424.0 0.000702 1107.40906 1348.04614
1340.0 0.000746 1107.32813 1338.96509
1316.0 0.000760 1107.24585 1330.37756
1308.0 0.000765 1107.16199 1322.24805
1284.0 0.000779 1107.07654 1314.54395
1282.0 0.000780 1106.98950 1307.23547
1369.0 0.000730 1106.90100 1300.29590
1261.0 0.000793 1106.81079 1293.69983
1253.0 0.000798 1106.71899 1287.42334
1237.0 0.000808 1106.62573 1281.45129
1293.0 0.000773 1106.53076 1275.75696
1302.0 0.000768 1106.43420 1270.32544
1317.0 0.000759 1106.33594 1265.14038
1268.0 0.000789 1106.23608 1260.18677
1256.0 0.000796 1106.13452 1255.45044
1265.0 0.000791 1106.03125 1250.91846
1232.0 0.000812 1105.92639 1246.57886
1208.0 0.000828 1105.81970 1242.42017
1224.0 0.000817 1105.71143 1238.43262
1169.0 0.000855 1105.60132 1234.60596
1257.0 0.000796 1105.48962 1230.93225
1202.0 0.000832 1105.37598 1227.40149
1225.0 0.000816 1105.26074 1224.00659
1258.0 0.000795 1105.14355 1220.74023
1139.0 0.000878 1105.02478 1217.59558
1225.0 0.000816 1104.90417 1214.56641
1226.0 0.000816 1104.78162 1211.64673
1180.0 0.000847 1104.65747 1208.83093
1238.0 0.000808 1104.53125 1206.11340
1181.0 0.000847 1104.40320 1203.48889
1162.0 0.000861 1104.27356 1200.95532
1184.0 0.000845 1104.14185 1198.50513
1169.0 0.000855 1104.00830 1196.13538
1226.0 0.000816 1103.87292 1193.84241
1242.0 0.000805 1103.73572 1191.62219
1230.0 0.000813 1103.59644 1189.47180
1269.0 0.000788 1103.45532 1187.38745
1264.0 0.000791 1103.31250 1185.36646
1251.0 0.000799 1103.16748 1183.40613
1215.0 0.000823 1103.02063 1181.50305
1195.0 0.000837 1102.87170 1179.65503
1160.0 0.000862 1102.72107 1177.86035
1167.0 0.000857 1102.56836 1176.11523
1193.0 0.000838 1102.41357 1174.41846
1182.0 0.000846 1102.25696 1172.76746
1178.0 0.000849 1102.09814 1171.16052
1150.0 0.000870 1101.93750 1169.59570
1196.0 0.000836 1101.77478 1168.07141
1160.0 0.000862 1101.61011 1166.58569
1166.0 0.000858 1101.44348 1165.13708
1154.0 0.000867 1101.27466 1163.72363
1170.0 0.000855 1101.10400 1162.34521
1178.0 0.000849 1100.93115 1160.99878
1189.0 0.000841 1100.75610 1159.68359
1127.0 0.000887 1100.57922 1158.39868
1167.0 0.000857 1100.40015 1157.14246
1131.0 0.000884 1100.21912 1155.91406
1083.0 0.000923 1100.03589 1154.71240
1131.0 0.000884 1099.85059 1153.53625
1101.0 0.000908 1099.66321 1152.38452
1166.0 0.000858 1099.47375 1151.25684
1139.0 0.000878 1099.28210 1150.15137
1086.0 0.000921 1099.08850 1149.06824
1188.0 0.000842 1098.89258 1148.00598
1149.0 0.000870 1098.69470 1146.96375
1119.0 0.000894 1098.49463 1145.94116
1119.0 0.000894 1098.29236 1144.93701
1176.0 0.000850 1098.08801 1143.95093
1107.0 0.000903 1097.88147 1142.98218
1134.0 0.000882 1097.67261 1142.03015
1119.0 0.000894 1097.46179 1141.09399
1184.0 0.000845 1097.24866 1140.17334
1115.0 0.000897 1097.03357 1139.26819
1108.0 0.000903 1096.81616 1138.37683
1166.0 0.000858 1096.59656 1137.49927
1168.0 0.000856 1096.37476 1136.63513
1109.0 0.000902 1096.15088 1135.78369
1154.0 0.000867 1095.92468 1134.94470
1194.0 0.000838 1095.69629 1134.11768
1182.0 0.000846 1095.46570 1133.30200
1130.0 0.000885 1095.23291 1132.49719
1157.0 0.000864 1094.99780 1131.70325
1148.0 0.000871 1094.76062 1130.91968
1128.0 0.000887 1094.52112 1130.14600
1152.0 0.000868 1094.27942 1129.38147
1084.0 0.000923 1094.03552 1128.62646
1171.0 0.000854 1093.78931 1127.88013
1100.0 0.000909 1093.54089 1127.14221
1158.0 0.000864 1093.29016 1126.41260
1124.0 0.000890 1093.03735 1125.69104
1117.0 0.000895 1092.78210 1124.97705
1111.0 0.000900 1092.52466 1124.27026
1083.0 0.000923 1092.26501 1123.57068
1188.0 0.000842 1092.00330 1122.87830
1106.0 0.000904 1091.73901 1122.19189
1049.0 0.000953 1091.47266 1121.51221
1100.0 0.000909 1091.20386 1120.83838
1145.0 0.000873 1090.93298 1101.13062
1061.0 0.000943 1090.65967 1100.71838
1133.0 0.000883 1090.38416 1100.30688
1098.0 0.000911 1090.10632 1099.89551
1126.0 0.000888 1089.82629 1099.48486
1126.0 0.000888 1089.54395 1099.07446
1136.0 0.000880 1089.25940 1089.25220
1135.0 0.000881 1088.97253 1088.96545
1123.0 0.000890 1088.68335 1088.67627
1131.0 0.000884 1088.39185 1088.38464
1064.0 0.000940 1088.09814 1088.09106
1060.0 0.000943 1087.80212 1087.79504
1084.0 0.000923 1087.50391 1087.49683
1107.0 0.000903 1087.20325 1087.19617
1123.0 0.000890 1086.90027 1086.89331
1094.0 0.000914 1086.59521 1094.85925
1047.0 0.000955 1086.28772 1094.62952
1120.0 0.000893 1085.97803 1094.39856
1100.0 0.000909 1085.66614 1094.16663
1111.0 0.000900 1085.35193 1093.93335
1139.0 0.000878 1085.03540 1093.69910
1072.0 0.000933 1084.71655 1097.57141
1062.0 0.000942 1084.39539 1097.37329
1087.0 0.000920 1084.07202 1097.17468
1045.0 0.000957 1083.74634 1096.97583
1045.0 0.000957 1083.41833 1096.77625
1020.0 0.000980 1083.08813 1096.57642
1101.0 0.000908 1082.75574 1096.37634
1132.0 0.000883 1082.42090 1096.17578
1071.0 0.000934 1082.08386 1095.97485
1086.0 0.000921 1081.74451 1095.77393
1028.0 0.000973 1081.40308 1095.57275
1037.0 0.000964 1081.05908 1095.37122
1061.0 0.000943 1080.71289 1095.16980
1045.0 0.000957 1080.36462 1094.96838
1079.0 0.000927 1080.01392 1094.76672
1122.0 0.000891 1079.66113 1094.56531
1098.0 0.000911 1079.30591 1094.36377
1067.0 0.000937 1078.94873 1094.16260
1083.0 0.000923 1078.58899 1093.96155
1069.0 0.000935 1078.22717 1093.76062
1124.0 0.000890 1077.86304 1093.56006
1073.0 0.000932 1077.49658 1093.35974
1093.0 0.000915 1077.12793 1093.15991
1034.0 0.000967 1076.75708 1092.96069
1083.0 0.000923 1076.38416 1092.76196
1115.0 0.000897 1076.00879 1092.56372
1093.0 0.000915 1075.63123 1092.36621
1130.0 0.000885 1075.25159 1092.16931
1067.0 0.000937 1074.86963 1091.97339
1106.0 0.000904 1074.48547 1091.77820
1046.0 0.000956 1074.09900 1091.58398
1053.0 0.000950 1073.71057 1091.39099
1033.0 0.000968 1073.31982 1091.19885
1105.0 0.000905 1072.92688 1091.00806
1060.0 0.000943 1072.53162 1090.81836
1061.0 0.000943 1072.13452 1090.63013
1070.0 0.000935 1071.73474 1090.44299
1026.0 0.000975 1071.33325 1090.25769
1082.0 0.000924 1070.92944 1090.07410
1024.0 0.000977 1070.52344 1089.89197
1081.0 0.000925 1070.11523 1089.71167
1084.0 0.000923 1069.70496 1089.53345
1080.0 0.000926 1069.29248 1089.35706
1077.0 0.000929 1068.87793 1089.18274
1046.0 0.000956 1068.46130 1089.01062
1123.0 0.000890 1068.04236 1088.84082
1116.0 0.000896 1067.62134 1088.67346
1048.0 0.000954 1067.19836 1088.50879
1038.0 0.000963 1066.77319 1088.34680
1112.0 0.000899 1066.34583 1088.18738
1020.0 0.000980 1065.91650 1088.03101
1025.0 0.000976 1065.48511 1087.87781
1044.0 0.000958 1065.05139 1087.72766
1082.0 0.000924 1064.61584 1087.58081
1096.0 0.000912 1064.17822 1087.43750
1044.0 0.000958 1063.73840 1087.29785
1062.0 0.000942 1063.29651 1087.16211
1047.0 0.000955 1062.85254 1087.02991
1118.0 0.000894 1062.40698 1086.90234
1048.0 0.000954 1061.95898 1086.77881
1055.0 0.000948 1061.50903 1086.65955
1050.0 0.000952 1061.05713 1086.54504
1019.0 0.000981 1060.60303 1086.43542
1077.0 0.000929 1060.14709 1086.33093
1028.0 0.000973 1059.68921 1086.23169
1032.0 0.000969 1059.22925 1086.13782
994.0 0.001006 1058.76733 1086.04944
989.0 0.001011 1058.30334 1085.96692
1075.0 0.000930 1057.83752 1085.89063
1019.0 0.000981 1057.36987 1085.82068
1058.0 0.000945 1056.90002 1085.75720
1064.0 0.000940 1056.42834 1085.70044
1093.0 0.000915 1055.95483 1085.65112
1071.0 0.000934 1055.47925 1085.60876
1027.0 0.000974 1055.00183 1085.57422
1080.0 0.000926 1054.52246 1085.54773
1055.0 0.000948 1054.04126 1085.52942
1063.0 0.000941 1053.55823 1085.51965
1004.0 0.000996 1053.07312 1085.51868
1020.0 0.000980 1052.58655 1085.52686
1028.0 0.000973 1052.09802 1085.54492
1042.0 0.000960 1051.60742 1085.57251
1011.0 0.000989 1051.11511 1085.61060
1015.0 0.000985 1050.62097 1085.65955
990.0 0.001010 1050.12500 1085.71936
962.0 0.001040 1049.62720 1085.79065
1033.0 0.000968 1049.12769 1085.87402
999.0 0.001001 1048.62634 1085.96997
1071.0 0.000934 1048.12317 1086.07849
1018.0 0.000982 1047.61841 1086.20056
1041.0 0.000961 1047.11182 1086.33643
1037.0 0.000964 1046.60364 1086.48682
1001.0 0.000999 1046.09338 1086.65222
1036.0 0.000965 1045.58167 1086.83325
1081.0 0.000925 1045.06824 1087.03027
1003.0 0.000997 1044.55310 1087.24438
1022.0 0.000978 1044.03613 1087.47583
972.0 0.001029 1043.51758 1087.72522
1028.0 0.000973 1042.99744 1087.99377
1036.0 0.000965 1042.47546 1088.28186
1032.0 0.000969 1041.95227 1088.59045
1025.0 0.000976 1041.42712 1088.92004
1065.0 0.000939 1040.90051 1089.27209
1001.0 0.000999 1040.37207 1089.64673
1107.0 0.000903 1039.84216 1090.04553
1005.0 0.000995 1039.31067 1090.46924
985.0 0.001015 1038.77771 1090.91882
1045.0 0.000957 1038.24304 1091.39539
1062.0 0.000942 1037.70691 1091.90002
1006.0 0.000994 1037.16919 1092.43396
1028.0 0.000973 1036.63013 1092.99854
974.0 0.001027 1036.08936 1093.87512
1024.0 0.000977 1035.54712 1094.50757
1029.0 0.000972 1035.00342 1095.17456
1096.0 0.000912 1034.45837 1095.87781
1049.0 0.000953 1033.91174 1096.61877
1060.0 0.000943 1033.36365 1097.39929
1046.0 0.000956 1032.81409 1098.35974
1084.0 0.000923 1032.26331 1099.22607
1123.0 0.000890 1031.71094 1100.13745
1077.0 0.000929 1031.15710 1101.09631
1126.0 0.000888 1030.60229 1102.10364
1078.0 0.000928 1030.04578 1103.16296
1168.0 0.000856 1029.48792 1104.27661
1072.0 0.000933 1028.92871 1105.44690
1152.0 0.000868 1028.36841 1106.67676
1140.0 0.000877 1027.80652 1107.96887
1139.0 0.000878 1027.24341 1109.32617
1137.0 0.000880 1026.67908 1110.75232
1167.0 0.000857 1026.11340 1112.25037
1140.0 0.000877 1025.54651 1113.82422
1133.0 0.000883 1024.97839 1115.47705
1161.0 0.000861 1024.40906 1117.21436
1128.0 0.000887 1023.83850 1119.03967
1128.0 0.000887 1023.26660 1120.95776
1176.0 0.000850 1022.69354 1122.97363
1153.0 0.000867 1022.11951 1125.09290
1179.0 0.000848 1021.54407 1127.32068
1213.0 0.000824 1020.96753 1129.66382
1165.0 0.000858 1020.38977 1132.12805
1089.0 0.000918 1019.81116 1134.72107
1088.0 0.000919 1019.23108 1137.45032
1153.0 0.000867 1018.65045 1140.32153
1227.0 0.000815 1018.06842 1143.34644
1178.0 0.000849 1017.48529 1146.53308
1154.0 0.000867 1016.90112 1149.89148
1120.0 0.000893 1016.31586 1153.43225
1128.0 0.000887 1015.72961 1157.16687
1115.0 0.000897 1015.14252 1161.10791
1194.0 0.000838 1014.55432 1165.26904
1130.0 0.000885 1013.96503 1169.66443
1159.0 0.000863 1013.37488 1174.31006
1201.0 0.000833 1012.78394 1179.22205
1134.0 0.000882 1012.19183 1184.42090
1159.0 0.000863 1011.59882 1189.92639
1148.0 0.000871 1011.00513 1195.76025
1196.0 0.000836 1010.41028 1201.94641
1200.0 0.000833 1009.81464 1208.51147
1221.0 0.000819 1009.21808 1215.48401
1193.0 0.000838 1008.62091 1222.89587
1215.0 0.000823 1008.02271 1230.78137
1196.0 0.000836 1007.42352 1239.18115
1248.0 0.000801 1006.82404 1248.12830
1204.0 0.000831 1006.22351 1257.67993
1280.0 0.000781 1005.62213 1267.88318
1196.0 0.000836 1005.01996 1278.79492
1262.0 0.000792 1004.41724 1290.47864
1293.0 0.000773 1003.81372 1303.00403
1254.0 0.000797 1003.20941 1316.44983
1281.0 0.000781 1002.60449 1330.90332
1281.0 0.000781 1001.99890 1346.46326
1342.0 0.000745 1001.39264 1363.23987
1320.0 0.000758 1000.78564 1381.35718
1336.0 0.000749 1000.17822 1400.95142
1396.0 0.000716 999.57007 1422.19104
1386.0 0.000722 998.96124 1445.25208
1362.0 0.000734 998.35187 1470.34143
1460.0 0.000685 997.74188 1497.69507
1473.0 0.000679 997.13147 1527.58423
1500.0 0.000667 996.52045 1560.32288
1547.0 0.000646 995.90881 1596.27417
1641.0 0.000609 995.29669 1635.86438
1641.0 0.000609 994.68402 1679.60718
1704.0 0.000587 994.07141 1728.05579
1787.0 0.000560 993.45782 1781.99255
1676.0 0.000597 992.84399 1842.28662
1854.0 0.000539 992.22961 1910.05115
1954.0 0.000512 991.61475 1986.69922
2111.0 0.000474 990.99957 2074.04858
2193.0 0.000456 990.38416 2174.45630
2303.0 0.000434 989.76819 2290.98657
2462.0 0.000406 989.15186 2427.60767
2568.0 0.000389 988.53528 2589.40137
2706.0 0.000370 987.91840 2782.76587
3030.0 0.0003300 987.30127 3015.51489
3338.0 0.0002996 986.68378 3297.18628
3482.0 0.0002872 986.06610 3638.65552
3825.0 0.0002614 985.44800 4052.11035
4381.0 0.0002283 984.82977 4550.54053
4830.0 0.0002070 984.21118 5146.97168
5494.0 0.0001820 983.59259 5853.26563
6194.0 0.0001614 982.97363 6678.21729
7254.0 0.0001379 982.35455 7624.45264
8284.0 0.0001207 981.73529 8683.71191
9681.0 0.0001033 981.11621 9827.87891
11231.0 0.0000890 980.49664 11004.17871
12795.0 0.0000782 979.87695 12125.50684
14157.0 0.0000706 979.25739 13080.29688
15197.0 0.0000658 978.63757 13760.04785
15621.0 0.0000640 978.01770 14100.56543
15290.0 0.0000654 977.39771 14108.29590
14668.0 0.0000682 976.77789 13847.33594
13734.0 0.0000728 976.15790 13396.37695
13084.0 0.0000764 975.53796 12809.69922
12299.0 0.0000813 974.91803 12106.99219
11996.0 0.0000834 974.29834 11291.69922
10676.0 0.0000937 973.67841 10376.96191
9695.0 0.0001031 973.05872 9399.78027
8557.0 0.0001169 972.43884 8412.26074
7420.0 0.0001348 971.81940 7464.51465
6518.0 0.0001534 971.19983 6592.47363
5805.0 0.0001723 970.58044 5815.20166
5365.0 0.0001864 969.96118 5138.18701
4700.0 0.0002128 969.34216 4558.13330
4194.0 0.0002384 968.72321 4066.83447
3860.0 0.0002591 968.10461 3654.47925
3632.0 0.0002753 967.48621 3309.76343
3270.0 0.0003058 966.86792 3022.49194
3125.0 0.0003200 966.24982 2783.09985
2921.0 0.0003423 965.63196 2583.11548
2691.0 0.000372 965.01453 2415.25244
2458.0 0.000407 964.39734 2273.40112
2369.0 0.000422 963.78027 2152.55005
2243.0 0.000446 963.16364 2048.66431
2159.0 0.000463 962.54742 1958.54333
2048.0 0.000488 961.93158 1879.69214
1906.0 0.000525 961.31598 1810.10925
1812.0 0.000552 960.70087 1748.28064
1710.0 0.000585 960.08606 1692.99915
1687.0 0.000593 959.47156 1643.30652
1637.0 0.000611 958.85760 1598.43176
1568.0 0.000638 958.24408 1557.74500
1502.0 0.000666 957.63098 1520.72485
1458.0 0.000686 957.01831 1486.93396
1437.0 0.000696 956.40619 1456.00134
1369.0 0.000730 955.79443 1427.60278
1446.0 0.000692 955.18365 1401.49023
1467.0 0.000682 954.57300 1377.39343
1317.0 0.000759 953.96301 1355.11902
1287.0 0.000777 953.35358 1334.48523
1331.0 0.000751 952.74469 1315.33240
1296.0 0.000772 952.13635 1297.52063
1264.0 0.000791 951.52856 1280.92542
1266.0 0.000790 950.92163 1265.43701
1215.0 0.000823 950.31519 1250.95703
1240.0 0.000806 949.70941 1237.39844
1208.0 0.000828 949.10443 1224.68640
1157.0 0.000864 948.50000 1212.74463
1188.0 0.000842 947.89630 1201.51379
1131.0 0.000884 947.29333 1190.93750
1156.0 0.000865 946.69104 1180.96509
1196.0 0.000836 946.08948 1171.55029
1146.0 0.000873 945.48871 1162.65210
1154.0 0.000867 944.88861 1154.23254
1122.0 0.000891 944.28955 1146.25830
1137.0 0.000880 943.69110 1138.69751
1085.0 0.000922 943.09338 1131.52063
1081.0 0.000925 942.49689 1124.70874
1038.0 0.000963 941.90094 1118.23010
1128.0 0.000887 941.30585 1112.06653
1143.0 0.000875 940.71161 1106.19873
1109.0 0.000902 940.11835 1100.60889
1074.0 0.000931 939.52606 1095.28088
1073.0 0.000932 938.93445 1090.19946
1053.0 0.000950 938.34393 1085.35120
1051.0 0.000951 937.75439 1080.72363
1011.0 0.000989 937.16571 1076.30566
1019.0 0.000981 936.57819 1072.08765
1029.0 0.000972 935.99164 1068.05884
1053.0 0.000950 935.40582 1064.21106
1053.0 0.000950 934.82123 1060.53711
1067.0 0.000937 934.23755 1057.03015
1032.0 0.000969 933.65509 1053.68445
1005.0 0.000995 933.07355 1050.49390
991.0 0.001009 932.49304 1047.45483
1045.0 0.000957 931.91364 1044.56274
1028.0 0.000973 931.33539 1041.81519
1025.0 0.000976 930.75806 1039.20874
1042.0 0.000960 930.18237 1036.74438
1074.0 0.000931 929.60742 1034.41821
1039.0 0.000962 929.03381 1032.23181
977.0 0.001024 928.46124 1030.18555
987.0 0.001013 927.88983 1028.28174
1001.0 0.000999 927.31958 1026.52344
979.0 0.001021 926.75067 1024.91479
1055.0 0.000948 926.18292 1023.46136
1055.0 0.000948 925.61633 1022.17035
1001.0 0.000999 925.05103 1021.05115
998.0 0.001002 924.48718 1020.11511
969.0 0.001032 923.92444 1019.37646
964.0 0.001037 923.36298 1018.85291
1021.0 0.000979 922.80280 1018.56726
953.0 0.001049 922.24402 1018.54797
1052.0 0.000951 921.68634 1018.83160
1043.0 0.000959 921.13019 1019.46509
1004.0 0.000996 920.57544 1020.50952
1095.0 0.000913 920.02185 1022.04272
1064.0 0.000940 919.46960 1024.16614
1053.0 0.000950 918.91913 1027.00427
1089.0 0.000918 918.36981 1030.71924
1096.0 0.000912 917.82184 1035.50415
1069.0 0.000935 917.27527 1041.59094
1014.0 0.000986 916.73035 1049.24902
1148.0 0.000871 916.18671 1058.78076
1101.0 0.000908 915.64447 1070.51343
1113.0 0.000898 915.10370 1084.78467
1110.0 0.000901 914.56451 1101.91968
1117.0 0.000895 914.02679 1122.19470
1152.0 0.000868 913.49060 1145.78076
1212.0 0.000825 912.95599 1172.64331
1224.0 0.000817 912.42285 1202.42773
1276.0 0.000784 911.89117 1234.22559
1243.0 0.000805 911.36102 1266.40002
1401.0 0.000714 910.83246 1296.50903
1460.0 0.000685 910.30554 1321.58325
1452.0 0.000689 909.78021 1338.88428
1431.0 0.000699 909.25635 1346.89136
1461.0 0.000684 908.73419 1345.86768
1362.0 0.000734 908.21350 1337.50183
1359.0 0.000736 907.69482 1323.89172
1325.0 0.000755 907.17749 1306.53857
1360.0 0.000735 906.66193 1286.06897
1284.0 0.000779 906.14789 1262.56140
1263.0 0.000792 905.63556 1236.20776
1195.0 0.000837 905.12488 1207.75269
1213.0 0.000824 904.61603 1178.44666
1103.0 0.000907 904.10870 1149.66357
1140.0 0.000877 903.60315 1122.52930
1129.0 0.000886 903.09930 1097.75708
1117.0 0.000895 902.59729 1075.66846
1075.0 0.000930 902.09705 1056.30334
1022.0 0.000978 901.59839 1039.51221
1014.0 0.000986 901.10168 1025.06677
1013.0 0.000987 900.60657 1012.69543
1011.0 0.000989 900.11322 1002.12061
1024.0 0.000977 899.62170 993.07715
1002.0 0.000998 899.13208 985.32233
1066.0 0.000938 898.64410 978.64026
1027.0 0.000974 898.15808 972.84491
1000.0 0.001000 897.67365 967.77704
1019.0 0.000981 897.19153 963.31024
950.0 0.001053 896.71088 959.33179
951.0 0.001052 896.23212 955.75793
975.0 0.001026 895.75531 952.51990
1012.0 0.000988 895.28033 949.56281
983.0 0.001017 894.80719 946.84338
961.0 0.001041 894.33600 944.32721
970.0 0.001031 893.86664 941.98615
978.0 0.001022 893.39929 939.79803
960.0 0.001042 892.93372 937.74396
961.0 0.001041 892.47009 935.80884
941.0 0.001063 892.00867 933.98010
951.0 0.001052 891.54889 932.24536
896.0 0.001116 891.09106 930.59595
915.0 0.001093 890.63525 929.02356
962.0 0.001040 890.18146 927.52087
887.0 0.001127 889.72949 926.08167
930.0 0.001075 889.27960 924.70038
858.0 0.001166 888.83160 923.37207
927.0 0.001079 888.38574 922.09253
982.0 0.001018 887.94171 920.85742
969.0 0.001032 887.50000 919.66449
827.0 0.001209 887.06006 918.50934
865.0 0.001156 886.62219 917.38959
912.0 0.001096 886.18622 916.30280
861.0 0.001161 885.75244 915.24677
892.0 0.001121 885.32062 914.21942
928.0 0.001078 884.89093 913.21918
915.0 0.001093 884.46313 912.24384
900.0 0.001111 884.03754 911.29236
989.0 0.001011 883.61395 910.36322
924.0 0.001082 883.19257 909.45526
915.0 0.001093 882.77313 908.56696
907.0 0.001103 882.35590 907.69769
888.0 0.001126 881.94061 906.84607
924.0 0.001082 881.52747 906.01147
902.0 0.001109 881.11633 905.19305
887.0 0.001127 880.70746 904.38995
899.0 0.001112 880.30066 903.60162
865.0 0.001156 879.89594 902.82715
874.0 0.001144 879.49335 902.06628
897.0 0.001115 879.09283 901.31793
916.0 0.001092 878.69476 900.58270
913.0 0.001095 878.29852 899.85883
877.0 0.001140 877.90454 899.14624
850.0 0.001176 877.51276 898.44489
857.0 0.001167 877.12299 897.75397
943.0 0.001060 876.73541 897.07324
933.0 0.001072 876.35004 896.40247
852.0 0.001174 875.96692 895.74133
898.0 0.001114 875.58588 895.08923
887.0 0.001127 875.20703 894.44617
938.0 0.001066 874.83038 893.81201
931.0 0.001074 874.45593 893.18597
929.0 0.001076 874.08368 892.56830
855.0 0.001170 873.71356 891.95856
910.0 0.001099 873.34576 891.35663
877.0 0.001140 872.98004 890.76208
900.0 0.001111 872.61652 890.17505
908.0 0.001101 872.25525 889.59503
917.0 0.001091 871.89630 889.02222
813.0 0.001230 871.53943 888.45618
856.0 0.001168 871.18475 887.89661
925.0 0.001081 870.83252 887.34406
879.0 0.001138 870.48242 886.79767
893.0 0.001120 870.13446 886.25745
909.0 0.001100 869.78882 885.72345
856.0 0.001168 869.44537 885.19543
865.0 0.001156 869.10419 884.67340
895.0 0.001117 868.76520 884.15704
864.0 0.001157 868.42847 883.64642
938.0 0.001066 868.09412 883.14154
926.0 0.001080 867.76184 882.64197
930.0 0.001075 867.43201 873.91034
895.0 0.001117 867.10431 873.49762
894.0 0.001119 866.77881 873.08905
890.0 0.001124 866.45563 872.68469
861.0 0.001161 866.13477 872.28436
885.0 0.001130 865.81604 871.88788
918.0 0.001089 865.49969 867.36938
817.0 0.001224 865.18561 867.01904
869.0 0.001151 864.87372 866.67200
846.0 0.001182 864.56409 866.32819
891.0 0.001122 864.25690 865.98785
918.0 0.001089 863.95190 865.65063
904.0 0.001106 863.64911 865.31641
854.0 0.001171 863.34869 864.98547
918.0 0.001089 863.05042 864.65747
878.0 0.001139 862.75446 864.33264
824.0 0.001214 862.46082 864.01086
874.0 0.001144 862.16949 863.69214
875.0 0.001143 861.88043 863.37646
922.0 0.001085 861.59351 863.06366
882.0 0.001134 861.30902 862.75385
921.0 0.001086 861.02686 862.44696
866.0 0.001155 860.74689 862.14301
873.0 0.001145 860.46918 861.84186
808.0 0.001238 860.19379 861.54364
939.0 0.001065 859.92059 861.24829
866.0 0.001155 859.64978 860.95563
832.0 0.001202 859.38123 860.66589
847.0 0.001181 859.11493 860.37903
905.0 0.001105 858.85089 860.09479
886.0 0.001129 858.58905 859.81323
848.0 0.001179 858.32977 859.53473
877.0 0.001140 858.07257 859.25867
887.0 0.001127 857.81775 858.98553
885.0 0.001130 857.56506 858.71490
882.0 0.001134 857.31476 858.44714
884.0 0.001131 857.06671 858.18195
904.0 0.001106 856.82086 857.91943
906.0 0.001104 856.57739 857.65948
890.0 0.001124 856.33606 857.40222
784.0 0.001276 856.09711 857.14758
902.0 0.001109 855.86041 856.89551
883.0 0.001133 855.62604 856.64624
874.0 0.001144 855.39392 856.39948
820.0 0.001220 855.16388 856.15509
866.0 0.001155 854.93622 855.91345
842.0 0.001188 854.71088 855.67432
889.0 0.001125 854.48773 855.43781
881.0 0.001135 854.26678 855.20367
821.0 0.001218 854.04810 854.97211
891.0 0.001122 853.83179 854.74310
834.0 0.001199 853.61755 854.51648
885.0 0.001130 853.40576 854.29260
886.0 0.001129 853.19604 854.07104
873.0 0.001145 852.98871 853.85205
934.0 0.001071 852.78351 853.63550
879.0 0.001138 852.58063 853.42133
828.0 0.001208 852.37988 853.20972
924.0 0.001082 852.18140 853.00049
893.0 0.001120 851.98511 852.79352
893.0 0.001120 851.79108 852.58917
841.0 0.001189 851.59924 852.38721
909.0 0.001100 851.40967 852.18768
932.0 0.001073 851.22229 851.99054
860.0 0.001163 851.03711 851.79578
886.0 0.001129 850.85413 851.60339
894.0 0.001119 850.67334 851.41345
860.0 0.001163 850.49475 851.22577
896.0 0.001116 850.31836 851.04041
897.0 0.001115 850.14417 850.85754
861.0 0.001161 849.97211 850.67694
852.0 0.001174 849.80231 850.49872
849.0 0.001178 849.63458 850.32269
846.0 0.001182 849.46918 850.14917
868.0 0.001152 849.30585 849.97784
880.0 0.001136 849.14465 849.80890
928.0 0.001078 848.98566 849.64215
836.0 0.001196 848.82886 849.47784
848.0 0.001179 848.67419 849.31567
850.0 0.001176 848.52161 849.15576
895.0 0.001117 848.37115 848.99811
882.0 0.001134 848.22290 848.84283
829.0 0.001206 848.07678 848.68970
776.0 0.001289 847.93274 848.53888
868.0 0.001152 847.79089 848.39032
900.0 0.001111 847.65106 848.24384
851.0 0.001175 847.51337 848.09967
797.0 0.001255 847.37775 847.95776
852.0 0.001174 847.24432 847.81799
872.0 0.001147 847.11292 847.68030
861.0 0.001161 846.98358 847.54498
863.0 0.001159 846.85632 847.41174
858.0 0.001166 846.73126 847.28070
804.0 0.001244 846.60809 847.15179
844.0 0.001185 846.48712 847.02515
857.0 0.001167 846.36816 846.90057
876.0 0.001142 846.25122 846.77808
797.0 0.001255 846.13641 846.65778
906.0 0.001104 846.02362 846.53967
834.0 0.001199 845.91284 846.42358
914.0 0.001094 845.80402 846.30957
855.0 0.001170 845.69720 846.19769
823.0 0.001215 845.59247 846.08795
898.0 0.001114 845.48981 845.98029
835.0 0.001198 845.38904 845.87463
826.0 0.001211 845.29034 845.77112
840.0 0.001190 845.19354 845.66956
861.0 0.001161 845.09875 845.57013
816.0 0.001225 845.00598 845.47272
852.0 0.001174 844.91510 845.37732
862.0 0.001160 844.82623 845.28406
864.0 0.001157 844.73926 845.19257
812.0 0.001232 844.65436 845.10333
841.0 0.001189 844.57123 845.01593
856.0 0.001168 844.49011 844.93054
856.0 0.001168 844.41089 844.84723
806.0 0.001241 844.33362 844.76581
904.0 0.001106 844.25824 844.40759
886.0 0.001129 844.18469 844.33264
860.0 0.001163 844.11316 844.25970
824.0 0.001214 844.04340 844.18854
843.0 0.001186 843.97552 844.11932
836.0 0.001196 843.90961 844.05206
805.0 0.001242 843.84540 846.24432
823.0 0.001215 843.78314 846.06305
822.0 0.001217 843.72272 846.02411
856.0 0.001168 843.66418 845.98730
840.0 0.001190 843.60742 845.95270
862.0 0.001160 843.55249 845.92017
864.0 0.001157 843.49933 845.88971
916.0 0.001092 843.44800 845.86139
823.0 0.001215 843.39844 846.96008
802.0 0.001247 843.35071 846.94659
805.0 0.001242 843.30469 846.93536
824.0 0.001214 843.26050 846.92639
805.0 0.001242 843.21802 846.91974
843.0 0.001186 843.17731 846.91541
814.0 0.001228 843.13837 846.91327
828.0 0.001208 843.10114 846.91339
816.0 0.001225 843.06561 846.91583
826.0 0.001211 843.03180 846.92053
805.0 0.001242 842.99969 846.92749
853.0 0.001172 842.96936 846.93683
799.0 0.001252 842.94061 846.94836
874.0 0.001144 842.91357 846.96228
808.0 0.001238 842.88818 846.97852
884.0 0.001131 842.86450 846.99701
862.0 0.001160 842.84241 847.01776
873.0 0.001145 842.82208 847.04083
838.0 0.001193 842.80328 847.06622
889.0 0.001125 842.78613 847.09406
877.0 0.001140 842.77057 847.12408
867.0 0.001153 842.75665 847.15643
822.0 0.001217 842.74426 847.19116
821.0 0.001218 842.73352 847.22827
864.0 0.001157 842.72437 847.26776
853.0 0.001172 842.71674 847.30945
835.0 0.001198 842.71069 847.35364
872.0 0.001147 842.70612 847.40015
828.0 0.001208 842.70313 847.44897
906.0 0.001104 842.70166 847.50031
830.0 0.001205 842.70172 847.55402
900.0 0.001111 842.70331 847.61011
919.0 0.001088 842.70630 847.66864
842.0 0.001188 842.71088 847.72961
810.0 0.001235 842.71686 847.79297
876.0 0.001142 842.72443 847.85889
865.0 0.001156 842.73328 847.92712
905.0 0.001105 842.74371 847.99792
905.0 0.001105 842.75549 848.07123
903.0 0.001107 842.76868 848.14697
848.0 0.001179 842.78339 848.22540
931.0 0.001074 842.79944 848.30621
885.0 0.001130 842.81689 848.38965
904.0 0.001106 842.83575 848.47571
858.0 0.001166 842.85590 848.56427
925.0 0.001081 842.87756 848.65552
915.0 0.001093 842.90039 848.74927
924.0 0.001082 842.92468 848.84576
863.0 0.001159 842.95026 848.94495
898.0 0.001114 842.97711 849.04681
907.0 0.001103 843.00537 849.15137
893.0 0.001120 843.03485 849.25873
860.0 0.001163 843.06567 849.36890
891.0 0.001122 843.09772 849.48175
935.0 0.001070 843.13104 849.59747
816.0 0.001225 843.16565 849.71613
871.0 0.001148 843.20148 849.83759
882.0 0.001134 843.23859 849.96204
846.0 0.001182 843.27686 850.08936
818.0 0.001222 843.31635 850.21979
779.0 0.001284 843.35712 850.35321
878.0 0.001139 843.39905 850.48969
857.0 0.001167 843.44208 850.62933
856.0 0.001168 843.48633 850.77203
904.0 0.001106 843.53174 850.91803
861.0 0.001161 843.57825 851.06714
828.0 0.001208 843.62598 851.21967
839.0 0.001192 843.67468 851.37531
813.0 0.001230 843.72461 851.53448
836.0 0.001196 843.77563 851.69714
826.0 0.001211 843.82776 851.86328
815.0 0.001227 843.88092 852.03296
803.0 0.001245 843.93518 852.20630
885.0 0.001130 843.99048 852.38324
841.0 0.001189 844.04694 852.56415
799.0 0.001252 844.10425 852.74860
878.0 0.001139 844.16266 852.93707
828.0 0.001208 844.22211 853.12946
816.0 0.001225 844.28253 853.32593
839.0 0.001192 844.34393 853.52649
830.0 0.001205 844.40631 853.73132
847.0 0.001181 844.46967 853.94043
824.0 0.001214 844.53400 854.15393
880.0 0.001136 844.59930 854.37201
877.0 0.001140 844.66553 854.59460
889.0 0.001125 844.73254 854.82190
801.0 0.001248 844.80060 855.05408
839.0 0.001192 844.86957 855.29120
869.0 0.001151 844.93927 855.53314
874.0 0.001144 845.00995 855.78033
844.0 0.001185 845.08154 856.03302
837.0 0.001195 845.15399 856.29114
842.0 0.001188 845.22717 856.55481
828.0 0.001208 845.30121 856.82416
860.0 0.001163 845.37610 857.09955
838.0 0.001193 845.45190 857.38110
860.0 0.001163 845.52832 857.66870
842.0 0.001188 845.60565 857.96283
875.0 0.001143 845.68365 858.26355
894.0 0.001119 845.76251 858.57111
854.0 0.001171 845.84198 858.88568
861.0 0.001161 845.92236 859.20764
849.0 0.001178 846.00336 859.53699
846.0 0.001182 846.08508 859.87415
874.0 0.001144 846.16754 860.21936
867.0 0.001153 846.25073 860.57275
890.0 0.001124 846.33453 860.93469
921.0 0.001086 846.41901 861.30548
868.0 0.001152 846.50415 861.68555
891.0 0.001122 846.58990 862.07477
804.0 0.001244 846.67639 862.47406
893.0 0.001120 846.76343 862.88348
882.0 0.001134 846.85114 863.30359
887.0 0.001127 846.93945 863.73468
827.0 0.001209 847.02826 864.17706
858.0 0.001166 847.11768 864.63135
879.0 0.001138 847.20770 865.09802
923.0 0.001083 847.29828 865.57739
851.0 0.001175 847.38934 866.07025
836.0 0.001196 847.48102 866.57684
834.0 0.001199 847.57318 867.09808
893.0 0.001120 847.66589 867.63440
889.0 0.001125 847.75903 868.18652
836.0 0.001196 847.85266 868.75507
815.0 0.001227 847.94690 869.34094
866.0 0.001155 848.04144 869.94470
898.0 0.001114 848.13654 870.56738
828.0 0.001208 848.23206 871.20972
896.0 0.001116 848.32800 871.87280
905.0 0.001105 848.42438 872.55756
852.0 0.001174 848.52106 873.26459
868.0 0.001152 848.61823 873.99585
868.0 0.001152 848.71588 874.75208
883.0 0.001133 848.81378 875.53467
819.0 0.001221 848.91205 876.34497
867.0 0.001153 849.01074 877.18439
902.0 0.001109 849.10974 878.05450
883.0 0.001133 849.20905 878.95703
900.0 0.001111 849.30865 879.89368
867.0 0.001153 849.40857 880.86639
879.0 0.001138 849.50885 881.87714
856.0 0.001168 849.60944 882.92841
874.0 0.001144 849.71027 884.02234
898.0 0.001114 849.81134 885.16156
841.0 0.001189 849.91260 886.34869
877.0 0.001140 850.01428 887.58698
879.0 0.001138 850.11603 888.87915
892.0 0.001121 850.21808 890.22900
882.0 0.001134 850.32037 891.64020
898.0 0.001114 850.42279 893.11670
946.0 0.001057 850.52545 894.66339
889.0 0.001125 850.62817 896.28320
898.0 0.001114 850.73126 897.98358
940.0 0.001064 850.83441 899.76910
900.0 0.001111 850.93768 901.64587
903.0 0.001107 851.04114 903.62079
929.0 0.001076 851.14471 905.70093
911.0 0.001098 851.24835 907.89441
923.0 0.001083 851.35211 910.20990
915.0 0.001093 851.45599 912.65717
900.0 0.001111 851.56000 915.24664
974.0 0.001027 851.66400 917.98938
948.0 0.001055 851.76807 920.89948
918.0 0.001089 851.87219 923.99078
886.0 0.001129 851.97644 927.27899
898.0 0.001114 852.08063 930.78156
893.0 0.001120 852.18488 934.51807
956.0 0.001046 852.28912 938.51050
906.0 0.001104 852.39337 942.78296
965.0 0.001036 852.49768 947.36304
981.0 0.001019 852.60187 952.28247
956.0 0.001046 852.70605 957.57092
970.0 0.001031 852.81024 963.27393
981.0 0.001019 852.91437 969.43329
946.0 0.001057 853.01843 976.09967
975.0 0.001026 853.12244 983.33081
954.0 0.001048 853.22626 991.19330
1011.0 0.000989 853.33014 999.76453
990.0 0.001010 853.43384 1009.13434
999.0 0.001001 853.53748 1019.40967
1029.0 0.000972 853.64099 1030.71753
1060.0 0.000943 853.74438 1043.21240
1064.0 0.000940 853.84753 1057.08020
1085.0 0.000922 853.95062 1072.56384
1123.0 0.000890 854.05359 1089.95654
1041.0 0.000961 854.15631 1109.63428
1095.0 0.000913 854.25891 1132.07422
1191.0 0.000840 854.36133 1157.88062
1177.0 0.000850 854.46350 1187.81274
1253.0 0.000798 854.56549 1222.81262
1259.0 0.000794 854.66736 1264.03003
1298.0 0.000770 854.76892 1312.85120
1431.0 0.000699 854.87024 1370.82239
1445.0 0.000692 854.97137 1439.82385
1465.0 0.000683 855.07220 1521.81812
1636.0 0.000611 855.17279 1618.90210
1623.0 0.000616 855.27313 1733.17993
1735.0 0.000576 855.37317 1866.61121
1952.0 0.000512 855.47290 2020.78662
2037.0 0.000491 855.57239 2196.58032
2328.0 0.000430 855.67157 2393.60962
2426.0 0.000412 855.77045 2609.42212
2662.0 0.000376 855.86896 2838.40015
2903.0 0.0003445 855.96716 3070.54907
3158.0 0.0003167 856.06500 3291.17700
3303.0 0.0003028 856.16248 3481.75513
3496.0 0.0002860 856.25964 3624.03003
3601.0 0.0002777 856.35651 3705.79053
3443.0 0.0002904 856.45288 3725.54565
3486.0 0.0002869 856.54901 3692.61475
3308.0 0.0003023 856.64465 3622.28394
3102.0 0.0003224 856.73993 3529.16455
3159.0 0.0003166 856.83484 3422.37476
3028.0 0.0003303 856.92926 3304.42407
2861.0 0.0003495 857.02325 3172.80835
2872.0 0.0003482 857.11682 3024.38135
2679.0 0.000373 857.21008 2858.86914
2544.0 0.000393 857.30273 2680.49194
2319.0 0.000431 857.39496 2496.77759
2169.0 0.000461 857.48676 2315.97119
2002.0 0.000500 857.57819 2144.86206
1864.0 0.000536 857.66901 1987.86206
1804.0 0.000554 857.75940 1847.12122
1706.0 0.000586 857.84924 1723.12708
1613.0 0.000620 857.93866 1615.20105
1523.0 0.000657 858.02753 1522.15515
1438.0 0.000695 858.11584 1442.48254
1399.0 0.000715 858.20374 1374.58594
1456.0 0.000687 858.29102 1316.89185
1321.0 0.000757 858.37781 1267.91907
1311.0 0.000763 858.46411 1226.31628
1186.0 0.000843 858.54974 1190.88257
1224.0 0.000817 858.63495 1160.57495
1179.0 0.000848 858.71948 1134.49927
1227.0 0.000815 858.80347 1111.93640
1156.0 0.000865 858.88690 1092.24695
1112.0 0.000899 858.96967 1074.94690
1145.0 0.000873 859.05200 1059.63733
1046.0 0.000956 859.13361 1045.99817
1049.0 0.000953 859.21472 1033.77417
1047.0 0.000955 859.29510 1022.76007
1046.0 0.000956 859.37494 1012.79016
1023.0 0.000978 859.45416 1003.72913
987.0 0.001013 859.53265 995.46527
1020.0 0.000980 859.61053 987.90710
956.0 0.001046 859.68787 980.97205
961.0 0.001041 859.76447 974.59473
1007.0 0.000993 859.84045 968.71686
936.0 0.001068 859.91583 963.28815
970.0 0.001031 859.99042 958.26410
985.0 0.001015 860.06439 953.60638
1047.0 0.000955 860.13776 949.28040
970.0 0.001031 860.21033 945.25598
922.0 0.001085 860.28223 941.50598
925.0 0.001081 860.35345 938.00574
973.0 0.001028 860.42401 934.73706
952.0 0.001050 860.49377 931.67645
938.0 0.001066 860.56287 928.80841
937.0 0.001067 860.63129 926.11743
859.0 0.001164 860.69897 923.58923
859.0 0.001164 860.76587 921.21149
881.0 0.001135 860.83209 918.97260
926.0 0.001080 860.89752 916.86194
899.0 0.001112 860.96228 914.87054
901.0 0.001110 861.02625 912.98926
899.0 0.001112 861.08948 911.21100
913.0 0.001095 861.15186 909.52765
829.0 0.001206 861.21362 907.93304
874.0 0.001144 861.27448 906.42114
917.0 0.001091 861.33466 904.98651
917.0 0.001091 861.39404 903.62408
864.0 0.001157 861.45264 905.45038
863.0 0.001159 861.51044 904.24506
870.0 0.001149 861.56738 903.09912
877.0 0.001140 861.62366 902.00916
890.0 0.001124 861.67902 900.97150
826.0 0.001211 861.73370 899.98395
926.0 0.001080 861.78748 899.04230
939.0 0.001065 861.84039 898.14447
923.0 0.001083 861.89258 897.28790
904.0 0.001106 861.94391 898.02588
852.0 0.001174 861.99451 897.25818
854.0 0.001171 862.04419 896.52533
827.0 0.001209 862.09308 895.82556
808.0 0.001238 862.14111 895.15710
946.0 0.001057 862.18829 894.51813
771.0 0.001297 862.23462 893.90747
822.0 0.001217 862.28009 893.32324
875.0 0.001143 862.32483 892.76447
885.0 0.001130 862.36865 892.22961
851.0 0.001175 862.41156 891.71771
824.0 0.001214 862.45367 891.22748
885.0 0.001130 862.49487 890.75800
867.0 0.001153 862.53528 890.30829
862.0 0.001160 862.57477 889.87726
885.0 0.001130 862.61340 889.46417
874.0 0.001144 862.65112 889.06842
834.0 0.001199 862.68799 888.68884
880.0 0.001136 862.72400 888.32501
847.0 0.001181 862.75909 887.97595
870.0 0.001149 862.79333 887.64124
796.0 0.001256 862.82666 887.32013
857.0 0.001167 862.85913 887.01233
852.0 0.001174 862.89069 886.71686
831.0 0.001203 862.92139 886.43347
914.0 0.001094 862.95111 886.16174
818.0 0.001222 862.97998 885.90094
813.0 0.001230 863.00800 885.65100
846.0 0.001182 863.03510 885.41113
804.0 0.001244 863.06128 885.18121
870.0 0.001149 863.08655 884.96069
831.0 0.001203 863.11090 884.74933
911.0 0.001098 863.13434 884.54669
863.0 0.001159 863.15686 884.35254
862.0 0.001160 863.17853 884.16663
824.0 0.001214 863.19928 883.98859
850.0 0.001176 863.21899 883.81799
843.0 0.001186 863.23792 883.65503
844.0 0.001185 863.25586 883.49908
849.0 0.001178 863.27295 883.35004
861.0 0.001161 863.28906 883.20752
859.0 0.001164 863.30420 883.07153
842.0 0.001188 863.31848 882.94189
841.0 0.001189 863.33191 882.81830
886.0 0.001129 863.34430 882.70056
852.0 0.001174 863.35583 882.58862
897.0 0.001115 863.36646 882.48230
909.0 0.001100 863.37604 882.38135
881.0 0.001135 863.38477 882.28571
875.0 0.001143 863.39258 882.19519
824.0 0.001214 863.39948 882.10992
926.0 0.001080 863.40540 882.02930
825.0 0.001212 863.41046 881.95367
880.0 0.001136 863.41455 881.88263
873.0 0.001145 863.41772 881.81616
864.0 0.001157 863.41992 881.75433
944.0 0.001059 863.42126 881.69690
942.0 0.001062 863.42157 881.64380
932.0 0.001073 863.42108 881.59497
920.0 0.001087 863.41962 881.55042
872.0 0.001147 863.41724 881.51001
871.0 0.001148 863.41382 881.47351
919.0 0.001088 863.40961 881.44128
889.0 0.001125 863.40436 881.41284
882.0 0.001134 863.39825 881.38849
898.0 0.001114 863.39124 881.36792
958.0 0.001044 863.38330 881.35138
940.0 0.001064 863.37439 881.33856
881.0 0.001135 863.36456 881.32947
920.0 0.001087 863.35388 881.32434
925.0 0.001081 863.34216 881.32300
913.0 0.001095 863.32953 881.32526
933.0 0.001072 863.31604 881.33142
859.0 0.001164 863.30164 881.34137
888.0 0.001126 863.28632 881.35504
893.0 0.001120 863.27002 881.37231
886.0 0.001129 863.25281 881.39355
843.0 0.001186 863.23474 881.41840
913.0 0.001095 863.21576 881.44727
865.0 0.001156 863.19586 881.47974
817.0 0.001224 863.17499 881.51624
903.0 0.001107 863.15326 881.55652
873.0 0.001145 863.13062 881.60065
906.0 0.001104 863.10712 881.64874
867.0 0.001153 863.08264 881.70093
906.0 0.001104 863.05731 881.75708
907.0 0.001103 863.03107 881.81732
893.0 0.001120 863.00397 881.88177
858.0 0.001166 862.97583 882.31213
849.0 0.001178 862.94690 882.38806
835.0 0.001198 862.91705 882.46826
901.0 0.001110 862.88635 882.55310
882.0 0.001134 862.85486 882.64246
891.0 0.001122 862.82233 882.73633
825.0 0.001212 862.78900 882.83496
938.0 0.001066 862.75470 882.93829
918.0 0.001089 862.71960 883.04657
916.0 0.001092 862.68359 883.15991
873.0 0.001145 862.64673 883.45978
914.0 0.001094 862.60901 883.58496
852.0 0.001174 862.57037 883.71539
895.0 0.001117 862.53094 883.85162
879.0 0.001138 862.49060 883.99335
900.0 0.001111 862.44940 884.14093
923.0 0.001083 862.40735 884.29443
934.0 0.001071 862.36444 884.45422
905.0 0.001105 862.32074 884.62012
919.0 0.001088 862.27618 884.79272
881.0 0.001135 862.23071 884.97168
893.0 0.001120 862.18451 885.15765
873.0 0.001145 862.13739 885.35065
912.0 0.001096 862.08948 885.55090
909.0 0.001100 862.04065 885.75867
907.0 0.001103 861.99109 885.97418
832.0 0.001202 861.94073 886.19763
906.0 0.001104 861.88947 886.42938
912.0 0.001096 861.83746 886.66956
886.0 0.001129 861.78461 886.91858
897.0 0.001115 861.73090 887.17670
923.0 0.001083 861.67645 887.44409
922.0 0.001085 861.62122 887.72125
885.0 0.001130 861.56512 888.00842
885.0 0.001130 861.50836 888.30615
911.0 0.001098 861.45068 888.61444
871.0 0.001148 861.39233 888.93414
952.0 0.001050 861.33313 889.26532
922.0 0.001085 861.27319 889.60864
867.0 0.001153 861.21246 889.96436
897.0 0.001115 861.15088 890.33301
868.0 0.001152 861.08868 890.71515
931.0 0.001074 861.02570 891.11121
959.0 0.001043 860.96185 891.52179
897.0 0.001115 860.89740 891.94739
897.0 0.001115 860.83209 892.38898
898.0 0.001114 860.76605 892.84668
878.0 0.001139 860.69934 893.32153
873.0 0.001145 860.63196 893.81427
932.0 0.001073 860.56372 894.32526
863.0 0.001159 860.49481 894.85571
950.0 0.001053 860.42511 895.40613
910.0 0.001099 860.35486 895.97766
954.0 0.001048 860.28381 894.30975
931.0 0.001074 860.21210 894.94672
885.0 0.001130 860.13965 895.60760
949.0 0.001054 860.06647 896.29315
840.0 0.001190 859.99255 897.00452
909.0 0.001100 859.91815 897.74310
904.0 0.001106 859.84302 898.51013
852.0 0.001174 859.76715 899.30701
900.0 0.001111 859.69061 899.00446
868.0 0.001152 859.61346 899.87585
888.0 0.001126 859.53558 900.78137
945.0 0.001058 859.45715 901.72290
907.0 0.001103 859.37805 902.70251
917.0 0.001091 859.29834 903.72198
912.0 0.001096 859.21790 904.78339
945.0 0.001058 859.13690 905.88916
935.0 0.001070 859.05524 907.04144
929.0 0.001076 858.97302 908.24298
915.0 0.001093 858.89014 909.49634
897.0 0.001115 858.80670 910.80444
883.0 0.001133 858.72260 912.17096
885.0 0.001130 858.63800 913.59766
893.0 0.001120 858.55273 915.08984
935.0 0.001070 858.46692 916.65070
901.0 0.001110 858.38055 918.28436
946.0 0.001057 858.29352 919.99518
900.0 0.001111 858.20599 921.78790
859.0 0.001164 858.11786 923.66797
965.0 0.001036 858.02924 925.64056
918.0 0.001089 857.94006 927.71191
952.0 0.001050 857.85034 929.88837
917.0 0.001091 857.76001 932.17688
969.0 0.001032 857.66931 934.58472
869.0 0.001151 857.57794 937.12091
911.0 0.001098 857.48615 939.79419
951.0 0.001052 857.39380 942.61401
933.0 0.001072 857.30096 945.59119
892.0 0.001121 857.20758 948.73718
946.0 0.001057 857.11371 952.06488
904.0 0.001106 857.01941 955.58789
889.0 0.001125 856.92468 959.32172
950.0 0.001053 856.82935 963.28375
930.0 0.001075 856.73364 967.48840
925.0 0.001081 856.63751 971.96118
979.0 0.001021 856.54083 976.72217
966.0 0.001035 856.44379 981.79633
961.0 0.001041 856.34625 987.21100
1042.0 0.000960 856.24829 992.99652
948.0 0.001055 856.14996 999.18713
1016.0 0.000984 856.05109 1005.82031
957.0 0.001045 855.95184 1012.93848
1007.0 0.000993 855.85223 1020.58942
1036.0 0.000965 855.75226 1028.82629
1040.0 0.000962 855.65179 1037.70691
1030.0 0.000971 855.55103 1047.30469
1001.0 0.000999 855.44989 1057.69482
1071.0 0.000934 855.34833 1068.96692
1075.0 0.000930 855.24646 1081.22412
1098.0 0.000911 855.14410 1094.58667
1064.0 0.000940 855.04150 1109.19568
1089.0 0.000918 854.93848 1125.21912
1120.0 0.000893 854.83521 1142.85986
1161.0 0.000861 854.73157 1162.36877
1202.0 0.000832 854.62756 1184.02698
1246.0 0.000803 854.52325 1208.23511
1271.0 0.000787 854.41870 1235.44788
1234.0 0.000810 854.31390 1266.24414
1366.0 0.000732 854.20862 1301.34070
1360.0 0.000735 854.10315 1341.62109
1364.0 0.000733 853.99744 1388.15894
1391.0 0.000719 853.89130 1442.24341
1555.0 0.000643 853.78497 1505.39368
1524.0 0.000656 853.67841 1579.36401
1752.0 0.000571 853.57159 1666.11084
1725.0 0.000580 853.46454 1767.85022
1911.0 0.000523 853.35718 1886.87952
2051.0 0.000488 853.24963 2025.57568
2126.0 0.000470 853.14191 2186.25562
2324.0 0.000430 853.03381 2371.00342
2543.0 0.000393 852.92566 2581.40918
2724.0 0.000367 852.81720 2818.17749
3069.0 0.0003258 852.70850 3080.53027
3308.0 0.0003023 852.59973 3365.34570
3652.0 0.0002738 852.49072 3666.11987
4266.0 0.0002344 852.38165 3971.36646
4475.0 0.0002235 852.27222 4265.06641
4833.0 0.0002069 852.16266 4526.41260
5053.0 0.0001979 852.05298 4733.85449
5092.0 0.0001964 851.94318 4870.51953
4998.0 0.0002001 851.83325 4929.73145
4872.0 0.0002053 851.72314 4917.24512
4667.0 0.0002143 851.61292 4848.51660
4542.0 0.0002202 851.50256 4742.53564
4354.0 0.0002297 851.39215 4615.52002
4275.0 0.0002339 851.28156 4477.03760
4195.0 0.0002384 851.17090 4329.07373
4189.0 0.0002387 851.06012 4168.18848
3898.0 0.0002565 850.94928 3989.11353
3742.0 0.0002672 850.83838 3788.82104
3330.0 0.0003003 850.72742 3569.06860
3197.0 0.0003128 850.61627 3336.36133
2954.0 0.0003385 850.50519 3099.81299
2658.0 0.000376 850.39404 2868.48462
2635.0 0.000380 850.28284 2649.54224
2334.0 0.000428 850.17151 2447.56641
2244.0 0.000446 850.06036 2265.04492
2067.0 0.000484 849.94910 2102.31030
1956.0 0.000511 849.83777 1958.87292
1882.0 0.000531 849.72644 1833.47974
1724.0 0.000580 849.61511 1724.53113
1690.0 0.000592 849.50378 1630.29175
1654.0 0.000605 849.39246 1549.01746
1608.0 0.000622 849.28131 1479.03210
1476.0 0.000678 849.17004 1418.77515
1492.0 0.000670 849.05878 1366.82727
1423.0 0.000703 848.94769 1321.93518
1341.0 0.000746 848.83655 1282.97144
1361.0 0.000735 848.72546 1248.99854
1360.0 0.000735 848.61450 1219.21130
1318.0 0.000759 848.50354 1192.93823
1222.0 0.000818 848.39270 1169.62341
1237.0 0.000808 848.28198 1148.81091
1247.0 0.000802 848.17126 1130.12903
1193.0 0.000838 848.06073 1113.27454
1147.0 0.000872 847.95026 1098.00012
1126.0 0.000888 847.83984 1084.09985
1087.0 0.000920 847.72968 1071.41907
1091.0 0.000917 847.61963 1059.80200
1073.0 0.000932 847.50964 1049.13782
999.0 0.001001 847.39978 1039.32715
1052.0 0.000951 847.29010 1030.28418
1020.0 0.000980 847.18054 1021.93530
1026.0 0.000975 847.07117 1014.21594
987.0 0.001013 846.96198 1007.07019
999.0 0.001001 846.85297 1000.44855
980.0 0.001020 846.74408 994.30719
1021.0 0.000979 846.63538 988.60925
1021.0 0.000979 846.52704 983.31781
1042.0 0.000960 846.41876 978.40387
1028.0 0.000973 846.31067 973.84100
975.0 0.001026 846.20282 969.60529
991.0 0.001009 846.09521 965.67578
1005.0 0.000995 845.98779 962.03436
985.0 0.001015 845.88068 958.66449
954.0 0.001048 845.77368 955.55231
986.0 0.001014 845.66699 952.68512
913.0 0.001095 845.56061 950.05536
1011.0 0.000989 845.45453 947.65112
973.0 0.001028 845.34863 945.46680
928.0 0.001078 845.24304 943.49731
965.0 0.001036 845.13770 941.73901
945.0 0.001058 845.03259 940.19025
980.0 0.001020 844.92780 938.85095
930.0 0.001075 844.82330 937.72260
936.0 0.001068 844.71924 936.80939
962.0 0.001040 844.61536 936.11713
940.0 0.001064 844.51184 935.65491
984.0 0.001016 844.40869 935.43481
879.0 0.001138 844.30579 935.47266
980.0 0.001020 844.20331 935.78937
999.0 0.001001 844.10107 936.41199
1013.0 0.000987 843.99927 937.37524
1010.0 0.000990 843.89777 938.72363
1017.0 0.000983 843.79663 940.51379
1007.0 0.000993 843.69586 942.81689
1010.0 0.000990 843.59546 945.72272
977.0 0.001024 843.49548 949.34235
979.0 0.001021 843.39594 953.80566
994.0 0.001006 843.29663 959.27814
1039.0 0.000962 843.19775 965.94476
996.0 0.001004 843.09937 974.01965
1023.0 0.000978 843.00134 983.74084
1063.0 0.000941 842.90381 995.36597
1093.0 0.000915 842.80658 1009.16364
1085.0 0.000922 842.70984 1025.40283
1086.0 0.000921 842.61346 1044.33472
1103.0 0.000907 842.51758 1066.16968
1085.0 0.000922 842.42218 1091.04114
1126.0 0.000888 842.32721 1118.94263
1160.0 0.000862 842.23267 1149.67603
1205.0 0.000830 842.13849 1182.69775
1269.0 0.000788 842.04492 1217.01282
1293.0 0.000773 841.95178 1251.05371
1312.0 0.000762 841.85907 1282.68127
1312.0 0.000762 841.76691 1309.40833
1413.0 0.000708 841.67517 1328.91736
1429.0 0.000700 841.58398 1339.73730
1346.0 0.000743 841.49329 1341.75403
1268.0 0.000789 841.40302 1336.22351
1285.0 0.000778 841.31335 1325.24231
1243.0 0.000805 841.22412 1311.00696
1256.0 0.000796 841.13538 1295.17822
1219.0 0.000820 841.04724 1278.56934
1255.0 0.000797 840.95959 1261.15967
1259.0 0.000794 840.87256 1242.37317
1172.0 0.000853 840.78601 1221.51831
1197.0 0.000835 840.69995 1198.23267
1138.0 0.000879 840.61450 1172.73730
1151.0 0.000869 840.52954 1145.79700
1091.0 0.000917 840.44519 1118.46387
1149.0 0.000870 840.36139 1091.74780
1067.0 0.000937 840.27814 1066.45605
1121.0 0.000892 840.19543 1043.10120
1038.0 0.000963 840.11334 1021.93719
992.0 0.001008 840.03180 1003.02472
997.0 0.001003 839.95087 986.29822
991.0 0.001009 839.87054 971.61798
1008.0 0.000992 839.79083 958.80591
938.0 0.001066 839.71161 947.66534
926.0 0.001080 839.63306 938.01093
979.0 0.001021 839.55511 929.64166
939.0 0.001065 839.47778 922.38654
958.0 0.001044 839.40100 916.08459
991.0 0.001009 839.32489 910.59265
950.0 0.001053 839.24939 905.78448
933.0 0.001072 839.17456 901.55188
892.0 0.001121 839.10028 897.80280
928.0 0.001078 839.02667 894.46021
900.0 0.001111 838.95374 891.46051
909.0 0.001100 838.88135 888.75214
899.0 0.001112 838.80963 886.29102
884.0 0.001131 838.73865 884.04303
915.0 0.001093 838.66821 881.97980
890.0 0.001124 838.59851 880.07800
894.0 0.001119 838.52948 878.31830
880.0 0.001136 838.46094 876.68445
853.0 0.001172 838.39325 875.16327
851.0 0.001175 838.32623 873.74304
876.0 0.001142 838.25983 872.41376
862.0 0.001160 838.19403 871.16644
897.0 0.001115 838.12903 869.99487
870.0 0.001149 838.06464 868.89087
931.0 0.001074 838.00092 867.84924
931.0 0.001074 837.93787 866.86462
877.0 0.001140 837.87567 865.93262
935.0 0.001070 837.81403 865.04889
855.0 0.001170 837.75305 864.20959
849.0 0.001178 837.69287 863.41162
797.0 0.001255 837.63330 862.65173
843.0 0.001186 837.57452 861.92712
862.0 0.001160 837.51648 861.23572
850.0 0.001176 837.45905 860.57489
841.0 0.001189 837.40234 859.94250
811.0 0.001233 837.34637 859.33673
893.0 0.001120 837.29114 858.75616
866.0 0.001155 837.23663 858.19891
883.0 0.001133 837.18280 857.66364
883.0 0.001133 837.12964 859.87097
906.0 0.001104 837.07733 859.39313
871.0 0.001148 837.02570 858.93372
897.0 0.001115 836.97479 858.49170
893.0 0.001120 836.92462 858.06653
836.0 0.001196 836.87524 857.65686
852.0 0.001174 836.82654 857.26196
934.0 0.001071 836.77850 856.88098
861.0 0.001161 836.73132 856.51355
881.0 0.001135 836.68488 856.15875
862.0 0.001160 836.63916 855.81616
806.0 0.001241 836.59418 856.84564
875.0 0.001143 836.54993 856.53424
893.0 0.001120 836.50647 856.23340
851.0 0.001175 836.46375 855.94287
840.0 0.001190 836.42175 855.66187
811.0 0.001233 836.38055 855.39026
854.0 0.001171 836.34003 855.12756
857.0 0.001167 836.30035 854.87354
862.0 0.001160 836.26141 854.62781
822.0 0.001217 836.22314 854.38989
834.0 0.001199 836.18573 854.15967
795.0 0.001258 836.14905 853.93689
842.0 0.001188 836.11310 853.72119
825.0 0.001212 836.07800 853.51239
859.0 0.001164 836.04358 853.31030
836.0 0.001196 836.00995 853.11450
822.0 0.001217 835.97711 852.92499
815.0 0.001227 835.94501 852.74158
845.0 0.001183 835.91364 852.56384
782.0 0.001279 835.88312 852.39197
841.0 0.001189 835.85333 852.22546
848.0 0.001179 835.82428 852.06421
843.0 0.001186 835.79602 851.90826
872.0 0.001147 835.76849 851.75739
856.0 0.001168 835.74176 851.61139
860.0 0.001163 835.71582 851.47009
817.0 0.001224 835.69061 851.33362
854.0 0.001171 835.66626 851.20160
861.0 0.001161 835.64252 851.07397
893.0 0.001120 835.61969 850.95074
885.0 0.001130 835.59753 850.83167
785.0 0.001274 835.57617 850.71692
834.0 0.001199 835.55560 850.60602
814.0 0.001228 835.53577 850.49915
844.0 0.001185 835.51672 850.39618
856.0 0.001168 835.49847 850.29712
888.0 0.001126 835.48096 850.20160
892.0 0.001121 835.46417 850.10986
853.0 0.001172 835.44830 850.02167
821.0 0.001218 835.43304 849.93695
850.0 0.001176 835.41858 849.85565
896.0 0.001116 835.40491 849.77783
823.0 0.001215 835.39197 849.70337
881.0 0.001135 835.37982 849.63214
860.0 0.001163 835.36841 849.56409
823.0 0.001215 835.35773 849.49939
809.0 0.001236 835.34790 849.43774
840.0 0.001190 835.33881 849.37921
836.0 0.001196 835.33038 849.32367
859.0 0.001164 835.32281 849.27118
840.0 0.001190 835.31598 849.22162
816.0 0.001225 835.30981 849.17487
828.0 0.001208 835.30450 849.13116
772.0 0.001295 835.29993 849.09045
801.0 0.001248 835.29608 849.05231
825.0 0.001212 835.29297 849.01715
877.0 0.001140 835.29059 848.98456
862.0 0.001160 835.28900 848.95496
887.0 0.001127 835.28815 848.92786
845.0 0.001183 835.28802 848.90344
855.0 0.001170 835.28864 848.88190
839.0 0.001192 835.28992 848.86273
830.0 0.001205 835.29205 848.84631
809.0 0.001236 835.29486 848.83246
829.0 0.001206 835.29834 848.82111
813.0 0.001230 835.30261 848.81238
854.0 0.001171 835.30762 848.80627
783.0 0.001277 835.31335 848.80249
849.0 0.001178 835.31982 845.67908
837.0 0.001195 835.32703 845.70648
838.0 0.001193 835.33484 845.73590
829.0 0.001206 835.34351 845.76758
897.0 0.001115 835.35278 845.80139
899.0 0.001112 835.36273 845.83716
844.0 0.001185 835.37354 845.87524
892.0 0.001121 835.38495 845.91534
814.0 0.001228 835.39709 845.95758
852.0 0.001174 835.40985 846.00183
832.0 0.001202 835.42340 844.49957
812.0 0.001232 835.43762 844.56097
809.0 0.001236 835.45258 844.62439
797.0 0.001255 835.46814 844.68964
816.0 0.001225 835.48438 844.75696
842.0 0.001188 835.50134 844.82611
857.0 0.001167 835.51904 844.89734
890.0 0.001124 835.53729 844.97034
830.0 0.001205 835.55627 845.04547
815.0 0.001227 835.57593 845.12250
856.0 0.001168 835.59625 845.20142
784.0 0.001276 835.61725 845.28253
852.0 0.001174 835.63885 845.36548
832.0 0.001202 835.66107 845.45038
823.0 0.001215 835.68408 845.53748
907.0 0.001103 835.70770 845.62653
836.0 0.001196 835.73187 845.71753
837.0 0.001195 835.75677 845.81061
835.0 0.001198 835.78229 845.90570
808.0 0.001238 835.80841 846.00287
813.0 0.001230 835.83514 846.10211
829.0 0.001206 835.86249 846.20337
821.0 0.001218 835.89050 846.30688
837.0 0.001195 835.91913 846.41229
857.0 0.001167 835.94843 846.52002
842.0 0.001188 835.97821 846.62976
856.0 0.001168 836.00867 846.74176
851.0 0.001175 836.03967 846.85583
808.0 0.001238 836.07135 846.97229
818.0 0.001222 836.10358 847.09082
811.0 0.001233 836.13641 847.21167
861.0 0.001161 836.16980 847.33466
797.0 0.001255 836.20380 847.46002
825.0 0.001212 836.23834 847.58759
827.0 0.001209 836.27344 847.71747
839.0 0.001192 836.30908 847.84973
853.0 0.001172 836.34534 847.98438
862.0 0.001160 836.38214 848.12152
851.0 0.001175 836.41949 848.26099
867.0 0.001153 836.45740 848.40283
881.0 0.001135 836.49579 848.54718
870.0 0.001149 836.53473 848.69409
796.0 0.001256 836.57428 848.84338
858.0 0.001166 836.61420 848.99542
865.0 0.001156 836.65485 849.15002
847.0 0.001181 836.69586 849.30719
897.0 0.001115 836.73743 849.46710
860.0 0.001163 836.77948 849.62970
899.0 0.001112 836.82202 849.79504
816.0 0.001225 836.86511 849.96307
881.0 0.001135 836.90869 850.13403
823.0 0.001215 836.95276 850.30786
826.0 0.001211 836.99719 850.48444
888.0 0.001126 837.04224 850.66412
818.0 0.001222 837.08771 850.84668
831.0 0.001203 837.13367 851.03235
828.0 0.001208 837.17999 851.22101
850.0 0.001176 837.22675 851.41290
852.0 0.001174 837.27405 851.60797
872.0 0.001147 837.32184 851.80627
890.0 0.001124 837.37000 852.00800
863.0 0.001159 837.41852 852.21271
837.0 0.001195 837.46753 852.42114
819.0 0.001221 837.51697 852.63293
863.0 0.001159 837.56677 852.84833
877.0 0.001140 837.61707 853.06726
815.0 0.001227 837.66766 853.28992
881.0 0.001135 837.71875 853.51624
858.0 0.001166 837.77008 853.74646
888.0 0.001126 837.82190 853.98047
841.0 0.001189 837.87415 854.21857
871.0 0.001148 837.92664 854.46045
825.0 0.001212 837.97961 854.70673
842.0 0.001188 838.03290 854.95709
858.0 0.001166 838.08649 855.21179
854.0 0.001171 838.14050 855.47089
909.0 0.001100 838.19482 855.73444
847.0 0.001181 838.24951 856.00256
840.0 0.001190 838.30444 856.27533
843.0 0.001186 838.35974 856.55292
899.0 0.001112 838.41541 856.83557
867.0 0.001153 838.47131 857.12286
881.0 0.001135 838.52747 857.41553
882.0 0.001134 838.58405 857.71338
779.0 0.001284 838.64087 858.01660
881.0 0.001135 838.69794 858.32532
912.0 0.001096 838.75537 858.63971
891.0 0.001122 838.81299 858.95978
833.0 0.001200 838.87091 858.92358
854.0 0.001171 838.92908 859.25867
901.0 0.001110 838.98749 859.59991
915.0 0.001093 839.04614 859.94745
871.0 0.001148 839.10510 860.30164
858.0 0.001166 839.16418 860.66235
879.0 0.001138 839.22357 861.03003
861.0 0.001161 839.28308 861.40479
864.0 0.001157 839.34290 861.78668
832.0 0.001202 839.40295 861.99438
869.0 0.001151 839.46313 862.39294
827.0 0.001209 839.52350 862.79932
932.0 0.001073 839.58411 863.21381
830.0 0.001205 839.64484 863.63666
899.0 0.001112 839.70575 864.06781
919.0 0.001088 839.76685 864.50793
825.0 0.001212 839.82813 864.95709
889.0 0.001125 839.88947 865.41565
885.0 0.001130 839.95105 865.88385
893.0 0.001120 840.01263 866.36188
855.0 0.001170 840.07452 866.85028
905.0 0.001105 840.13647 867.34930
863.0 0.001159 840.19849 867.85901
854.0 0.001171 840.26068 868.38000
877.0 0.001140 840.32288 868.91266
906.0 0.001104 840.38525 869.45721
889.0 0.001125 840.44769 870.01416
888.0 0.001126 840.51025 870.58405
904.0 0.001106 840.57281 871.16705
884.0 0.001131 840.63550 871.76373
838.0 0.001193 840.69818 872.37463
875.0 0.001143 840.76099 873.00012
879.0 0.001138 840.82385 873.64087
857.0 0.001167 840.88672 874.29724
894.0 0.001119 840.94958 874.97009
902.0 0.001109 841.01251 875.65924
872.0 0.001147 841.07550 876.36627
866.0 0.001155 841.13843 877.09137
872.0 0.001147 841.20142 877.83533
914.0 0.001094 841.26434 878.59875
864.0 0.001157 841.32727 879.38232
882.0 0.001134 841.39026 880.18701
876.0 0.001142 841.45319 881.01355
884.0 0.001131 841.51605 881.86285
889.0 0.001125 841.57898 882.73578
885.0 0.001130 841.64172 883.63312
931.0 0.001074 841.70447 884.55585
890.0 0.001124 841.76721 885.50549
882.0 0.001134 841.82977 886.48279
912.0 0.001096 841.89233 887.48895
896.0 0.001116 841.95483 888.52521
932.0 0.001073 842.01721 889.59290
888.0 0.001126 842.07947 890.69330
882.0 0.001134 842.14166 891.82794
880.0 0.001136 842.20374 892.99829
939.0 0.001065 842.26575 894.20624
839.0 0.001192 842.32758 895.45233
866.0 0.001155 842.38928 896.73975
888.0 0.001126 842.45087 898.06995
919.0 0.001088 842.51233 899.44470
890.0 0.001124 842.57361 900.86646
886.0 0.001129 842.63470 902.33722
920.0 0.001087 842.69568 903.85944
870.0 0.001149 842.75641 905.43555
912.0 0.001096 842.81708 907.06860
879.0 0.001138 842.87750 908.76111
870.0 0.001149 842.93768 910.51575
875.0 0.001143 842.99774 912.33679
942.0 0.001062 843.05756 914.22723
871.0 0.001148 843.11719 916.54462
890.0 0.001124 843.17651 918.58698
963.0 0.001038 843.23572 920.71063
882.0 0.001134 843.29462 922.91992
937.0 0.001067 843.35333 925.21973
931.0 0.001074 843.41174 927.61511
881.0 0.001135 843.46991 930.11176
926.0 0.001080 843.52789 932.71613
934.0 0.001071 843.58551 935.43195
903.0 0.001107 843.64288 938.26935
905.0 0.001105 843.69989 941.23444
968.0 0.001033 843.75671 944.33514
964.0 0.001037 843.81329 947.58002
989.0 0.001011 843.86945 951.15625
973.0 0.001028 843.92529 954.71881
901.0 0.001110 843.98090 958.45563
932.0 0.001073 844.03613 962.37811
976.0 0.001025 844.09106 966.49927
926.0 0.001080 844.14563 970.83148
983.0 0.001017 844.19983 975.39197
968.0 0.001033 844.25378 980.19604
994.0 0.001006 844.30731 985.26147
970.0 0.001031 844.36041 990.60760
996.0 0.001004 844.41321 996.25568
1008.0 0.000992 844.46564 1002.22894
992.0 0.001008 844.51764 1008.55304
1035.0 0.000966 844.56934 1015.25586
1029.0 0.000972 844.62054 1022.36829
1024.0 0.000977 844.67139 1029.92651
1014.0 0.000986 844.72180 1039.17920
1017.0 0.000983 844.77179 1047.74829
1024.0 0.000977 844.82141 1056.88782
1000.0 0.001000 844.87061 1066.64990
1032.0 0.000969 844.91931 1077.09314
1012.0 0.000988 844.96765 1088.28442
1086.0 0.000921 845.01544 1100.29846
1057.0 0.000946 845.06281 1113.22168
1116.0 0.000896 845.10980 1127.15259
1094.0 0.000914 845.15625 1142.20593
1149.0 0.000870 845.20221 1158.51013
1165.0 0.000858 845.24774 1176.22974
1171.0 0.000854 845.29272 1196.15259
1176.0 0.000850 845.33728 1217.28088
1179.0 0.000848 845.38129 1240.47485
1266.0 0.000790 845.42487 1266.03650
1325.0 0.000755 845.46783 1294.32153
1330.0 0.000752 845.51038 1325.74829
1360.0 0.000735 845.55243 1360.80542
1349.0 0.000741 845.59387 1400.05994
1449.0 0.000690 845.63477 1444.17590
1511.0 0.000662 845.67511 1493.84912
1557.0 0.000642 845.71497 1549.97412
1624.0 0.000616 845.75427 1613.45837
1697.0 0.000589 845.79303 1685.32068
1783.0 0.000561 845.83118 1766.66113
1884.0 0.000531 845.86884 1858.64404
1999.0 0.000500 845.90582 1962.47778
2126.0 0.000470 845.94226 2079.37817
2214.0 0.000452 845.97821 2210.52246
2264.0 0.000442 846.01343 2356.97510
2518.0 0.000397 846.04810 2519.54590
2687.0 0.000372 846.08221 2698.79639
2872.0 0.0003482 846.11572 2894.58813
3130.0 0.0003195 846.14856 3105.93677
3426.0 0.0002919 846.18085 3330.59302
3833.0 0.0002609 846.21246 3564.60962
4068.0 0.0002458 846.24347 3801.93530
4398.0 0.0002274 846.27380 4034.22632
4572.0 0.0002187 846.30359 4251.10352
4836.0 0.0002068 846.33270 4441.14795
5157.0 0.0001939 846.36115 4593.35986
5162.0 0.0001937 846.38892 4699.84473
5044.0 0.0001983 846.41608 4757.03320
4882.0 0.0002048 846.44257 4766.83398
4743.0 0.0002108 846.46832 4735.85596
4515.0 0.0002215 846.49353 4673.47510
4388.0 0.0002279 846.51801 4589.41943
4240.0 0.0002358 846.54175 4491.69580
4175.0 0.0002395 846.56488 4385.32520
4126.0 0.0002424 846.58728 4272.05371
3974.0 0.0002516 846.60901 4150.93750
3934.0 0.0002542 846.62994 4019.58496
3807.0 0.0002627 846.65027 3875.53003
3624.0 0.0002759 846.66992 3717.76538
3348.0 0.0002987 846.68878 3547.36401
3196.0 0.0003129 846.70697 3367.47241
2946.0 0.0003394 846.72443 3182.62085
2933.0 0.0003409 846.74115 2997.76563
2481.0 0.000403 846.75714 2817.44238
2506.0 0.000399 846.77240 2645.24658
2323.0 0.000430 846.78693 2483.62378
2146.0 0.000466 846.80072 2334.16528
2051.0 0.000488 846.81372 2197.28101
2073.0 0.000482 846.82605 2073.02075
1931.0 0.000518 846.83759 1960.94092
1804.0 0.000554 846.84833 1860.33716
1697.0 0.000589 846.85834 1770.36353
1651.0 0.000606 846.86761 1690.10889
1615.0 0.000619 846.87610 1618.65234
1562.0 0.000640 846.88379 1555.09570
1631.0 0.000613 846.89069 1498.58533
1524.0 0.000656 846.89691 1448.32336
1413.0 0.000708 846.90228 1403.58569
1338.0 0.000747 846.90680 1363.68359
1384.0 0.000723 846.91064 1328.02783
1333.0 0.000750 846.91364 1296.08362
1293.0 0.000773 846.91583 1267.37854
1249.0 0.000801 846.91724 1241.49902
1232.0 0.000812 846.91785 1218.08594
1202.0 0.000832 846.91766 1196.82825
1185.0 0.000844 846.91669 1177.45837
1149.0 0.000870 846.91486 1159.74390
1142.0 0.000876 846.91223 1143.50452
1166.0 0.000858 846.90875 1128.55286
1109.0 0.000902 846.90454 1114.75378
1109.0 0.000902 846.89941 1101.98474
1084.0 0.000923 846.89343 1090.13940
1077.0 0.000929 846.88678 1079.12683
1070.0 0.000935 846.87915 1068.86768
1021.0 0.000979 846.87073 1059.29272
1032.0 0.000969 846.86151 1050.34058
1055.0 0.000948 846.85144 1041.95764
991.0 0.001009 846.84052 1034.09839
1031.0 0.000970 846.82880 1026.71594
1012.0 0.000988 846.81616 1019.77417
996.0 0.001004 846.80273 1013.23883
936.0 0.001068 846.78839 1007.07886
1037.0 0.000964 846.77325 1001.26611
963.0 0.001038 846.75732 995.77539
948.0 0.001055 846.74048 990.58319
1005.0 0.000995 846.72272 985.66870
989.0 0.001011 846.70416 981.01251
985.0 0.001015 846.68475 976.59595
989.0 0.001011 846.66449 972.40692
940.0 0.001064 846.64331 968.42542
889.0 0.001125 846.62134 964.64014
989.0 0.001011 846.59845 961.03821
899.0 0.001112 846.57471 957.60809
944.0 0.001059 846.55011 954.33960
967.0 0.001034 846.52466 951.22229
944.0 0.001059 846.49835 948.24731
909.0 0.001100 846.47107 945.40619
911.0 0.001098 846.44299 942.69098
902.0 0.001109 846.41400 940.09540
927.0 0.001079 846.38416 937.61108
910.0 0.001099 846.35352 935.23254
957.0 0.001045 846.32190 932.95386
912.0 0.001096 846.28943 930.76978
940.0 0.001064 846.25616 928.67517
929.0 0.001076 846.22192 926.66522
891.0 0.001122 846.18683 924.73529
899.0 0.001112 846.15082 922.88171
933.0 0.001072 846.11389 921.10022
875.0 0.001143 846.07617 919.38708
863.0 0.001159 846.03760 917.74042
870.0 0.001149 845.99811 916.15491
876.0 0.001142 845.95770 914.62836
883.0 0.001133 845.91644 913.15814
884.0 0.001131 845.87439 911.74158
924.0 0.001082 845.83136 910.37598
921.0 0.001086 845.78748 909.05920
957.0 0.001045 845.74268 907.78900
913.0 0.001095 845.69702 906.56335
870.0 0.001149 845.65045 905.38013
893.0 0.001120 845.60309 904.23785
924.0 0.001082 845.55487 903.13434
928.0 0.001078 845.50568 902.06799
903.0 0.001107 845.45563 901.03741
954.0 0.001048 845.40472 900.04120
899.0 0.001112 845.35291 899.07776
899.0 0.001112 845.30023 898.14581
903.0 0.001107 845.24664 897.24426
890.0 0.001124 845.19226 896.37183
902.0 0.001109 845.13696 895.52734
888.0 0.001126 845.08081 894.70953
877.0 0.001140 845.02380 893.91833
876.0 0.001142 844.96594 893.15173
845.0 0.001183 844.90717 892.40912
842.0 0.001188 844.84747 891.68970
849.0 0.001178 844.78693 890.99280
906.0 0.001104 844.72559 890.31750
909.0 0.001100 844.66339 889.66296
880.0 0.001136 844.60028 889.02875
937.0 0.001067 844.53638 888.41406
888.0 0.001126 844.47150 887.81830
914.0 0.001094 844.40588 887.24091
902.0 0.001109 844.33929 886.68109
838.0 0.001193 844.27197 886.13867
874.0 0.001144 844.20374 885.61273
949.0 0.001054 844.13464 885.10303
901.0 0.001110 844.06476 884.60919
905.0 0.001105 843.99396 884.13055
931.0 0.001074 843.92242 883.66693
917.0 0.001091 843.84998 883.21777
835.0 0.001198 843.77667 882.78259
883.0 0.001133 843.70258 882.36151
849.0 0.001178 843.62756 881.95367
895.0 0.001117 843.55182 881.55908
901.0 0.001110 843.47522 881.17731
925.0 0.001081 843.39777 880.80798
859.0 0.001164 843.31952 880.45111
881.0 0.001135 843.24048 880.10632
898.0 0.001114 843.16052 879.77319
851.0 0.001175 843.07983 879.45178
844.0 0.001185 842.99829 879.14172
905.0 0.001105 842.91595 878.84283
904.0 0.001106 842.83289 878.55536
869.0 0.001151 842.74896 878.27844
887.0 0.001127 842.66418 878.01221
895.0 0.001117 842.57867 877.75671
863.0 0.001159 842.49231 877.51166
870.0 0.001149 842.40521 877.27698
886.0 0.001129 842.31732 877.05249
827.0 0.001209 842.22858 876.83826
889.0 0.001125 842.13916 876.63416
844.0 0.001185 842.04883 876.44000
832.0 0.001202 841.95789 876.25598
884.0 0.001131 841.86615 876.08179
870.0 0.001149 841.77356 875.91760
838.0 0.001193 841.68030 875.76312
938.0 0.001066 841.58624 875.61853
866.0 0.001155 841.49133 875.48389
902.0 0.001109 841.39581 875.35925
857.0 0.001167 841.29950 875.24445
857.0 0.001167 841.20239 875.13947
850.0 0.001176 841.10468 875.04474
871.0 0.001148 841.00610 874.96002
924.0 0.001082 840.90692 874.88538
876.0 0.001142 840.80695 874.82086
904.0 0.001106 840.70618 874.76678
907.0 0.001103 840.60474 874.72308
872.0 0.001147 840.50269 874.69000
857.0 0.001167 840.39984 874.66754
867.0 0.001153 840.29633 874.65594
857.0 0.001167 840.19208 874.65533
934.0 0.001071 840.08716 874.66583
844.0 0.001185 839.98151 874.68774
870.0 0.001149 839.87531 874.72113
840.0 0.001190 839.76819 874.76630
937.0 0.001067 839.66058 874.82355
852.0 0.001174 839.55231 874.89319
946.0 0.001057 839.44336 874.97528
892.0 0.001121 839.33368 875.07025
869.0 0.001151 839.22339 875.17822
889.0 0.001125 839.11249 875.29980
863.0 0.001159 839.00085 875.43524
882.0 0.001134 838.88861 875.58484
880.0 0.001136 838.77570 875.74896
867.0 0.001153 838.66229 875.92822
888.0 0.001126 838.54816 876.12286
891.0 0.001122 838.43341 876.33362
908.0 0.001101 838.31812 876.56079
872.0 0.001147 838.20221 876.80487
804.0 0.001244 838.08563 877.06647
888.0 0.001126 837.96851 877.34637
848.0 0.001179 837.85071 877.64490
888.0 0.001126 837.73236 877.96301
873.0 0.001145 837.61346 878.30133
859.0 0.001164 837.49408 878.66040
892.0 0.001121 837.37402 879.04126
896.0 0.001116 837.25342 879.44464
862.0 0.001160 837.13226 879.87158
850.0 0.001176 837.01056 880.32294
885.0 0.001130 836.88831 880.79962
884.0 0.001131 836.76556 881.30280
842.0 0.001188 836.64221 881.83362
900.0 0.001111 836.51843 882.39325
956.0 0.001046 836.39404 882.98303
881.0 0.001135 836.26923 883.60419
906.0 0.001104 836.14380 884.25818
867.0 0.001153 836.01794 884.94678
863.0 0.001159 835.89154 885.67139
855.0 0.001170 835.76465 886.43384
877.0 0.001140 835.63727 887.23584
909.0 0.001100 835.50952 888.07959
900.0 0.001111 835.38123 888.96710
903.0 0.001107 835.25244 889.90063
908.0 0.001101 835.12323 890.88251
901.0 0.001110 834.99353 891.91553
930.0 0.001075 834.86353 893.00183
923.0 0.001083 834.73291 894.14496
914.0 0.001094 834.60193 895.34802
900.0 0.001111 834.47058 896.61420
922.0 0.001085 834.33868 897.94733
877.0 0.001140 834.20648 899.35126
855.0 0.001170 834.07391 900.83020
912.0 0.001096 833.94086 902.38861
942.0 0.001062 833.80743 904.03125
870.0 0.001149 833.67365 905.76349
878.0 0.001139 833.53943 907.59064
929.0 0.001076 833.40485 909.51971
960.0 0.001042 833.26996 911.55688
933.0 0.001072 833.13470 913.70923
917.0 0.001091 832.99908 915.98474
975.0 0.001026 832.86310 918.39185
945.0 0.001058 832.72681 920.93988
921.0 0.001086 832.59015 923.63861
980.0 0.001020 832.45319 926.49927
903.0 0.001107 832.31592 929.53387
928.0 0.001078 832.17828 932.75629
896.0 0.001116 832.04053 936.17749
933.0 0.001072 831.90234 939.81750
903.0 0.001107 831.76385 943.69214
975.0 0.001026 831.62512 947.82068
939.0 0.001065 831.48608 952.22430
962.0 0.001040 831.34680 956.92700
978.0 0.001022 831.20721 961.95490
970.0 0.001031 831.06738 967.33777
940.0 0.001064 830.92737 973.10907
1056.0 0.000947 830.78711 979.30652
1005.0 0.000995 830.64661 985.97150
996.0 0.001004 830.50592 993.15674
984.0 0.001016 830.36499 1000.91724
1031.0 0.000970 830.22382 1009.31860
1081.0 0.000925 830.08240 1018.43744
1059.0 0.000944 829.94086 1028.36279
1047.0 0.000955 829.79907 1039.19861
1018.0 0.000982 829.65710 1051.06689
1053.0 0.000950 829.51501 1064.11060
1090.0 0.000917 829.37280 1078.49622
1134.0 0.000882 829.23029 1094.42139
1131.0 0.000884 829.08777 1112.09375
1117.0 0.000895 828.94513 1131.79211
1197.0 0.000835 828.80219 1153.80261
1221.0 0.000819 828.65924 1178.45837
1212.0 0.000825 828.51611 1206.13220
1248.0 0.000801 828.37286 1237.23682
1300.0 0.000769 828.22955 1272.22400
1390.0 0.000719 828.08606 1311.58032
1382.0 0.000724 827.94257 1355.82361
1505.0 0.000664 827.79895 1405.49304
1487.0 0.000672 827.65533 1461.12427
1504.0 0.000665 827.51147 1523.28809
1633.0 0.000612 827.36768 1592.48486
1699.0 0.000589 827.22382 1669.16382
1835.0 0.000545 827.07983 1753.65881
1821.0 0.000549 826.93591 1846.12000
1976.0 0.000506 826.79187 1946.41431
2102.0 0.000476 826.64783 2053.99585
2233.0 0.000448 826.50372 2167.74243
2438.0 0.000410 826.35968 2285.80615
2685.0 0.000372 826.21558 2405.27515
2652.0 0.000377 826.07147 2522.50635
2758.0 0.000363 825.92737 2632.75586
2883.0 0.0003469 825.78333 2730.81006
2945.0 0.0003396 825.63934 2811.59033
3034.0 0.0003296 825.49530 2871.02246
2950.0 0.0003390 825.35132 2906.87012
2953.0 0.0003386 825.20740 2919.22705
2797.0 0.000358 825.06348 2910.45020
2816.0 0.000355 824.91962 2884.54199
2624.0 0.000381 824.77588 2846.20361
2563.0 0.000390 824.63220 2799.88159
2574.0 0.000389 824.48859 2748.98486
2586.0 0.000387 824.34509 2695.55420
2503.0 0.000400 824.20160 2640.16870
2516.0 0.000397 824.05835 2582.20532
2416.0 0.000414 823.91504 2520.31250
2398.0 0.000417 823.77191 2453.01855
2315.0 0.000432 823.62891 2379.31567
2187.0 0.000457 823.48602 2299.07495
2067.0 0.000484 823.34320 2213.14551
2060.0 0.000485 823.20074 2123.31299
1906.0 0.000525 823.05829 2031.63086
1870.0 0.000535 822.91595 1940.36694
1758.0 0.000569 822.77386 1851.49316
1616.0 0.000619 822.63190 1766.55176
1580.0 0.000633 822.48999 1686.60718
1574.0 0.000635 822.34845 1612.28638
1476.0 0.000678 822.20703 1543.85962
1428.0 0.000700 822.06580 1481.33264
1361.0 0.000735 821.92474 1424.52917
1373.0 0.000728 821.78394 1373.15527
1405.0 0.000712 821.64337 1326.86047
1306.0 0.000766 821.50299 1285.22681
1226.0 0.000816 821.36279 1247.86108
1306.0 0.000766 821.22284 1214.36304
1225.0 0.000816 821.08313 1184.34753
1154.0 0.000867 820.94373 1157.45081
1243.0 0.000805 820.80457 1133.33350
1189.0 0.000841 820.66565 1111.67859
1131.0 0.000884 820.52698 1092.22095
1166.0 0.000858 820.38861 1074.67969
1064.0 0.000940 820.25055 1058.83484
1159.0 0.000863 820.11267 1044.48230
1120.0 0.000893 819.97516 1031.44238
1114.0 0.000898 819.83789 1019.55725
1060.0 0.000943 819.70093 1008.68982
1051.0 0.000951 819.56433 995.99445
1036.0 0.000965 819.42798 986.83789
1023.0 0.000978 819.29205 978.38751
1007.0 0.000993 819.15637 970.56659
1015.0 0.000985 819.02100 963.30878
981.0 0.001019 818.88599 956.55695
963.0 0.001038 818.75128 950.26135
1023.0 0.000978 818.61700 944.37891
1005.0 0.000995 818.48303 938.87158
1005.0 0.000995 818.34949 933.70636
930.0 0.001075 818.21637 928.85645
1011.0 0.000989 818.08344 922.92810
970.0 0.001031 817.95093 918.63464
918.0 0.001089 817.81885 914.58405
939.0 0.001065 817.68719 910.75763
874.0 0.001144 817.55585 907.13879
885.0 0.001130 817.42493 903.71210
937.0 0.001067 817.29443 900.46387
941.0 0.001063 817.16437 897.38153
943.0 0.001060 817.03467 894.45355
913.0 0.001095 816.90540 891.66949
855.0 0.001170 816.77649 889.01971
947.0 0.001056 816.64807 886.49530
900.0 0.001111 816.52008 884.08838
882.0 0.001134 816.39258 881.79132
819.0 0.001221 816.26550 879.59735
902.0 0.001109 816.13885 877.50006
861.0 0.001161 816.01263 875.49353
908.0 0.001101 815.88690 873.57257
835.0 0.001198 815.76160 871.73181
838.0 0.001193 815.63672 869.96680
889.0 0.001125 815.51239 868.27332
846.0 0.001182 815.38861 866.64789
877.0 0.001140 815.26526 865.08533
909.0 0.001100 815.14233 863.58289
813.0 0.001230 815.01990 862.13751
890.0 0.001124 814.89801 860.74597
845.0 0.001183 814.77661 859.40552
839.0 0.001192 814.65564 858.11334
867.0 0.001153 814.53528 856.86725
837.0 0.001195 814.41534 855.66486
875.0 0.001143 814.29596 854.50385
846.0 0.001182 814.17706 853.38226
856.0 0.001168 814.05872 852.29828
839.0 0.001192 813.94092 851.24994
834.0 0.001199 813.82355 850.23578
854.0 0.001171 813.70679 849.25391
842.0 0.001188 813.59052 848.30316
816.0 0.001225 813.47485 847.38190
894.0 0.001119 813.35968 846.48895
851.0 0.001175 813.24506 845.62292
831.0 0.001203 813.13104 844.78308
873.0 0.001145 813.01752 843.96759
875.0 0.001143 812.90454 843.17566
886.0 0.001129 812.79211 842.40649
872.0 0.001147 812.68030 841.65887
856.0 0.001168 812.56897 840.93207
830.0 0.001205 812.45831 840.22534
860.0 0.001163 812.34814 839.53778
809.0 0.001236 812.23853 838.86847
860.0 0.001163 812.12952 838.21686
885.0 0.001130 812.02112 837.58234
819.0 0.001221 811.91333 836.96405
846.0 0.001182 811.80597 836.36151
826.0 0.001211 811.69934 835.77411
881.0 0.001135 811.59320 835.20117
823.0 0.001215 811.48773 834.64246
853.0 0.001172 811.38275 834.09705
803.0 0.001245 811.27844 833.56470
838.0 0.001193 811.17468 833.04504
744.0 0.001344 811.07159 832.53760
824.0 0.001214 810.96906 832.04163
804.0 0.001244 810.86713 831.55707
862.0 0.001160 810.76581 831.08362
830.0 0.001205 810.66504 830.62048
808.0 0.001238 810.56488 830.16760
795.0 0.001258 810.46539 829.72467
786.0 0.001272 810.36652 829.29120
822.0 0.001217 810.26819 828.86707
833.0 0.001200 810.17047 828.45172
803.0 0.001245 810.07330 828.04517
812.0 0.001232 809.97681 827.64691
795.0 0.001258 809.88098 827.25696
785.0 0.001274 809.78571 826.87488
807.0 0.001239 809.69110 826.50031
818.0 0.001222 809.59711 826.13330
810.0 0.001235 809.50372 825.77350
808.0 0.001238 809.41089 825.42072
824.0 0.001214 809.31873 825.07465
839.0 0.001192 809.22717 824.73523
839.0 0.001192 809.13617 824.40222
885.0 0.001130 809.04584 824.07544
829.0 0.001206 808.95618 824.53088
822.0 0.001217 808.86719 824.22113
767.0 0.001304 808.77875 823.91711
845.0 0.001183 808.69086 823.61859
863.0 0.001159 808.60364 823.32568
817.0 0.001224 808.51703 823.03802
825.0 0.001212 808.43103 822.75555
886.0 0.001129 808.34570 822.47833
818.0 0.001222 808.26093 822.20593
796.0 0.001256 808.17682 821.93829
809.0 0.001236 808.09326 821.67548
809.0 0.001236 808.01038 821.41724
852.0 0.001174 807.92810 821.16339
843.0 0.001186 807.84644 820.91412
820.0 0.001220 807.76538 820.66895
859.0 0.001164 807.68494 820.81873
814.0 0.001228 807.60510 820.58435
758.0 0.001319 807.52588 820.35388
802.0 0.001247 807.44733 820.12756
859.0 0.001164 807.36932 819.90485
801.0 0.001248 807.29193 819.68604
807.0 0.001239 807.21515 819.47089
844.0 0.001185 807.13898 819.25909
859.0 0.001164 807.06342 819.05115
890.0 0.001124 806.98846 818.84644
764.0 0.001309 806.91412 818.64514
803.0 0.001245 806.84033 818.44720
815.0 0.001227 806.76715 818.25238
789.0 0.001267 806.69458 818.06085
854.0 0.001171 806.62256 817.87231
853.0 0.001172 806.55127 817.68701
810.0 0.001235 806.48041 817.50446
808.0 0.001238 806.41016 817.32501
840.0 0.001190 806.34058 817.14813
752.0 0.001330 806.27155 816.97443
788.0 0.001269 806.20306 816.80328
826.0 0.001211 806.13519 816.63501
823.0 0.001215 806.06787 816.46918
808.0 0.001238 806.00116 816.30615
786.0 0.001272 805.93500 816.14563
776.0 0.001289 805.86938 815.98755
844.0 0.001185 805.80432 815.83203
860.0 0.001163 805.73987 815.67902
774.0 0.001292 805.67603 815.52838
837.0 0.001195 805.61267 815.38007
832.0 0.001202 805.54987 815.23401
814.0 0.001228 805.48767 815.09027
812.0 0.001232 805.42590 814.94867
829.0 0.001206 805.36469 814.80933
826.0 0.001211 805.30414 814.67224
779.0 0.001284 805.24402 814.53717
823.0 0.001215 805.18451 814.40430
854.0 0.001171 805.12549 814.27344
855.0 0.001170 805.06702 814.14465
841.0 0.001189 805.00909 814.01782
820.0 0.001220 804.95166 813.89294
831.0 0.001203 804.89471 813.77002
834.0 0.001199 804.83820 813.64893
795.0 0.001258 804.78229 813.52979
820.0 0.001220 804.72693 813.41248
873.0 0.001145 804.67200 813.29706
851.0 0.001175 804.61761 813.18353
791.0 0.001264 804.56372 813.07159
790.0 0.001266 804.51031 812.96136
805.0 0.001242 804.45740 812.85297
814.0 0.001228 804.40485 812.74634
792.0 0.001263 804.35291 812.64130
796.0 0.001256 804.30139 812.53790
813.0 0.001230 804.25037 812.43616
815.0 0.001227 804.19977 812.33606
853.0 0.001172 804.14966 812.23743
793.0 0.001261 804.09998 812.14038
863.0 0.001159 804.05078 812.04492
806.0 0.001241 804.00195 811.95111
797.0 0.001255 803.95367 811.85876
788.0 0.001269 803.90570 811.76776
812.0 0.001232 803.85822 811.67822
805.0 0.001242 803.81116 811.59033
795.0 0.001258 803.76447 811.50366
830.0 0.001205 803.71826 811.41858
797.0 0.001255 803.67242 811.33478
799.0 0.001252 803.62701 811.25238
845.0 0.001183 803.58203 811.17151
828.0 0.001208 803.53735 811.09174
793.0 0.001261 803.49316 811.01349
802.0 0.001247 803.44928 810.93646
773.0 0.001294 803.40588 810.86072
799.0 0.001252 803.36273 810.78638
807.0 0.001239 803.32001 810.71320
863.0 0.001159 803.27771 810.64130
841.0 0.001189 803.23566 810.57068
852.0 0.001174 803.19397 810.50128
844.0 0.001185 803.15265 810.43311
797.0 0.001255 803.11169 810.36603
815.0 0.001227 803.07098 810.30035
827.0 0.001209 803.03076 810.23578
792.0 0.001263 802.99072 810.17224
780.0 0.001282 802.95105 810.11005
822.0 0.001217 802.91168 810.04907
802.0 0.001247 802.87262 809.98914
823.0 0.001215 802.83380 809.93018
816.0 0.001225 802.79535 809.87250
908.0 0.001101 802.75720 809.81592
783.0 0.001277 802.71930 809.76044
820.0 0.001220 802.68170 809.70593
799.0 0.001252 802.64429 809.65271
811.0 0.001233 802.60724 809.60046
792.0 0.001263 802.57050 809.54932
825.0 0.001212 802.53381 809.49902
779.0 0.001284 802.49756 809.45007
830.0 0.001205 802.46143 809.40192
800.0 0.001250 802.42560 809.35492
774.0 0.001292 802.38995 809.30902
798.0 0.001253 802.35455 809.26404
838.0 0.001193 802.31940 809.22003
824.0 0.001214 802.28436 809.17706
790.0 0.001266 802.24963 809.13525
810.0 0.001235 802.21503 809.09424
793.0 0.001261 802.18060 809.05438
751.0 0.001332 802.14642 809.01532
811.0 0.001233 802.11243 808.97742
778.0 0.001285 802.07855 808.94037
782.0 0.001279 802.04486 808.90436
781.0 0.001280 802.01135 808.86938
711.0 0.001406 801.97803 808.83521
762.0 0.001312 801.94476 808.80206
816.0 0.001225 801.91168 808.77002
796.0 0.001256 801.87878 808.73877
830.0 0.001205 801.84595 808.70856
774.0 0.001292 801.81323 808.67926
771.0 0.001297 801.78070 808.65106
806.0 0.001241 801.74823 808.62347
870.0 0.001149 801.71588 808.59723
816.0 0.001225 801.68359 808.57178
799.0 0.001252 801.65143 808.54718
792.0 0.001263 801.61938 808.52380
794.0 0.001259 801.58734 808.50116
798.0 0.001253 801.55542 808.47955
787.0 0.001271 801.52356 808.45886
840.0 0.001190 801.49176 808.43921
832.0 0.001202 801.46002 808.42047
837.0 0.001195 801.42834 808.40265
765.0 0.001307 801.39673 808.38586
790.0 0.001266 801.36505 808.37006
792.0 0.001263 801.33350 808.35529
815.0 0.001227 801.30194 808.34143
823.0 0.001215 801.27045 808.32861
820.0 0.001220 801.23889 808.31689
792.0 0.001263 801.20740 808.30597
767.0 0.001304 801.17596 808.29620
798.0 0.001253 801.14441 808.28741
781.0 0.001280 801.11285 808.27972
796.0 0.001256 801.08136 808.27307
781.0 0.001280 801.04974 808.26740
795.0 0.001258 801.01819 808.26288
811.0 0.001233 800.98657 808.25934
783.0 0.001277 800.95490 808.25702
841.0 0.001189 800.92322 808.25568
764.0 0.001309 800.89148 808.25549
789.0 0.001267 800.85962 808.25647
796.0 0.001256 800.82776 808.25854
812.0 0.001232 800.79584 808.26178
806.0 0.001241 800.76385 808.26624
786.0 0.001272 800.73175 808.27191
797.0 0.001255 800.69958 808.27881
788.0 0.001269 800.66736 808.28693
763.0 0.001311 800.63501 808.29645
820.0 0.001220 800.60260 808.30695
799.0 0.001252 800.57007 808.31891
783.0 0.001277 800.53741 808.33221
826.0 0.001211 800.50464 808.34680
792.0 0.001263 800.47174 808.36285
789.0 0.001267 800.43878 808.38019
797.0 0.001255 800.40564 808.39917
756.0 0.001323 800.37238 808.41949
819.0 0.001221 800.33899 808.44128
770.0 0.001299 800.30548 808.46460
788.0 0.001269 800.27173 808.48956
754.0 0.001326 800.23792 808.51611
813.0 0.001230 800.20392 808.54419
821.0 0.001218 800.16974 808.57416
755.0 0.001324 800.13544 808.60565
763.0 0.001311 800.10095 808.63898
776.0 0.001289 800.06628 808.67419
758.0 0.001319 800.03149 808.71124
813.0 0.001230 799.99646 808.75006
803.0 0.001245 799.96124 808.79089
765.0 0.001307 799.92590 808.83386
813.0 0.001230 799.89032 808.87878
761.0 0.001314 799.85449 808.92584
795.0 0.001258 799.81854 808.97504
818.0 0.001222 799.78241 809.02655
792.0 0.001263 799.74603 809.08032
829.0 0.001206 799.70947 809.13666
819.0 0.001221 799.67267 809.19513
818.0 0.001222 799.63562 809.25623
813.0 0.001230 799.59839 809.32001
789.0 0.001267 799.56091 809.38660
824.0 0.001214 799.52319 809.45575
816.0 0.001225 799.48535 809.52789
862.0 0.001160 799.44720 809.60303
835.0 0.001198 799.40881 809.68109
796.0 0.001256 799.37018 809.76227
760.0 0.001316 799.33136 809.84686
828.0 0.001208 799.29224 809.93469
818.0 0.001222 799.25293 810.02606
811.0 0.001233 799.21338 810.12109
752.0 0.001330 799.17358 810.21985
782.0 0.001279 799.13348 810.32227
813.0 0.001230 799.09314 810.42889
825.0 0.001212 799.05261 810.53955
782.0 0.001279 799.01178 810.65460
825.0 0.001212 798.97070 811.66534
843.0 0.001186 798.92932 811.79816
779.0 0.001284 798.88776 811.93585
787.0 0.001271 798.84589 812.07843
803.0 0.001245 798.80377 812.22644
858.0 0.001166 798.76141 812.37976
815.0 0.001227 798.71881 812.53864
807.0 0.001239 798.67584 812.70343
848.0 0.001179 798.63269 812.87427
850.0 0.001176 798.58929 813.05145
766.0 0.001305 798.54559 813.23523
789.0 0.001267 798.50165 813.42578
777.0 0.001287 798.45746 813.62372
753.0 0.001328 798.41296 812.18372
841.0 0.001189 798.36823 812.40594
816.0 0.001225 798.32318 813.25977
818.0 0.001222 798.27789 813.50165
848.0 0.001179 798.23236 813.75232
826.0 0.001211 798.18665 814.01221
868.0 0.001152 798.14063 814.28149
820.0 0.001220 798.09430 814.56091
754.0 0.001326 798.04773 814.85065
788.0 0.001269 798.00085 815.15137
818.0 0.001222 797.95380 815.46362
844.0 0.001185 797.90637 815.78772
769.0 0.001300 797.85876 816.12457
834.0 0.001199 797.81097 816.47449
847.0 0.001181 797.76288 816.83820
821.0 0.001218 797.71454 817.21643
766.0 0.001305 797.66589 817.60999
795.0 0.001258 797.61707 818.01935
821.0 0.001218 797.56799 818.44574
893.0 0.001120 797.51874 818.88977
780.0 0.001282 797.46918 819.35236
844.0 0.001185 797.41931 819.83466
844.0 0.001185 797.36932 820.33746
786.0 0.001272 797.31909 820.86212
846.0 0.001182 797.26862 821.40985
848.0 0.001179 797.21796 821.98187
823.0 0.001215 797.16705 822.57916
816.0 0.001225 797.11597 823.20386
846.0 0.001182 797.06458 823.85724
824.0 0.001214 797.01306 824.54120
799.0 0.001252 796.96136 825.25714
798.0 0.001253 796.90942 826.00739
832.0 0.001202 796.85730 826.79376
797.0 0.001255 796.80499 827.61884
775.0 0.001290 796.75250 828.48480
836.0 0.001196 796.69983 829.39435
833.0 0.001200 796.64697 830.35046
820.0 0.001220 796.59399 831.35602
869.0 0.001151 796.54077 832.41443
861.0 0.001161 796.48749 833.52942
867.0 0.001153 796.43396 834.70483
812.0 0.001232 796.38037 835.94489
826.0 0.001211 796.32660 837.25433
848.0 0.001179 796.27271 838.63812
811.0 0.001233 796.21863 840.10205
843.0 0.001186 796.16449 841.65204
848.0 0.001179 796.11023 843.38031
863.0 0.001159 796.05585 845.12354
854.0 0.001171 796.00140 846.97382
832.0 0.001202 795.94684 848.94196
887.0 0.001127 795.89215 851.03699
832.0 0.001202 795.83740 853.26984
870.0 0.001149 795.78265 855.65277
865.0 0.001156 795.72772 858.19934
931.0 0.001074 795.67279 860.92523
841.0 0.001189 795.61786 863.84778
869.0 0.001151 795.56281 866.98724
848.0 0.001179 795.50775 870.36633
915.0 0.001093 795.45270 874.01184
948.0 0.001055 795.39758 877.95477
963.0 0.001038 795.34253 882.23126
923.0 0.001083 795.28741 886.88397
916.0 0.001092 795.23230 892.00629
931.0 0.001074 795.17725 897.57172
882.0 0.001134 795.12219 903.69366
938.0 0.001066 795.06720 910.45483
878.0 0.001139 795.01227 917.95264
891.0 0.001122 794.95734 926.30103
1026.0 0.000975 794.90259 935.62756
977.0 0.001024 794.84784 946.09290
1032.0 0.000969 794.79315 957.86615
1034.0 0.000967 794.73853 971.14197
1066.0 0.000938 794.68408 986.13696
1081.0 0.000925 794.62970 1003.08783
1051.0 0.000951 794.57556 1022.25049
1043.0 0.000959 794.52148 1043.89478
1117.0 0.000895 794.46759 1068.30200
1161.0 0.000861 794.41382 1095.78052
1200.0 0.000833 794.36023 1126.55908
1224.0 0.000817 794.30682 1160.92224
1249.0 0.000801 794.25354 1199.09460
1306.0 0.000766 794.20056 1241.24097
1378.0 0.000726 794.14777 1287.43335
1370.0 0.000730 794.09528 1337.60425
1460.0 0.000685 794.04297 1391.48218
1581.0 0.000633 793.99091 1448.51184
1607.0 0.000622 793.93921 1507.76086
1611.0 0.000621 793.88763 1567.82910
1720.0 0.000581 793.83649 1626.79663
1761.0 0.000568 793.78558 1682.25378
1852.0 0.000540 793.73499 1731.44934
1786.0 0.000560 793.68475 1771.71680
1782.0 0.000561 793.63489 1800.79333
1756.0 0.000569 793.58533 1817.40234
1755.0 0.000570 793.53619 1821.49170
1696.0 0.000590 793.48743 1814.32312
1699.0 0.000589 793.43903 1798.13354
1620.0 0.000617 793.39099 1775.66138
1609.0 0.000622 793.34344 1749.63831
1596.0 0.000627 793.29633 1722.38220
1573.0 0.000636 793.24976 1695.55371
1609.0 0.000622 793.20355 1670.05676
1616.0 0.000619 793.15784 1646.04907
1502.0 0.000666 793.11267 1623.03455
1524.0 0.000656 793.06793 1600.02661
1591.0 0.000629 793.02380 1575.78076
1481.0 0.000675 792.98016 1549.08289
1366.0 0.000732 792.93707 1519.03613
1401.0 0.000714 792.89459 1485.27637
1393.0 0.000718 792.85266 1448.04480
1345.0 0.000743 792.81140 1408.11890
1289.0 0.000776 792.77075 1366.53650
1308.0 0.000765 792.73065 1324.48315
1292.0 0.000774 792.69122 1283.02820
1164.0 0.000859 792.65247 1243.03467
1147.0 0.000872 792.61432 1205.12158
1149.0 0.000870 792.57697 1169.68005
1101.0 0.000908 792.54028 1136.91113
1080.0 0.000926 792.50433 1106.87476
1104.0 0.000906 792.46912 1079.53015
1089.0 0.000918 792.43463 1054.77148
1068.0 0.000936 792.40094 1032.45044
1062.0 0.000942 792.36804 1012.39642
1034.0 0.000967 792.33594 994.42786
994.0 0.001006 792.30469 978.35974
949.0 0.001054 792.27423 964.01025
967.0 0.001034 792.24463 951.20416
947.0 0.001056 792.21588 939.77551
975.0 0.001026 792.18805 929.56940
953.0 0.001049 792.16113 920.44324
952.0 0.001050 792.13507 912.26733
895.0 0.001117 792.10999 904.92834
908.0 0.001101 792.08582 898.31549
950.0 0.001053 792.06262 892.34100
929.0 0.001076 792.04047 886.92468
922.0 0.001085 792.01929 881.99713
863.0 0.001159 791.99908 877.49860
896.0 0.001116 791.97998 873.37750
920.0 0.001087 791.96185 869.58966
884.0 0.001131 791.94482 866.09747
878.0 0.001139 791.92883 862.86884
912.0 0.001096 791.91394 859.87585
884.0 0.001131 791.90027 857.09528
918.0 0.001089 791.88763 854.50616
895.0 0.001117 791.87616 852.09100
820.0 0.001220 791.86584 849.83429
868.0 0.001152 791.85669 847.72247
860.0 0.001163 791.84875 845.74323
873.0 0.001145 791.84210 843.88629
854.0 0.001171 791.83655 842.14197
824.0 0.001214 791.83234 840.50183
839.0 0.001192 791.82941 838.95886
798.0 0.001253 791.82770 837.50470
892.0 0.001121 791.82733 836.13379
838.0 0.001193 791.82819 834.84033
834.0 0.001199 791.83051 833.61920
828.0 0.001208 791.83405 832.46564
822.0 0.001217 791.83899 831.37524
890.0 0.001124 791.84528 830.34412
804.0 0.001244 791.85303 829.36865
865.0 0.001156 791.86212 828.44513
820.0 0.001220 791.87268 827.57080
865.0 0.001156 791.88464 826.74255
807.0 0.001239 791.89813 825.95807
826.0 0.001211 791.91302 825.21466
834.0 0.001199 791.92938 824.51019
818.0 0.001222 791.94727 823.84235
856.0 0.001168 791.96667 823.20947
748.0 0.001337 791.98767 822.60968
875.0 0.001143 792.01013 822.04114
830.0 0.001205 792.03418 821.50250
859.0 0.001164 792.05981 820.99225
838.0 0.001193 792.08704 820.50916
825.0 0.001212 792.11578 820.05170
871.0 0.001148 792.14624 819.61908
770.0 0.001299 792.17834 819.20984
807.0 0.001239 792.21210 818.82312
819.0 0.001221 792.24744 818.45789
825.0 0.001212 792.28455 818.11334
830.0 0.001205 792.32330 817.78882
830.0 0.001205 792.36371 817.48315
816.0 0.001225 792.40588 817.19592
847.0 0.001181 792.44977 816.92627
822.0 0.001217 792.49542 816.67365
847.0 0.001181 792.54279 816.43756
849.0 0.001178 792.59198 816.21729
824.0 0.001214 792.64288 816.01233
852.0 0.001174 792.69562 815.82208
793.0 0.001261 792.75018 815.64630
828.0 0.001208 792.80652 815.48444
767.0 0.001304 792.86469 815.33600
802.0 0.001247 792.92474 815.20087
777.0 0.001287 792.98657 815.07843
821.0 0.001218 793.05029 814.96844
857.0 0.001167 793.11584 814.87048
806.0 0.001241 793.18335 814.78436
797.0 0.001255 793.25269 814.70984
860.0 0.001163 793.32391 814.64655
803.0 0.001245 793.39709 814.59424
821.0 0.001218 793.47217 814.55280
820.0 0.001220 793.54919 814.52197
787.0 0.001271 793.62811 814.50140
803.0 0.001245 793.70905 814.49115
780.0 0.001282 793.79187 814.49060
820.0 0.001220 793.87671 814.50031
800.0 0.001250 793.96344 814.51953
778.0 0.001285 794.05219 814.54828
834.0 0.001199 794.14294 814.58649
830.0 0.001205 794.23566 814.63409
815.0 0.001227 794.33032 814.69086
810.0 0.001235 794.42700 814.75659
828.0 0.001208 794.52570 814.83148
831.0 0.001203 794.62640 814.91528
812.0 0.001232 794.72919 815.00806
840.0 0.001190 794.83392 815.10944
778.0 0.001285 794.94067 815.21942
762.0 0.001312 795.04938 815.33844
851.0 0.001175 795.16022 815.46594
784.0 0.001276 795.27307 815.60193
809.0 0.001236 795.38800 815.74652
808.0 0.001238 795.50494 815.89978
838.0 0.001193 795.62390 816.06165
783.0 0.001277 795.74493 816.23193
816.0 0.001225 795.86798 816.41071
802.0 0.001247 795.99310 816.59821
812.0 0.001232 796.12012 816.79401
793.0 0.001261 796.24927 816.99854
850.0 0.001176 796.38049 817.21155
820.0 0.001220 796.51373 817.43329
790.0 0.001266 796.64905 817.66370
803.0 0.001245 796.78638 817.90277
871.0 0.001148 796.92572 818.15051
783.0 0.001277 797.06708 818.40729
787.0 0.001271 797.21039 818.67279
783.0 0.001277 797.35577 818.94733
836.0 0.001196 797.50317 819.23071
819.0 0.001221 797.65265 819.52350
793.0 0.001261 797.80408 819.82538
818.0 0.001222 797.95752 820.13666
854.0 0.001171 798.11292 820.45734
852.0 0.001174 798.27032 820.78754
795.0 0.001258 798.42969 821.12750
803.0 0.001245 798.59100 821.47729
813.0 0.001230 798.75427 821.83698
799.0 0.001252 798.91956 822.20673
830.0 0.001205 799.08679 822.58679
815.0 0.001227 799.25592 822.97729
863.0 0.001159 799.42694 823.37848
829.0 0.001206 799.59985 823.79041
815.0 0.001227 799.77472 824.21338
811.0 0.001233 799.95142 824.64752
824.0 0.001214 800.13000 825.09314
849.0 0.001178 800.31042 825.55048
797.0 0.001255 800.49274 826.01984
813.0 0.001230 800.67682 826.50134
822.0 0.001217 800.86273 826.99524
808.0 0.001238 801.05035 827.50195
809.0 0.001236 801.23981 828.02155
875.0 0.001143 801.43103 828.55475
800.0 0.001250 801.62396 829.10162
848.0 0.001179 801.81866 829.66284
799.0 0.001252 802.01508 830.23822
868.0 0.001152 802.21307 830.82867
805.0 0.001242 802.41278 831.43451
826.0 0.001211 802.61414 832.05603
831.0 0.001203 802.81714 832.69366
813.0 0.001230 803.02167 833.34808
820.0 0.001220 803.22784 834.01971
785.0 0.001274 803.43549 834.70905
856.0 0.001168 803.64465 835.41681
852.0 0.001174 803.85535 836.14349
797.0 0.001255 804.06744 836.88959
864.0 0.001157 804.28107 837.65613
858.0 0.001166 804.49609 838.44360
830.0 0.001205 804.71246 839.25287
817.0 0.001224 804.93024 840.08459
826.0 0.001211 805.14917 840.93909
794.0 0.001259 805.36957 841.81830
837.0 0.001195 805.59119 842.72278
831.0 0.001203 805.81403 843.65344
869.0 0.001151 806.03815 844.61121
861.0 0.001161 806.26343 845.59753
818.0 0.001222 806.48975 846.61334
806.0 0.001241 806.71722 847.65973
874.0 0.001144 806.94562 848.73816
811.0 0.001233 807.17523 849.85028
809.0 0.001236 807.40576 850.99738
880.0 0.001136 807.63733 852.18109
854.0 0.001171 807.86975 853.40320
822.0 0.001217 808.10303 854.66522
832.0 0.001202 808.33716 855.96924
864.0 0.001157 808.57208 857.31744
846.0 0.001182 808.80780 858.71198
850.0 0.001176 809.04401 860.15472
807.0 0.001239 809.28107 861.64893
843.0 0.001186 809.51874 863.19666
834.0 0.001199 809.75702 864.80090
884.0 0.001131 809.99579 866.46484
834.0 0.001199 810.23499 868.19086
847.0 0.001181 810.47467 869.98401
893.0 0.001120 810.71478 871.84711
879.0 0.001138 810.95520 873.78442
869.0 0.001151 811.19598 875.80042
880.0 0.001136 811.43701 877.89923
866.0 0.001155 811.67822 880.08643
856.0 0.001168 811.91956 882.36713
874.0 0.001144 812.16101 884.74725
824.0 0.001214 812.40240 887.23291
866.0 0.001155 812.64392 889.83148
843.0 0.001186 812.88538 892.54999
953.0 0.001049 813.12665 895.39636
902.0 0.001109 813.36774 898.37976
914.0 0.001094 813.60864 901.50940
912.0 0.001096 813.84924 904.79608
953.0 0.001049 814.08948 908.25092
945.0 0.001058 814.32928 911.88635
928.0 0.001078 814.56866 915.71655
911.0 0.001098 814.80756 919.75659
922.0 0.001085 815.04565 924.02142
901.0 0.001110 815.28333 928.53387
867.0 0.001153 815.52020 933.31293
878.0 0.001139 815.75629 938.38239
935.0 0.001070 815.99158 943.76874
947.0 0.001056 816.22601 949.50232
1001.0 0.000999 816.45947 955.61700
926.0 0.001080 816.69189 962.15198
996.0 0.001004 816.92322 969.15137
980.0 0.001020 817.15338 976.66608
997.0 0.001003 817.38226 984.75378
1005.0 0.000995 817.60992 993.48083
980.0 0.001020 817.83606 1002.92297
1025.0 0.000976 818.06091 1013.16656
1042.0 0.000960 818.28424 1024.30933
1054.0 0.000949 818.50598 1036.46204
1092.0 0.000916 818.72607 1049.74951
1073.0 0.000932 818.94440 1064.31140
1151.0 0.000869 819.16095 1080.30334
1094.0 0.000914 819.37561 1097.89685
1175.0 0.000851 819.58832 1117.28015
1156.0 0.000865 819.79901 1138.65833
1166.0 0.000858 820.00763 1162.23926
1277.0 0.000783 820.21411 1188.28113
1265.0 0.000791 820.41840 1217.02051
1367.0 0.000732 820.62030 1248.71545
1329.0 0.000752 820.81970 1283.62976
1353.0 0.000739 821.01672 1322.02856
1393.0 0.000718 821.21124 1364.17126
1387.0 0.000721 821.40314 1410.30103
1512.0 0.000661 821.59229 1460.63184
1603.0 0.000624 821.77863 1515.33020
1688.0 0.000592 821.96216 1574.49011
1688.0 0.000592 822.14270 1638.09802
1767.0 0.000566 822.32013 1705.99048
1914.0 0.000522 822.49457 1777.79956
2141.0 0.000467 822.66577 1852.88782
2073.0 0.000482 822.83374 1930.28271
2215.0 0.000451 822.99835 2008.61597
2233.0 0.000448 823.15948 2086.09375
2495.0 0.000401 823.31714 2160.51563
2472.0 0.000405 823.47119 2229.37524
2427.0 0.000412 823.62146 2290.03174
2497.0 0.000400 823.76801 2340.10791
2432.0 0.000411 823.91071 2377.64795
2479.0 0.000403 824.04950 2401.54663
2446.0 0.000409 824.18433 2411.71094
2505.0 0.000399 824.31500 2409.08105
2436.0 0.000411 824.44147 2395.45752
2240.0 0.000446 824.56372 2373.19922
2236.0 0.000447 824.68158 2344.85693
2206.0 0.000453 824.79498 2312.83374
2260.0 0.000442 824.90387 2279.12744
2165.0 0.000462 825.00818 2245.16528
2095.0 0.000477 825.10785 2211.73682
2077.0 0.000481 825.20270 2179.00806
2107.0 0.000475 825.29266 2146.59668
2102.0 0.000476 825.37769 2113.70850
2018.0 0.000496 825.45776 2079.31689
1968.0 0.000508 825.53265 2042.37561
1998.0 0.000501 825.60242 2002.03113
1845.0 0.000542 825.66693 1957.79407
1812.0 0.000552 825.72595 1909.63562
1815.0 0.000551 825.77966 1857.98779
1744.0 0.000573 825.82782 1803.68042
1629.0 0.000614 825.87036 1747.69153
1547.0 0.000646 825.90723 1691.15100
1562.0 0.000640 825.93835 1635.10339
1512.0 0.000661 825.96368 1580.44409
1470.0 0.000680 825.98297 1527.87598
1520.0 0.000658 825.99640 1477.90259
1371.0 0.000729 826.00366 1430.84607
1357.0 0.000737 826.00482 1386.87683
1321.0 0.000757 825.99976 1346.04663
1293.0 0.000773 825.98840 1308.32007
1290.0 0.000775 825.97064 1273.59924
1238.0 0.000808 825.94647 1241.74695
1242.0 0.000805 825.91571 1212.59924
1179.0 0.000848 825.87836 1185.98035
1116.0 0.000896 825.83435 1161.70764
1205.0 0.000830 825.78363 1139.96655
1142.0 0.000876 825.72614 1119.84741
1126.0 0.000888 825.66168 1101.54431
1206.0 0.000829 825.59039 1084.90247
1112.0 0.000899 825.51208 1069.75366
1123.0 0.000890 825.42664 1055.96411
1081.0 0.000925 825.33405 1043.40210
1014.0 0.000986 825.23431 1031.94678
1035.0 0.000966 825.12732 1021.48846
1039.0 0.000962 825.01306 1011.92719
1002.0 0.000998 824.89136 1003.17365
1028.0 0.000973 824.76227 995.14728
996.0 0.001004 824.62567 987.00055
1009.0 0.000991 824.48163 980.22864
962.0 0.001040 824.32996 974.84460
1004.0 0.000996 824.17065 969.10443
959.0 0.001043 824.00366 963.81171
977.0 0.001024 823.82904 958.93048
933.0 0.001072 823.64661 954.42938
935.0 0.001070 823.45642 950.28223
956.0 0.001046 823.25830 946.46698
916.0 0.001092 823.05237 942.96521
997.0 0.001003 822.83868 939.76270
989.0 0.001011 822.61694 936.84772
922.0 0.001085 822.38715 934.21191
935.0 0.001070 822.14960 931.85126
1000.0 0.001000 821.90393 929.37079
917.0 0.001091 821.65021 927.55377
920.0 0.001087 821.38855 926.01038
916.0 0.001092 821.11877 924.74506
897.0 0.001115 820.84094 923.76532
933.0 0.001072 820.55499 923.08008
911.0 0.001098 820.26099 922.70050
910.0 0.001099 819.95886 922.63989
872.0 0.001147 819.64874 922.91266
925.0 0.001081 819.33051 923.53485
847.0 0.001181 819.00421 924.52319
881.0 0.001135 818.67004 925.89532
837.0 0.001195 818.32770 927.66821
922.0 0.001085 817.97736 929.85797
915.0 0.001093 817.61902 932.47894
1010.0 0.000990 817.25269 935.54138
873.0 0.001145 816.87842 939.05017
996.0 0.001004 816.49634 943.00159
926.0 0.001080 816.10638 947.37976
917.0 0.001091 815.70898 952.15070
981.0 0.001019 815.30341 957.26508
970.0 0.001031 814.89026 962.64075
998.0 0.001002 814.46942 968.16565
1021.0 0.000979 814.04095 973.69293
1000.0 0.001000 813.60504 979.04108
987.0 0.001013 813.16187 984.00055
977.0 0.001024 812.71118 988.34662
977.0 0.001024 812.25323 991.86121
937.0 0.001067 811.78809 994.35858
982.0 0.001018 811.31592 995.71173
950.0 0.001053 810.83667 995.87225
959.0 0.001043 810.35059 994.87909
951.0 0.001052 809.85779 992.85095
958.0 0.001044 809.35846 989.96722
937.0 0.001067 808.85248 986.43909
964.0 0.001037 808.34009 982.48206
981.0 0.001019 807.82147 978.28973
926.0 0.001080 807.29681 974.01611
919.0 0.001088 806.76611 969.76508
924.0 0.001082 806.22968 965.58838
921.0 0.001086 805.68756 961.48602
929.0 0.001076 805.14044 957.41785
926.0 0.001080 804.58765 953.30548
937.0 0.001067 804.02972 949.06122
931.0 0.001074 803.46692 944.59564
942.0 0.001062 802.89948 939.83710
872.0 0.001147 802.32751 934.74548
927.0 0.001079 801.75128 929.31909
898.0 0.001114 801.17120 923.59424
897.0 0.001115 800.58722 917.63794
870.0 0.001149 799.99957 911.53723
871.0 0.001148 799.40863 905.38617
894.0 0.001119 798.81470 899.27484
920.0 0.001087 798.21796 893.28186
913.0 0.001095 797.61877 887.47015
850.0 0.001176 797.01733 881.88605
854.0 0.001171 796.41425 876.56079
856.0 0.001168 795.80933 871.51160
901.0 0.001110 795.20313 866.74597
872.0 0.001147 794.59595 862.26294
871.0 0.001148 793.98822 858.05591
872.0 0.001147 793.38037 854.11597
836.0 0.001196 792.77271 850.42645
811.0 0.001233 792.16528 846.97455
808.0 0.001238 791.55865 843.74475
798.0 0.001253 790.95331 840.72198
836.0 0.001196 790.34961 837.89093
793.0 0.001261 789.74792 835.23657
777.0 0.001287 789.14880 832.74524
886.0 0.001129 788.55261 830.40308
844.0 0.001185 787.96002 828.19812
816.0 0.001225 787.37109 826.11835
812.0 0.001232 786.78638 824.15308
781.0 0.001280 786.20660 822.29285
825.0 0.001212 785.63214 820.52838
861.0 0.001161 785.06348 818.85168
827.0 0.001209 784.50122 817.25574
826.0 0.001211 783.94586 815.73383
865.0 0.001156 783.39807 814.28027
821.0 0.001218 782.85846 812.89044
848.0 0.001179 782.32733 811.55920
805.0 0.001242 781.80548 810.28296
873.0 0.001145 781.29340 809.05829
826.0 0.001211 780.79205 807.88300
849.0 0.001178 780.30170 806.75330
815.0 0.001227 779.82336 805.66779
776.0 0.001289 779.35730 804.62445
829.0 0.001206 778.90448 803.62195
819.0 0.001221 778.46552 802.65875
803.0 0.001245 778.04126 801.73407
800.0 0.001250 777.63239 800.84686
833.0 0.001200 777.23962 799.99652
863.0 0.001159 776.86383 799.18231
799.0 0.001252 776.50598 798.40442
841.0 0.001189 776.16656 797.66187
718.0 0.001393 775.84650 796.95483
809.0 0.001236 775.54675 796.28326
801.0 0.001248 775.26813 795.64709
813.0 0.001230 775.01166 795.04645
812.0 0.001232 774.77808 794.48175
779.0 0.001284 774.56842 793.95294
789.0 0.001267 774.38361 793.46051
835.0 0.001198 774.22467 793.00494
831.0 0.001203 774.09259 792.58679
822.0 0.001217 773.98834 792.20618
776.0 0.001289 773.91296 791.86389
768.0 0.001302 773.86761 791.56067
794.0 0.001259 773.85339 791.29718
844.0 0.001185 773.87122 791.07385
789.0 0.001267 773.92249 790.89172
810.0 0.001235 774.00812 790.75159
865.0 0.001156 774.12939 790.65424
784.0 0.001276 774.28766 790.60077
847.0 0.001181 774.48389 790.59198
843.0 0.001186 774.71960 790.62897
772.0 0.001295 774.99585 790.71246
811.0 0.001233 775.31396 790.84369
806.0 0.001241 775.67542 791.02399
793.0 0.001261 776.08154 791.25427
830.0 0.001205 776.53369 791.53589
843.0 0.001186 777.03326 791.86981
834.0 0.001199 777.58167 792.25763
833.0 0.001200 778.18054 792.70038
798.0 0.001253 778.83118 793.19952
786.0 0.001272 779.53467 793.75586
781.0 0.001280 780.29352 794.37189
775.0 0.001290 781.10901 795.04852
786.0 0.001272 781.98260 795.78717
802.0 0.001247 782.91595 796.58942
783.0 0.001277 783.91077 797.45679
856.0 0.001168 784.96838 798.39050
822.0 0.001217 786.09131 799.39313
772.0 0.001295 787.28088 800.46576
836.0 0.001196 788.53900 801.61023
806.0 0.001241 789.86737 802.82800
784.0 0.001276 791.26801 804.12128
811.0 0.001233 792.74280 805.49164
764.0 0.001309 794.29364 806.94092
791.0 0.001264 795.92194 808.47064
819.0 0.001221 797.63086 810.08374
819.0 0.001221 799.42188 811.78143
827.0 0.001209 801.29706 813.56616
792.0 0.001263 803.25861 815.43976
834.0 0.001199 805.30865 817.40442
839.0 0.001192 807.44775 819.46045
798.0 0.001253 809.68127 821.61334
836.0 0.001196 812.01007 823.86395
815.0 0.001227 814.43640 826.21417
800.0 0.001250 816.96265 828.66656
772.0 0.001295 819.59113 831.22351
777.0 0.001287 822.32428 833.88721
812.0 0.001232 825.16473 836.66028
807.0 0.001239 828.11487 839.54504
872.0 0.001147 831.17615 842.54303
807.0 0.001239 834.35345 845.65900
836.0 0.001196 837.64838 848.89453
799.0 . . .
loop_
_refln_index_h
_refln_index_k
_refln_index_l
_pd_refln_wavelength_id
_refln_observed_status
_refln_F_squared_meas
_refln_F_squared_calc
_refln_phase_calc
_refln_d_spacing
_gsas_i100_meas
1 1 1 1 o 44534.81 44436.12 -56.29 3.55188 100.00
1 1 1 2 o 44232.90 44436.12 -56.29 3.55188 49.41
2 0 0 1 o 3007.763 3111.162 180.00 3.07602 4.86
2 0 0 2 o 2986.420 3111.162 180.00 3.07602 2.40
2 2 0 1 o 58188.06 57877.39 0.00 2.17507 73.20
2 2 0 2 o 59803.10 57877.39 0.00 2.17507 37.46
3 1 1 1 o 25107.885 24859.961 56.69 1.85491 46.98
3 1 1 2 o 25388.994 24859.961 56.69 1.85491 23.64
2 2 2 1 o 2651.919 1951.735 -180.00 1.77594 1.89
2 2 2 2 o 2723.011 1951.735 -180.00 1.77594 0.96
4 0 0 1 o 33412.328 35602.88 0.00 1.53801 10.83
4 0 0 2 o 33497.809 35602.88 0.00 1.53801 5.40
3 3 1 1 o 16042.529 15868.458 -57.53 1.41137 18.21
3 3 1 2 o 15973.955 15868.458 -57.53 1.41137 9.03
4 2 0 1 o 1599.740 1440.889 180.00 1.37564 2.28
4 2 0 2 o 1560.357 1440.889 180.00 1.37564 1.11
4 2 2 1 o 23458.277 23374.965 0.00 1.25578 21.65
4 2 2 2 o 22729.424 23374.965 0.00 1.25578 10.44
3 3 3 1 o 10869.765 10649.703 58.34 1.18396 3.14
3 3 3 2 o 10629.524 10649.703 58.34 1.18396 1.53
5 1 1 1 o 10867.464 10649.700 -58.34 1.18396 9.41
5 1 1 2 o 10610.411 10649.700 -58.34 1.18396 4.58
4 4 0 1 o 16147.128 15916.432 0.00 1.08754 6.20
4 4 0 2 o 15576.801 15916.432 0.00 1.08754 2.98
5 3 1 1 o 7611.368 7374.199 59.05 1.03988 11.51
5 3 1 2 o 7289.254 7374.199 59.05 1.03988 5.50
4 4 2 1 o 765.189 840.789 180.00 1.02534 0.81
4 4 2 2 o 764.016 840.789 180.00 1.02534 0.40
6 0 0 1 o 763.829 840.789 180.00 1.02534 0.20
6 0 0 2 o 761.661 840.789 180.00 1.02534 0.10
