#------------------------------------------------------------------------------
#$Date: 2021-04-17 02:16:09 +0300 (Sat, 17 Apr 2021) $
#$Revision: 264258 $
#$URL: file:///home/coder/svn-repositories/cod/cif/1/56/18/1561874.cif $
#------------------------------------------------------------------------------
#
# This file is available in the Crystallography Open Database (COD),
# http://www.crystallography.net/
#
# All data on this site have been placed in the public domain by the
# contributors.
#
data_1561874
loop_
_publ_author_name
'John, Athira T.'
'Narayanasamy, Akshaya'
'George, Deepu'
'Hariharan, Mahesh'
_publ_section_title
;
 Atom-Efficient Halogen--Halogen Interactions Assist One-, Two-, and
 Three-Dimensional Molecular Zippers
;
_journal_name_full               'The Journal of Physical Chemistry C'
_journal_paper_doi               10.1021/acs.jpcc.1c01724
_journal_year                    2021
_chemical_formula_moiety         'C13 H9 Br2 N O S'
_chemical_formula_sum            'C13 H9 Br2 N O S'
_chemical_formula_weight         387.09
_chemical_name_systematic        NTB2
_space_group_crystal_system      triclinic
_space_group_IT_number           2
_space_group_name_Hall           '-P 1'
_space_group_name_H-M_alt        'P -1'
_atom_sites_solution_hydrogens   geom
_audit_creation_method           SHELXL-2018/3
_cell_angle_alpha                104.639(13)
_cell_angle_beta                 91.864(13)
_cell_angle_gamma                95.118(14)
_cell_formula_units_Z            2
_cell_length_a                   4.0327(18)
_cell_length_b                   9.774(5)
_cell_length_c                   16.841(8)
_cell_measurement_reflns_used    1643
_cell_measurement_temperature    296(2)
_cell_measurement_theta_max      17.72
_cell_measurement_theta_min      2.20
_cell_volume                     638.6(5)
_computing_cell_refinement       'APEX3/SAINT (Bruker, 2016)'
_computing_data_collection       'APEX3 (Bruker, 2016)'
_computing_data_reduction        'SAINT/XPREP (Bruker, 2016)'
_computing_molecular_graphics    'ORTEP3- 2014.1(Farrugia, 1997) '
_computing_publication_material  'SHELXL-2018/3 (Sheldrick, 2018)'
_computing_structure_refinement  'SHELXL-2018/3 (Sheldrick, 2018)'
_computing_structure_solution    'SHELXT 2018/2 (Sheldrick, 2018)'
_diffrn_ambient_temperature      296(2)
_diffrn_detector_area_resol_mean 0
_diffrn_measured_fraction_theta_full 0.999
_diffrn_measured_fraction_theta_max 0.999
_diffrn_measurement_device_type  'Bruker KAPPA APEX-II CCD'
_diffrn_measurement_method       '\f and \w scans'
_diffrn_radiation_type           MoK\a
_diffrn_radiation_wavelength     0.71073
_diffrn_reflns_av_R_equivalents  0.1342
_diffrn_reflns_av_unetI/netI     0.0970
_diffrn_reflns_Laue_measured_fraction_full 0.999
_diffrn_reflns_Laue_measured_fraction_max 0.999
_diffrn_reflns_limit_h_max       4
_diffrn_reflns_limit_h_min       -4
_diffrn_reflns_limit_k_max       11
_diffrn_reflns_limit_k_min       -11
_diffrn_reflns_limit_l_max       20
_diffrn_reflns_limit_l_min       -20
_diffrn_reflns_number            16425
_diffrn_reflns_point_group_measured_fraction_full 0.999
_diffrn_reflns_point_group_measured_fraction_max 0.999
_diffrn_reflns_theta_full        24.986
_diffrn_reflns_theta_max         24.986
_diffrn_reflns_theta_min         2.165
_diffrn_source                   'sealed tube'
_exptl_absorpt_coefficient_mu    6.495
_exptl_absorpt_correction_T_max  0.805
_exptl_absorpt_correction_T_min  0.463
_exptl_absorpt_correction_type   multi-scan
_exptl_absorpt_process_details   'SADABS (Bruker, 2016)'
_exptl_crystal_colour            colourless
_exptl_crystal_density_diffrn    2.013
_exptl_crystal_density_meas      2.014
_exptl_crystal_density_method    none
_exptl_crystal_description       needle
_exptl_crystal_F_000             376
_exptl_crystal_size_max          0.140
_exptl_crystal_size_mid          0.045
_exptl_crystal_size_min          0.035
_refine_diff_density_max         0.490
_refine_diff_density_min         -0.692
_refine_diff_density_rms         0.116
_refine_ls_extinction_method     none
_refine_ls_goodness_of_fit_ref   1.016
_refine_ls_hydrogen_treatment    constr
_refine_ls_matrix_type           full
_refine_ls_number_parameters     163
_refine_ls_number_reflns         2253
_refine_ls_number_restraints     74
_refine_ls_restrained_S_all      1.012
_refine_ls_R_factor_all          0.1265
_refine_ls_R_factor_gt           0.0515
_refine_ls_shift/su_max          0.000
_refine_ls_shift/su_mean         0.000
_refine_ls_structure_factor_coef Fsqd
_refine_ls_weighting_details
'w=1/[\s^2^(Fo^2^)+(0.0443P)^2^+1.9942P] where P=(Fo^2^+2Fc^2^)/3'
_refine_ls_weighting_scheme      calc
_refine_ls_wR_factor_gt          0.1125
_refine_ls_wR_factor_ref         0.1477
_reflns_Friedel_coverage         0.000
_reflns_number_gt                1222
_reflns_number_total             2253
_reflns_threshold_expression     'I > 2\s(I)'
_cod_data_source_file            jp1c01724_si_002.cif
_cod_data_source_block           NTB2
_cod_database_code               1561874
_shelx_shelxl_version_number     2018/3
_shelx_space_group_comment
;
The symmetry employed for this shelxl refinement is uniquely defined
by the following loop, which should always be used as a source of
symmetry information in preference to the above space-group names.
They are only intended as comments.
;
_shelx_estimated_absorpt_t_min   0.463
_shelx_estimated_absorpt_t_max   0.805
_shelx_res_file
;
TITL shelxt_a.res in P-1
    shelx.res
    created by SHELXL-2018/3 at 17:15:36 on 18-Nov-2020
CELL  0.71073   4.0327   9.7741  16.8408  104.639   91.864   95.118
ZERR     2.00   0.0018   0.0049   0.0083    0.013    0.013    0.014
LATT   1
SFAC  C    H    N    O    S    BR
UNIT  26 18 2 2 2 4
MERG   2
OMIT    -3.00  50.00
OMIT     0   0   1
OMIT     0   0   3
DFIX 1.50 0.020 C11 C12
HTAB C11 Br1
EQIV $1 x, y-1, z
HTAB C12 N1_$1
HTAB C11 Br1
HTAB C12 N1_$1
SIMU 0.02 0.04 C1 > C12
DELU 0.01 0.01 C11 C12
FMAP   2
PLAN   20
SIZE     0.035   0.045   0.140
ACTA
BOND
CONF
L.S.  10
TEMP    23.00
WGHT    0.044300    1.994200
FVAR       0.15678
C1    1    0.738786    0.234550    0.660930    11.00000    0.04722    0.04539 =
         0.04376    0.00844   -0.00490    0.01160
C2    1    0.760265    0.146432    0.581853    11.00000    0.06728    0.04445 =
         0.04539    0.00180   -0.00782    0.00949
AFIX  43
H2    2    0.672033    0.051765    0.569261    11.00000   -1.20000
AFIX   0
C3    1    0.910565    0.200113    0.523807    11.00000    0.07395    0.06536 =
         0.04378    0.00405    0.00192    0.02063
AFIX  43
H3    2    0.918304    0.141343    0.471148    11.00000   -1.20000
AFIX   0
C4    1    1.052870    0.339273    0.540151    11.00000    0.07791    0.07863 =
         0.03937    0.01986    0.01970    0.02169
AFIX  43
H4    2    1.155697    0.372284    0.498973    11.00000   -1.20000
AFIX   0
C5    1    1.042090    0.428323    0.617046    11.00000    0.06748    0.06002 =
         0.04338    0.01426    0.00428    0.00739
AFIX  43
H5    2    1.139074    0.521673    0.628646    11.00000   -1.20000
AFIX   0
C6    1    0.883449    0.377029    0.677810    11.00000    0.05253    0.05376 =
         0.03976    0.01312   -0.00372    0.01436
C7    1    0.863352    0.465139    0.759103    11.00000    0.04969    0.05128 =
         0.03375    0.01330    0.00195    0.01075
C8    1    0.706824    0.409746    0.817526    11.00000    0.04422    0.04210 =
         0.03478    0.00390   -0.00565    0.00071
C9    1    0.566140    0.268696    0.800003    11.00000    0.04604    0.05811 =
         0.03473    0.01936   -0.00451   -0.00032
C10   1    0.580452    0.180640    0.722994    11.00000    0.04088    0.04655 =
         0.04741    0.01007   -0.00662    0.00544
C11   1    0.641400   -0.054880    0.723229    11.00000    0.08377    0.06271 =
         0.09689    0.01132   -0.02460    0.02219
AFIX  23
H11A  2    0.868491   -0.033489    0.709404    11.00000   -1.20000
H11B  2    0.642348   -0.045747    0.781947    11.00000   -1.20000
AFIX   0
C12   1    0.523089   -0.196639    0.680138    11.00000    0.21638    0.13325 =
         0.16887    0.00719   -0.02243   -0.02786
AFIX  33
H12A  2    0.664681   -0.261317    0.694863    11.00000   -1.50000
H12B  2    0.299498   -0.218232    0.694454    11.00000   -1.50000
H12C  2    0.525279   -0.205994    0.622028    11.00000   -1.50000
AFIX   0
C13   1    0.932699    0.655320    0.861798    11.00000    0.05889    0.05089 =
         0.04472    0.00764   -0.00542    0.01035
N1    3    0.991284    0.606884    0.785978    11.00000    0.06206    0.04622 =
         0.03861    0.01255   -0.00300    0.00292
O1    4    0.434827    0.044075    0.702468    11.00000    0.06084    0.04690 =
         0.05558    0.00614   -0.01170    0.00127
S1    5    0.718559    0.538115    0.909798    11.00000    0.06373    0.05601 =
         0.03591    0.00857    0.00144    0.00333
BR1   6    0.356929    0.203593    0.884239    11.00000    0.06760    0.06502 =
         0.05200    0.01885    0.00380   -0.00233
BR2   6    1.066903    0.839662    0.921162    11.00000    0.08558    0.05353 =
         0.06012    0.00217   -0.00174   -0.00471
HKLF    4




REM  shelxt_a.res in P-1
REM wR2 = 0.1477, GooF = S = 1.016, Restrained GooF = 1.012 for all data
REM R1 = 0.0515 for 1222 Fo > 4sig(Fo) and 0.1265 for all 2253 data
REM 163 parameters refined using 74 restraints

END

WGHT      0.0441      2.0221

REM Highest difference peak  0.490,  deepest hole -0.692,  1-sigma level  0.116
Q1    1   0.9867  0.9196  0.8803  11.00000  0.05    0.49
Q2    1   1.2840  0.8461  0.8920  11.00000  0.05    0.48
Q3    1   1.2346  0.8915  0.8993  11.00000  0.05    0.45
Q4    1   0.0889  0.2434  0.8173  11.00000  0.05    0.43
Q5    1   0.4775  0.3059  0.8942  11.00000  0.05    0.43
Q6    1   0.3061  0.0687  0.8467  11.00000  0.05    0.42
Q7    1   1.1004  0.7573  0.9496  11.00000  0.05    0.41
Q8    1   1.1414  0.9862  0.9658  11.00000  0.05    0.40
Q9    1   0.3621  0.3255  0.8276  11.00000  0.05    0.40
Q10   1   1.1831  0.9650  0.9218  11.00000  0.05    0.39
Q11   1   0.8343  0.6432  0.9160  11.00000  0.05    0.38
Q12   1   0.8647  0.6141  0.9050  11.00000  0.05    0.36
Q13   1   0.7583  0.8386  0.9107  11.00000  0.05    0.36
Q14   1   1.3699  1.0138  0.9296  11.00000  0.05    0.36
Q15   1   1.2065  0.8848  1.0102  11.00000  0.05    0.36
Q16   1   1.0997  0.5277  0.7905  11.00000  0.05    0.35
Q17   1   1.0081  0.3410  0.7116  11.00000  0.05    0.35
Q18   1   0.5429  0.2473  0.6615  11.00000  0.05    0.34
Q19   1   1.1811  0.3787  0.5794  11.00000  0.05    0.34
Q20   1   0.7069  0.3392  0.9464  11.00000  0.05    0.34
;
_shelx_res_checksum              9886
_shelx_hkl_file
;
  -1   0   0   14.00    2.28
  -1   0   0   15.83    2.29
  -1   0   0   17.28    2.13
  -1   0   0   17.25    2.23
  -1   0   0   15.97    2.13
   1   0   0   15.48    2.24
   1   0   0   16.12    2.09
   1   0   0   15.21    2.23
   1   0   0   17.09    2.14
   1   0   0   16.91    2.29
  -2   0   0    3.97    1.35
  -2   0   0    5.18    1.76
  -2   0   0    5.78    1.64
  -2   0   0    7.02    1.70
  -2   0   0    6.61    1.55
   2   0   0    7.27    1.52
  -3   0   0   21.04    3.91
  -3   0   0   20.33    4.06
  -3   0   0   34.57    4.78
  -3   0   0   29.26    3.94
   3   0   0   17.20    3.60
  -4   0   0    2.61    2.49
  -4   0   0    2.89    2.95
   4   0   0    0.84    2.02
   4   0   0    3.08    2.07
   4   0   0    1.23    2.29
  -5   0   0    1.82    3.22
   5   0   0    0.92    3.37
   5   0   0    4.50    2.70
   5  -1   0    0.20    2.58
   5  -1   0    1.75    2.95
   5  -1   0   -0.15    3.06
   4  -1   0    1.49    2.04
   4  -1   0    0.47    2.02
   4  -1   0    1.50    2.25
  -4   1   0    1.14    2.22
  -4   1   0    6.45    2.67
   3  -1   0   -0.91    1.33
   3  -1   0   -0.49    1.44
  -3   1   0    0.46    1.62
  -3   1   0    0.68    1.55
  -3   1   0    1.42    1.97
  -3   1   0   -0.39    1.35
  -3   1   0    1.73    1.83
   2  -1   0   29.73    3.83
  -2   1   0   29.47    3.90
  -2   1   0   23.33    4.00
  -2   1   0   34.00    4.34
  -2   1   0   25.32    3.91
  -2   1   0   30.39    4.20
   1  -1   0   22.91    2.73
   1  -1   0   21.02    2.69
   1  -1   0   17.86    2.46
   1  -1   0   24.99    2.56
   1  -1   0   18.35    2.53
   1  -1   0   21.71    2.77
   1  -1   0   20.64    2.66
   1  -1   0   26.23    2.72
   1  -1   0   22.68    2.82
  -1   1   0   18.99    2.65
  -1   1   0   23.67    2.54
  -1   1   0   22.54    2.80
  -1   1   0   19.69    2.67
  -1   1   0   21.04    2.73
   0  -1   0    1.82    0.46
   0  -1   0    3.06    0.43
   0  -1   0    1.37    0.34
   0   1   0    1.52    0.30
   0   1   0    2.46    0.38
   0   1   0    1.98    0.37
  -1  -1   0   21.37    2.86
  -1  -1   0   24.95    3.12
  -1  -1   0   25.07    3.09
  -1  -1   0   22.09    3.10
   1   1   0   23.39    2.84
   1   1   0   21.43    3.02
   1   1   0   24.82    3.07
   1   1   0   24.17    2.91
   1   1   0   21.97    2.89
   1   1   0   24.39    3.03
   1   1   0   26.03    2.89
   1   1   0   24.75    2.86
  -2  -1   0  108.17   12.37
  -2  -1   0  110.55   12.91
  -2  -1   0  106.36   12.89
  -2  -1   0   96.54   12.38
  -2  -1   0  120.94   13.03
   2   1   0   94.83   12.37
   2   1   0  113.48   12.46
   2   1   0  101.53   12.38
   2   1   0  113.53   12.76
   2   1   0  105.67   12.44
   2   1   0  124.33   12.69
  -3  -1   0   -1.68    1.75
  -3  -1   0   -0.63    1.80
  -3  -1   0   -2.62    1.97
   3   1   0    1.07    1.20
   3   1   0    0.28    0.62
   3   1   0   -2.16    1.57
   3   1   0    1.31    0.81
  -4  -1   0   -3.62    2.31
  -4  -1   0    6.03    2.81
  -4  -1   0    1.10    2.68
   4   1   0    1.35    2.42
   4   1   0    0.64    1.59
  -5  -1   0    3.64    4.07
  -5  -1   0    5.65    3.63
   5   1   0   -1.86    2.51
   5   1   0    9.17    3.90
   5  -2   0   -0.88    2.95
   5  -2   0    3.11    3.02
   5  -2   0   -0.89    2.72
   4  -2   0    2.92    2.18
   4  -2   0   -0.26    1.95
   4  -2   0   -1.20    2.20
  -4   2   0    2.68    2.23
  -4   2   0    0.71    2.17
   3  -2   0   10.79    2.06
   3  -2   0    7.91    1.27
   3  -2   0    7.58    2.12
  -3   2   0   11.75    2.53
  -3   2   0    9.90    2.33
   2  -2   0   84.71    9.57
   2  -2   0   68.10    9.96
   2  -2   0   94.86    9.93
   2  -2   0   81.83    9.52
   2  -2   0   86.25    9.52
   2  -2   0   65.72    9.56
  -2   2   0   94.81    9.98
  -2   2   0   85.31    9.87
  -2   2   0   85.96    9.52
  -2   2   0   75.59    9.48
   1  -2   0   -1.22    0.41
   1  -2   0   -0.45    0.55
   1  -2   0    0.16    0.55
   1  -2   0    0.07    0.48
   1  -2   0    0.03    0.42
   1  -2   0    0.08    0.45
   1  -2   0    0.47    0.64
  -1   2   0    0.70    0.60
  -1   2   0    0.33    0.65
  -1   2   0   -0.34    0.47
  -1   2   0   -0.39    0.30
  -1   2   0    0.08    0.38
  -1   2   0    0.26    0.59
  -1   2   0   -0.59    0.29
   0  -2   0   71.63    8.65
   0  -2   0   76.02    8.49
   0  -2   0   71.75    8.38
   0  -2   0   72.49    8.51
   0  -2   0   72.60    8.46
   0  -2   0   63.73    8.44
   0   2   0   83.40    8.49
   0   2   0   65.47    8.56
   0   2   0   69.96    8.37
   0   2   0   74.65    8.47
   0   2   0   72.67    8.45
   0   2   0   68.29    8.37
  -1  -2   0    4.53    1.06
  -1  -2   0    5.30    1.22
  -1  -2   0    3.92    0.81
  -1  -2   0    1.79    0.72
  -1  -2   0    4.14    0.89
  -1  -2   0    7.01    1.30
  -1  -2   0    3.38    0.90
   1   2   0    3.97    1.02
   1   2   0    3.48    0.93
   1   2   0    4.02    0.98
   1   2   0    2.62    0.54
   1   2   0    3.95    0.91
   1   2   0    2.89    0.72
   1   2   0    5.00    0.81
   1   2   0    4.16    1.02
   1   2   0    5.66    0.93
  -2  -2   0   34.64    4.19
  -2  -2   0   24.02    3.78
  -2  -2   0   28.94    4.03
   2   2   0   25.22    3.13
   2   2   0   24.31    3.07
   2   2   0   22.18    2.96
   2   2   0   21.13    2.96
   2   2   0   23.32    3.19
   2   2   0   20.04    2.95
   2   2   0   26.74    3.59
  -3  -2   0   -0.85    0.49
  -3  -2   0   -2.00    1.81
  -3  -2   0   -0.35    2.09
  -3  -2   0    0.09    2.12
   3   2   0   -0.65    1.83
   3   2   0   -0.06    0.75
   3   2   0    0.26    0.63
   3   2   0    2.57    1.09
   3   2   0    0.56    0.99
  -4  -2   0    4.92    3.36
  -4  -2   0   11.81    3.87
  -4  -2   0    9.08    3.73
   4   2   0    5.37    1.92
   4   2   0   -0.50    2.56
  -5  -2   0   -6.65    3.24
  -5  -2   0   -0.42    3.64
   5   2   0    1.78    3.58
   5  -3   0    2.75    2.90
   5  -3   0    1.45    3.11
  -5   3   0    2.14    3.02
  -5   3   0    5.46    3.25
   4  -3   0   -0.12    1.87
   4  -3   0   -1.26    2.07
  -4   3   0    2.16    2.34
  -4   3   0   -3.26    1.82
   3  -3   0    9.80    2.37
   3  -3   0    9.06    1.63
   3  -3   0    8.98    1.72
   3  -3   0    7.41    1.44
   3  -3   0   10.25    1.47
   3  -3   0    7.45    1.92
  -3   3   0   11.86    2.61
  -3   3   0   10.74    2.40
   2  -3   0    2.32    1.28
   2  -3   0    0.03    0.84
   2  -3   0    1.42    0.83
   2  -3   0    0.77    0.89
   2  -3   0    2.97    0.91
   2  -3   0    1.81    1.24
   2  -3   0    3.26    0.89
  -2   3   0    2.51    1.22
  -2   3   0    3.17    1.40
   1  -3   0    4.38    1.20
   1  -3   0    5.12    1.17
   1  -3   0    4.99    1.24
   1  -3   0    5.28    1.36
   1  -3   0    5.39    1.08
   1  -3   0    5.91    1.17
   1  -3   0    5.79    0.99
  -1   3   0    7.62    1.42
  -1   3   0    6.36    1.04
  -1   3   0    3.71    1.07
  -1   3   0    6.90    1.36
  -1   3   0    5.64    1.08
  -1   3   0    8.42    1.36
  -1   3   0    6.28    1.27
   0  -3   0  224.48   28.72
   0  -3   0  252.59   28.61
   0  -3   0  253.96   28.74
   0  -3   0  258.17   28.77
   0  -3   0  203.24   28.91
   0   3   0  243.41   28.70
   0   3   0  280.56   28.77
   0   3   0  243.78   28.89
   0   3   0  252.29   28.73
   0   3   0  252.21   28.61
   0   3   0  255.33   28.61
   0   3   0  233.59   28.66
  -1  -3   0    1.08    1.01
  -1  -3   0   -0.11    0.82
  -1  -3   0    1.43    1.12
  -1  -3   0    0.26    0.93
  -1  -3   0    0.06    0.85
   1   3   0    0.49    0.72
   1   3   0    0.29    0.60
   1   3   0    1.44    0.82
   1   3   0    1.98    0.71
   1   3   0   -0.25    0.59
   1   3   0   -0.85    0.85
  -2  -3   0    3.11    1.56
  -2  -3   0    0.45    0.52
  -2  -3   0   -0.24    1.39
  -2  -3   0   -0.22    0.55
  -2  -3   0    1.11    1.48
  -2  -3   0   -0.14    0.83
   2   3   0    0.27    0.47
   2   3   0   -0.23    0.66
   2   3   0    0.16    0.73
   2   3   0    0.61    0.75
   2   3   0    2.57    1.45
   2   3   0   -0.51    0.82
  -3  -3   0    6.73    2.72
  -3  -3   0    2.27    2.42
  -3  -3   0    3.64    2.57
   3   3   0    5.42    1.56
   3   3   0    1.34    0.90
   3   3   0    3.74    1.33
   3   3   0    3.50    1.12
   3   3   0    6.49    2.49
  -4  -3   0    2.04    2.98
  -4  -3   0    4.67    3.84
  -4  -3   0   -4.87    2.76
   4   3   0    0.59    0.78
   4   3   0    1.98    2.80
  -5  -3   0    7.00    4.32
  -5  -3   0   -7.59    3.75
   5   3   0   -3.76    3.49
   5  -4   0   -3.14    2.95
   5  -4   0    1.10    3.23
  -5   4   0    5.09    3.28
  -5   4   0   -2.53    2.99
   4  -4   0   -2.01    2.25
   4  -4   0    1.38    2.08
  -4   4   0   -1.27    2.04
  -4   4   0    0.48    2.34
   3  -4   0    2.14    1.28
   3  -4   0    6.04    1.48
   3  -4   0    2.99    1.49
   3  -4   0    2.69    1.96
   3  -4   0    6.02    1.31
  -3   4   0    2.13    1.61
  -3   4   0    8.21    2.34
   2  -4   0    4.12    1.37
   2  -4   0    5.31    1.10
   2  -4   0    8.15    1.60
   2  -4   0    6.44    1.62
   2  -4   0    6.75    1.59
   2  -4   0    8.17    1.78
   2  -4   0    5.62    1.02
  -2   4   0    5.65    1.18
  -2   4   0    9.26    1.99
  -2   4   0    6.02    1.69
  -2   4   0    6.24    1.00
  -2   4   0    4.73    0.96
   1  -4   0   58.42    9.17
   1  -4   0   77.16    9.16
   1  -4   0   66.93    9.10
   1  -4   0   77.00    9.13
   1  -4   0   70.25    8.78
  -1   4   0   79.53    9.10
  -1   4   0   81.78    9.16
  -1   4   0   89.63    9.09
  -1   4   0   81.07    9.19
  -1   4   0   74.41    8.97
   0  -4   0    3.14    1.20
   0  -4   0    2.00    1.20
   0  -4   0    1.94    0.86
   0  -4   0    4.47    1.23
   0  -4   0    3.61    1.52
   0   4   0    1.93    0.83
   0   4   0    4.35    1.14
   0   4   0    4.30    1.01
   0   4   0    3.20    0.85
   0   4   0    2.22    0.96
   0   4   0    3.57    0.98
  -1  -4   0   56.02    6.94
  -1  -4   0   50.34    6.85
  -1  -4   0   41.32    6.94
  -1  -4   0   58.60    6.87
  -1  -4   0   57.65    6.89
  -1  -4   0   63.78    7.19
   1   4   0   47.23    6.74
   1   4   0   64.30    6.88
   1   4   0   49.50    6.73
   1   4   0   61.15    6.81
  -2  -4   0   90.84   10.76
  -2  -4   0   85.82   10.72
  -2  -4   0   91.75   10.18
  -2  -4   0   74.20   10.26
  -2  -4   0   93.32   10.89
  -2  -4   0   77.26   10.32
   2   4   0   88.00   10.38
   2   4   0   88.71   10.38
   2   4   0   74.07   10.40
   2   4   0   86.25   10.27
   2   4   0   86.12   10.11
  -3  -4   0    7.92    3.32
  -3  -4   0    0.75    2.27
  -3  -4   0    4.48    2.76
   3   4   0    0.70    1.59
   3   4   0    0.23    0.96
   3   4   0    2.09    2.28
  -4  -4   0    8.29    3.89
  -4  -4   0   -4.41    2.96
  -4  -4   0    0.65    4.01
   4   4   0   -0.62    1.02
   4   4   0    1.73    2.86
   5  -5   0    2.97    3.97
   5  -5   0    3.01    3.42
  -5   5   0    2.68    3.10
  -5   5   0    3.56    3.16
   4  -5   0    1.92    2.56
   4  -5   0   -0.21    1.11
  -4   5   0    2.37    2.44
  -4   5   0   -0.47    2.51
   3  -5   0    9.08    2.82
   3  -5   0    8.10    2.30
   3  -5   0    9.52    2.05
   3  -5   0   12.44    1.83
  -3   5   0   13.38    2.98
  -3   5   0    8.22    2.53
   2  -5   0   -1.21    1.21
   2  -5   0    4.35    1.20
   2  -5   0    1.25    1.69
   2  -5   0   -1.07    1.24
   2  -5   0    2.56    1.31
  -2   5   0    0.29    0.88
  -2   5   0    3.93    1.65
  -2   5   0    1.42    1.03
  -2   5   0    1.36    1.01
  -2   5   0    3.04    1.52
   1  -5   0    8.64    2.21
   1  -5   0   13.37    1.68
   1  -5   0    9.60    2.25
   1  -5   0    9.74    2.51
   1  -5   0   12.99    2.49
  -1   5   0   18.46    2.41
  -1   5   0   16.63    2.33
  -1   5   0   18.00    2.53
   0  -5   0   66.73   10.91
   0  -5   0   88.54   10.70
   0  -5   0   89.55   10.35
   0  -5   0   67.79   10.58
   0   5   0   87.69   10.45
   0   5   0   93.72   10.56
   0   5   0   91.82   10.37
   0   5   0  103.31   10.65
  -1  -5   0   24.32    4.11
  -1  -5   0   26.27    4.10
  -1  -5   0   24.99    3.59
  -1  -5   0   18.49    3.44
  -1  -5   0   16.44    2.70
  -1  -5   0   21.14    3.42
   1   5   0   25.49    3.41
   1   5   0   26.88    3.47
   1   5   0   25.12    3.32
  -2  -5   0   -0.81    1.38
  -2  -5   0    1.46    2.06
  -2  -5   0   -0.60    1.66
  -2  -5   0    1.14    2.21
  -2  -5   0   -1.20    1.39
  -2  -5   0   -0.11    1.93
   2   5   0   -0.04    1.01
   2   5   0   -1.27    1.06
   2   5   0   -0.80    1.14
   2   5   0    1.28    1.69
  -3  -5   0   -2.80    2.61
  -3  -5   0   -1.20    2.56
  -3  -5   0   -1.78    2.77
   3   5   0   -0.69    1.96
   3   5   0   -0.28    1.09
   3   5   0   -1.36    1.52
  -4  -5   0   10.02    4.11
  -4  -5   0    3.22    3.79
  -4  -5   0    2.56    4.19
   4   5   0    3.02    1.49
   4   5   0    2.02    2.99
   4  -6   0   -0.47    1.48
   4  -6   0   -0.09    2.65
  -4   6   0   -0.86    2.49
  -4   6   0    6.37    2.64
   3  -6   0    3.92    2.02
   3  -6   0    5.64    1.85
   3  -6   0    1.96    2.38
  -3   6   0    4.44    2.49
  -3   6   0    2.32    2.02
   2  -6   0   -1.13    0.99
   2  -6   0   -2.23    1.43
   2  -6   0    0.05    1.37
   2  -6   0   -0.15    1.52
   2  -6   0   -2.42    1.31
  -2   6   0    0.20    1.48
  -2   6   0    0.45    1.60
  -2   6   0    0.64    1.17
  -2   6   0    0.59    1.79
  -2   6   0    1.24    1.22
   1  -6   0   29.03    4.88
   1  -6   0   23.47    4.49
   1  -6   0   31.01    4.64
  -1   6   0   28.22    3.85
  -1   6   0   38.32    4.45
  -1   6   0   33.98    4.35
  -1   6   0   38.33    4.42
   0  -6   0   15.32    4.26
   0  -6   0   26.05    3.49
   0  -6   0   25.88    4.08
   0  -6   0   18.36    3.80
   0   6   0   31.55    3.77
   0   6   0   25.57    3.78
   0   6   0   24.31    3.45
  -1  -6   0   -0.39    1.56
  -1  -6   0    1.02    0.97
  -1  -6   0    0.92    1.67
  -1  -6   0   -0.46    2.14
  -1  -6   0    0.66    2.26
  -1  -6   0   -0.09    1.75
   1   6   0    2.05    1.25
   1   6   0    2.04    1.47
   1   6   0    1.53    1.18
  -2  -6   0   11.32    3.02
  -2  -6   0   17.37    4.02
  -2  -6   0   17.97    4.01
  -2  -6   0   17.04    3.20
  -2  -6   0   10.87    3.60
   2   6   0   18.68    3.00
   2   6   0   10.09    2.90
   2   6   0   16.89    2.89
  -3  -6   0    1.09    3.15
  -3  -6   0    2.42    3.56
  -3  -6   0    3.89    3.30
   3   6   0    0.64    1.35
   3   6   0   -2.72    2.07
  -4  -6   0   -6.05    4.61
  -4  -6   0    4.77    4.07
  -4  -6   0    2.41    4.24
   4   6   0    0.53    1.38
   4   6   0    0.16    3.00
   4  -7   0    2.30    1.98
   4  -7   0    1.22    3.25
  -4   7   0    2.16    2.56
  -4   7   0   -0.53    2.60
   3  -7   0    4.47    2.40
   3  -7   0    2.28    2.35
   3  -7   0    5.07    2.12
  -3   7   0   -0.44    2.00
  -3   7   0    4.33    2.36
   2  -7   0    4.60    2.05
   2  -7   0    1.21    2.13
   2  -7   0    2.56    2.14
  -2   7   0    5.85    2.21
  -2   7   0    5.05    1.77
  -2   7   0    3.20    1.64
  -2   7   0    4.93    2.30
   1  -7   0   31.66    4.73
   1  -7   0   18.33    4.73
   1  -7   0   24.18    4.51
  -1   7   0   34.95    4.39
  -1   7   0   36.34    4.60
  -1   7   0   23.58    3.61
  -1   7   0   37.71    4.53
   0  -7   0   -1.98    1.27
   0  -7   0    1.41    2.49
   0  -7   0   -0.76    2.01
   0  -7   0   -0.24    1.59
   0   7   0   -0.24    1.18
   0   7   0    1.51    1.27
   0   7   0   -0.02    1.19
   0   7   0   -0.30    1.21
  -1  -7   0    2.83    2.17
  -1  -7   0    3.77    1.11
  -1  -7   0    6.69    3.32
  -1  -7   0    1.44    2.97
  -1  -7   0    6.10    2.43
  -1  -7   0    9.04    2.07
  -1  -7   0    0.78    2.30
   1   7   0    4.82    1.78
   1   7   0    2.02    1.60
  -2  -7   0   21.81    5.06
  -2  -7   0   16.16    3.85
  -2  -7   0   21.43    3.86
  -2  -7   0   15.97    4.51
  -2  -7   0   11.88    4.55
   2   7   0   21.00    3.66
   2   7   0   17.44    3.38
  -3  -7   0    3.43    3.60
  -3  -7   0   -1.89    3.28
  -3  -7   0   -0.08    4.31
   3   7   0    0.72    1.67
   3   7   0   -2.33    2.41
  -4  -7   0   -1.64    4.82
  -4  -7   0   -2.83    4.35
  -4  -7   0   -0.29    5.72
   4   7   0   -0.42    1.63
   4   7   0    2.32    3.31
   4  -8   0   -0.87    3.15
   4  -8   0    1.99    2.34
  -4   8   0    2.65    3.25
  -4   8   0    0.47    2.79
   3  -8   0    3.45    2.32
   3  -8   0    7.74    3.36
   3  -8   0    3.43    2.60
  -3   8   0    1.83    2.22
  -3   8   0    3.04    2.83
   2  -8   0   -1.59    2.10
   2  -8   0    0.56    1.97
   2  -8   0    0.18    2.46
  -2   8   0    0.68    1.47
  -2   8   0    0.38    1.85
  -2   8   0    1.17    1.81
  -2   8   0    0.29    2.38
   1  -8   0    2.25    2.12
   1  -8   0    1.98    2.49
   1  -8   0    6.59    2.58
  -1   8   0    7.66    2.08
  -1   8   0    1.46    1.17
  -1   8   0    5.20    2.12
  -1   8   0    3.68    1.70
   0  -8   0    6.08    2.58
   0  -8   0    9.03    2.38
   0  -8   0    9.67    3.67
   0  -8   0   10.00    3.12
   0   8   0   10.40    2.56
   0   8   0    6.68    2.05
   0   8   0   10.06    2.42
   0   8   0   11.76    2.26
  -1  -8   0   32.02    4.75
  -1  -8   0   20.08    4.35
  -1  -8   0   25.82    4.66
  -1  -8   0   18.77    5.03
  -1  -8   0   16.94    5.08
   1   8   0   20.90    3.77
   1   8   0   22.22    4.01
   1   8   0   21.12    3.41
  -2  -8   0   -2.36    3.27
  -2  -8   0   -1.64    2.52
  -2  -8   0   -3.71    3.31
  -2  -8   0   -2.00    2.58
  -2  -8   0    2.95    3.78
   2   8   0   -1.80    1.39
   2   8   0    1.16    2.02
  -3  -8   0   -1.75    4.74
  -3  -8   0    3.04    4.03
  -3  -8   0   -0.68    3.88
   3   8   0   -1.13    2.67
   3   8   0    0.56    1.80
   3   8   0   -1.54    2.54
   4  -9   0   -3.68    2.46
   4  -9   0    8.68    3.88
  -4   9   0   -2.23    3.55
  -4   9   0    0.79    2.95
   3  -9   0    1.16    2.75
   3  -9   0   -0.97    2.69
   3  -9   0    0.09    2.27
  -3   9   0   -2.72    2.67
  -3   9   0   -0.36    2.20
   2  -9   0    2.05    3.13
   2  -9   0    0.65    2.60
   2  -9   0    1.72    2.29
  -2   9   0    0.35    2.87
  -2   9   0    1.69    2.11
  -2   9   0    0.83    2.22
  -2   9   0    5.45    2.07
   1  -9   0    7.26    3.07
   1  -9   0    8.31    3.75
   1  -9   0    3.93    2.64
  -1   9   0    6.27    2.07
  -1   9   0    5.38    2.12
  -1   9   0   11.79    2.93
   0  -9   0    2.29    3.11
   0  -9   0    2.73    2.45
   0  -9   0   -0.40    2.66
   0   9   0    0.52    1.49
   0   9   0   -0.11    1.51
   0   9   0    1.03    1.61
   0   9   0   -0.11    1.90
  -1  -9   0   -0.51    4.18
  -1  -9   0   -6.11    2.78
  -1  -9   0   -2.22    2.32
  -1  -9   0    1.01    3.69
  -1  -9   0    4.15    3.22
   1   9   0    0.96    1.89
   1   9   0   -0.17    1.34
   1   9   0    0.67    1.43
   1   9   0   -0.91    1.77
  -2  -9   0    5.94    4.48
  -2  -9   0   -6.04    3.98
  -2  -9   0    3.11    4.41
  -2  -9   0    4.30    3.60
   2   9   0   -0.56    2.22
   2   9   0   -0.99    1.68
   2   9   0    3.10    2.49
  -3  -9   0   -1.02    4.76
  -3  -9   0    7.35    6.27
  -3  -9   0   -1.43    4.76
   3   9   0    2.48    3.02
   3   9   0    0.72    3.04
   3   9   0   -1.98    1.98
   3 -10   0    6.24    3.19
   3 -10   0    7.93    3.68
   3 -10   0   -3.95    2.90
  -3  10   0    3.22    2.70
  -3  10   0    6.67    3.85
   2 -10   0    3.61    3.49
   2 -10   0    1.72    3.11
   2 -10   0   -2.90    2.24
  -2  10   0    0.92    2.31
  -2  10   0   -0.85    2.52
  -2  10   0   -2.05    3.15
   1 -10   0    2.27    2.36
   1 -10   0    3.33    3.11
   1 -10   0    3.52    3.62
  -1  10   0    0.31    2.48
  -1  10   0    0.85    1.80
  -1  10   0    2.47    1.95
   0 -10   0    2.06    3.08
   0 -10   0    4.22    4.20
   0 -10   0   -0.56    2.16
   0  10   0    1.63    1.82
   0  10   0    1.54    2.57
   0  10   0   -0.11    1.58
  -1 -10   0    1.12    3.81
  -1 -10   0    2.71    4.71
  -1 -10   0    7.77    4.99
  -1 -10   0    5.43    3.03
   1  10   0    1.23    2.30
   1  10   0    7.22    2.77
   1  10   0    1.47    1.69
  -2 -10   0    2.03    5.00
  -2 -10   0    4.33    5.24
  -2 -10   0    4.88    5.58
  -2 -10   0   -0.79    4.01
   2  10   0    6.30    2.89
   2  10   0    1.35    1.98
   2  10   0    0.81    2.67
   3 -11   0   -5.83    2.41
   3 -11   0    6.37    3.81
   3 -11   0    0.53    4.45
  -3  11   0   -2.14    3.81
   2 -11   0   -2.63    3.14
   2 -11   0   -1.06    2.40
   2 -11   0    2.29    3.29
  -2  11   0   -0.62    3.64
  -2  11   0   -0.09    3.06
  -2  11   0   -1.22    2.07
   1 -11   0    0.99    3.51
   1 -11   0    0.36    3.96
   1 -11   0    1.65    2.53
  -1  11   0    0.62    2.24
  -1  11   0   -0.67    1.66
  -1  11   0   -0.48    3.14
   0 -11   0   -1.44    3.56
   0 -11   0    3.18    4.71
   0 -11   0    0.03    2.65
   0 -11   0   -0.74    3.39
   0  11   0   -0.27    2.94
   0  11   0    0.25    1.87
  -1 -11   0   -3.97    5.11
  -1 -11   0    3.81    3.44
  -1 -11   0   -6.82    3.96
  -1 -11   0   -3.46    4.12
   1  11   0    1.30    2.00
   1  11   0    9.37    3.11
  -2 -11   0    1.88    6.09
  -2 -11   0   -7.23    5.30
  -2 -11   0    5.48    5.24
   2  11   0    0.52    2.09
   2  11   0    2.30    2.94
   2  11   0   -0.69    2.93
   2 -12   0    4.43    4.33
   2 -12   0    4.20    4.02
   2 -12   0   -0.47    2.71
   2 -12   0   -1.61    3.54
  -2  12   0   -3.70    3.65
  -2  12   0   -0.88    3.49
   1 -12   0    7.38    4.05
   1 -12   0   -1.18    2.46
   1 -12   0   -7.35    3.21
  -1  12   0    1.05    2.77
  -1  12   0   -0.36    3.64
  -1  12   0    1.64    1.96
  -1  12   0    5.25    3.90
   0 -12   0   -7.01    4.20
   0 -12   0    3.37    4.06
   0 -12   0   -0.71    5.23
   0 -12   0   -0.05    3.02
   0  12   0    1.27    2.06
   0  12   0    2.24    3.57
  -1 -12   0   -0.95    3.00
  -1 -12   0   -5.61    5.33
  -1 -12   0    0.87    6.02
  -1 -12   0    5.06    4.79
   1  12   0    0.86    2.23
   1  12   0    1.67    3.34
   1  12  -1    1.10    2.05
   1  12  -1    6.44    3.52
  -1 -12   1    1.23    3.06
  -1 -12   1    4.11    5.78
  -1 -12   1    0.78    4.64
  -1 -12   1    4.55    6.14
   0  12  -1    2.30    2.13
   0  12  -1    2.49    3.44
   0 -12   1    6.68    5.18
   0 -12   1   -8.51    4.65
   0 -12   1   -1.09    2.70
   0 -12   1    2.35    4.02
  -1  12  -1    0.01    2.46
  -1  12  -1    0.24    3.56
  -1  12  -1   -1.92    1.58
   1 -12   1   -2.33    2.53
   1 -12   1   -2.24    3.60
   1 -12   1    6.09    3.92
  -2  12  -1    2.40    3.59
  -2  12  -1    3.52    2.87
  -2  12  -1   -5.11    3.23
   2 -12   1    3.58    4.28
   2 -12   1   -2.67    2.41
   2 -12   1    3.49    3.56
   2  11  -1   -1.18    2.66
   2  11  -1    2.58    2.77
   2  11  -1   -0.65    2.00
  -2 -11   1   -4.11    4.09
  -2 -11   1    0.07    5.27
  -2 -11   1   -9.94    5.12
   1  11  -1    1.04    2.59
   1  11  -1    2.88    1.97
  -1 -11   1    1.19    2.93
  -1 -11   1   -1.05    3.89
  -1 -11   1    2.27    5.08
  -1 -11   1    8.86    5.79
   0  11  -1   -1.07    2.62
   0  11  -1    0.41    1.83
   0  11  -1   -1.88    1.85
   0 -11   1   -0.39    3.49
   0 -11   1    4.58    4.10
   0 -11   1   -1.46    2.20
  -1  11  -1   -0.05    2.17
  -1  11  -1   -2.72    1.70
  -1  11  -1    1.03    2.98
   1 -11   1   -5.34    3.44
   1 -11   1    4.04    3.42
   1 -11   1    0.06    2.19
  -2  11  -1   -1.33    2.31
  -2  11  -1   -1.89    2.86
  -2  11  -1   -0.82    3.49
   2 -11   1    0.30    2.58
   2 -11   1    0.65    3.22
   2 -11   1   -2.40    3.52
  -3  11  -1    0.91    3.85
  -3  11  -1    6.00    3.38
   3 -11   1    3.51    3.79
   3 -11   1    2.29    4.11
   3 -11   1   -0.12    2.74
   2  10  -1    4.55    2.70
   2  10  -1   -1.54    1.68
   2  10  -1    1.85    2.63
  -2 -10   1   -3.15    4.58
  -2 -10   1   -5.47    4.68
  -2 -10   1    1.29    4.81
  -2 -10   1   -1.42    3.60
   1  10  -1    8.84    2.86
   1  10  -1    8.43    2.67
   1  10  -1    8.14    2.66
  -1 -10   1    9.47    4.69
  -1 -10   1    7.33    5.56
  -1 -10   1    8.12    3.16
  -1 -10   1    5.28    4.54
  -1 -10   1    4.59    3.67
   0  10  -1    4.94    2.02
   0  10  -1   -0.43    1.76
   0  10  -1    1.26    2.37
   0 -10   1    2.63    3.27
   0 -10   1    3.09    3.98
   0 -10   1    0.72    2.53
  -1  10  -1   -0.51    1.67
  -1  10  -1    3.67    2.77
  -1  10  -1    1.88    1.98
   1 -10   1    2.69    2.27
   1 -10   1    1.70    3.01
   1 -10   1    0.92    3.15
  -2  10  -1   -0.94    2.63
  -2  10  -1   -1.69    3.14
  -2  10  -1    0.49    2.23
   2 -10   1    1.98    2.56
   2 -10   1   -0.90    3.44
   2 -10   1    2.32    2.95
  -3  10  -1   -2.31    2.97
  -3  10  -1   -1.13    2.41
   3 -10   1    1.33    3.61
   3 -10   1    5.50    3.34
   3 -10   1    1.00    2.78
   3   9  -1    2.90    3.29
   3   9  -1    2.75    2.05
   3   9  -1    4.72    2.91
  -3  -9   1   -5.97    4.57
  -3  -9   1    4.01    5.45
  -3  -9   1    0.08    4.75
   2   9  -1    1.50    2.46
   2   9  -1    0.10    1.68
  -2  -9   1   -3.26    3.89
  -2  -9   1   -0.45    3.78
  -2  -9   1   -8.43    3.66
  -2  -9   1    0.40    3.31
   1   9  -1    5.62    1.84
   1   9  -1    4.02    1.90
   1   9  -1    4.71    2.23
  -1  -9   1    8.07    4.57
  -1  -9   1    1.42    3.63
  -1  -9   1    2.00    2.97
  -1  -9   1    2.36    2.75
  -1  -9   1    3.17    3.00
   0   9  -1    0.63    1.55
   0   9  -1    1.77    2.01
   0   9  -1    0.69    1.54
   0   9  -1    0.56    1.52
   0  -9   1   -1.42    1.83
   0  -9   1   -1.79    2.71
   0  -9   1   -2.99    2.34
   0  -9   1   -0.90    2.07
  -1   9  -1    5.21    2.03
  -1   9  -1    8.76    2.68
  -1   9  -1    8.09    2.45
   1  -9   1    7.17    2.96
   1  -9   1    1.75    2.55
   1  -9   1    6.46    3.22
  -2   9  -1    4.32    2.41
  -2   9  -1    6.93    3.19
  -2   9  -1    5.67    2.14
  -2   9  -1    2.39    2.18
   2  -9   1    3.19    2.44
   2  -9   1    4.37    2.74
   2  -9   1    1.24    2.64
  -3   9  -1    3.45    2.79
  -3   9  -1    1.92    2.50
   3  -9   1    1.91    3.16
   3  -9   1    1.23    2.33
   3  -9   1    0.28    2.63
  -4   9  -1    2.60    3.70
  -4   9  -1    0.70    3.02
   4  -9   1   -0.57    2.54
   4  -9   1    5.03    3.82
   3   8  -1    2.76    1.92
   3   8  -1    5.82    3.03
  -3  -8   1    3.36    4.35
  -3  -8   1    8.40    5.15
  -3  -8   1   -1.95    3.93
   2   8  -1   -0.37    1.58
   2   8  -1    0.49    1.91
   2   8  -1   -0.19    1.84
  -2  -8   1   -1.27    3.36
  -2  -8   1    1.15    3.52
  -2  -8   1   -3.65    2.46
  -2  -8   1   -1.44    2.39
  -2  -8   1    1.02    3.57
   1   8  -1   36.66    5.26
   1   8  -1   32.60    4.80
   1   8  -1   26.02    4.79
  -1  -8   1   32.06    6.53
  -1  -8   1   34.92    6.52
  -1  -8   1   33.07    5.29
  -1  -8   1   27.23    5.25
  -1  -8   1   42.33    5.88
   0   8  -1   -0.97    1.34
   0   8  -1   -0.31    1.36
   0   8  -1   -0.27    1.30
   0  -8   1   -0.42    2.21
   0  -8   1   -0.01    1.74
   0  -8   1   -0.89    1.64
   0  -8   1    3.50    3.03
  -1   8  -1    3.12    1.12
  -1   8  -1    6.55    2.13
  -1   8  -1    4.50    2.04
  -1   8  -1    4.59    2.03
   1  -8   1    0.12    2.22
   1  -8   1    3.52    1.06
   1  -8   1    6.88    2.91
   1  -8   1    2.66    2.17
  -2   8  -1   -0.77    1.45
  -2   8  -1    4.40    2.71
  -2   8  -1    2.40    1.94
  -2   8  -1    3.19    1.85
   2  -8   1   -1.25    2.19
   2  -8   1    1.40    2.54
   2  -8   1    0.52    1.93
  -3   8  -1    1.12    2.28
  -3   8  -1    1.31    2.47
   3  -8   1    0.72    2.75
   3  -8   1   -0.06    2.44
   3  -8   1    3.10    2.40
  -4   8  -1    4.30    3.09
  -4   8  -1    1.40    2.92
   4  -8   1    1.11    2.31
   4  -8   1    3.56    3.05
   4   7  -1    1.72    3.22
   4   7  -1   -1.28    1.53
  -4  -7   1    3.87    5.25
  -4  -7   1   11.65    5.28
  -4  -7   1    1.14    4.96
   3   7  -1   -1.61    1.99
   3   7  -1   -1.53    1.42
   3   7  -1   -1.89    2.34
  -3  -7   1   -2.23    3.16
  -3  -7   1   -7.07    3.17
  -3  -7   1   -5.89    3.11
   2   7  -1   -2.52    1.52
   2   7  -1    4.20    2.10
   2   7  -1    0.18    1.43
  -2  -7   1   -2.63    2.73
  -2  -7   1   -2.97    2.89
  -2  -7   1    2.10    2.29
  -2  -7   1    1.45    2.97
  -2  -7   1   -1.19    2.14
   1   7  -1   14.29    3.02
   1   7  -1   21.07    3.24
   1   7  -1   20.09    3.22
  -1  -7   1   22.80    3.71
  -1  -7   1   20.33    4.33
  -1  -7   1   12.82    3.32
  -1  -7   1   17.67    3.77
  -1  -7   1   14.46    2.80
  -1  -7   1   20.82    4.85
   0   7  -1    0.15    1.14
   0   7  -1    1.25    1.29
   0   7  -1   -0.16    1.14
   0   7  -1    1.42    1.37
   0  -7   1    0.35    1.46
   0  -7   1    0.43    2.35
   0  -7   1   -0.52    1.52
   0  -7   1    0.54    1.95
  -1   7  -1   24.11    3.54
  -1   7  -1   19.50    3.33
  -1   7  -1   21.62    3.33
   1  -7   1   16.45    3.88
   1  -7   1   18.47    2.53
   1  -7   1   13.39    3.46
   1  -7   1   18.14    3.62
  -2   7  -1    2.58    1.58
  -2   7  -1   -0.20    1.71
  -2   7  -1   -0.47    1.40
  -2   7  -1    2.46    2.12
   2  -7   1   -2.01    1.53
   2  -7   1    2.37    2.00
   2  -7   1   -0.90    1.73
  -3   7  -1    5.58    2.56
  -3   7  -1    0.35    2.06
   3  -7   1    3.36    2.06
   3  -7   1    2.98    2.21
   3  -7   1   -1.39    2.51
  -4   7  -1    3.85    2.87
  -4   7  -1    0.41    2.84
   4  -7   1    2.03    2.03
   4  -7   1    1.48    3.15
   4   6  -1    1.27    3.18
   4   6  -1    0.51    1.36
  -4  -6   1   -1.75    4.56
  -4  -6   1   -0.72    4.14
  -4  -6   1    5.38    4.49
   3   6  -1    0.75    2.33
   3   6  -1    5.90    2.33
   3   6  -1    2.86    1.65
  -3  -6   1   10.07    3.69
  -3  -6   1    4.80    3.55
  -3  -6   1    7.28    3.40
   2   6  -1    7.29    2.57
   2   6  -1    6.69    2.14
   2   6  -1    9.69    2.24
  -2  -6   1   16.62    3.79
  -2  -6   1   11.02    3.39
  -2  -6   1    8.21    2.41
  -2  -6   1    8.96    3.16
  -2  -6   1    7.59    2.57
   1   6  -1    5.12    1.58
   1   6  -1    4.37    1.56
   1   6  -1    9.27    1.92
  -1  -6   1    4.41    2.09
  -1  -6   1    6.04    2.17
  -1  -6   1    1.55    2.48
  -1  -6   1    1.22    1.19
  -1  -6   1   10.60    2.99
  -1  -6   1    4.00    1.97
   0   6  -1    0.04    0.92
   0   6  -1   -1.43    0.89
   0   6  -1   -0.11    1.00
   0   6  -1    0.51    0.97
   0  -6   1    2.16    1.46
   0  -6   1    1.84    1.91
   0  -6   1   -1.82    1.40
   0  -6   1   -0.38    1.06
  -1   6  -1   65.82    8.12
  -1   6  -1   71.62    8.15
  -1   6  -1   74.05    8.22
   1  -6   1   67.44    7.70
   1  -6   1   65.24    8.33
   1  -6   1   47.67    8.12
   1  -6   1   58.17    8.52
  -2   6  -1    3.91    1.50
  -2   6  -1    4.08    1.37
  -2   6  -1    2.17    1.44
  -2   6  -1    2.62    1.77
  -2   6  -1    1.74    1.78
   2  -6   1    6.16    2.07
   2  -6   1   -0.07    1.61
   2  -6   1    2.09    1.98
   2  -6   1    0.52    1.46
   2  -6   1    3.42    1.42
  -3   6  -1    0.84    1.86
  -3   6  -1    2.91    2.20
   3  -6   1    7.17    2.60
   3  -6   1    1.85    1.91
   3  -6   1    4.94    1.84
  -4   6  -1   -1.70    2.18
  -4   6  -1    0.60    2.66
   4  -6   1    0.19    2.77
   4  -6   1    0.13    1.51
   4   5  -1    1.72    1.34
   4   5  -1    4.80    3.23
  -4  -5   1    9.40    4.16
  -4  -5   1    5.03    4.28
  -4  -5   1   10.67    4.41
   3   5  -1   -0.99    1.54
   3   5  -1    0.78    1.18
   3   5  -1   -0.87    2.12
  -3  -5   1    0.10    2.78
  -3  -5   1    2.99    2.91
  -3  -5   1   -3.31    2.60
   2   5  -1    3.87    1.94
   2   5  -1    4.05    1.50
   2   5  -1    1.34    1.34
   2   5  -1    2.94    1.37
  -2  -5   1    0.41    1.99
  -2  -5   1    2.88    2.31
  -2  -5   1    0.26    1.68
  -2  -5   1    4.16    2.27
  -2  -5   1    5.71    1.70
  -2  -5   1    2.84    1.62
   1   5  -1   74.25    8.55
   1   5  -1   71.96    8.64
   1   5  -1   77.95    8.66
  -1  -5   1   73.78    9.14
  -1  -5   1   54.12    8.24
  -1  -5   1   79.52    8.76
  -1  -5   1   81.73    9.23
  -1  -5   1   58.50    8.65
  -1  -5   1   72.41    8.73
   0   5  -1    0.21    0.91
   0   5  -1    0.14    0.94
   0   5  -1   -0.13    0.82
   0   5  -1   -0.05    0.76
   0  -5   1    0.50    1.22
   0  -5   1   -0.48    1.60
   0  -5   1    2.18    0.99
   0  -5   1   -2.62    1.09
  -1   5  -1    2.83    1.19
  -1   5  -1    3.21    1.14
  -1   5  -1    7.39    1.59
   1  -5   1    2.42    1.43
   1  -5   1    1.97    1.25
   1  -5   1    3.24    1.54
   1  -5   1    1.49    1.34
  -2   5  -1    7.25    1.99
  -2   5  -1   11.11    2.23
  -2   5  -1    7.76    1.37
  -2   5  -1    6.15    1.34
  -2   5  -1    8.66    1.61
   2  -5   1    5.21    1.90
   2  -5   1    5.41    1.75
   2  -5   1    3.63    1.61
   2  -5   1    6.32    1.92
   2  -5   1    7.89    1.75
  -3   5  -1   17.36    3.21
  -3   5  -1    8.49    2.51
   3  -5   1   10.88    1.78
   3  -5   1    9.75    2.13
   3  -5   1   10.96    2.85
   3  -5   1    6.95    2.26
  -4   5  -1    0.24    2.36
  -4   5  -1   -0.58    2.36
   4  -5   1    0.43    2.50
   4  -5   1    0.59    1.15
  -5   5  -1    6.16    3.31
  -5   5  -1   -4.23    2.78
   5  -5   1    5.92    3.90
   5  -5   1   -0.21    3.35
   4   4  -1    0.74    2.89
   4   4  -1    0.62    1.04
  -4  -4   1    6.49    3.65
  -4  -4   1    8.05    3.61
  -4  -4   1    2.16    4.10
   3   4  -1    0.28    0.82
   3   4  -1    1.39    1.49
   3   4  -1    0.03    0.94
   3   4  -1    0.89    2.22
  -3  -4   1   -0.21    2.02
  -3  -4   1    1.95    2.78
  -3  -4   1    1.86    2.52
   2   4  -1   58.94    8.00
   2   4  -1   53.78    7.48
   2   4  -1   68.18    8.02
   2   4  -1   65.06    8.13
   2   4  -1   71.93    7.95
  -2  -4   1   73.55    7.90
  -2  -4   1   64.88    8.43
  -2  -4   1   66.82    7.76
  -2  -4   1   68.48    8.38
  -2  -4   1   58.50    7.94
  -2  -4   1   69.69    8.38
   1   4  -1   16.59    2.17
   1   4  -1   11.96    1.93
   1   4  -1   10.41    2.03
   1   4  -1   10.12    1.90
  -1  -4   1    9.14    2.01
  -1  -4   1   14.23    2.54
  -1  -4   1    8.20    1.90
  -1  -4   1    8.42    1.47
  -1  -4   1   14.63    2.54
  -1  -4   1    5.47    1.91
  -1  -4   1   11.92    2.11
   0   4  -1    5.39    1.23
   0   4  -1    9.66    1.50
   0   4  -1    6.89    1.06
   0   4  -1    5.58    1.22
   0  -4   1    4.90    1.20
   0  -4   1   -0.28    1.04
   0  -4   1    2.83    1.27
   0  -4   1    4.98    1.10
   0  -4   1    1.95    1.45
  -1   4  -1  117.25   13.24
  -1   4  -1  131.33   13.25
  -1   4  -1  127.59   13.29
   1  -4   1  114.46   13.27
   1  -4   1   90.83   13.22
   1  -4   1   96.38   13.33
   1  -4   1  101.26   13.25
  -2   4  -1   -0.94    0.44
  -2   4  -1    0.38    1.13
  -2   4  -1   -0.47    0.50
  -2   4  -1    0.31    0.78
  -2   4  -1   -0.91    1.17
   2  -4   1   -0.29    1.23
   2  -4   1    1.22    1.05
   2  -4   1    0.15    0.58
   2  -4   1   -0.89    0.96
   2  -4   1    0.20    1.11
   2  -4   1   -0.02    1.05
  -3   4  -1    5.68    1.95
  -3   4  -1    6.44    2.32
   3  -4   1   12.85    2.67
   3  -4   1    7.56    1.81
   3  -4   1    8.64    1.68
   3  -4   1    6.93    1.66
   3  -4   1    6.71    1.56
  -4   4  -1    4.23    2.49
  -4   4  -1    3.72    2.28
   4  -4   1    2.80    2.61
   4  -4   1    0.96    2.07
  -5   4  -1   -0.39    3.17
  -5   4  -1   -3.25    2.71
   5  -4   1   -4.92    2.82
   5  -4   1   -0.13    3.09
   5   3  -1   -0.85    3.67
  -5  -3   1    8.95    4.62
  -5  -3   1    5.52    4.48
   4   3  -1   -0.88    2.91
   4   3  -1    2.19    0.93
  -4  -3   1    2.57    3.96
  -4  -3   1   -2.56    2.75
  -4  -3   1    1.00    3.22
   3   3  -1    4.82    1.41
   3   3  -1    3.20    1.14
   3   3  -1    5.04    1.30
   3   3  -1    5.30    1.64
   3   3  -1    4.09    2.33
  -3  -3   1    5.73    2.55
  -3  -3   1    7.88    3.16
  -3  -3   1    2.78    2.36
   2   3  -1   10.93    1.92
   2   3  -1   10.52    1.83
   2   3  -1    6.96    1.38
   2   3  -1   10.07    1.70
   2   3  -1    8.56    2.14
  -2  -3   1   12.63    2.49
  -2  -3   1    8.16    2.19
  -2  -3   1    9.20    1.66
  -2  -3   1   13.77    2.50
   1   3  -1    0.26    0.54
   1   3  -1   -0.46    0.55
   1   3  -1    0.87    0.76
   1   3  -1   -0.89    0.52
   1   3  -1    0.26    0.37
   1   3  -1   -0.02    0.71
   1   3  -1    0.80    0.81
  -1  -3   1    0.00    1.03
  -1  -3   1    1.28    0.41
  -1  -3   1    0.48    0.85
  -1  -3   1    1.38    0.99
  -1  -3   1   -0.45    0.78
  -1  -3   1    1.41    0.99
  -1  -3   1    0.37    0.84
  -1  -3   1    0.22    0.85
   0   3  -1   47.74    5.54
   0   3  -1   53.64    5.57
   0   3  -1   39.12    5.60
   0   3  -1   48.81    5.54
   0  -3   1   45.70    5.55
   0  -3   1   44.70    5.59
   0  -3   1   41.89    5.51
   0  -3   1   34.99    5.70
   0  -3   1   44.33    5.56
   0  -3   1   45.20    5.42
  -1   3  -1   79.02    9.06
  -1   3  -1   90.25    9.24
  -1   3  -1   85.55    9.12
  -1   3  -1   75.79    9.15
  -1   3  -1   90.79    9.27
  -1   3  -1   71.03    9.14
   1  -3   1   76.56    9.09
   1  -3   1   71.80    9.12
   1  -3   1   65.47    9.12
   1  -3   1   77.12    9.16
   1  -3   1   60.17    9.11
   1  -3   1   77.46    9.25
  -2   3  -1    0.59    1.13
  -2   3  -1    0.31    0.27
  -2   3  -1   -1.03    0.96
   2  -3   1    0.93    0.84
   2  -3   1   -0.03    0.73
   2  -3   1   -0.72    0.66
   2  -3   1   -1.06    0.68
   2  -3   1    0.10    0.97
   2  -3   1   -1.04    1.05
   2  -3   1    1.82    0.81
  -3   3  -1   16.80    2.88
  -3   3  -1   14.26    2.91
   3  -3   1   12.81    1.93
   3  -3   1   12.32    2.77
   3  -3   1   13.45    1.95
   3  -3   1   15.95    2.41
   3  -3   1   11.64    2.05
   3  -3   1   13.80    2.22
  -4   3  -1    2.73    2.28
  -4   3  -1    0.57    2.11
   4  -3   1    1.34    2.37
   4  -3   1    2.57    1.99
  -5   3  -1   -0.63    2.89
  -5   3  -1    2.01    3.12
   5  -3   1   -0.29    3.03
   5  -3   1    1.14    2.95
   5   2  -1    3.74    3.51
  -5  -2   1    0.62    3.89
  -5  -2   1   -1.46    3.74
   4   2  -1    7.26    2.28
   4   2  -1   10.92    3.48
  -4  -2   1   12.25    3.88
  -4  -2   1   12.19    4.04
  -4  -2   1   15.33    3.61
   3   2  -1    0.55    0.57
   3   2  -1    1.39    1.06
   3   2  -1    1.46    0.92
   3   2  -1    2.37    1.18
   3   2  -1   -0.14    0.66
   3   2  -1   -0.55    1.92
  -3  -2   1    3.71    2.34
  -3  -2   1    1.99    2.09
  -3  -2   1    3.72    2.23
   2   2  -1    2.57    0.82
   2   2  -1    3.42    0.92
   2   2  -1    4.89    1.04
   2   2  -1    5.13    1.01
   2   2  -1    2.57    0.77
  -2  -2   1    2.76    1.38
  -2  -2   1    7.13    1.89
  -2  -2   1    2.83    1.53
   1   2  -1   95.79   10.88
   1   2  -1   83.79   10.66
   1   2  -1   92.58   10.73
   1   2  -1   96.19   10.89
   1   2  -1   83.20   10.80
   1   2  -1  100.75   10.82
   1   2  -1   90.00   10.87
  -1  -2   1   96.25   10.78
  -1  -2   1  100.79   10.98
  -1  -2   1   98.93   10.73
  -1  -2   1   82.90   10.66
  -1  -2   1   91.40   10.85
  -1  -2   1   94.54   10.82
  -1  -2   1   99.52   10.95
  -1  -2   1   77.63   10.77
   0   2  -1   22.30    2.89
   0   2  -1   30.46    2.89
   0   2  -1   19.64    2.77
   0   2  -1   24.24    2.79
   0   2  -1   22.28    2.78
   0  -2   1   22.61    2.83
   0  -2   1   14.47    2.88
   0  -2   1   23.37    2.82
   0  -2   1   21.28    2.80
   0  -2   1   21.79    2.76
   0  -2   1   19.32    2.75
  -1   2  -1    1.75    0.49
  -1   2  -1    3.99    0.89
  -1   2  -1    2.25    0.49
  -1   2  -1    3.30    0.67
  -1   2  -1    2.07    0.71
  -1   2  -1    1.81    0.77
  -1   2  -1    2.88    0.68
   1  -2   1    3.87    0.89
   1  -2   1    2.25    0.69
   1  -2   1    2.77    0.70
   1  -2   1    2.09    0.60
   1  -2   1    1.29    0.80
   1  -2   1    3.95    0.88
   1  -2   1    2.40    1.00
   1  -2   1    3.28    0.67
   1  -2   1    2.56    0.51
  -2   2  -1   21.90    2.65
  -2   2  -1   22.31    3.23
  -2   2  -1   28.12    3.26
  -2   2  -1   24.59    3.47
  -2   2  -1   20.27    2.62
   2  -2   1   21.47    2.68
   2  -2   1   18.45    2.80
   2  -2   1   25.74    3.24
   2  -2   1   24.11    2.72
   2  -2   1   17.40    2.69
   2  -2   1   23.16    2.95
  -3   2  -1   11.21    2.73
  -3   2  -1   13.79    2.78
  -3   2  -1   13.98    2.71
   3  -2   1   12.68    1.91
   3  -2   1   12.34    2.42
   3  -2   1   12.62    1.80
   3  -2   1   18.77    2.92
  -4   2  -1    3.16    2.18
  -4   2  -1   -0.27    2.07
   4  -2   1   -2.98    1.87
   4  -2   1    0.21    2.15
  -5   2  -1    4.43    3.11
   5  -2   1   -4.46    2.63
   5  -2   1   -2.38    3.14
   5  -2   1   -0.19    2.76
   5   1  -1    0.50    2.56
   5   1  -1    0.96    3.48
  -5  -1   1   -0.92    3.61
  -5  -1   1   -0.73    3.54
   4   1  -1   -0.61    2.41
   4   1  -1    0.79    1.73
  -4  -1   1   -0.47    2.53
  -4  -1   1    1.21    2.75
  -4  -1   1    2.33    2.90
   3   1  -1    0.18    0.53
   3   1  -1    0.20    0.72
   3   1  -1   -2.98    1.53
   3   1  -1   -1.96    0.98
  -3  -1   1   -5.08    1.49
  -3  -1   1   -0.33    1.66
  -3  -1   1    0.45    1.92
   2   1  -1  133.81   14.80
   2   1  -1  111.21   14.72
   2   1  -1  119.02   14.75
   2   1  -1  127.96   14.75
   2   1  -1  150.48   15.00
  -2  -1   1  141.18   15.25
  -2  -1   1  118.14   14.71
  -2  -1   1  138.62   15.33
  -2  -1   1  133.03   15.26
   1   1  -1    9.42    1.43
   1   1  -1   10.11    1.37
   1   1  -1   11.56    1.55
   1   1  -1   10.18    1.56
   1   1  -1    8.92    1.27
   1   1  -1    9.85    1.32
   1   1  -1   10.06    1.33
   1   1  -1    9.50    1.24
   1   1  -1   13.16    1.69
   1   1  -1    7.87    1.46
  -1  -1   1    9.07    1.55
  -1  -1   1   11.21    1.65
  -1  -1   1   10.31    1.65
  -1  -1   1    8.93    1.29
  -1   1  -1  543.89   64.78
  -1   1  -1  577.27   64.71
  -1   1  -1  603.31   64.59
  -1   1  -1  555.06   64.71
   1  -1   1  558.30   64.62
   1  -1   1  578.53   64.81
   1  -1   1  592.71   64.83
   1  -1   1  503.06   64.62
   1  -1   1  583.97   64.70
   1  -1   1  515.70   64.72
   1  -1   1  536.99   64.60
   1  -1   1  576.22   64.71
   1  -1   1  560.06   64.73
   1  -1   1  565.95   64.57
   1  -1   1  546.85   64.56
  -2   1  -1   -0.35    0.90
  -2   1  -1    2.06    1.32
  -2   1  -1   -1.35    0.80
  -2   1  -1   -0.09    0.90
   2  -1   1   -0.11    0.37
   2  -1   1    0.40    0.30
   2  -1   1   -0.39    0.84
  -3   1  -1    0.34    1.65
  -3   1  -1   -0.51    1.89
  -3   1  -1   -2.10    1.45
  -3   1  -1    3.12    1.79
   3  -1   1    0.37    1.51
   3  -1   1    3.94    1.63
  -4   1  -1    0.45    2.05
  -4   1  -1    0.19    2.18
   4  -1   1    2.10    2.32
   4  -1   1    2.68    2.25
  -5   1  -1    1.55    3.41
   5  -1   1   -2.32    2.95
   5  -1   1   -0.01    2.76
   5  -1   1    0.80    2.74
   5   0  -1   -3.71    2.52
   5   0  -1   -3.22    2.72
   5   0  -1    5.24    3.51
   4   0  -1    5.50    2.23
   4   0  -1    0.18    1.77
   4   0  -1    4.61    2.80
  -4   0   1    5.11    2.85
  -4   0   1    3.11    2.46
  -4   0   1    3.79    2.74
   3   0  -1    1.12    1.65
   3   0  -1    0.43    1.35
  -3   0   1    1.88    1.91
  -3   0   1    0.07    1.59
  -3   0   1    4.57    1.90
  -3   0   1   -0.38    1.70
  -3   0   1    3.56    1.84
   2   0  -1    3.94    1.08
  -2   0   1    4.76    1.40
  -2   0   1    2.13    1.16
  -2   0   1    2.11    1.21
  -2   0   1    1.54    1.30
  -2   0   1    1.45    1.18
   1   0  -1    7.33    1.21
   1   0  -1    8.42    1.26
   1   0  -1    7.19    0.89
   1   0  -1    7.89    1.26
   1   0  -1    8.11    1.22
   1   0  -1    8.11    1.28
   1   0  -1    6.33    0.88
   1   0  -1    8.53    1.17
  -1   0   1    7.52    1.30
  -1   0   1    7.52    1.24
  -1   0   1    7.14    1.23
  -1   0   1    8.68    1.32
  -1   0   1    8.32    1.26
   0   0  -1    0.22    0.09
   0   0  -1   -0.02    0.06
   0   0  -1    0.09    0.07
   0   0  -1    0.14    0.10
   0   0  -1   -0.05    0.05
   0   0  -1    0.05    0.05
   0   0   1    0.08    0.06
   0   0   1   -0.01    0.05
   0   0   1    0.01    0.12
   0   0   1    0.15    0.07
   0   0   1    0.07    0.09
   0   0   1   -0.09    0.08
  -1   0  -1    6.39    1.16
  -1   0  -1    6.44    1.34
  -1   0  -1    7.33    1.23
  -1   0  -1    6.51    0.99
  -1   0  -1    7.51    1.38
  -1   0  -1    6.29    1.35
   1   0   1    8.33    0.98
   1   0   1    8.14    1.03
   1   0   1    9.46    1.28
   1   0   1   10.04    1.44
   1   0   1   10.74    1.44
   1   0   1   11.59    1.31
   1   0   1   10.19    1.47
   1   0   1    9.78    1.29
   1   0   1    6.80    0.98
   1   0   1    8.78    1.03
  -2   0  -1    1.02    1.09
  -2   0  -1   -0.39    1.10
  -2   0  -1    3.35    1.15
  -2   0  -1    2.25    1.11
  -2   0  -1    3.09    1.50
   2   0   1    3.37    1.19
   2   0   1    3.58    1.28
   2   0   1    1.58    0.41
  -3   0  -1   32.82    4.74
  -3   0  -1   45.64    5.52
  -3   0  -1   34.48    5.05
  -3   0  -1   33.96    4.40
   3   0   1   22.47    3.41
   3   0   1   37.53    4.52
  -4   0  -1    2.48    2.33
  -4   0  -1    1.64    2.76
   4   0   1   -0.70    1.83
   4   0   1   -0.57    2.09
  -5   0  -1   -0.14    3.29
   5   0   1   -3.71    2.39
   5   0   1   -3.04    3.10
   5  -1  -1    0.40    3.04
   5  -1  -1    2.53    2.81
   5  -1  -1    1.74    2.73
   4  -1  -1    7.70    2.38
   4  -1  -1    9.97    2.56
   4  -1  -1    2.65    2.48
  -4   1   1    7.42    2.76
  -4   1   1    4.20    2.47
   3  -1  -1    1.19    1.51
   3  -1  -1   -0.43    1.52
   3  -1  -1    2.78    1.46
  -3   1   1   -1.06    1.54
  -3   1   1   -0.04    1.49
  -3   1   1   -0.43    1.78
  -3   1   1   -1.78    1.46
  -3   1   1    0.80    1.66
   2  -1  -1   36.29    4.23
  -2   1   1   31.65    4.59
  -2   1   1   34.88    4.31
  -2   1   1   32.28    4.56
  -2   1   1   28.34    4.30
  -2   1   1   29.93    4.48
   1  -1  -1   21.01    2.43
   1  -1  -1   20.79    2.61
   1  -1  -1   17.92    2.28
   1  -1  -1   19.32    2.29
   1  -1  -1   17.89    2.45
   1  -1  -1   16.59    2.27
   1  -1  -1   17.78    2.48
   1  -1  -1   18.56    2.41
   1  -1  -1   16.98    2.25
   1  -1  -1   21.59    2.53
  -1   1   1   17.10    2.40
  -1   1   1   20.27    2.55
  -1   1   1   20.10    2.41
  -1   1   1   23.78    2.33
  -1   1   1   17.84    2.45
   0  -1  -1   61.38    7.42
   0  -1  -1   67.83    7.47
   0  -1  -1   62.08    7.47
   0  -1  -1   71.64    7.53
   0   1   1   59.09    7.44
   0   1   1   64.27    7.45
   0   1   1   62.14    7.43
  -1  -1  -1    7.14    1.23
  -1  -1  -1    9.46    1.23
  -1  -1  -1    9.10    1.60
  -1  -1  -1    9.77    1.63
  -1  -1  -1    7.51    1.27
  -1  -1  -1   12.28    1.70
  -1  -1  -1    8.95    1.33
   1   1   1   10.37    1.60
   1   1   1    7.86    1.26
   1   1   1   11.30    1.51
   1   1   1   12.51    1.36
   1   1   1    8.33    1.50
   1   1   1    9.71    1.30
   1   1   1    8.40    1.22
   1   1   1    8.33    1.49
   1   1   1   10.62    1.32
  -2  -1  -1   49.79    6.17
  -2  -1  -1   39.16    5.57
  -2  -1  -1   52.19    5.87
  -2  -1  -1   54.00    6.20
  -2  -1  -1   47.75    5.58
  -2  -1  -1   54.19    6.33
   2   1   1   45.66    5.59
   2   1   1   51.00    5.63
   2   1   1   42.22    5.59
   2   1   1   49.64    5.62
   2   1   1   51.27    5.81
   2   1   1   41.88    5.91
  -3  -1  -1   18.56    3.61
  -3  -1  -1   17.11    3.29
  -3  -1  -1   13.85    3.33
   3   1   1   11.59    1.85
   3   1   1   17.88    2.44
   3   1   1   12.62    1.70
   3   1   1   11.66    1.80
   3   1   1    9.12    2.60
  -4  -1  -1    1.76    2.34
  -4  -1  -1    5.07    3.08
   4   1   1    2.66    2.48
   4   1   1    2.07    1.70
  -5  -1  -1   12.74    5.15
  -5  -1  -1    3.60    3.74
   5   1   1    3.05    2.93
   5   1   1    9.66    4.06
   5  -2  -1    0.89    3.42
   5  -2  -1   -4.62    2.60
   5  -2  -1    0.80    2.89
   4  -2  -1    4.65    2.29
   4  -2  -1    2.21    2.48
   4  -2  -1    4.75    2.36
  -4   2   1    5.85    2.70
  -4   2   1    1.68    2.35
   3  -2  -1    0.25    1.41
   3  -2  -1    2.80    0.77
   3  -2  -1    2.25    0.68
   3  -2  -1   -0.26    1.35
  -3   2   1    3.44    1.83
  -3   2   1    4.13    1.96
  -3   2   1    1.70    1.62
   2  -2  -1   79.24    9.43
   2  -2  -1   91.89    9.76
   2  -2  -1   73.40    9.43
   2  -2  -1   86.01    9.40
   2  -2  -1   69.89    9.46
   2  -2  -1   80.70    9.70
  -2   2   1   82.97    9.37
  -2   2   1   88.31    9.86
  -2   2   1   86.67    9.46
  -2   2   1   65.42    9.62
  -2   2   1   82.19    9.75
   1  -2  -1    2.60    0.66
   1  -2  -1    2.09    0.56
   1  -2  -1    1.60    0.72
   1  -2  -1    1.10    0.75
   1  -2  -1    1.01    0.49
   1  -2  -1    2.21    0.69
   1  -2  -1    1.60    0.73
   1  -2  -1    1.54    0.55
   1  -2  -1    1.56    0.49
  -1   2   1    3.22    0.79
  -1   2   1    1.57    0.80
  -1   2   1    0.92    0.46
  -1   2   1    0.87    0.43
  -1   2   1    2.64    0.77
  -1   2   1    1.02    0.54
  -1   2   1    1.06    0.46
  -1   2   1    2.86    0.69
   0  -2  -1   20.75    2.75
   0  -2  -1   22.26    2.81
   0  -2  -1   22.74    2.67
   0  -2  -1   22.11    2.76
   0  -2  -1   22.04    2.68
   0  -2  -1   20.40    2.69
   0  -2  -1   26.52    3.03
   0  -2  -1   23.10    2.82
   0   2   1   22.81    2.76
   0   2   1   25.23    2.81
   0   2   1   22.25    2.64
   0   2   1   22.82    2.75
   0   2   1   22.92    2.71
   0   2   1   17.78    2.65
   0   2   1   23.52    2.91
   0   2   1   19.98    2.74
  -1  -2  -1   66.74    9.37
  -1  -2  -1   77.33    9.44
  -1  -2  -1   83.06    9.57
  -1  -2  -1   75.59    9.56
  -1  -2  -1   73.30    9.56
  -1  -2  -1   80.74    9.44
  -1  -2  -1   83.60    9.41
   1   2   1   78.00    9.41
   1   2   1   71.64    9.50
   1   2   1   81.63    9.50
   1   2   1   84.15    9.30
   1   2   1   83.24    9.59
   1   2   1   92.61    9.46
   1   2   1   78.97    9.38
   1   2   1   83.50    9.51
   1   2   1   79.98    9.39
  -2  -2  -1    0.19    0.64
  -2  -2  -1    1.27    1.54
  -2  -2  -1    3.21    1.69
  -2  -2  -1    3.08    1.56
   2   2   1    6.23    1.08
   2   2   1    3.84    0.83
   2   2   1    2.95    0.86
   2   2   1    3.76    1.01
   2   2   1    4.27    0.83
   2   2   1    4.01    0.92
   2   2   1    4.01    1.47
  -3  -2  -1   -1.69    1.93
  -3  -2  -1    0.23    0.98
  -3  -2  -1    5.51    2.29
  -3  -2  -1    1.93    2.03
   3   2   1    2.11    1.01
   3   2   1    0.68    0.79
   3   2   1    0.93    0.73
   3   2   1   -1.56    1.65
  -4  -2  -1    3.55    3.07
  -4  -2  -1   -1.78    2.92
   4   2   1    1.08    2.64
  -5  -2  -1    4.25    4.46
  -5  -2  -1    2.22    3.68
   5   2   1    8.18    3.88
   5  -3  -1   -2.08    2.93
   5  -3  -1    0.86    3.03
  -5   3   1   -0.51    3.13
  -5   3   1   -1.90    2.97
   4  -3  -1    6.14    2.54
   4  -3  -1    2.44    2.10
   4  -3  -1    0.93    2.48
  -4   3   1   -0.81    2.01
  -4   3   1    2.71    2.50
   3  -3  -1   14.48    1.69
   3  -3  -1   12.62    2.53
   3  -3  -1    8.22    1.79
   3  -3  -1    8.70    1.64
   3  -3  -1    6.69    2.00
  -3   3   1   10.37    2.73
  -3   3   1   12.86    2.56
   2  -3  -1    0.39    0.82
   2  -3  -1    0.95    0.77
   2  -3  -1    1.10    0.76
   2  -3  -1    0.79    0.90
   2  -3  -1    2.01    1.15
   2  -3  -1    3.43    1.29
  -2   3   1    1.66    1.32
  -2   3   1    2.48    1.12
  -2   3   1    0.29    0.31
   1  -3  -1    0.77    0.40
   1  -3  -1    0.10    0.56
   1  -3  -1   -0.28    0.68
   1  -3  -1    0.94    0.83
   1  -3  -1    0.41    0.64
   1  -3  -1    0.95    0.93
   1  -3  -1    0.28    0.38
  -1   3   1    1.67    0.82
  -1   3   1    0.76    0.71
  -1   3   1    0.48    0.65
  -1   3   1    0.14    0.67
  -1   3   1    1.09    0.89
  -1   3   1    0.21    0.53
  -1   3   1    0.32    0.55
   0  -3  -1  275.55   30.24
   0  -3  -1  232.79   30.22
   0  -3  -1  246.60   30.12
   0  -3  -1  268.61   30.28
   0  -3  -1  252.19   30.50
   0  -3  -1  248.77   30.29
   0  -3  -1  256.22   30.10
   0   3   1  265.31   30.15
   0   3   1  261.67   30.09
   0   3   1  245.86   30.13
   0   3   1  275.67   30.43
   0   3   1  288.49   30.26
   0   3   1  263.48   30.23
   0   3   1  261.84   30.22
  -1  -3  -1    1.52    0.90
  -1  -3  -1   -0.54    0.86
  -1  -3  -1    1.26    1.02
  -1  -3  -1    2.22    1.04
  -1  -3  -1   -0.34    0.92
   1   3   1   -0.88    0.52
   1   3   1    0.73    0.83
   1   3   1    1.69    0.87
   1   3   1    1.28    0.76
   1   3   1    0.80    0.67
   1   3   1    0.76    0.66
  -2  -3  -1    7.84    2.21
  -2  -3  -1    6.99    1.96
  -2  -3  -1    3.58    1.29
  -2  -3  -1    4.09    0.98
  -2  -3  -1    6.34    2.19
  -2  -3  -1    3.34    1.13
   2   3   1    4.96    1.23
   2   3   1    8.02    1.27
   2   3   1    2.45    1.12
   2   3   1    4.68    1.10
   2   3   1    5.46    0.92
   2   3   1    4.53    0.76
   2   3   1    2.84    1.41
  -3  -3  -1   16.90    4.16
  -3  -3  -1   20.35    4.09
  -3  -3  -1   24.16    4.30
   3   3   1   21.18    3.72
   3   3   1   18.31    2.79
   3   3   1   20.34    2.78
  -4  -3  -1   -0.10    2.95
  -4  -3  -1    0.02    3.14
   4   3   1    0.10    0.81
   4   3   1   -1.52    2.60
  -5  -3  -1    4.03    4.82
  -5  -3  -1    6.96    4.55
   5   3   1   -1.21    3.74
   5  -4  -1    3.86    3.32
   5  -4  -1    3.72    3.55
  -5   4   1   -0.33    2.90
  -5   4   1    2.41    3.42
   4  -4  -1    0.84    2.51
   4  -4  -1   -0.61    2.67
   4  -4  -1    2.31    2.40
  -4   4   1    0.12    2.27
  -4   4   1   -3.23    2.05
   3  -4  -1   -2.07    1.10
   3  -4  -1   -1.78    1.16
   3  -4  -1    0.06    1.17
   3  -4  -1   -0.78    1.07
   3  -4  -1    0.42    1.68
  -3   4   1    3.54    1.74
  -3   4   1    0.42    1.80
   2  -4  -1   31.66    4.32
   2  -4  -1   25.55    4.19
   2  -4  -1   26.32    4.04
   2  -4  -1   35.45    4.63
   2  -4  -1   30.44    4.07
  -2   4   1   28.65    4.34
  -2   4   1   30.69    4.54
  -2   4   1   32.71    3.93
  -2   4   1   29.47    3.76
  -2   4   1   35.65    3.82
   1  -4  -1   23.85    3.19
   1  -4  -1   16.93    3.05
   1  -4  -1   23.66    3.31
   1  -4  -1   15.21    3.26
   1  -4  -1   21.03    2.69
  -1   4   1   28.63    3.52
  -1   4   1   24.31    2.98
  -1   4   1   21.81    2.81
  -1   4   1   24.62    3.28
  -1   4   1   24.06    3.24
  -1   4   1   22.06    2.93
   0  -4  -1    8.69    2.22
   0  -4  -1    5.92    1.57
   0  -4  -1    6.11    1.21
   0  -4  -1    4.07    1.43
   0  -4  -1    7.47    1.30
   0   4   1    7.42    1.49
   0   4   1    8.30    1.24
   0   4   1    7.31    1.39
   0   4   1    7.62    1.34
   0   4   1    7.11    1.31
  -1  -4  -1    4.37    1.48
  -1  -4  -1    6.84    1.67
  -1  -4  -1    6.03    1.80
  -1  -4  -1    4.13    1.55
   1   4   1    5.52    1.39
   1   4   1    5.20    1.27
   1   4   1    7.00    1.37
   1   4   1    4.98    1.44
  -2  -4  -1   41.01    6.10
  -2  -4  -1   52.57    6.95
  -2  -4  -1   42.57    6.15
  -2  -4  -1   48.15    6.91
  -2  -4  -1   52.66    7.00
  -2  -4  -1   48.06    5.96
   2   4   1   49.34    6.31
   2   4   1   50.26    6.11
   2   4   1   49.95    6.13
   2   4   1   44.93    5.77
   2   4   1   48.86    6.00
  -3  -4  -1    4.20    3.05
  -3  -4  -1    5.22    2.84
  -3  -4  -1    3.65    2.83
   3   4   1    3.18    1.24
   3   4   1    2.83    2.14
  -4  -4  -1   -1.68    3.38
  -4  -4  -1   -0.71    3.43
   4   4   1    1.76    2.97
   4   4   1   -0.15    1.09
   5  -5  -1    3.11    3.54
   5  -5  -1   -4.50    3.23
  -5   5   1   -0.29    3.20
  -5   5   1    6.65    3.46
   4  -5  -1    0.32    1.17
   4  -5  -1    0.13    2.49
   4  -5  -1   -1.68    2.58
  -4   5   1   -1.94    2.15
  -4   5   1   -1.13    2.38
   3  -5  -1    4.49    2.19
   3  -5  -1    0.24    1.09
   3  -5  -1    1.18    1.26
   3  -5  -1    2.78    1.69
  -3   5   1    1.96    1.77
  -3   5   1    2.75    2.07
   2  -5  -1   22.44    3.88
   2  -5  -1   24.02    3.80
   2  -5  -1   22.66    4.16
   2  -5  -1   24.12    3.49
   2  -5  -1   26.17    3.95
  -2   5   1   26.01    3.51
  -2   5   1   29.72    3.68
  -2   5   1   28.28    4.07
  -2   5   1   26.47    3.52
  -2   5   1   35.80    4.53
   1  -5  -1    1.87    0.62
   1  -5  -1    0.70    1.79
   1  -5  -1    0.76    1.33
   1  -5  -1    2.56    1.66
   1  -5  -1   -0.31    1.14
  -1   5   1    3.06    1.11
  -1   5   1    1.01    0.77
  -1   5   1    2.36    1.37
  -1   5   1    3.75    1.30
  -1   5   1    2.22    1.05
   0  -5  -1   45.92    7.26
   0  -5  -1   43.15    6.62
   0  -5  -1   52.24    6.32
   0   5   1   53.67    6.24
   0   5   1   47.38    6.34
   0   5   1   64.91    6.62
   0   5   1   47.89    6.49
   0   5   1   56.89    6.40
  -1  -5  -1    0.79    1.69
  -1  -5  -1    2.46    1.49
  -1  -5  -1   -1.01    1.37
  -1  -5  -1    0.18    1.84
  -1  -5  -1    0.04    1.51
   1   5   1   -0.41    0.94
   1   5   1    0.70    1.19
  -2  -5  -1   -1.00    1.77
  -2  -5  -1   -0.12    1.56
  -2  -5  -1   -1.15    2.08
  -2  -5  -1    0.37    1.44
  -2  -5  -1    1.37    2.11
   2   5   1    1.25    1.22
   2   5   1    0.12    0.83
   2   5   1    1.61    1.65
   2   5   1    0.13    1.01
  -3  -5  -1    0.74    2.69
  -3  -5  -1    0.76    2.75
  -3  -5  -1    2.81    2.97
   3   5   1    1.28    1.23
   3   5   1    6.68    2.69
  -4  -5  -1    0.90    3.79
  -4  -5  -1    6.47    4.19
   4   5   1   -0.75    1.28
   4   5   1    0.75    2.95
   4  -6  -1   -2.08    2.71
   4  -6  -1   -0.67    1.46
   4  -6  -1    0.48    2.74
  -4   6   1    0.48    2.68
  -4   6   1   -0.95    2.30
   3  -6  -1   11.88    3.16
   3  -6  -1    9.42    2.24
   3  -6  -1    4.74    2.30
  -3   6   1    9.49    2.85
  -3   6   1    9.78    2.55
   2  -6  -1   -0.02    1.51
   2  -6  -1   -0.77    1.53
   2  -6  -1   -3.38    1.65
   2  -6  -1    1.32    1.48
  -2   6   1    1.51    1.15
  -2   6   1    0.71    1.47
  -2   6   1    1.57    1.76
  -2   6   1   -0.04    1.18
   1  -6  -1   -0.08    1.30
   1  -6  -1    2.52    2.14
   1  -6  -1    1.15    1.60
  -1   6   1   -0.37    0.86
  -1   6   1    2.38    1.29
  -1   6   1    0.66    1.10
  -1   6   1    2.04    1.12
   0  -6  -1   56.09    7.97
   0  -6  -1   51.13    8.67
   0  -6  -1   49.35    7.80
   0  -6  -1   68.48    7.49
   0   6   1   63.86    7.73
   0   6   1   67.72    7.73
   0   6   1   57.48    7.35
   0   6   1   61.95    7.53
   0   6   1   64.46    7.53
  -1  -6  -1   -0.67    1.66
  -1  -6  -1    0.35    1.79
  -1  -6  -1    2.85    2.39
  -1  -6  -1    0.44    2.01
  -1  -6  -1    0.68    1.74
   1   6   1    1.45    1.30
   1   6   1    0.36    1.04
  -2  -6  -1    6.18    3.14
  -2  -6  -1    5.62    2.26
  -2  -6  -1    6.05    2.79
  -2  -6  -1    1.65    2.74
  -2  -6  -1    2.41    2.01
   2   6   1    0.63    1.82
   2   6   1   -0.18    1.17
  -3  -6  -1    6.13    3.49
  -3  -6  -1    0.82    3.75
  -3  -6  -1    1.01    3.34
   3   6   1   -1.07    2.24
   3   6   1    1.23    2.54
   3   6   1   -0.20    1.31
  -4  -6  -1    5.89    4.60
  -4  -6  -1    1.74    4.08
   4   6   1    0.05    1.61
   4   6   1    1.78    3.03
   4  -7  -1    0.56    3.60
   4  -7  -1   -1.76    2.77
   4  -7  -1   -0.98    1.88
  -4   7   1   -0.76    2.46
  -4   7   1   -0.34    2.74
   3  -7  -1    4.49    2.13
   3  -7  -1    3.05    2.62
   3  -7  -1    2.04    2.36
  -3   7   1    3.83    2.29
  -3   7   1    5.31    2.67
   2  -7  -1    4.56    2.10
   2  -7  -1    4.54    2.30
   2  -7  -1    0.04    2.42
  -2   7   1    2.23    1.72
  -2   7   1    7.42    2.48
  -2   7   1    7.96    1.88
  -2   7   1    2.83    1.53
   1  -7  -1    9.10    2.66
   1  -7  -1    6.97    2.92
   1  -7  -1    8.56    2.53
  -1   7   1    9.78    1.82
  -1   7   1   11.02    2.27
  -1   7   1   11.10    2.37
  -1   7   1   10.93    2.39
   0  -7  -1   -1.69    2.42
   0  -7  -1   -1.88    1.99
   0  -7  -1    1.30    1.69
   0  -7  -1   -0.34    1.37
   0   7   1   -0.54    1.15
   0   7   1   -0.11    1.23
   0   7   1   -0.60    1.06
   0   7   1   -0.85    0.90
  -1  -7  -1   -3.41    2.45
  -1  -7  -1   -0.78    2.26
  -1  -7  -1    0.66    2.15
  -1  -7  -1    0.70    2.03
  -1  -7  -1    4.82    3.07
  -1  -7  -1    1.31    0.93
   1   7   1   -1.16    0.93
   1   7   1   -1.04    1.61
   1   7   1   -1.30    1.31
   1   7   1   -0.12    1.32
  -2  -7  -1   25.78    6.41
  -2  -7  -1   45.87    6.53
  -2  -7  -1   45.89    6.82
  -2  -7  -1   38.52    5.68
  -2  -7  -1   46.65    5.76
   2   7   1   23.89    4.69
   2   7   1   25.71    5.05
   2   7   1   38.55    5.48
  -3  -7  -1    1.89    3.53
  -3  -7  -1   -3.40    3.51
  -3  -7  -1    2.73    3.77
   3   7   1    0.13    2.38
   3   7   1    1.53    1.59
   3   7   1    1.85    2.56
  -4  -7  -1    1.37    5.10
  -4  -7  -1    5.32    5.22
   4   7   1   -2.83    3.23
   4   7   1    3.10    1.93
   4  -8  -1    2.98    3.55
   4  -8  -1    7.48    3.66
   4  -8  -1   -0.14    2.24
  -4   8   1   -1.66    2.54
  -4   8   1    6.10    3.42
   3  -8  -1   -1.60    2.25
   3  -8  -1    0.23    2.09
   3  -8  -1    5.05    3.22
  -3   8   1    0.43    2.01
  -3   8   1    1.98    2.47
   2  -8  -1   -1.69    2.21
   2  -8  -1    0.87    2.67
   2  -8  -1   -0.35    1.99
  -2   8   1    3.20    2.55
  -2   8   1   -1.18    1.72
  -2   8   1   -2.38    1.76
  -2   8   1    0.05    1.50
   1  -8  -1    8.02    2.87
   1  -8  -1    4.16    2.91
   1  -8  -1    3.62    2.32
  -1   8   1   13.16    2.68
  -1   8   1    5.26    1.65
  -1   8   1    8.59    2.24
  -1   8   1    5.51    1.99
   0  -8  -1    5.30    2.83
   0  -8  -1   10.94    3.99
   0  -8  -1    6.47    2.94
   0   8   1   13.21    2.70
   0   8   1   13.99    2.75
   0   8   1    9.69    2.23
   0   8   1   14.43    2.41
  -1  -8  -1    2.48    2.32
  -1  -8  -1   -0.51    3.28
  -1  -8  -1   -2.08    2.46
  -1  -8  -1    5.19    3.39
  -1  -8  -1   -1.50    2.51
   1   8   1    2.05    1.48
   1   8   1   -0.36    1.71
   1   8   1    0.52    1.15
   1   8   1   -1.44    1.74
  -2  -8  -1   -1.25    2.75
  -2  -8  -1    0.91    2.75
  -2  -8  -1   -1.21    3.43
  -2  -8  -1    1.20    3.89
  -2  -8  -1    4.09    3.79
   2   8   1   -2.15    1.35
   2   8   1    0.82    2.11
   2   8   1   -2.51    2.04
  -3  -8  -1    1.88    4.61
  -3  -8  -1    7.66    4.62
  -3  -8  -1    0.27    4.37
   3   8   1    0.03    2.66
   3   8   1   -1.36    2.76
   3   8   1   -1.01    1.67
   4  -9  -1    1.20    3.54
   4  -9  -1   -0.43    2.62
   4  -9  -1   -2.97    3.73
  -4   9   1    0.45    3.35
  -4   9   1   -5.14    2.59
   3  -9  -1    8.27    3.90
   3  -9  -1    4.66    3.26
   3  -9  -1    6.83    3.07
  -3   9   1    6.09    3.27
  -3   9   1    5.02    2.70
   2  -9  -1    3.27    2.83
   2  -9  -1    3.56    2.54
   2  -9  -1    0.64    2.63
  -2   9   1   -1.23    1.61
  -2   9   1    0.99    2.11
  -2   9   1   -1.01    2.59
  -2   9   1    0.31    2.28
   1  -9  -1    6.69    2.81
   1  -9  -1    4.69    3.40
   1  -9  -1    2.18    2.72
  -1   9   1    2.59    1.86
  -1   9   1    1.06    2.26
  -1   9   1    3.77    1.75
   0  -9  -1    3.77    1.98
   0  -9  -1   -0.67    2.93
   0  -9  -1    6.12    4.07
   0  -9  -1    1.84    2.41
   0   9   1    5.27    2.11
   0   9   1    4.65    2.40
   0   9   1    4.56    1.83
   0   9   1    4.20    1.68
  -1  -9  -1    3.51    3.36
  -1  -9  -1   -0.76    2.99
  -1  -9  -1   -0.54    2.21
  -1  -9  -1   -4.54    3.59
  -1  -9  -1    2.91    4.18
   1   9   1    0.52    1.66
   1   9   1   -1.89    1.88
   1   9   1    4.31    2.19
  -2  -9  -1    5.09    3.76
  -2  -9  -1   -8.68    4.19
  -2  -9  -1    6.94    4.70
  -2  -9  -1    7.75    4.53
   2   9   1    9.57    2.97
   2   9   1    1.36    2.63
   2   9   1    5.06    2.22
  -3  -9  -1   -1.20    5.42
  -3  -9  -1    3.10    5.13
   3   9   1    2.50    2.19
   3   9   1    1.69    3.02
   3   9   1    5.05    3.45
   3 -10  -1    0.96    2.80
   3 -10  -1    0.95    4.00
   3 -10  -1    5.49    4.13
   3 -10  -1    5.26    3.58
  -3  10   1    2.07    3.38
  -3  10   1    7.56    3.13
   2 -10  -1   -1.85    2.03
   2 -10  -1   -2.78    2.88
   2 -10  -1    4.16    3.86
  -2  10   1    1.09    2.20
  -2  10   1   -4.31    2.39
  -2  10   1    1.16    3.11
   1 -10  -1    2.64    2.74
   1 -10  -1   12.36    4.39
   1 -10  -1    4.12    3.32
  -1  10   1    1.86    1.93
  -1  10   1    1.91    1.74
  -1  10   1    1.06    2.79
   0 -10  -1   -1.05    3.92
   0 -10  -1   -1.39    2.91
   0 -10  -1   -3.65    3.69
   0 -10  -1    1.30    2.56
   0  10   1   -0.19    1.62
   0  10   1   -0.65    2.43
   0  10   1   -1.25    1.65
  -1 -10  -1   -1.39    3.88
  -1 -10  -1   -4.39    4.22
  -1 -10  -1   -0.03    2.38
  -1 -10  -1    1.23    4.19
   1  10   1   -0.98    1.74
   1  10   1    3.74    2.59
   1  10   1   -0.74    2.15
  -2 -10  -1    2.07    4.94
  -2 -10  -1   -1.01    4.16
  -2 -10  -1   -2.88    5.38
   2  10   1   -0.58    2.59
   2  10   1    1.93    1.93
   2  10   1    9.79    3.22
   2 -11  -1   -1.98    3.81
   2 -11  -1    7.04    3.79
   2 -11  -1   -0.28    3.43
   2 -11  -1    1.20    2.55
  -2  11   1   -2.84    3.44
  -2  11   1   -1.57    2.89
  -2  11   1   -1.24    2.00
   1 -11  -1   -5.21    3.21
   1 -11  -1    0.04    2.93
   1 -11  -1   -2.86    3.40
   1 -11  -1   -2.01    2.43
  -1  11   1    1.40    1.68
  -1  11   1    0.90    3.26
  -1  11   1   -2.74    3.05
  -1  11   1    3.85    2.35
   0 -11  -1   -0.33    3.55
   0 -11  -1    5.10    4.56
   0 -11  -1    1.80    4.17
   0 -11  -1    1.20    2.72
   0  11   1   -0.82    1.92
   0  11   1    4.53    3.23
  -1 -11  -1  -10.19    3.54
  -1 -11  -1    1.54    5.25
  -1 -11  -1    4.61    3.21
  -1 -11  -1   -2.44    4.08
   1  11   1    5.50    3.15
   1  11   1   -0.58    1.99
   2  11   1   -1.84    2.72
   1 -12  -1   -0.57    3.83
   1 -12  -1   -2.29    3.54
   1 -12  -1    0.20    2.59
  -1  12   1   -3.67    3.38
  -1  12   1    0.50    1.93
  -1  12   1   -1.71    3.51
   0 -12  -1    1.65    5.08
   0 -12  -1    3.35    4.80
   0 -12  -1   -1.33    2.84
   0 -12  -1   -1.55    4.06
   0  12   1   -0.62    3.54
   0  12   1    1.22    1.99
   1  12  -2    0.89    2.99
   1  12  -2    2.19    2.16
  -1 -12   2   -2.65    5.28
  -1 -12   2    0.92    3.09
  -1 -12   2    0.88    5.94
  -1 -12   2    4.05    4.41
   0  12  -2   -1.37    3.03
   0  12  -2    0.44    1.89
   0 -12   2    2.45    3.03
   0 -12   2   -4.25    4.49
   0 -12   2    4.81    4.05
  -1  12  -2    0.67    2.50
  -1  12  -2    0.16    3.31
  -1  12  -2   -0.73    1.72
   1 -12   2    4.54    3.72
   1 -12   2   -0.33    3.42
   1 -12   2   -0.92    2.63
  -2  12  -2   -1.41    3.38
  -2  12  -2   -0.59    3.86
  -2  12  -2   -1.52    2.83
   2 -12   2    6.25    3.99
   2 -12   2    4.32    4.49
   2 -12   2   -0.33    2.59
   2  11  -2   -2.98    2.45
   2  11  -2    1.61    2.77
   2  11  -2    1.67    2.15
  -2 -11   2    1.47    5.57
  -2 -11   2   -2.08    5.50
  -2 -11   2    0.71    4.41
   1  11  -2   -2.43    3.07
   1  11  -2   -0.65    2.38
   1  11  -2   -1.05    1.62
  -1 -11   2    3.86    3.08
  -1 -11   2   -0.79    4.71
  -1 -11   2   -4.11    4.19
  -1 -11   2    1.40    3.86
   0  11  -2   -0.29    2.70
   0  11  -2    2.79    2.14
   0  11  -2    3.89    2.15
   0 -11   2   -0.73    3.49
   0 -11   2    4.82    3.02
   0 -11   2    6.36    4.27
  -1  11  -2   -4.15    2.78
  -1  11  -2   -2.20    1.78
  -1  11  -2   -1.61    1.60
   1 -11   2   -3.52    3.40
   1 -11   2    1.00    2.37
   1 -11   2   -2.02    3.04
  -2  11  -2   -3.09    2.72
  -2  11  -2   -3.63    3.31
  -2  11  -2   -1.02    2.36
   2 -11   2    2.18    3.89
   2 -11   2   -0.56    2.32
   2 -11   2    0.99    3.13
  -3  11  -2    0.19    4.00
  -3  11  -2   -0.98    2.87
   3 -11   2    2.43    3.38
   3 -11   2    1.61    3.83
   3 -11   2   -0.16    2.78
   3  10  -2   -3.10    2.89
   2  10  -2   -0.63    1.70
   2  10  -2   -0.65    2.29
  -2 -10   2    1.19    4.66
  -2 -10   2   -4.01    4.41
  -2 -10   2   -6.66    4.18
  -2 -10   2    1.80    3.82
   1  10  -2    4.23    2.05
   1  10  -2    2.73    1.93
   1  10  -2    5.27    2.39
  -1 -10   2    2.33    2.79
  -1 -10   2   11.64    4.94
  -1 -10   2   10.37    5.08
  -1 -10   2   -1.21    3.37
  -1 -10   2    3.28    3.48
   0  10  -2    4.63    2.61
   0  10  -2    6.61    2.34
   0  10  -2    4.00    1.91
   0 -10   2   10.34    3.59
   0 -10   2    6.59    4.16
   0 -10   2    1.01    2.23
  -1  10  -2    1.60    2.08
  -1  10  -2   -1.88    1.51
  -1  10  -2   -1.24    2.38
   1 -10   2    1.71    2.51
   1 -10   2    4.02    3.07
   1 -10   2   -3.23    2.98
  -2  10  -2    1.08    2.70
  -2  10  -2   -1.71    2.91
  -2  10  -2    5.45    3.42
  -2  10  -2   -1.98    2.08
   2 -10   2   -2.28    2.02
   2 -10   2    2.36    3.04
   2 -10   2    2.73    2.80
  -3  10  -2    1.69    3.48
  -3  10  -2    0.38    2.69
   3 -10   2   -2.75    3.15
   3 -10   2   -2.48    2.44
   3 -10   2    9.29    3.40
   3   9  -2    2.16    2.05
   3   9  -2    2.59    2.88
  -3  -9   2    2.39    5.00
  -3  -9   2    5.44    4.65
  -3  -9   2   16.21    6.12
   2   9  -2    1.67    1.97
   2   9  -2   -0.10    2.00
   2   9  -2   -1.55    1.96
  -2  -9   2    0.88    3.96
  -2  -9   2   -0.64    3.76
  -2  -9   2   -2.13    3.71
  -2  -9   2    1.03    3.25
   1   9  -2    2.35    1.57
   1   9  -2    1.63    1.84
   1   9  -2    6.74    2.15
   1   9  -2    1.76    1.67
  -1  -9   2   -0.32    2.84
  -1  -9   2   -3.68    3.19
  -1  -9   2    4.73    2.66
  -1  -9   2   -1.45    2.64
  -1  -9   2   -1.80    3.79
   0   9  -2   16.44    3.30
   0   9  -2   17.58    3.29
   0   9  -2   22.35    3.08
   0  -9   2    4.18    4.05
   0  -9   2   19.74    4.06
   0  -9   2   12.86    3.14
   0  -9   2   13.39    3.53
  -1   9  -2    4.75    2.50
  -1   9  -2    3.95    2.22
  -1   9  -2    4.40    1.97
   1  -9   2    3.51    2.48
   1  -9   2    4.08    3.05
   1  -9   2    8.25    2.90
  -2   9  -2    0.85    1.99
  -2   9  -2    7.43    2.76
  -2   9  -2    6.19    2.58
  -2   9  -2    6.52    3.03
   2  -9   2    9.85    3.03
   2  -9   2    2.74    3.09
   2  -9   2    3.38    2.46
  -3   9  -2    1.78    2.96
  -3   9  -2    1.59    2.57
   3  -9   2    0.20    2.39
   3  -9   2    1.41    3.09
   3  -9   2    3.72    2.86
  -4   9  -2    3.10    3.68
  -4   9  -2   -1.19    3.04
   4  -9   2    0.85    2.66
   4  -9   2    6.50    3.80
   3   8  -2    3.27    2.13
   3   8  -2    3.16    2.69
   3   8  -2    3.26    2.71
  -3  -8   2   -3.84    3.78
  -3  -8   2    9.70    5.10
  -3  -8   2   -0.58    4.10
   2   8  -2    0.06    1.51
   2   8  -2    0.69    1.91
   2   8  -2    4.42    2.11
  -2  -8   2   -1.27    2.57
  -2  -8   2    0.12    3.39
  -2  -8   2   -1.11    2.27
  -2  -8   2    2.47    3.35
  -2  -8   2    1.28    2.89
   1   8  -2    8.95    2.01
   1   8  -2    3.08    1.77
   1   8  -2    2.85    1.93
  -1  -8   2   -0.54    2.38
  -1  -8   2    3.82    3.68
  -1  -8   2    6.63    3.69
  -1  -8   2    4.94    2.77
  -1  -8   2    4.42    2.41
   0   8  -2    2.47    1.79
   0   8  -2    7.66    2.37
   0   8  -2    7.73    2.06
   0   8  -2    7.97    1.83
   0  -8   2    5.49    3.07
   0  -8   2    5.18    2.43
   0  -8   2    5.81    2.60
   0  -8   2    5.29    2.10
  -1   8  -2    5.57    2.07
  -1   8  -2    7.25    2.32
  -1   8  -2    3.67    1.82
   1  -8   2    7.01    2.57
   1  -8   2    8.15    3.19
   1  -8   2    4.96    1.49
   1  -8   2    1.77    2.00
  -2   8  -2    4.54    2.33
  -2   8  -2    4.61    2.80
  -2   8  -2    6.41    2.13
  -2   8  -2    2.68    1.86
   2  -8   2    6.72    2.61
   2  -8   2    1.54    1.98
   2  -8   2    0.88    2.15
  -3   8  -2    1.39    2.41
  -3   8  -2   -1.19    2.14
   3  -8   2   -0.14    2.13
   3  -8   2    1.13    2.51
   3  -8   2   -1.79    2.54
  -4   8  -2   -3.63    2.39
  -4   8  -2    5.98    3.33
   4  -8   2    1.10    2.34
   4  -8   2    0.59    3.32
   4   7  -2    0.86    1.68
   4   7  -2    2.38    3.28
  -4  -7   2   -1.76    4.32
  -4  -7   2    2.62    5.02
   3   7  -2    0.56    2.47
   3   7  -2    1.22    2.15
   3   7  -2    1.20    1.70
  -3  -7   2    3.74    3.74
  -3  -7   2   -3.18    3.23
  -3  -7   2   -2.51    3.65
   2   7  -2    2.27    2.08
   2   7  -2    2.40    1.89
   2   7  -2    4.29    1.83
  -2  -7   2    0.69    2.27
  -2  -7   2    5.38    3.10
  -2  -7   2    6.70    3.39
  -2  -7   2   -1.37    2.13
  -2  -7   2    0.18    2.88
   1   7  -2   22.58    3.52
   1   7  -2   28.75    3.57
   1   7  -2   19.07    3.32
  -1  -7   2   11.50    3.05
  -1  -7   2   21.25    4.67
  -1  -7   2   25.05    3.95
  -1  -7   2   24.47    5.20
  -1  -7   2   16.56    3.56
  -1  -7   2   19.53    3.88
   0   7  -2   14.30    2.27
   0   7  -2   15.21    2.59
   0   7  -2    9.30    2.34
   0   7  -2   13.33    2.56
   0  -7   2   11.72    3.39
   0  -7   2   12.84    3.06
   0  -7   2   12.60    2.54
   0  -7   2    9.54    2.71
  -1   7  -2   -0.57    1.40
  -1   7  -2   -0.28    1.22
   1  -7   2    0.41    2.00
   1  -7   2   -1.62    1.65
   1  -7   2   -2.48    1.66
   1  -7   2    0.38    1.13
  -2   7  -2   15.40    3.32
  -2   7  -2   13.89    3.12
  -2   7  -2   19.39    2.77
  -2   7  -2   12.52    2.65
   2  -7   2    9.82    2.81
   2  -7   2    9.62    2.81
   2  -7   2   10.27    3.15
  -3   7  -2    1.86    2.36
  -3   7  -2    2.08    2.15
   3  -7   2   -0.35    1.76
   3  -7   2    1.34    2.59
   3  -7   2    1.63    2.10
  -4   7  -2   10.36    3.20
  -4   7  -2    0.97    2.76
   4  -7   2   -3.93    2.70
   4  -7   2   -0.32    1.84
   4   6  -2    2.12    3.17
   4   6  -2   -0.30    1.39
  -4  -6   2    6.13    4.38
  -4  -6   2   -0.37    4.09
  -4  -6   2   -1.93    3.99
   3   6  -2   12.78    2.77
   3   6  -2    8.02    3.00
   3   6  -2    8.30    2.16
  -3  -6   2    3.18    3.34
  -3  -6   2   13.93    4.06
  -3  -6   2   14.50    4.05
   2   6  -2    0.59    1.47
   2   6  -2   -0.59    1.85
   2   6  -2    1.31    1.36
  -2  -6   2    5.16    2.63
  -2  -6   2    1.61    2.04
  -2  -6   2   -0.18    2.31
  -2  -6   2    0.44    2.22
  -2  -6   2    1.32    1.90
   1   6  -2   10.10    2.08
   1   6  -2    7.83    2.07
   1   6  -2   13.24    2.20
  -1  -6   2    5.69    1.63
  -1  -6   2    3.18    2.00
  -1  -6   2    6.38    2.35
  -1  -6   2   15.91    3.46
  -1  -6   2   13.50    2.61
  -1  -6   2    4.17    2.60
   0   6  -2    1.10    1.26
   0   6  -2    0.39    1.11
   0   6  -2    2.43    1.12
   0  -6   2    1.63    1.39
   0  -6   2    2.25    1.75
   0  -6   2    0.80    1.49
   0  -6   2    3.67    2.04
  -1   6  -2   45.01    4.87
  -1   6  -2   38.02    4.32
   1  -6   2   23.48    4.47
   1  -6   2   25.15    4.32
   1  -6   2   21.18    4.34
  -2   6  -2   13.62    2.30
  -2   6  -2   12.90    2.33
  -2   6  -2   15.25    2.97
  -2   6  -2   15.20    2.93
  -2   6  -2   18.89    2.61
   2  -6   2    5.81    2.38
   2  -6   2   12.11    2.70
   2  -6   2   10.85    2.46
   2  -6   2   11.48    2.82
   2  -6   2   12.79    3.08
  -3   6  -2    2.50    2.18
  -3   6  -2    0.18    1.91
   3  -6   2    0.15    1.97
   3  -6   2   -1.45    1.67
   3  -6   2    0.69    1.51
  -4   6  -2    1.86    2.56
  -4   6  -2    1.57    2.65
   4  -6   2    4.28    3.02
   4  -6   2   -0.44    1.54
   4   5  -2    1.72    1.27
   4   5  -2    3.02    3.35
  -4  -5   2    4.29    3.58
  -4  -5   2    5.56    3.84
  -4  -5   2    1.09    3.86
   3   5  -2    2.68    1.45
   3   5  -2    3.60    1.94
   3   5  -2    4.03    2.57
  -3  -5   2    0.61    3.03
  -3  -5   2    5.33    2.96
  -3  -5   2    7.62    3.37
   2   5  -2    0.67    1.65
   2   5  -2    0.24    1.29
   2   5  -2    1.78    0.66
   2   5  -2    2.25    1.28
   2   5  -2    3.77    1.37
  -2  -5   2   -0.86    1.93
  -2  -5   2    1.88    2.12
  -2  -5   2    1.27    1.58
  -2  -5   2    0.82    1.44
  -2  -5   2    4.55    1.71
  -2  -5   2    0.52    2.02
   1   5  -2  122.77   14.29
   1   5  -2  119.15   14.13
   1   5  -2  123.25   14.30
  -1  -5   2  132.52   14.78
  -1  -5   2  104.99   14.33
  -1  -5   2  111.19   14.01
  -1  -5   2  116.55   14.35
  -1  -5   2  115.26   14.30
  -1  -5   2  132.63   14.84
   0   5  -2   21.49    2.78
   0   5  -2   23.41    3.29
   0   5  -2   21.53    3.25
   0  -5   2   20.09    3.30
   0  -5   2   20.06    3.27
   0  -5   2   19.13    3.33
   0  -5   2   20.98    3.09
   0  -5   2   17.65    3.68
  -1   5  -2   14.98    2.41
  -1   5  -2   12.55    1.98
  -1   5  -2   14.14    2.21
   1  -5   2    8.24    2.13
   1  -5   2    6.34    2.07
   1  -5   2   10.82    2.28
   1  -5   2    9.58    2.22
  -2   5  -2   13.82    2.52
  -2   5  -2   10.47    1.89
  -2   5  -2    8.96    1.65
  -2   5  -2   10.34    1.62
  -2   5  -2    8.86    2.24
   2  -5   2   11.99    2.22
   2  -5   2    7.66    1.97
   2  -5   2    8.83    2.12
   2  -5   2    7.96    2.20
   2  -5   2    6.68    2.11
  -3   5  -2    0.96    1.87
  -3   5  -2    1.91    1.54
   3  -5   2    1.12    1.00
   3  -5   2    1.32    1.40
   3  -5   2    2.20    1.66
   3  -5   2   -0.65    1.77
  -4   5  -2    0.95    2.55
  -4   5  -2    2.53    2.39
   4  -5   2    2.76    2.66
   4  -5   2    1.79    1.26
  -5   5  -2    6.21    3.56
  -5   5  -2    7.58    3.52
   5  -5   2    4.41    3.65
   4   4  -2    5.77    3.38
   4   4  -2    1.27    0.99
  -4  -4   2    2.78    3.57
  -4  -4   2    6.19    4.27
  -4  -4   2    3.65    3.27
   3   4  -2    1.25    1.01
   3   4  -2   -1.14    2.16
   3   4  -2    2.67    1.59
   3   4  -2    1.06    1.11
  -3  -4   2    0.83    2.36
  -3  -4   2   -0.91    2.26
  -3  -4   2   -0.80    2.23
   2   4  -2    5.40    1.14
   2   4  -2    5.48    1.76
   2   4  -2    4.22    1.62
   2   4  -2    4.23    1.54
  -2  -4   2    6.97    1.88
  -2  -4   2    6.95    1.47
  -2  -4   2    9.01    2.31
  -2  -4   2    6.20    1.51
  -2  -4   2    6.75    2.21
  -2  -4   2    7.88    2.14
   1   4  -2   37.86    4.45
   1   4  -2   28.01    4.04
   1   4  -2   33.30    4.52
   1   4  -2   31.52    4.30
  -1  -4   2   32.44    4.59
  -1  -4   2   33.67    4.73
  -1  -4   2   38.74    4.99
  -1  -4   2   35.83    4.92
  -1  -4   2   29.96    4.07
  -1  -4   2   33.64    4.62
  -1  -4   2   34.06    4.52
   0   4  -2    9.06    1.72
   0   4  -2   15.86    2.12
   0   4  -2    9.47    1.77
   0  -4   2    7.40    2.10
   0  -4   2    7.39    1.63
   0  -4   2    8.67    1.79
   0  -4   2    7.04    1.70
   0  -4   2    7.31    1.58
   0  -4   2    9.69    1.92
  -1   4  -2  119.37   13.18
  -1   4  -2  117.82   13.08
  -1   4  -2  121.54   13.25
  -1   4  -2  114.96   13.12
   1  -4   2  102.78   13.29
   1  -4   2   95.14   13.17
   1  -4   2  118.01   13.20
   1  -4   2   92.93   13.20
  -2   4  -2    1.13    1.22
  -2   4  -2    1.45    0.89
  -2   4  -2    0.62    1.35
  -2   4  -2    1.19    0.51
  -2   4  -2    1.73    0.60
   2  -4   2    1.95    1.07
   2  -4   2    2.51    1.50
   2  -4   2   -0.60    1.01
   2  -4   2    0.16    1.16
   2  -4   2   -1.60    0.93
   2  -4   2    0.63    0.60
  -3   4  -2    2.60    1.82
  -3   4  -2    3.10    1.97
   3  -4   2    3.82    2.07
   3  -4   2    3.79    1.38
   3  -4   2    2.01    1.19
   3  -4   2    5.55    1.42
   3  -4   2    3.65    1.40
  -4   4  -2   -2.41    1.97
  -4   4  -2    2.13    2.20
   4  -4   2    0.45    1.97
   4  -4   2    0.97    2.49
  -5   4  -2    2.02    2.98
  -5   4  -2   -3.97    2.81
   5  -4   2   -0.23    3.14
   5   3  -2   -0.67    3.35
  -5  -3   2   -1.28    4.17
  -5  -3   2   -3.81    4.42
  -5  -3   2    6.56    4.23
   4   3  -2    1.39    2.97
  -4  -3   2   -4.38    3.53
  -4  -3   2   -1.68    2.99
  -4  -3   2    4.68    3.24
   3   3  -2   25.65    3.49
   3   3  -2   23.76    3.68
   3   3  -2   23.92    3.27
   3   3  -2   19.90    4.07
   3   3  -2   23.35    3.44
  -3  -3   2   24.00    4.53
  -3  -3   2   30.93    4.87
  -3  -3   2   27.98    4.89
   2   3  -2    5.91    1.53
   2   3  -2    5.11    1.22
   2   3  -2    7.25    1.50
   2   3  -2    7.01    1.39
  -2  -3   2    8.23    2.17
  -2  -3   2    6.00    1.89
  -2  -3   2    7.95    1.52
  -2  -3   2    7.80    1.95
   1   3  -2    1.73    0.85
   1   3  -2    2.00    0.88
   1   3  -2    1.75    1.02
   1   3  -2    1.51    0.59
   1   3  -2    3.79    1.06
   1   3  -2    1.67    0.71
   1   3  -2    1.37    0.70
  -1  -3   2    2.22    1.10
  -1  -3   2    4.25    1.32
  -1  -3   2    0.41    0.88
  -1  -3   2    5.10    1.10
  -1  -3   2    1.49    1.08
  -1  -3   2    1.60    1.02
  -1  -3   2    2.51    1.05
  -1  -3   2    1.19    0.95
  -1  -3   2    0.92    0.60
   0   3  -2   12.98    1.74
   0   3  -2   12.67    1.71
   0   3  -2   11.29    1.70
   0   3  -2    6.25    1.52
   0   3  -2    7.61    1.54
   0  -3   2    7.82    1.57
   0  -3   2    9.71    1.68
   0  -3   2    9.92    1.66
   0  -3   2    6.48    1.66
   0  -3   2    6.92    1.46
   0  -3   2    6.10    1.52
   0  -3   2    9.30    1.64
  -1   3  -2  141.20   13.63
  -1   3  -2  113.33   13.44
  -1   3  -2  111.64   13.59
  -1   3  -2  111.86   13.52
  -1   3  -2  115.01   13.54
  -1   3  -2  117.85   13.46
  -1   3  -2  135.81   13.66
   1  -3   2   98.15   13.53
   1  -3   2  119.57   13.56
   1  -3   2   95.41   13.56
   1  -3   2   96.65   13.55
   1  -3   2  122.71   13.77
   1  -3   2  118.15   13.52
   1  -3   2  115.46   13.59
  -2   3  -2    3.40    0.94
  -2   3  -2    9.47    1.82
  -2   3  -2    8.43    1.70
   2  -3   2    5.48    1.33
   2  -3   2    6.51    1.26
   2  -3   2    9.97    1.87
   2  -3   2    4.73    1.14
   2  -3   2    6.02    1.37
   2  -3   2    6.35    1.21
  -3   3  -2   16.79    2.82
  -3   3  -2    8.81    1.38
  -3   3  -2   16.42    2.68
   3  -3   2   11.06    1.80
   3  -3   2   16.93    2.76
   3  -3   2    7.26    2.13
   3  -3   2    9.97    1.65
   3  -3   2   14.70    2.25
   3  -3   2   11.08    1.78
  -4   3  -2    2.17    2.25
  -4   3  -2    4.05    2.40
   4  -3   2    3.03    2.55
   4  -3   2    1.57    2.00
  -5   3  -2    0.73    2.90
   5  -3   2    0.07    3.06
   5  -3   2   -3.68    3.19
   5   2  -2   -2.66    3.10
  -5  -2   2   -0.59    3.91
  -5  -2   2   -1.09    3.47
  -5  -2   2   -0.43    4.70
   4   2  -2   11.47    2.53
   4   2  -2    7.98    3.48
  -4  -2   2   15.60    3.82
  -4  -2   2    7.04    3.55
  -4  -2   2    9.75    3.88
   3   2  -2   -0.12    0.79
   3   2  -2    0.38    0.57
   3   2  -2   -1.41    0.95
   3   2  -2   -1.11    0.50
   3   2  -2   -0.75    1.05
  -3  -2   2    3.16    2.14
  -3  -2   2    0.44    1.98
  -3  -2   2   -0.44    1.72
   2   2  -2   -0.46    0.53
   2   2  -2    0.33    0.62
   2   2  -2    0.07    0.65
   2   2  -2    0.78    0.66
   2   2  -2    0.96    0.76
  -2  -2   2   -0.28    0.28
  -2  -2   2   -0.21    1.17
  -2  -2   2   -0.79    1.10
  -2  -2   2    1.30    1.32
   1   2  -2  278.08   29.09
   1   2  -2  253.68   29.07
   1   2  -2  258.37   29.00
   1   2  -2  261.53   29.03
   1   2  -2  230.44   29.05
   1   2  -2  253.24   29.12
  -1  -2   2  253.56   28.97
  -1  -2   2  262.26   29.20
  -1  -2   2  237.84   29.07
  -1  -2   2  247.19   29.03
  -1  -2   2  226.87   28.95
  -1  -2   2  214.03   29.01
  -1  -2   2  255.00   29.14
  -1  -2   2  269.95   28.97
   0   2  -2   46.68    5.00
   0   2  -2   45.23    5.10
   0   2  -2   37.92    5.02
   0   2  -2   40.10    5.02
   0   2  -2   49.04    5.05
   0   2  -2   42.07    5.00
   0  -2   2   36.73    5.05
   0  -2   2   37.09    4.99
   0  -2   2   37.59    5.07
   0  -2   2   40.62    5.03
   0  -2   2   43.34    5.02
   0  -2   2   38.55    5.02
  -1   2  -2  244.51   29.44
  -1   2  -2  238.15   29.44
  -1   2  -2  274.49   29.54
  -1   2  -2  248.93   29.38
  -1   2  -2  246.93   29.57
  -1   2  -2  292.28   29.35
  -1   2  -2  240.60   29.35
  -1   2  -2  237.99   29.51
  -1   2  -2  285.70   29.45
   1  -2   2  267.49   29.64
   1  -2   2  233.05   29.44
   1  -2   2  250.35   29.39
   1  -2   2  253.87   29.34
   1  -2   2  273.13   29.53
   1  -2   2  238.39   29.45
   1  -2   2  241.41   29.47
   1  -2   2  245.43   29.53
  -2   2  -2    0.24    1.06
  -2   2  -2    0.56    0.54
  -2   2  -2   -0.26    0.98
  -2   2  -2   -0.43    0.94
   2  -2   2    1.81    0.59
   2  -2   2    1.72    0.76
   2  -2   2    0.53    0.60
   2  -2   2    2.39    0.82
   2  -2   2    1.00    0.92
   2  -2   2    3.23    1.15
  -3   2  -2   13.86    2.60
  -3   2  -2    9.86    2.60
  -3   2  -2   12.83    2.64
   3  -2   2   13.92    1.72
   3  -2   2    9.95    2.51
   3  -2   2    8.95    1.89
   3  -2   2   14.97    1.86
   3  -2   2   10.89    1.58
   3  -2   2   11.01    2.29
  -4   2  -2    1.77    2.34
  -4   2  -2    2.95    2.24
  -4   2  -2    2.27    2.08
   4  -2   2   -1.21    2.14
   4  -2   2    3.02    2.15
  -5   2  -2    0.08    2.97
   5  -2   2   -0.02    2.60
   5  -2   2    0.32    3.07
   5  -2   2   -2.10    2.99
   5   1  -2   -2.88    2.54
   5   1  -2   -2.70    3.05
  -5  -1   2    4.21    3.74
  -5  -1   2   -0.16    3.57
   4   1  -2    1.87    1.86
   4   1  -2    1.70    2.72
  -4  -1   2    2.77    2.83
  -4  -1   2    3.26    2.75
  -4  -1   2    1.90    2.73
   3   1  -2    1.34    0.60
   3   1  -2    3.17    1.40
   3   1  -2    1.89    0.70
  -3  -1   2   -1.91    1.79
  -3  -1   2    2.15    2.06
  -3  -1   2    1.60    1.66
   2   1  -2   59.15    5.74
   2   1  -2   44.63    5.37
   2   1  -2   46.67    5.44
   2   1  -2   49.19    5.38
   2   1  -2   40.79    5.35
  -2  -1   2   54.14    6.01
  -2  -1   2   39.00    5.32
  -2  -1   2   50.95    6.01
  -2  -1   2   44.14    5.33
  -2  -1   2   53.19    5.93
   1   1  -2  131.70   14.32
   1   1  -2  120.19   14.23
   1   1  -2  118.53   14.20
   1   1  -2  119.08   14.12
   1   1  -2  116.50   14.18
   1   1  -2  141.39   14.15
   1   1  -2  121.91   14.11
   1   1  -2  132.06   14.16
   1   1  -2  123.30   14.26
  -1  -1   2  117.97   14.21
  -1  -1   2  117.13   14.12
  -1  -1   2  122.17   14.19
  -1  -1   2  124.99   14.34
  -1  -1   2  111.94   14.24
  -1  -1   2  109.00   14.03
   0   1  -2   37.90    4.45
   0   1  -2   37.29    4.52
   0   1  -2   41.23    4.47
   0   1  -2   37.97    4.46
   0  -1   2   32.86    4.44
   0  -1   2   39.88    4.45
   0  -1   2   35.75    4.44
   0  -1   2   37.38    4.45
  -1   1  -2  907.54  108.30
  -1   1  -2  957.51  108.26
  -1   1  -2  889.17  108.16
  -1   1  -2  915.05  108.39
  -1   1  -2  962.46  108.24
   1  -1   2  973.36  108.30
   1  -1   2  979.19  108.25
   1  -1   2  914.44  108.40
   1  -1   2  981.22  108.26
   1  -1   2  866.06  108.21
   1  -1   2  861.80  108.21
   1  -1   2 1000.00  108.45
   1  -1   2  947.73  108.19
   1  -1   2  944.28  108.23
   1  -1   2  972.07  108.37
  -2   1  -2   -1.14    0.82
  -2   1  -2    1.35    1.00
  -2   1  -2    1.55    0.40
  -2   1  -2   -0.05    1.21
  -2   1  -2    0.32    0.42
  -2   1  -2   -0.25    0.90
   2  -1   2    0.70    0.46
   2  -1   2    1.06    0.46
   2  -1   2    0.95    0.58
   2  -1   2    0.57    0.96
   2  -1   2    0.21    0.84
   2  -1   2    0.78    0.43
  -3   1  -2    5.23    2.40
  -3   1  -2    4.37    2.01
  -3   1  -2    4.32    1.80
  -3   1  -2    7.61    1.96
   3  -1   2    3.28    0.99
   3  -1   2    6.73    1.05
   3  -1   2    4.80    2.04
   3  -1   2    4.82    1.76
  -4   1  -2    0.01    2.25
  -4   1  -2    2.18    2.20
   4  -1   2    2.35    2.14
   4  -1   2    1.87    2.25
  -5   1  -2    2.80    3.45
   5  -1   2   -1.24    2.55
   5  -1   2    0.53    2.88
   5  -1   2    2.29    3.16
   5   0  -2    1.59    2.94
   5   0  -2    0.12    2.60
   5   0  -2   -0.10    3.05
   4   0  -2    3.29    2.61
   4   0  -2    1.97    2.03
   4   0  -2   -0.97    1.74
  -4   0   2   -0.95    2.07
  -4   0   2    4.29    2.83
  -4   0   2   -1.79    2.50
   3   0  -2    4.51    1.67
  -3   0   2    5.02    2.14
  -3   0   2    6.67    2.38
  -3   0   2    9.74    2.32
  -3   0   2    6.56    2.46
   2   0  -2    1.22    0.83
  -2   0   2    0.43    1.08
  -2   0   2   -0.13    1.03
  -2   0   2    1.43    1.16
  -2   0   2    1.43    1.11
  -2   0   2    1.85    1.13
   1   0  -2   -0.46    0.55
   1   0  -2    0.34    0.52
   1   0  -2    0.22    0.22
   1   0  -2   -0.01    0.43
   1   0  -2    0.58    0.29
   1   0  -2    0.62    0.26
   1   0  -2    0.62    0.23
   1   0  -2    0.45    0.47
   1   0  -2    0.41    0.48
   1   0  -2    0.59    0.62
  -1   0   2    0.09    0.59
  -1   0   2    0.73    0.49
  -1   0   2    0.55    0.59
  -1   0   2    0.87    0.28
  -1   0   2    0.14    0.13
  -1   0   2    0.87    0.64
  -1   0   2    0.66    0.62
  -1   0   2    0.36    0.54
   0   0  -2    0.83    0.21
   0   0  -2    2.22    0.33
   0   0  -2    0.01    0.17
   0   0  -2    2.33    0.37
   0   0  -2   -0.01    0.13
   0   0  -2    1.26    0.23
   0   0  -2    2.45    0.39
   0   0   2    3.16    0.44
   0   0   2    2.78    0.35
   0   0   2    0.64    0.18
   0   0   2    0.75    0.24
   0   0   2    2.12    0.32
   0   0   2    0.11    0.14
   0   0   2    0.30    0.14
  -1   0  -2  204.49   24.76
  -1   0  -2  212.65   24.85
  -1   0  -2  197.54   24.96
  -1   0  -2  209.01   24.72
  -1   0  -2  214.37   24.97
  -1   0  -2  213.65   24.81
   1   0   2  224.07   24.81
   1   0   2  220.39   24.85
   1   0   2  218.32   24.78
   1   0   2  211.35   24.75
   1   0   2  206.12   24.76
   1   0   2  219.96   24.96
   1   0   2  213.42   24.94
   1   0   2  225.81   24.78
   1   0   2  216.70   24.94
   1   0   2  213.49   24.80
  -2   0  -2    2.36    0.56
  -2   0  -2    2.64    0.55
  -2   0  -2    3.92    1.20
  -2   0  -2    2.71    1.56
  -2   0  -2    3.04    1.37
   2   0   2    2.70    0.63
   2   0   2    5.10    1.21
   2   0   2    3.25    0.68
   2   0   2    2.91    0.96
   2   0   2    3.44    0.66
   2   0   2    1.15    0.66
   2   0   2    2.32    1.14
  -3   0  -2   18.30    3.53
  -3   0  -2   27.77    4.19
  -3   0  -2   18.69    3.06
   3   0   2   18.62    2.31
   3   0   2   13.59    2.08
   3   0   2   21.19    3.17
   3   0   2   16.95    2.30
   3   0   2   16.95    2.12
  -4   0  -2    3.25    2.45
  -4   0  -2    0.91    2.30
  -4   0  -2    2.14    2.98
   4   0   2    4.20    2.52
  -5   0  -2   -2.76    3.08
   5   0   2   -4.28    2.99
   5   0   2    1.58    2.82
   5  -1  -2   -0.59    3.08
   5  -1  -2    0.09    2.68
   5  -1  -2    1.04    2.78
   4  -1  -2   16.33    3.28
   4  -1  -2   17.46    3.29
   4  -1  -2   12.61    3.37
  -4   1   2   16.63    3.69
  -4   1   2   11.82    3.55
   3  -1  -2    1.18    1.47
   3  -1  -2    0.00    1.27
  -3   1   2    0.93    1.56
  -3   1   2   -0.01    1.86
  -3   1   2    1.21    1.79
  -3   1   2   -1.93    1.40
   2  -1  -2   29.05    3.45
   2  -1  -2   21.63    2.75
   2  -1  -2   20.26    2.73
   2  -1  -2   27.07    3.10
  -2   1   2   26.45    3.58
  -2   1   2   25.43    3.48
  -2   1   2   25.40    3.46
  -2   1   2   20.87    3.38
   1  -1  -2  252.70   28.60
   1  -1  -2  234.30   28.51
   1  -1  -2  243.87   28.59
   1  -1  -2  255.26   28.50
   1  -1  -2  247.18   28.56
   1  -1  -2  242.70   28.45
   1  -1  -2  238.35   28.42
   1  -1  -2  240.59   28.42
   1  -1  -2  252.56   28.42
   1  -1  -2  246.74   28.51
  -1   1   2  249.18   28.56
  -1   1   2  245.45   28.61
  -1   1   2  231.64   28.49
  -1   1   2  238.64   28.47
  -1   1   2  282.94   28.46
  -1   1   2  230.38   28.36
   0  -1  -2    4.19    0.73
   0  -1  -2    2.40    0.61
   0  -1  -2    2.91    0.59
   0  -1  -2    3.36    0.65
   0  -1  -2    3.99    0.65
   0  -1  -2    3.20    0.63
   0  -1  -2    2.52    0.61
   0  -1  -2    3.14    0.70
   0  -1  -2    3.37    0.58
   0   1   2    4.04    0.72
   0   1   2    4.48    0.70
   0   1   2    3.63    0.61
   0   1   2    5.41    0.62
   0   1   2    3.29    0.60
   0   1   2    5.62    0.76
   0   1   2    3.91    0.66
   0   1   2    5.53    0.79
  -1  -1  -2    0.54    0.58
  -1  -1  -2    1.04    0.83
  -1  -1  -2    0.62    0.48
  -1  -1  -2    1.05    0.47
  -1  -1  -2    0.64    0.82
  -1  -1  -2    0.15    0.41
  -1  -1  -2    0.67    0.46
  -1  -1  -2    0.83    0.43
   1   1   2    1.45    0.64
   1   1   2    1.18    0.43
   1   1   2    1.29    0.39
   1   1   2    0.83    0.70
   1   1   2    0.55    0.63
   1   1   2    1.28    0.50
   1   1   2    1.07    0.74
   1   1   2    0.76    0.47
   1   1   2    0.32    0.48
   1   1   2    1.43    0.50
  -2  -1  -2    3.00    1.40
  -2  -1  -2   -0.33    1.23
  -2  -1  -2    1.08    0.99
  -2  -1  -2   -1.62    1.07
  -2  -1  -2   -0.10    0.24
   2   1   2    0.87    0.64
   2   1   2   -0.09    0.65
   2   1   2    0.54    1.06
   2   1   2    1.09    0.56
   2   1   2    0.77    0.62
   2   1   2    1.34    0.62
  -3  -1  -2   11.58    3.07
  -3  -1  -2    9.09    2.65
   3   1   2    5.11    2.01
   3   1   2    8.64    1.30
   3   1   2    5.95    1.49
   3   1   2    7.75    1.53
   3   1   2    8.17    1.35
  -4  -1  -2    0.24    3.03
  -4  -1  -2   -0.75    2.17
   4   1   2    0.99    1.71
   4   1   2    2.84    2.55
  -5  -1  -2    1.37    3.99
  -5  -1  -2    0.28    3.43
   5   1   2   -0.85    2.75
   5   1   2   -2.02    3.51
   5  -2  -2    2.42    2.74
   5  -2  -2   -1.90    2.79
   5  -2  -2    0.00    3.48
   4  -2  -2    0.14    2.05
   4  -2  -2    3.75    2.27
   4  -2  -2    0.93    1.90
  -4   2   2    0.33    2.08
  -4   2   2    3.07    2.53
   3  -2  -2    0.90    0.72
   3  -2  -2   -0.98    1.22
   3  -2  -2   -0.32    1.44
   3  -2  -2   -0.51    0.66
  -3   2   2    1.82    1.63
  -3   2   2   -0.75    1.55
  -3   2   2    3.18    1.70
   2  -2  -2   74.83   10.04
   2  -2  -2   92.65   10.07
   2  -2  -2   83.18   10.06
   2  -2  -2   78.38   10.25
   2  -2  -2   91.06   10.32
   2  -2  -2   89.53   10.04
  -2   2   2   84.53    9.99
  -2   2   2   78.94   10.23
  -2   2   2   84.42   10.45
  -2   2   2   88.17   10.37
  -2   2   2   94.45   10.13
   1  -2  -2    6.07    1.26
   1  -2  -2    6.95    1.06
   1  -2  -2    6.71    1.05
   1  -2  -2    5.89    1.10
   1  -2  -2    5.03    1.19
   1  -2  -2    4.33    1.23
   1  -2  -2    7.42    1.09
   1  -2  -2    6.59    1.11
   1  -2  -2    6.00    1.11
  -1   2   2    8.61    1.16
  -1   2   2    6.90    1.21
  -1   2   2    5.51    0.98
  -1   2   2    6.55    1.22
  -1   2   2    6.79    1.12
  -1   2   2    5.28    1.28
  -1   2   2    5.85    0.99
  -1   2   2    5.40    0.95
   0  -2  -2   12.22    1.60
   0  -2  -2   13.23    1.62
   0  -2  -2    8.36    1.54
   0  -2  -2   11.09    1.64
   0  -2  -2    9.48    1.63
   0  -2  -2   10.44    1.49
   0  -2  -2   11.86    1.65
   0  -2  -2   10.81    1.84
   0   2   2   13.44    1.83
   0   2   2   13.04    1.70
   0   2   2   11.15    1.45
   0   2   2   12.92    1.63
   0   2   2   12.71    1.67
   0   2   2   10.64    1.46
   0   2   2   12.90    1.67
   0   2   2   10.74    1.57
  -1  -2  -2  134.01   17.53
  -1  -2  -2  158.95   17.67
  -1  -2  -2  146.70   17.54
  -1  -2  -2  146.78   17.68
  -1  -2  -2  164.21   17.72
  -1  -2  -2  161.16   17.52
  -1  -2  -2  159.23   17.52
   1   2   2  164.67   17.51
   1   2   2  128.79   17.61
   1   2   2  153.14   17.62
   1   2   2  152.11   17.59
   1   2   2  140.02   17.55
   1   2   2  143.17   17.32
   1   2   2  150.58   17.33
   1   2   2  149.76   17.50
   1   2   2  146.36   17.49
  -2  -2  -2    6.53    2.04
  -2  -2  -2    5.46    1.93
  -2  -2  -2    3.37    1.83
  -2  -2  -2    7.08    1.35
   2   2   2    8.95    1.41
   2   2   2    5.80    1.20
   2   2   2    7.35    1.34
   2   2   2    6.33    1.34
   2   2   2    8.55    1.85
   2   2   2    6.26    1.71
  -3  -2  -2    2.91    2.42
  -3  -2  -2    5.63    2.31
  -3  -2  -2    0.82    2.34
   3   2   2    2.53    0.96
   3   2   2    1.05    1.06
   3   2   2    2.99    1.26
   3   2   2    1.49    1.86
   3   2   2    1.53    0.94
  -4  -2  -2    2.01    3.14
  -4  -2  -2    3.23    3.04
   4   2   2   -2.62    2.39
  -5  -2  -2    6.58    4.11
  -5  -2  -2    2.86    4.30
   5   2   2   -5.11    3.38
   5  -3  -2    1.60    3.02
   5  -3  -2    1.70    2.89
  -5   3   2    1.37    3.22
  -5   3   2   -0.54    3.37
   4  -3  -2    4.28    2.21
   4  -3  -2    4.70    2.46
   4  -3  -2    5.00    2.39
  -4   3   2    4.90    2.76
  -4   3   2    6.87    2.75
   3  -3  -2   -0.93    1.41
   3  -3  -2   -2.16    0.90
   3  -3  -2    1.71    1.02
   3  -3  -2   -0.92    1.52
   3  -3  -2   -0.89    0.73
  -3   3   2    1.12    1.70
  -3   3   2    1.23    1.60
  -3   3   2   -0.45    0.61
  -3   3   2   -0.03    1.47
   2  -3  -2   -0.79    0.81
   2  -3  -2    0.00    1.02
   2  -3  -2    1.40    0.78
   2  -3  -2    1.17    1.13
   2  -3  -2   -0.06    0.75
   2  -3  -2    1.47    0.88
   2  -3  -2    0.36    0.76
  -2   3   2   -0.30    1.19
  -2   3   2   -0.19    0.89
  -2   3   2   -0.13    0.81
  -2   3   2   -0.04    0.55
   1  -3  -2   15.44    2.08
   1  -3  -2   15.16    2.32
   1  -3  -2   18.09    2.50
   1  -3  -2   11.07    2.46
   1  -3  -2   15.47    2.38
   1  -3  -2   17.19    2.32
   1  -3  -2   15.64    2.26
  -1   3   2   16.61    2.39
  -1   3   2   17.58    2.42
  -1   3   2   19.56    2.70
  -1   3   2   15.39    2.50
  -1   3   2   14.72    2.21
  -1   3   2   15.73    2.17
  -1   3   2   17.81    2.30
   0  -3  -2  283.25   29.05
   0  -3  -2  246.46   28.94
   0  -3  -2  225.58   28.93
   0  -3  -2  238.01   29.26
   0  -3  -2  220.91   29.01
   0  -3  -2  253.32   28.91
   0  -3  -2  238.35   29.07
   0  -3  -2  282.74   29.11
   0   3   2  235.09   28.94
   0   3   2  251.75   28.87
   0   3   2  277.84   29.03
   0   3   2  244.69   28.89
   0   3   2  259.17   29.02
   0   3   2  253.06   29.01
   0   3   2  232.63   29.14
  -1  -3  -2   39.47    5.79
  -1  -3  -2   47.47    5.83
  -1  -3  -2   50.70    5.95
  -1  -3  -2   50.31    5.83
  -1  -3  -2   40.46    5.92
   1   3   2   48.16    5.81
   1   3   2   44.58    5.73
   1   3   2   44.64    5.70
   1   3   2   53.73    5.81
  -2  -3  -2    4.59    1.45
  -2  -3  -2    8.12    2.34
  -2  -3  -2    5.76    1.28
  -2  -3  -2    8.15    2.31
  -2  -3  -2    5.73    1.54
  -2  -3  -2   11.32    2.39
   2   3   2    7.85    1.30
   2   3   2    6.11    1.79
   2   3   2    8.79    1.54
   2   3   2    5.86    1.32
  -3  -3  -2   35.40    5.35
  -3  -3  -2   28.34    5.03
  -3  -3  -2   31.95    5.15
   3   3   2   21.92    3.27
   3   3   2   28.30    4.56
   3   3   2   22.09    3.45
   3   3   2   35.12    4.09
  -4  -3  -2   -5.56    2.91
  -4  -3  -2    1.24    2.86
   4   3   2    3.75    3.07
   4   3   2   -0.85    0.86
   5   3   2   -5.63    3.87
   5  -4  -2    2.54    3.08
   5  -4  -2   -2.43    3.23
  -5   4   2   -0.42    2.91
  -5   4   2    3.10    3.28
   4  -4  -2    1.94    2.77
   4  -4  -2    3.18    2.55
   4  -4  -2    3.98    2.95
  -4   4   2    5.31    2.54
  -4   4   2    6.02    2.63
   3  -4  -2   -0.02    1.03
   3  -4  -2   -1.04    1.26
   3  -4  -2    0.40    1.64
   3  -4  -2   -0.47    1.22
  -3   4   2    0.27    1.54
  -3   4   2   -1.38    1.87
   2  -4  -2   28.78    4.66
   2  -4  -2   34.53    4.48
   2  -4  -2   32.37    4.16
   2  -4  -2   31.31    4.34
   2  -4  -2   29.65    4.24
   2  -4  -2   35.37    4.40
  -2   4   2   29.91    4.64
  -2   4   2   31.56    4.15
  -2   4   2   35.31    4.88
  -2   4   2   35.97    4.15
  -2   4   2   35.12    4.06
   1  -4  -2   23.77    3.41
   1  -4  -2   22.23    2.93
   1  -4  -2   19.87    3.28
   1  -4  -2   15.68    3.42
   1  -4  -2   20.90    3.24
  -1   4   2   28.42    3.44
  -1   4   2   24.03    3.54
  -1   4   2   26.50    3.13
  -1   4   2   26.30    3.27
  -1   4   2   24.90    3.16
  -1   4   2   23.40    3.06
   0  -4  -2    2.21    0.98
   0  -4  -2    2.87    1.63
   0  -4  -2    3.17    1.17
   0  -4  -2    1.51    0.79
   0  -4  -2   -1.84    1.03
   0   4   2    0.67    0.86
   0   4   2    2.27    0.71
   0   4   2    2.42    0.95
   0   4   2    4.00    0.70
   0   4   2    2.28    0.87
  -1  -4  -2   41.60    6.10
  -1  -4  -2   45.76    6.16
  -1  -4  -2   52.60    6.37
  -1  -4  -2   47.65    6.19
   1   4   2   43.72    5.99
   1   4   2   62.31    6.18
   1   4   2   50.02    6.01
   1   4   2   42.85    6.00
  -2  -4  -2   21.90    3.75
  -2  -4  -2   25.66    4.39
  -2  -4  -2   21.85    3.72
  -2  -4  -2   33.31    3.73
  -2  -4  -2   24.37    4.39
  -2  -4  -2   28.81    4.53
   2   4   2   21.82    3.55
   2   4   2   26.10    4.11
   2   4   2   25.67    3.23
   2   4   2   26.05    3.70
  -3  -4  -2    1.84    2.70
  -3  -4  -2    7.25    3.01
  -3  -4  -2    3.32    2.89
   3   4   2    2.79    2.13
   3   4   2    1.83    1.14
   3   4   2    2.11    1.71
  -4  -4  -2   -0.02    3.54
  -4  -4  -2    5.26    3.86
   4   4   2    0.53    1.12
   4   4   2    1.03    2.94
   5  -5  -2   -0.29    3.63
   5  -5  -2    3.47    3.37
  -5   5   2   -1.45    3.08
  -5   5   2    5.78    3.42
   4  -5  -2   -0.09    2.49
   4  -5  -2    1.75    1.30
   4  -5  -2    0.68    2.63
  -4   5   2    2.32    2.78
  -4   5   2    1.49    2.47
   3  -5  -2    2.17    1.41
   3  -5  -2    0.09    1.89
   3  -5  -2    1.20    1.58
  -3   5   2    1.88    1.69
  -3   5   2    3.03    2.17
   2  -5  -2   40.97    6.03
   2  -5  -2   49.13    5.52
   2  -5  -2   41.10    5.97
   2  -5  -2   36.04    6.27
   2  -5  -2   44.38    5.57
   2  -5  -2   41.85    5.91
  -2   5   2   45.97    6.22
  -2   5   2   47.49    5.75
  -2   5   2   50.23    5.72
  -2   5   2   51.50    6.04
  -2   5   2   45.97    5.88
   1  -5  -2    0.93    1.25
   1  -5  -2    2.56    1.68
   1  -5  -2    1.83    1.78
   1  -5  -2    3.51    0.97
  -1   5   2    4.87    1.18
  -1   5   2    3.28    1.62
  -1   5   2    4.74    1.29
  -1   5   2    6.29    1.30
  -1   5   2    3.75    1.27
   0  -5  -2   11.89    2.74
   0  -5  -2   11.19    3.06
   0  -5  -2   13.33    2.46
   0  -5  -2   16.10    2.53
   0  -5  -2   13.27    2.76
   0   5   2   19.66    2.49
   0   5   2   19.26    2.78
   0   5   2   23.86    2.88
   0   5   2   16.96    2.53
   0   5   2   16.27    2.15
  -1  -5  -2   69.86    7.49
  -1  -5  -2   58.89    7.13
  -1  -5  -2   56.76    7.06
  -1  -5  -2   51.21    7.04
   1   5   2   49.16    6.48
   1   5   2   53.25    6.83
   1   5   2   53.85    6.91
   1   5   2   54.65    6.89
  -2  -5  -2    3.29    2.28
  -2  -5  -2   -2.26    1.40
  -2  -5  -2   -0.44    2.17
  -2  -5  -2   -0.58    1.59
  -2  -5  -2    1.73    2.44
   2   5   2    2.57    0.82
   2   5   2    1.63    1.52
   2   5   2   -0.30    0.94
   2   5   2    1.51    1.58
  -3  -5  -2   -1.85    3.16
  -3  -5  -2    0.58    2.78
  -3  -5  -2    2.28    3.06
   3   5   2    3.18    1.98
   3   5   2   -1.12    1.95
   3   5   2    1.13    1.24
  -4  -5  -2   -2.27    3.40
  -4  -5  -2    4.72    4.00
   4   5   2   -0.41    1.34
   4   5   2   -0.35    2.98
   4  -6  -2   -1.74    2.58
   4  -6  -2   -1.20    2.76
   4  -6  -2    0.14    1.58
  -4   6   2    1.21    2.82
  -4   6   2    2.66    2.77
   3  -6  -2    0.17    1.55
   3  -6  -2    3.19    2.33
   3  -6  -2    1.10    1.87
  -3   6   2    0.07    1.84
  -3   6   2    3.42    2.30
   2  -6  -2    1.38    1.83
   2  -6  -2   -0.61    1.38
   2  -6  -2    1.61    1.90
  -2   6   2    3.16    2.09
  -2   6   2    3.86    1.42
  -2   6   2    4.84    1.73
  -2   6   2    3.62    1.31
   1  -6  -2    4.21    2.33
   1  -6  -2    1.86    1.77
   1  -6  -2    5.42    1.11
   1  -6  -2    1.35    1.54
  -1   6   2    4.15    1.50
  -1   6   2    4.66    1.35
  -1   6   2    4.08    1.99
  -1   6   2    5.20    1.34
  -1   6   2    4.43    1.47
   0  -6  -2   70.25    9.65
   0  -6  -2   72.05   10.11
   0  -6  -2   73.19    9.59
   0  -6  -2   60.48    9.16
   0   6   2   72.68    8.99
   0   6   2   87.09    9.30
   0   6   2   85.94    9.45
   0   6   2   77.38    9.13
   0   6   2   85.48    9.42
  -1  -6  -2    7.93    3.08
  -1  -6  -2    8.83    2.49
  -1  -6  -2    5.80    2.28
  -1  -6  -2    1.26    2.43
  -1  -6  -2    9.10    2.57
   1   6   2    8.52    2.12
   1   6   2    5.55    1.71
   1   6   2    9.28    1.44
   1   6   2    6.20    1.88
  -2  -6  -2   -0.91    1.87
  -2  -6  -2    1.74    2.01
  -2  -6  -2   -1.35    2.61
  -2  -6  -2   -1.02    2.38
  -2  -6  -2   -6.97    2.16
   2   6   2   -0.26    1.73
   2   6   2   -0.10    1.14
   2   6   2   -1.12    1.50
  -3  -6  -2   16.01    4.56
  -3  -6  -2    4.50    4.03
   3   6   2   12.93    2.58
   3   6   2    9.47    3.29
   3   6   2   18.64    3.51
  -4  -6  -2   -0.98    4.43
  -4  -6  -2    3.22    4.47
   4   6   2   -2.87    3.00
   4   6   2   -0.35    1.56
   4  -7  -2   -0.72    1.94
   4  -7  -2   -0.97    2.88
   4  -7  -2   -1.30    3.06
  -4   7   2    0.15    2.47
  -4   7   2   -1.36    2.48
   3  -7  -2    0.68    2.20
   3  -7  -2    2.62    2.58
   3  -7  -2    1.66    1.94
  -3   7   2   -0.18    1.92
  -3   7   2   -2.14    2.05
   2  -7  -2   11.71    3.08
   2  -7  -2    8.07    2.61
   2  -7  -2    7.66    3.04
  -2   7   2   12.62    2.67
  -2   7   2   12.62    2.45
  -2   7   2   14.18    2.56
  -2   7   2   17.16    3.45
   1  -7  -2   -0.79    1.64
   1  -7  -2   -1.45    2.33
   1  -7  -2   -0.14    1.93
  -1   7   2   -1.53    1.35
  -1   7   2   -1.02    1.07
  -1   7   2    1.09    1.23
  -1   7   2   -1.20    1.17
  -1   7   2    1.57    1.94
   0  -7  -2    0.17    1.78
   0  -7  -2   -0.15    1.39
   0  -7  -2    4.10    2.91
   0  -7  -2   -0.34    2.02
   0   7   2    0.05    1.24
   0   7   2    0.78    1.04
   0   7   2   -0.47    1.34
   0   7   2    1.01    1.27
  -1  -7  -2    7.04    3.09
  -1  -7  -2   -0.88    2.26
  -1  -7  -2    2.57    2.22
  -1  -7  -2    2.92    1.72
  -1  -7  -2    5.03    2.59
  -1  -7  -2    4.30    2.76
   1   7   2    3.15    1.50
   1   7   2    1.78    1.92
   1   7   2    3.24    1.67
   1   7   2    3.64    1.12
  -2  -7  -2   11.94    3.22
  -2  -7  -2   13.77    4.31
  -2  -7  -2   15.78    4.67
  -2  -7  -2   12.43    3.22
  -2  -7  -2   12.47    4.05
   2   7   2   13.29    2.95
   2   7   2    8.85    2.81
   2   7   2    6.91    2.34
  -3  -7  -2   -3.48    3.41
  -3  -7  -2    0.77    3.63
   3   7   2   -0.04    1.63
   3   7   2    0.53    2.65
   3   7   2    2.85    2.81
   4   7   2   -1.53    3.39
   4  -8  -2   -1.04    2.21
   4  -8  -2   -2.54    3.28
   4  -8  -2   -2.06    3.30
  -4   8   2    0.92    2.60
  -4   8   2    3.36    3.47
   3  -8  -2    0.72    2.11
   3  -8  -2    2.40    3.31
   3  -8  -2    3.20    2.62
   3  -8  -2   -0.43    2.84
  -3   8   2   -0.44    2.54
  -3   8   2   -1.90    1.97
   2  -8  -2   11.83    2.94
   2  -8  -2    6.62    2.58
   2  -8  -2    8.70    3.58
  -2   8   2   10.64    3.21
  -2   8   2    8.18    2.52
  -2   8   2    9.84    2.55
  -2   8   2    8.50    2.27
   1  -8  -2    5.98    2.77
   1  -8  -2    5.39    2.27
   1  -8  -2    6.59    3.09
  -1   8   2    8.22    2.10
  -1   8   2    6.35    1.83
  -1   8   2    4.33    1.84
  -1   8   2   10.25    2.47
   0  -8  -2    6.01    2.32
   0  -8  -2    5.41    2.57
   0  -8  -2    7.89    2.97
   0  -8  -2    7.60    3.75
   0   8   2    9.83    2.58
   0   8   2   16.33    2.41
   0   8   2   16.82    2.58
   0   8   2   11.29    2.35
  -1  -8  -2    0.71    3.36
  -1  -8  -2    1.46    2.29
  -1  -8  -2    1.87    3.25
  -1  -8  -2    0.88    2.84
   1   8   2    2.14    1.92
   1   8   2    6.03    1.82
   1   8   2   -0.05    1.86
   1   8   2    4.78    1.36
  -2  -8  -2    1.52    2.80
  -2  -8  -2   -2.51    2.87
  -2  -8  -2    7.01    4.01
  -2  -8  -2    1.55    3.95
   2   8   2   -0.34    2.26
   2   8   2    0.06    1.50
   2   8   2    1.99    2.42
  -3  -8  -2   -5.30    4.48
  -3  -8  -2    1.68    4.62
   3   8   2   -0.07    2.89
   3   8   2    0.56    1.83
   3   8   2   -2.33    2.49
   3  -9  -2    4.32    3.79
   3  -9  -2   -3.32    2.07
   3  -9  -2   -2.77    3.08
   3  -9  -2   -4.61    2.75
  -3   9   2    4.76    2.53
  -3   9   2    4.69    2.97
   2  -9  -2    7.62    2.91
   2  -9  -2    6.26    3.42
   2  -9  -2    4.48    3.21
   2  -9  -2    3.97    3.18
  -2   9   2    7.54    2.79
  -2   9   2    9.81    2.48
  -2   9   2   13.43    3.60
  -2   9   2    2.98    2.23
   1  -9  -2    2.53    2.40
   1  -9  -2    1.68    3.05
   1  -9  -2   -0.86    2.54
   1  -9  -2   -2.69    2.19
  -1   9   2   -1.63    2.52
  -1   9   2    1.22    1.42
  -1   9   2   -1.08    2.03
  -1   9   2   -1.14    1.32
   0  -9  -2   11.80    3.75
   0  -9  -2    8.51    2.58
   0  -9  -2    6.47    3.76
   0  -9  -2    2.18    3.92
   0  -9  -2    4.97    2.81
   0   9   2    8.08    2.07
   0   9   2    7.74    2.59
   0   9   2   10.24    2.50
   0   9   2   12.00    2.55
  -1  -9  -2   -2.58    3.77
  -1  -9  -2   -5.61    3.36
  -1  -9  -2    2.08    3.46
  -1  -9  -2    4.38    2.66
   1   9   2   -0.25    2.00
   1   9   2   -1.42    1.52
   1   9   2   -1.01    1.92
  -2  -9  -2    0.33    4.14
  -2  -9  -2   -8.37    4.08
  -2  -9  -2    4.02    3.88
   2   9   2    2.78    2.62
   2   9   2   -1.57    2.35
   2   9   2    1.79    1.77
  -3  -9  -2   -6.96    4.96
  -3  -9  -2    9.23    5.71
   3   9   2    4.55    3.44
   3   9   2   -0.89    3.01
   3   9   2    0.41    1.87
   3 -10  -2    5.22    3.91
   3 -10  -2    0.04    3.35
   3 -10  -2   -1.97    2.49
   3 -10  -2    2.40    3.97
  -3  10   2   -3.26    2.07
  -3  10   2    0.94    3.22
   2 -10  -2    3.38    3.38
   2 -10  -2   -1.20    3.00
   2 -10  -2    3.07    3.27
   2 -10  -2    1.78    2.55
  -2  10   2    1.13    2.80
  -2  10   2   -0.06    3.05
  -2  10   2    0.45    2.10
   1 -10  -2   -1.83    3.01
   1 -10  -2    2.11    3.80
   1 -10  -2   -1.99    2.49
   1 -10  -2   -1.56    2.05
  -1  10   2    0.96    1.80
  -1  10   2    3.13    1.98
  -1  10   2    3.06    3.32
  -1  10   2    2.12    2.82
   0 -10  -2   -0.46    3.60
   0 -10  -2    0.79    3.44
   0 -10  -2    3.77    4.41
   0 -10  -2    1.30    2.39
   0  10   2    1.75    2.65
   0  10   2    0.67    1.54
  -1 -10  -2   -0.87    2.71
  -1 -10  -2   -5.79    4.56
  -1 -10  -2   -0.32    3.74
   1  10   2   -0.53    2.27
   1  10   2    0.56    1.62
   1  10   2    2.78    2.53
  -2 -10  -2    3.21    4.39
  -2 -10  -2    3.22    5.37
  -2 -10  -2    3.86    5.42
   2  10   2   -2.53    2.56
   2  10   2    0.51    1.85
   2  10   2    5.14    3.14
   2 -11  -2    2.88    2.99
   2 -11  -2   -0.72    3.55
   2 -11  -2   -6.02    3.77
   2 -11  -2   -3.48    3.06
  -2  11   2   -1.74    3.56
  -2  11   2   -1.41    2.10
  -2  11   2   -1.71    3.12
   1 -11  -2   -2.61    2.06
   1 -11  -2    4.68    4.31
   1 -11  -2    7.19    3.70
  -1  11   2    1.38    2.91
  -1  11   2    2.43    3.54
  -1  11   2   -0.67    1.80
  -1  11   2    1.20    2.11
   0 -11  -2    3.38    2.87
   0 -11  -2    0.92    4.67
   0 -11  -2    5.11    4.26
   0 -11  -2    1.77    3.84
   0  11   2    2.82    1.98
   0  11   2   11.55    3.79
  -1 -11  -2    3.33    5.47
  -1 -11  -2   -2.12    2.65
  -1 -11  -2    1.26    4.47
   1  11   2   -1.35    1.79
   1  11   2   -5.27    2.47
   1 -12  -2   -4.03    3.46
   1 -12  -2   -1.55    2.26
   1 -12  -2    2.06    4.79
  -1  12   2   -0.11    3.52
  -1  12   2   -1.88    1.96
  -1  12   2    0.98    3.55
   0 -12  -2    4.03    4.53
   0 -12  -2    0.06    2.78
   0 -12  -2   -0.89    4.35
   0 -12  -2    0.53    5.35
   0  12   2    1.64    2.09
   0  12   2    0.02    3.57
   1  12  -3    2.42    2.99
   1  12  -3   -0.49    1.88
  -1 -12   3    0.36    3.02
  -1 -12   3   -2.90    5.41
  -1 -12   3   -4.61    5.27
  -1 -12   3    7.69    4.27
   0  12  -3    1.08    2.57
   0  12  -3    2.57    3.26
   0  12  -3   -0.70    1.74
   0 -12   3    3.48    4.32
   0 -12   3    6.45    4.01
   0 -12   3   -0.05    2.76
  -1  12  -3    2.77    2.61
  -1  12  -3    7.04    3.68
  -1  12  -3   -0.08    1.75
   1 -12   3    4.40    3.11
   1 -12   3    0.89    3.41
   1 -12   3    2.42    4.00
  -2  12  -3   -2.70    3.74
  -2  12  -3   -0.60    2.66
  -2  12  -3   -1.09    3.33
   2 -12   3    6.14    3.76
   2 -12   3   -2.32    2.57
   2 -12   3   -3.49    3.47
   2  11  -3    0.37    2.63
   2  11  -3    1.19    2.13
  -2 -11   3   -0.30    4.07
  -2 -11   3    0.69    7.88
  -2 -11   3    5.13    5.93
   1  11  -3    0.64    1.81
   1  11  -3    2.15    2.76
  -1 -11   3   -1.30    4.45
  -1 -11   3   -2.43    3.49
  -1 -11   3    2.07    5.35
  -1 -11   3    0.77    2.69
   0  11  -3    2.88    2.18
   0  11  -3    8.12    3.25
   0  11  -3    8.04    2.56
   0 -11   3    2.48    3.43
   0 -11   3    9.61    3.64
   0 -11   3   10.45    4.79
  -1  11  -3    3.51    2.56
  -1  11  -3    2.16    1.95
  -1  11  -3   -1.93    2.86
   1 -11   3    3.72    2.77
   1 -11   3    1.16    3.31
   1 -11   3    6.09    4.13
  -2  11  -3   -0.26    3.04
  -2  11  -3   -1.87    3.44
  -2  11  -3   -4.15    2.28
   2 -11   3   -2.00    3.55
   2 -11   3    2.41    3.03
   2 -11   3    0.58    2.57
  -3  11  -3    0.74    3.28
  -3  11  -3    3.24    3.95
   3 -11   3   -1.97    2.62
   3 -11   3    1.33    3.76
   3 -11   3    1.57    3.45
   3  10  -3   -2.97    2.93
  -3 -10   3    0.79    5.74
   2  10  -3   -0.74    1.83
   2  10  -3    5.16    2.59
   2  10  -3    0.92    2.39
  -2 -10   3    1.72    4.93
  -2 -10   3    2.57    3.82
  -2 -10   3   -2.72    4.21
  -2 -10   3    1.90    4.58
   1  10  -3    0.05    1.89
   1  10  -3    3.05    1.81
   1  10  -3   -1.06    1.62
   1  10  -3    0.03    1.98
  -1 -10   3   -3.88    2.95
  -1 -10   3   -3.80    2.16
  -1 -10   3    0.31    4.00
  -1 -10   3    2.92    3.49
  -1 -10   3    8.40    4.71
   0  10  -3   12.36    2.85
   0  10  -3   10.07    2.80
   0 -10   3   13.16    4.91
   0 -10   3    7.24    3.04
   0 -10   3   11.98    3.67
  -1  10  -3    3.39    2.24
  -1  10  -3    1.36    2.53
  -1  10  -3   -1.26    1.63
   1 -10   3   -3.85    2.84
   1 -10   3    0.76    1.97
   1 -10   3    2.26    2.83
  -2  10  -3    0.34    2.40
  -2  10  -3    0.59    2.70
  -2  10  -3    1.42    2.44
  -2  10  -3    6.38    3.39
   2 -10   3    1.12    2.48
   2 -10   3    0.39    2.80
   2 -10   3    0.58    2.88
  -3  10  -3    4.03    3.61
  -3  10  -3   -2.39    2.69
   3 -10   3   -0.11    2.64
   3 -10   3    2.46    3.48
   3 -10   3    9.98    3.63
   3   9  -3    3.57    2.84
   3   9  -3    0.72    2.68
   3   9  -3   -0.64    1.83
  -3  -9   3    0.56    4.95
  -3  -9   3    2.98    5.02
   2   9  -3    7.21    2.48
   2   9  -3    3.29    2.39
   2   9  -3    5.05    2.41
  -2  -9   3    1.49    3.37
  -2  -9   3   -0.29    4.05
  -2  -9   3    4.37    4.49
  -2  -9   3    8.94    4.27
   1   9  -3   -0.40    1.58
   1   9  -3    2.14    1.85
   1   9  -3    3.98    1.94
  -1  -9   3   -4.04    2.69
  -1  -9   3   -1.47    3.66
  -1  -9   3   -2.18    1.96
  -1  -9   3   -1.27    2.77
  -1  -9   3    2.14    4.04
   0   9  -3    6.77    2.10
   0   9  -3    4.10    1.81
   0   9  -3    5.70    2.13
   0   9  -3    8.69    1.95
   0  -9   3    7.11    3.82
   0  -9   3    6.28    2.40
   0  -9   3    1.45    2.17
   0  -9   3    5.85    2.90
  -1   9  -3   -0.87    1.67
  -1   9  -3   -0.29    1.54
   1  -9   3   -1.37    2.39
   1  -9   3    2.72    2.95
   1  -9   3   -0.40    2.13
  -2   9  -3    3.15    2.21
  -2   9  -3    5.45    2.64
  -2   9  -3    8.14    3.13
  -2   9  -3    5.78    2.62
   2  -9   3    2.63    2.34
   2  -9   3    1.09    2.67
   2  -9   3    5.99    2.83
  -3   9  -3    0.52    2.91
  -3   9  -3    2.73    2.75
   3  -9   3    0.68    2.71
   3  -9   3   -0.28    2.65
   3  -9   3   -2.74    1.98
  -4   9  -3   -2.52    3.33
  -4   9  -3    2.84    3.22
   4  -9   3    2.74    2.70
   4  -9   3    1.06    3.50
   3   8  -3    3.18    2.20
   3   8  -3    2.02    2.58
   3   8  -3    0.45    2.75
  -3  -8   3    2.84    4.37
  -3  -8   3    7.03    4.45
  -3  -8   3    0.01    3.92
   2   8  -3    1.66    1.77
   2   8  -3    1.50    1.98
   2   8  -3   -0.36    1.91
  -2  -8   3    4.82    2.79
  -2  -8   3   -1.88    3.57
  -2  -8   3    2.69    3.44
  -2  -8   3   -5.75    2.42
  -2  -8   3   -1.62    3.00
   1   8  -3    0.84    1.35
   1   8  -3   -1.21    1.48
   1   8  -3    3.70    1.67
  -1  -8   3   -2.49    2.28
  -1  -8   3    1.18    2.47
  -1  -8   3    0.93    3.27
  -1  -8   3   -4.19    1.81
  -1  -8   3   -1.34    2.83
   0   8  -3   20.38    2.69
   0   8  -3   14.19    2.99
   0   8  -3   16.27    3.01
   0   8  -3   12.93    2.78
   0  -8   3   20.42    3.66
   0  -8   3   13.95    4.19
   0  -8   3    7.01    2.87
   0  -8   3   14.40    3.05
  -1   8  -3    0.64    1.79
  -1   8  -3    2.47    1.86
   1  -8   3    2.49    2.21
   1  -8   3    0.91    1.50
   1  -8   3    4.56    2.42
   1  -8   3    0.24    1.96
  -2   8  -3    0.14    2.05
  -2   8  -3   -3.22    1.74
  -2   8  -3    0.34    2.29
  -2   8  -3    1.33    1.71
   2  -8   3   -1.43    1.96
   2  -8   3    0.10    1.96
   2  -8   3    1.59    2.45
  -3   8  -3   -1.22    2.33
  -3   8  -3    1.61    2.51
   3  -8   3   -1.84    2.68
   3  -8   3   -1.55    2.04
   3  -8   3    0.41    2.26
  -4   8  -3    2.28    3.20
  -4   8  -3    3.80    2.97
   4  -8   3    3.15    3.38
   4  -8   3   -2.97    2.14
   4   7  -3   -0.36    1.63
   4   7  -3    4.91    3.23
  -4  -7   3    2.10    4.73
  -4  -7   3   -7.89    4.09
   3   7  -3   -2.29    1.51
   3   7  -3   -0.56    2.01
   3   7  -3    0.74    2.58
  -3  -7   3    1.19    3.43
  -3  -7   3   -5.12    3.06
  -3  -7   3   -3.23    2.94
   2   7  -3   12.37    2.77
   2   7  -3    8.11    2.23
   2   7  -3   11.74    2.61
  -2  -7   3    7.84    3.79
  -2  -7   3   11.34    3.00
  -2  -7   3   16.98    3.72
  -2  -7   3    2.23    2.90
  -2  -7   3   10.10    3.00
   1   7  -3   20.50    3.67
   1   7  -3   28.09    3.68
   1   7  -3   21.50    3.69
  -1  -7   3   33.64    4.50
  -1  -7   3   23.26    4.16
  -1  -7   3   14.32    3.37
  -1  -7   3   27.09    5.34
  -1  -7   3   21.35    4.11
  -1  -7   3   16.03    4.68
   0   7  -3   27.53    3.56
   0   7  -3   22.14    3.78
   0   7  -3   28.41    3.96
   0  -7   3   25.14    4.91
   0  -7   3   28.00    3.96
   0  -7   3   25.48    4.32
   0  -7   3   14.64    3.84
  -1   7  -3    0.56    1.61
  -1   7  -3    1.37    1.34
  -1   7  -3    1.41    1.47
   1  -7   3    1.13    1.84
   1  -7   3    4.38    1.62
   1  -7   3   -2.40    1.49
   1  -7   3    0.78    1.82
  -2   7  -3   28.12    3.80
  -2   7  -3   22.57    3.77
  -2   7  -3   23.81    4.13
  -2   7  -3   34.66    4.69
   2  -7   3   18.24    3.86
   2  -7   3   22.96    4.48
   2  -7   3   16.80    3.95
  -3   7  -3    2.29    2.29
  -3   7  -3    5.17    2.50
   3  -7   3    4.09    2.79
   3  -7   3    0.82    1.93
   3  -7   3    0.98    2.09
  -4   7  -3    4.60    3.04
  -4   7  -3    0.48    2.46
   4  -7   3   -1.86    1.85
   4  -7   3    5.26    3.38
   4   6  -3   -0.69    3.15
   4   6  -3   -1.05    1.30
  -4  -6   3   -1.85    3.87
  -4  -6   3    1.58    4.06
  -4  -6   3   -2.00    3.71
   3   6  -3   13.38    3.38
   3   6  -3   10.14    2.72
   3   6  -3    7.57    2.19
  -3  -6   3   16.70    4.11
  -3  -6   3    6.99    3.64
  -3  -6   3    6.30    3.44
   2   6  -3    1.32    1.44
   2   6  -3    2.55    1.65
   2   6  -3    0.97    1.90
  -2  -6   3   -1.02    1.76
  -2  -6   3    1.85    2.76
  -2  -6   3    2.26    2.42
  -2  -6   3   -1.62    1.86
  -2  -6   3    3.13    2.66
   1   6  -3    0.56    1.22
   1   6  -3   -0.66    1.08
  -1  -6   3    1.54    1.84
  -1  -6   3    0.62    1.66
  -1  -6   3    5.32    2.45
  -1  -6   3   -0.91    1.64
  -1  -6   3    1.70    1.29
  -1  -6   3   -3.03    2.06
   0   6  -3   72.13    7.45
   0   6  -3   60.94    7.36
   0  -6   3   54.01    7.46
   0  -6   3   44.51    7.80
   0  -6   3   56.09    7.20
   0  -6   3   51.27    7.48
  -1   6  -3    0.32    1.12
  -1   6  -3   -1.12    1.27
  -1   6  -3   -0.22    1.13
   1  -6   3    0.41    1.47
   1  -6   3   -0.43    1.48
   1  -6   3   -1.84    1.38
  -2   6  -3   15.50    2.44
  -2   6  -3   14.09    2.90
  -2   6  -3   12.84    2.86
  -2   6  -3   14.24    2.55
  -2   6  -3   14.97    2.62
   2  -6   3   11.00    2.78
   2  -6   3   12.25    2.70
   2  -6   3   12.31    2.91
   2  -6   3   10.53    2.69
  -3   6  -3    1.22    1.96
  -3   6  -3    0.77    1.73
   3  -6   3    4.38    2.29
   3  -6   3    2.45    1.87
   3  -6   3    1.84    1.72
  -4   6  -3    1.61    2.50
  -4   6  -3   -1.03    2.46
   4  -6   3    2.19    2.84
   4  -6   3    1.97    1.72
   4   5  -3   -0.15    1.19
   4   5  -3   -0.29    3.09
  -4  -5   3    1.08    3.57
  -4  -5   3   -1.88    3.20
  -4  -5   3    2.24    3.93
   3   5  -3   20.38    4.04
   3   5  -3   18.41    3.14
   3   5  -3   17.26    3.41
  -3  -5   3   15.42    4.34
  -3  -5   3   22.97    4.41
  -3  -5   3   23.71    4.64
   2   5  -3   -1.05    0.64
   2   5  -3    1.92    1.34
   2   5  -3   -1.15    1.11
   2   5  -3   -1.75    0.94
  -2  -5   3   -1.67    1.44
  -2  -5   3    3.77    2.26
  -2  -5   3    0.12    1.38
  -2  -5   3    2.00    1.95
  -2  -5   3    2.98    2.34
  -2  -5   3   -0.23    1.39
   1   5  -3   69.06    8.63
   1   5  -3   70.53    9.21
   1   5  -3   76.04    8.66
  -1  -5   3   74.21    9.19
  -1  -5   3   75.98    8.81
  -1  -5   3   63.40    8.41
  -1  -5   3   68.78    8.72
  -1  -5   3   61.54    9.01
  -1  -5   3   63.56    8.77
   0   5  -3   25.13    3.52
   0   5  -3   28.45    3.69
   0  -5   3   21.07    3.49
   0  -5   3   18.98    3.47
   0  -5   3   20.99    3.64
   0  -5   3   26.57    3.56
   0  -5   3   22.06    3.87
  -1   5  -3    4.51    1.62
  -1   5  -3    1.28    1.13
  -1   5  -3    7.13    1.63
   1  -5   3    3.95    1.49
   1  -5   3    3.18    1.61
   1  -5   3    1.65    1.39
   1  -5   3    2.62    1.44
  -2   5  -3   21.37    3.12
  -2   5  -3   20.83    2.81
  -2   5  -3   18.56    2.71
  -2   5  -3   27.88    3.56
  -2   5  -3   23.50    3.60
   2  -5   3   15.88    3.21
   2  -5   3   16.18    3.29
   2  -5   3   17.87    3.07
   2  -5   3   17.32    3.22
  -3   5  -3    0.52    1.83
  -3   5  -3    1.58    1.84
   3  -5   3    0.33    1.46
   3  -5   3   -1.22    0.97
   3  -5   3   -1.20    1.91
   3  -5   3   -1.52    1.42
  -4   5  -3    4.22    2.51
  -4   5  -3    5.83    2.57
   4  -5   3   -0.51    2.32
   4  -5   3    5.24    1.56
  -5   5  -3    4.35    5.08
  -5   5  -3   -0.14    3.07
   5  -5   3   -4.37    3.10
   4   4  -3    0.75    0.96
   4   4  -3   -0.72    2.92
  -4  -4   3    2.92    3.18
  -4  -4   3   -4.61    3.50
  -4  -4   3    3.25    3.42
   3   4  -3    0.37    1.05
   3   4  -3   -2.91    1.98
   3   4  -3    0.46    1.05
   3   4  -3    0.31    1.51
  -3  -4   3    0.08    2.24
  -3  -4   3    0.94    2.54
  -3  -4   3   -0.80    2.29
   2   4  -3   22.90    3.00
   2   4  -3   15.26    3.24
   2   4  -3   25.49    3.57
   2   4  -3   25.53    3.64
  -2  -4   3   22.74    3.11
  -2  -4   3   35.37    4.08
  -2  -4   3   23.18    3.12
  -2  -4   3   25.79    4.12
  -2  -4   3   16.10    3.35
  -2  -4   3   20.58    3.84
   1   4  -3   40.80    5.53
   1   4  -3   45.06    5.31
   1   4  -3   52.01    5.63
   1   4  -3   49.14    5.56
  -1  -4   3   39.06    5.68
  -1  -4   3   36.12    5.54
  -1  -4   3   41.03    5.63
  -1  -4   3   38.73    5.62
  -1  -4   3   45.18    5.94
  -1  -4   3   44.32    5.58
  -1  -4   3   39.29    5.31
   0   4  -3    4.97    1.40
   0   4  -3    8.15    1.48
   0   4  -3    7.28    1.40
   0   4  -3    2.70    1.18
   0  -4   3    4.12    1.34
   0  -4   3    5.52    1.48
   0  -4   3    4.62    1.30
   0  -4   3    2.86    1.32
   0  -4   3    2.38    1.36
   0  -4   3    5.66    1.40
  -1   4  -3    7.85    1.68
  -1   4  -3    4.15    1.30
  -1   4  -3    5.92    1.37
  -1   4  -3    9.32    1.70
   1  -4   3    3.93    1.35
   1  -4   3    3.30    1.34
   1  -4   3    7.69    1.73
   1  -4   3    4.84    1.44
  -2   4  -3   44.55    5.57
  -2   4  -3   47.61    5.87
  -2   4  -3   44.14    5.27
  -2   4  -3   44.56    5.31
  -2   4  -3   50.20    5.76
   2  -4   3   34.70    5.66
   2  -4   3   45.41    5.89
   2  -4   3   45.60    5.31
   2  -4   3   38.54    5.63
   2  -4   3   45.88    5.63
  -3   4  -3    0.20    1.70
  -3   4  -3   -0.07    1.70
   3  -4   3    4.21    2.01
   3  -4   3    0.63    1.19
   3  -4   3    1.58    1.06
   3  -4   3    0.86    1.23
   3  -4   3   -1.18    1.19
  -4   4  -3    2.11    2.20
  -4   4  -3   -1.42    2.02
   4  -4   3    1.18    0.94
   4  -4   3    3.18    2.66
   4  -4   3    1.52    2.08
  -5   4  -3    4.46    3.94
  -5   4  -3   -3.38    2.68
   5  -4   3   -3.52    3.07
   5   3  -3   -3.51    3.51
  -5  -3   3   -1.63    3.90
  -5  -3   3   -7.73    4.43
  -5  -3   3    0.09    5.90
   4   3  -3   -3.30    2.59
  -4  -3   3    3.00    3.06
  -4  -3   3   -0.71    3.60
  -4  -3   3   -2.08    2.68
   3   3  -3   40.41    5.11
   3   3  -3   35.95    4.87
   3   3  -3   39.96    4.77
   3   3  -3   31.27    4.71
  -3  -3   3   42.04    5.89
  -3  -3   3   44.60    6.21
  -3  -3   3   35.25    5.95
   2   3  -3   -0.93    0.76
   2   3  -3   -0.29    0.79
   2   3  -3   -0.44    0.72
   2   3  -3    0.93    0.94
  -2  -3   3    0.05    1.39
  -2  -3   3   -0.79    1.26
  -2  -3   3   -1.03    0.88
  -2  -3   3   -0.61    1.22
   1   3  -3   21.35    2.75
   1   3  -3   19.85    2.71
   1   3  -3   15.66    2.59
   1   3  -3   15.53    2.46
   1   3  -3   21.67    2.70
   1   3  -3   19.76    2.73
  -1  -3   3   17.44    2.82
  -1  -3   3   19.22    2.54
  -1  -3   3   18.03    2.98
  -1  -3   3   18.85    3.02
  -1  -3   3   17.00    2.66
  -1  -3   3   18.91    2.64
  -1  -3   3   16.05    2.77
  -1  -3   3   16.92    2.64
   0   3  -3   65.70    7.01
   0   3  -3   58.24    6.84
   0   3  -3   61.22    6.88
   0   3  -3   53.19    6.86
   0   3  -3   63.49    6.98
   0   3  -3   63.87    6.92
   0  -3   3   46.54    6.92
   0  -3   3   48.45    6.86
   0  -3   3   48.96    6.83
   0  -3   3   61.55    6.95
   0  -3   3   59.29    6.90
   0  -3   3   47.41    6.91
  -1   3  -3   23.19    3.45
  -1   3  -3   30.24    3.49
  -1   3  -3   36.27    4.31
  -1   3  -3   29.28    3.83
  -1   3  -3   26.16    3.46
  -1   3  -3   24.56    3.42
  -1   3  -3   30.13    3.22
  -1   3  -3   25.36    3.34
   1  -3   3   24.15    3.53
   1  -3   3   25.76    3.65
   1  -3   3   24.43    3.23
   1  -3   3   28.74    3.49
   1  -3   3   24.98    3.52
   1  -3   3   23.60    3.46
   1  -3   3   30.32    3.94
  -2   3  -3   51.51    6.42
  -2   3  -3   53.33    6.21
  -2   3  -3   49.11    6.26
  -2   3  -3   44.34    5.97
   2  -3   3   50.50    6.01
   2  -3   3   42.20    6.06
   2  -3   3   54.43    6.01
   2  -3   3   45.17    6.16
   2  -3   3   47.16    6.28
   2  -3   3   50.71    5.92
  -3   3  -3    7.04    1.20
  -3   3  -3   12.31    2.33
  -3   3  -3    7.66    2.12
  -3   3  -3    8.35    2.43
   3  -3   3    7.18    1.32
   3  -3   3    7.12    2.21
   3  -3   3    5.24    1.50
   3  -3   3    4.88    1.75
   3  -3   3    5.35    1.46
  -4   3  -3    1.06    2.19
  -4   3  -3    3.39    2.26
   4  -3   3   -0.77    2.07
   4  -3   3    3.65    2.13
  -5   3  -3    1.63    3.17
   5  -3   3    1.20    3.08
   5   2  -3    0.93    2.77
   5   2  -3   -3.12    3.31
  -5  -2   3    0.53    3.75
  -5  -2   3    1.46    4.14
  -5  -2   3   -1.29    3.86
   4   2  -3   -5.70    2.31
   4   2  -3    1.27    1.77
  -4  -2   3    0.39    2.58
  -4  -2   3    1.42    3.04
  -4  -2   3    0.41    2.62
   3   2  -3    2.32    0.81
   3   2  -3    2.40    0.70
   3   2  -3    5.30    1.23
   3   2  -3    4.58    1.46
   3   2  -3    2.81    1.20
  -3  -2   3    2.79    2.23
  -3  -2   3   -0.14    1.91
  -3  -2   3    2.20    1.96
   2   2  -3   -0.39    0.65
   2   2  -3   -0.24    0.60
   2   2  -3   -0.16    0.53
   2   2  -3   -1.14    0.57
   2   2  -3    1.54    0.95
   2   2  -3   -0.58    0.78
  -2  -2   3    0.43    1.16
  -2  -2   3    0.27    1.35
  -2  -2   3   -0.07    0.31
  -2  -2   3   -1.14    1.02
   1   2  -3  172.46   24.59
   1   2  -3  221.94   24.80
   1   2  -3  231.26   24.64
   1   2  -3  209.84   24.65
   1   2  -3  213.34   24.66
   1   2  -3  225.68   24.68
  -1  -2   3  200.59   24.69
  -1  -2   3  213.65   24.84
  -1  -2   3  214.34   24.59
  -1  -2   3  220.79   24.76
  -1  -2   3  225.42   24.63
  -1  -2   3  197.39   24.63
  -1  -2   3  210.04   24.60
   0   2  -3   57.03    7.02
   0   2  -3   58.05    7.05
   0   2  -3   58.84    7.05
   0   2  -3   68.23    7.09
   0   2  -3   64.02    7.08
   0   2  -3   57.94    7.07
   0   2  -3   66.07    7.20
   0  -2   3   56.80    7.07
   0  -2   3   57.34    7.05
   0  -2   3   60.47    7.20
   0  -2   3   60.64    7.09
   0  -2   3   55.62    7.05
   0  -2   3   51.07    7.06
  -1   2  -3    0.34    0.65
  -1   2  -3   -0.15    0.43
  -1   2  -3    0.17    0.43
  -1   2  -3   -0.12    0.64
  -1   2  -3    0.37    0.42
  -1   2  -3   -0.06    0.35
  -1   2  -3    0.86    0.82
  -1   2  -3   -0.35    0.51
  -1   2  -3    0.04    0.57
   1  -2   3    0.30    0.49
   1  -2   3    0.03    0.48
   1  -2   3   -0.61    0.73
   1  -2   3    0.57    0.77
   1  -2   3    0.32    0.47
   1  -2   3    0.42    0.70
   1  -2   3    0.90    0.54
  -2   2  -3  212.22   25.80
  -2   2  -3  222.18   25.58
  -2   2  -3  218.48   25.65
   2  -2   3  236.80   25.42
   2  -2   3  193.15   25.43
   2  -2   3  241.80   25.78
   2  -2   3  217.87   25.49
   2  -2   3  205.02   25.41
   2  -2   3  232.90   25.59
   2  -2   3  212.23   25.48
  -3   2  -3    1.90    1.68
  -3   2  -3   -0.24    1.43
  -3   2  -3    0.74    1.42
   3  -2   3    0.36    0.97
   3  -2   3    0.30    1.64
   3  -2   3    0.41    0.93
   3  -2   3   -1.01    0.73
   3  -2   3   -0.93    1.38
   3  -2   3   -0.09    0.58
  -4   2  -3   -1.54    2.00
  -4   2  -3   -0.34    2.09
   4  -2   3    1.40    2.22
   4  -2   3   -0.10    2.40
  -5   2  -3   -0.28    2.92
   5  -2   3    0.98    2.91
   5  -2   3    2.05    3.02
   5  -2   3   -2.10    3.03
   5   1  -3   -1.22    3.22
   5   1  -3   -2.88    2.46
  -5  -1   3   -0.60    3.41
  -5  -1   3    0.43    3.88
   4   1  -3   -0.52    1.87
   4   1  -3   -0.01    2.44
  -4  -1   3   -3.86    2.21
  -4  -1   3    1.11    2.71
  -4  -1   3   -1.10    2.57
   3   1  -3    2.38    0.83
   3   1  -3    2.12    0.77
   3   1  -3    1.55    1.37
  -3  -1   3    2.30    2.06
  -3  -1   3    2.57    1.82
  -3  -1   3   -1.60    1.79
   2   1  -3   11.58    2.08
   2   1  -3   11.62    1.80
   2   1  -3   11.66    1.73
   2   1  -3   14.33    1.82
   2   1  -3   12.59    1.68
   2   1  -3   13.17    2.20
  -2  -1   3   15.56    2.59
  -2  -1   3   15.22    2.58
  -2  -1   3   13.13    1.76
  -2  -1   3   12.30    1.68
  -2  -1   3   15.07    2.36
   1   1  -3   42.02    4.36
   1   1  -3   37.08    4.37
   1   1  -3   34.97    4.37
   1   1  -3   38.11    4.46
   1   1  -3   39.29    4.38
   1   1  -3   36.37    4.59
   1   1  -3   37.63    4.38
   1   1  -3   41.25    4.52
   1   1  -3   42.59    4.49
  -1  -1   3   35.53    4.39
  -1  -1   3   35.28    4.46
  -1  -1   3   37.42    4.36
  -1  -1   3   25.68    4.38
  -1  -1   3   33.22    4.30
  -1  -1   3   43.57    4.67
  -1  -1   3   30.65    4.35
  -1  -1   3   35.13    4.34
   0   1  -3   20.64    2.53
   0   1  -3   27.50    2.71
   0   1  -3   21.61    2.58
   0   1  -3   21.77    2.54
   0   1  -3   19.38    2.55
   0   1  -3   21.68    2.57
   0   1  -3   22.42    2.50
   0   1  -3   19.41    2.47
   0  -1   3   20.79    2.55
   0  -1   3   20.31    2.56
   0  -1   3   22.07    2.56
   0  -1   3   17.48    2.46
   0  -1   3   17.32    2.56
   0  -1   3   21.10    2.51
   0  -1   3   21.76    2.58
   0  -1   3   18.98    2.61
  -1   1  -3   35.50    4.43
  -1   1  -3   37.26    4.47
  -1   1  -3   35.79    4.41
  -1   1  -3   38.22    4.46
  -1   1  -3   33.80    4.64
  -1   1  -3   38.36    4.56
  -1   1  -3   36.56    4.48
  -1   1  -3   38.08    4.50
   1  -1   3   35.91    4.79
   1  -1   3   39.02    4.47
   1  -1   3   37.65    4.69
   1  -1   3   38.53    4.44
   1  -1   3   37.03    4.49
   1  -1   3   35.26    4.46
   1  -1   3   37.54    4.48
   1  -1   3   36.90    4.49
   1  -1   3   38.38    4.71
  -2   1  -3   21.49    2.77
  -2   1  -3   16.48    3.06
  -2   1  -3   17.18    2.32
  -2   1  -3   20.55    3.30
  -2   1  -3   19.79    2.85
   2  -1   3   17.16    2.70
   2  -1   3   28.39    3.01
   2  -1   3   17.44    2.36
   2  -1   3   19.15    2.42
   2  -1   3   18.81    2.44
   2  -1   3   15.23    2.33
  -3   1  -3    3.04    2.09
  -3   1  -3    4.82    1.73
  -3   1  -3    2.30    1.81
   3  -1   3    4.19    0.85
   3  -1   3    2.74    1.02
   3  -1   3    5.29    0.96
   3  -1   3    4.28    1.77
   3  -1   3    5.57    1.12
  -4   1  -3    0.80    2.01
  -4   1  -3   -0.10    2.30
   4  -1   3    1.79    2.34
   4  -1   3    5.37    2.58
  -5   1  -3    1.29    3.41
   5  -1   3   -2.23    2.65
   5  -1   3   -0.69    3.15
   5  -1   3   -2.13    3.44
   5   0  -3   -0.83    2.71
   5   0  -3    3.42    3.57
   5   0  -3   -0.62    2.54
  -5   0   3   -2.46    3.63
   4   0  -3   -0.31    1.85
   4   0  -3    2.59    2.19
   4   0  -3    1.96    2.46
  -4   0   3    0.68    2.67
  -4   0   3    4.92    2.92
   3   0  -3   64.83    7.97
   3   0  -3   62.54    8.08
  -3   0   3   59.80    8.31
  -3   0   3   60.86    8.30
  -3   0   3   61.17    8.43
  -3   0   3   74.64    8.50
   2   0  -3   -0.19    0.34
   2   0  -3    0.25    0.37
   2   0  -3   -0.46    0.39
   2   0  -3   -1.35    0.79
   2   0  -3   -0.07    0.37
  -2   0   3   -0.11    1.10
  -2   0   3   -0.32    0.31
  -2   0   3   -0.21    0.98
  -2   0   3   -0.60    0.96
  -2   0   3    0.73    1.12
   1   0  -3   46.93    5.63
   1   0  -3   53.36    5.58
   1   0  -3   50.13    5.73
   1   0  -3   46.66    5.54
   1   0  -3   47.97    5.76
   1   0  -3   52.15    5.76
   1   0  -3   50.56    5.60
   1   0  -3   50.94    5.82
   1   0  -3   48.15    5.67
   1   0  -3   46.93    5.58
   1   0  -3   44.36    5.55
  -1   0   3   44.59    5.74
  -1   0   3   51.50    5.72
  -1   0   3   50.06    5.59
  -1   0   3   44.36    5.52
  -1   0   3   42.22    5.64
  -1   0   3   47.41    5.76
  -1   0   3   40.09    5.51
   0   0  -3   35.26    4.47
   0   0  -3   36.50    4.50
   0   0  -3   39.44    4.51
   0   0  -3   37.51    4.48
   0   0  -3   36.32    4.42
   0   0  -3   43.61    4.55
   0   0  -3   41.07    4.52
   0   0   3   36.38    4.47
   0   0   3   36.78    4.51
   0   0   3   34.15    4.42
   0   0   3   37.98    4.50
   0   0   3   42.45    4.52
   0   0   3   36.85    4.48
   0   0   3   36.53    4.42
   0   0   3   37.30    4.50
  -1   0  -3   36.63    4.44
  -1   0  -3   40.17    4.49
  -1   0  -3   34.44    4.41
  -1   0  -3   35.45    4.45
  -1   0  -3   38.39    4.70
  -1   0  -3   37.45    4.53
  -1   0  -3   34.21    4.44
  -1   0  -3   40.67    4.73
   1   0   3   36.97    4.42
   1   0   3   37.53    4.46
   1   0   3   38.78    4.65
   1   0   3   38.16    4.68
   1   0   3   37.52    4.54
   1   0   3   41.01    4.47
   1   0   3   34.44    4.47
   1   0   3   34.91    4.45
   1   0   3   37.34    4.45
   1   0   3   36.96    4.66
  -2   0  -3    2.28    1.32
  -2   0  -3    1.54    0.71
  -2   0  -3    0.91    1.21
  -2   0  -3   -0.29    0.20
  -2   0  -3    3.72    1.07
   2   0   3    0.00    0.75
   2   0   3    0.58    0.61
   2   0   3    1.38    1.03
   2   0   3    0.82    0.54
   2   0   3   -0.06    0.57
   2   0   3   -0.17    0.98
   2   0   3   -0.40    0.61
  -3   0  -3   13.83    3.17
  -3   0  -3   10.65    2.79
  -3   0  -3   12.25    2.37
   3   0   3    8.86    1.47
   3   0   3    9.47    2.31
   3   0   3   10.91    1.71
   3   0   3    9.80    1.47
   3   0   3    8.44    1.65
  -4   0  -3    5.13    2.56
  -4   0  -3    1.11    3.00
  -4   0  -3    2.71    2.22
   4   0   3    0.00    2.33
  -5   0  -3    0.37    3.35
   5   0   3   -2.97    2.73
   5   0   3    1.47    3.46
   5  -1  -3   -0.04    2.46
   5  -1  -3    0.65    3.47
   5  -1  -3   -0.45    2.82
   4  -1  -3    2.68    2.29
   4  -1  -3    5.13    2.28
   4  -1  -3    3.27    2.52
  -4   1   3    6.89    2.81
  -4   1   3    3.89    2.63
   3  -1  -3    0.53    0.55
   3  -1  -3   -0.49    1.27
   3  -1  -3   -0.60    1.33
   3  -1  -3   -0.08    0.58
  -3   1   3    1.68    1.69
  -3   1   3   -0.70    1.69
  -3   1   3    1.66    1.97
  -3   1   3    0.23    1.59
   2  -1  -3    0.23    1.07
   2  -1  -3    0.84    0.48
   2  -1  -3   -0.02    0.41
   2  -1  -3   -0.73    0.88
   2  -1  -3    0.38    0.45
   2  -1  -3    0.34    0.39
   2  -1  -3    0.76    0.80
  -2   1   3    0.38    1.05
  -2   1   3   -1.13    0.84
  -2   1   3   -0.81    0.97
  -2   1   3   -1.34    0.99
  -2   1   3    0.59    0.48
   1  -1  -3  304.60   34.52
   1  -1  -3  299.58   34.55
   1  -1  -3  288.20   34.66
   1  -1  -3  260.11   34.51
   1  -1  -3  315.95   34.69
   1  -1  -3  296.92   34.51
   1  -1  -3  294.06   34.63
   1  -1  -3  298.83   34.63
   1  -1  -3  299.99   34.61
   1  -1  -3  309.69   34.52
   1  -1  -3  303.63   34.54
  -1   1   3  258.75   34.60
  -1   1   3  295.50   34.47
  -1   1   3  302.61   34.48
  -1   1   3  291.19   34.51
  -1   1   3  321.41   34.52
  -1   1   3  290.45   34.57
  -1   1   3  285.69   34.67
  -1   1   3  342.07   34.55
   0  -1  -3   10.93    1.42
   0  -1  -3    9.28    1.58
   0  -1  -3   10.52    1.54
   0  -1  -3    9.25    1.47
   0  -1  -3   10.30    1.60
   0  -1  -3    9.39    1.50
   0  -1  -3    9.49    1.41
   0  -1  -3   12.03    1.58
   0   1   3   12.62    1.58
   0   1   3   13.72    1.65
   0   1   3   10.30    1.52
   0   1   3   13.28    1.62
   0   1   3   11.67    1.59
   0   1   3   10.46    1.39
   0   1   3   13.44    1.49
   0   1   3   10.20    1.56
  -1  -1  -3    0.94    0.64
  -1  -1  -3    0.39    0.37
  -1  -1  -3    0.94    0.88
  -1  -1  -3   -0.56    0.37
  -1  -1  -3    0.80    0.55
  -1  -1  -3   -0.73    0.74
  -1  -1  -3    0.37    0.54
   1   1   3    0.37    0.47
   1   1   3   -0.17    0.68
   1   1   3    0.52    0.70
   1   1   3    0.73    0.80
   1   1   3    0.62    0.50
   1   1   3   -0.22    0.46
   1   1   3    0.31    0.61
   1   1   3    0.16    0.50
   1   1   3    1.13    0.57
  -2  -1  -3   37.33    4.46
  -2  -1  -3   20.56    3.33
  -2  -1  -3   26.69    4.24
  -2  -1  -3   30.11    3.52
   2   1   3   31.46    4.02
   2   1   3   26.32    3.37
   2   1   3   28.63    3.44
   2   1   3   23.43    3.75
   2   1   3   28.55    3.39
   2   1   3   22.91    3.41
   2   1   3   24.74    3.73
   2   1   3   28.71    3.44
  -3  -1  -3    6.95    1.37
  -3  -1  -3    5.82    2.51
  -3  -1  -3    7.41    2.07
  -3  -1  -3   11.12    3.19
   3   1   3    8.38    1.64
   3   1   3    8.09    1.36
   3   1   3    7.53    1.36
   3   1   3    5.77    2.11
  -4  -1  -3    5.86    3.28
  -4  -1  -3    7.73    3.59
   4   1   3    2.08    1.81
   4   1   3    1.94    2.60
  -5  -1  -3   -0.03    3.81
  -5  -1  -3    3.49    4.41
   5   1   3    2.48    3.37
   5  -2  -3    0.86    2.97
   5  -2  -3   -1.31    3.75
   5  -2  -3    4.24    3.19
  -5   2   3    0.37    3.33
   4  -2  -3   -1.29    1.90
   4  -2  -3   -0.44    2.08
   4  -2  -3   -2.36    2.07
  -4   2   3    0.81    2.37
  -4   2   3    1.18    2.45
  -4   2   3   -1.07    2.06
   3  -2  -3    7.69    2.15
   3  -2  -3    6.78    1.40
   3  -2  -3    9.74    1.53
   3  -2  -3   10.01    1.36
   3  -2  -3   11.50    2.18
   3  -2  -3    7.75    1.43
  -3   2   3    8.35    2.54
  -3   2   3    7.87    2.32
  -3   2   3   10.28    2.50
   2  -2  -3   32.43    4.49
   2  -2  -3   35.97    4.58
   2  -2  -3   36.51    4.30
   2  -2  -3   35.30    4.80
   2  -2  -3   34.70    4.29
   2  -2  -3   36.00    4.31
   2  -2  -3   35.44    4.65
   2  -2  -3   30.42    4.23
  -2   2   3   31.94    4.46
  -2   2   3   42.61    4.89
  -2   2   3   36.68    4.65
   1  -2  -3   26.21    3.31
   1  -2  -3   25.49    3.42
   1  -2  -3   31.97    3.59
   1  -2  -3   19.77    3.47
   1  -2  -3   23.72    3.32
   1  -2  -3   26.92    3.32
   1  -2  -3   23.88    3.27
   1  -2  -3   27.03    3.36
   1  -2  -3   23.44    3.40
  -1   2   3   27.28    3.40
  -1   2   3   25.04    3.27
  -1   2   3   22.56    3.44
  -1   2   3   25.85    3.21
  -1   2   3   26.95    3.32
  -1   2   3   25.80    3.28
  -1   2   3   27.52    3.46
  -1   2   3   29.23    3.45
  -1   2   3   36.57    3.41
   0  -2  -3    7.36    1.38
   0  -2  -3    7.29    1.51
   0  -2  -3   12.26    1.51
   0  -2  -3   10.04    1.44
   0  -2  -3    8.87    1.41
   0  -2  -3    8.39    1.51
   0  -2  -3    6.48    1.40
   0  -2  -3    7.60    1.27
   0  -2  -3    8.09    1.57
   0   2   3    9.59    1.30
   0   2   3   10.41    1.48
   0   2   3   14.99    1.70
   0   2   3    8.61    1.33
   0   2   3   11.04    1.63
   0   2   3    9.67    1.46
   0   2   3   10.70    1.53
   0   2   3    7.60    1.40
  -1  -2  -3  242.92   28.46
  -1  -2  -3  212.53   28.35
  -1  -2  -3  253.48   28.60
  -1  -2  -3  253.54   28.63
  -1  -2  -3  239.36   28.39
  -1  -2  -3  235.33   28.42
   1   2   3  250.55   28.41
   1   2   3  227.38   28.46
   1   2   3  288.95   28.48
   1   2   3  248.04   28.52
   1   2   3  241.85   28.25
   1   2   3  240.81   28.52
   1   2   3  245.85   28.41
   1   2   3  244.36   28.41
  -2  -2  -3   10.90    1.87
  -2  -2  -3    8.72    1.67
  -2  -2  -3   13.43    2.73
  -2  -2  -3   13.50    2.62
  -2  -2  -3    8.26    1.51
   2   2   3   11.02    2.20
   2   2   3   11.34    1.90
   2   2   3   14.08    1.89
   2   2   3   12.16    1.73
   2   2   3   10.54    1.76
   2   2   3   11.00    1.76
  -3  -2  -3   -0.21    1.89
  -3  -2  -3    0.11    2.14
   3   2   3    0.38    0.87
   3   2   3    2.81    1.82
   3   2   3   -1.08    1.10
   3   2   3    3.07    2.03
   3   2   3   -0.62    0.79
  -4  -2  -3    7.66    3.41
  -4  -2  -3    3.34    3.37
   4   2   3    4.47    2.95
  -5  -2  -3    5.20    4.47
  -5  -2  -3    4.29    4.12
   5   2   3    2.01    3.77
   5  -3  -3   -1.61    2.98
   5  -3  -3   -1.14    4.15
  -5   3   3   -2.99    3.05
   4  -3  -3    1.10    2.03
   4  -3  -3   -0.64    2.35
   4  -3  -3   -3.04    2.11
  -4   3   3    1.58    2.38
  -4   3   3   -1.00    2.17
   3  -3  -3   12.63    2.74
   3  -3  -3   12.05    1.88
   3  -3  -3    8.07    1.86
   3  -3  -3    9.49    2.47
   3  -3  -3   12.83    1.97
  -3   3   3   14.43    2.63
  -3   3   3    9.72    2.81
  -3   3   3   12.42    2.70
   2  -3  -3    3.85    1.42
   2  -3  -3    1.32    0.97
   2  -3  -3    2.62    1.08
   2  -3  -3    2.30    1.24
   2  -3  -3    2.90    1.25
   2  -3  -3    1.21    0.90
   2  -3  -3    0.79    0.82
  -2   3   3    4.31    1.42
  -2   3   3    3.79    1.59
  -2   3   3    1.07    0.91
  -2   3   3    2.09    0.82
   1  -3  -3   27.71    4.09
   1  -3  -3   28.31    4.04
   1  -3  -3   32.74    3.92
   1  -3  -3   27.74    4.34
   1  -3  -3   31.40    4.02
   1  -3  -3   31.78    4.32
  -1   3   3   37.94    4.10
  -1   3   3   32.30    3.96
  -1   3   3   31.15    4.02
  -1   3   3   30.23    3.97
  -1   3   3   31.92    4.30
  -1   3   3   34.37    4.09
  -1   3   3   32.07    4.17
  -1   3   3   31.23    3.73
   0  -3  -3    7.11    1.80
   0  -3  -3    8.85    1.75
   0  -3  -3    8.44    1.97
   0  -3  -3   11.57    1.78
   0  -3  -3    7.76    1.67
   0  -3  -3   11.01    1.67
   0  -3  -3    9.42    1.88
   0  -3  -3   12.48    1.99
   0   3   3   11.00    1.80
   0   3   3   14.94    1.68
   0   3   3   16.41    2.00
   0   3   3   11.33    1.99
   0   3   3   10.95    1.79
   0   3   3   13.14    1.65
   0   3   3   13.90    1.84
  -1  -3  -3   41.27    5.55
  -1  -3  -3   38.36    5.51
  -1  -3  -3   47.03    5.54
  -1  -3  -3   45.18    5.74
   1   3   3   45.26    5.47
   1   3   3   45.69    5.44
   1   3   3   50.07    5.54
   1   3   3   37.90    5.46
  -2  -3  -3    7.08    2.20
  -2  -3  -3    3.93    1.44
  -2  -3  -3    5.64    2.18
  -2  -3  -3    3.47    1.17
  -2  -3  -3    4.33    1.44
   2   3   3    3.15    1.44
   2   3   3    3.65    1.14
   2   3   3    6.03    1.50
   2   3   3    6.31    1.40
   2   3   3    4.12    0.96
  -3  -3  -3   21.27    4.17
  -3  -3  -3   18.54    4.03
   3   3   3   15.32    2.28
   3   3   3   20.75    3.07
   3   3   3   13.18    3.27
   3   3   3   15.90    2.55
  -4  -3  -3    4.52    3.71
  -4  -3  -3    3.20    3.57
   4   3   3    2.08    1.08
   4   3   3    3.27    3.01
   5  -4  -3    4.96    3.52
  -5   4   3    1.54    3.10
  -5   4   3    7.00    3.59
   4  -4  -3    3.09    1.42
   4  -4  -3    0.86    2.39
   4  -4  -3    5.74    2.51
  -4   4   3    0.48    2.16
  -4   4   3    1.87    2.68
   3  -4  -3   -0.78    1.78
   3  -4  -3    1.22    1.78
   3  -4  -3   -0.27    1.05
   3  -4  -3   -1.72    1.16
  -3   4   3    1.61    1.84
  -3   4   3   -2.96    1.74
   2  -4  -3   -2.02    1.13
   2  -4  -3   -0.07    0.96
   2  -4  -3    0.51    1.14
   2  -4  -3    1.47    1.62
   2  -4  -3    0.90    1.06
   2  -4  -3    1.14    1.09
   2  -4  -3    0.80    1.18
  -2   4   3   -0.88    0.67
  -2   4   3    2.10    1.24
  -2   4   3   -1.28    0.84
  -2   4   3   -0.12    1.22
  -2   4   3   -0.65    0.76
   1  -4  -3   81.87    9.20
   1  -4  -3   72.30    9.43
   1  -4  -3   65.25    9.41
   1  -4  -3   86.84    9.54
   1  -4  -3   73.14    9.40
   1  -4  -3   61.61    9.65
  -1   4   3   80.28    9.53
  -1   4   3   72.89    9.31
  -1   4   3   88.86    9.36
  -1   4   3   80.78    9.32
  -1   4   3   82.93    9.33
   0  -4  -3    3.67    1.45
   0  -4  -3    4.88    1.53
   0  -4  -3    5.52    1.33
   0  -4  -3    7.09    1.41
   0  -4  -3    7.51    1.90
   0   4   3    5.10    1.35
   0   4   3    5.46    1.35
   0   4   3    8.51    1.16
   0   4   3    4.81    1.32
   0   4   3    6.70    1.13
  -1  -4  -3   11.50    2.32
  -1  -4  -3    5.12    1.78
  -1  -4  -3    6.87    1.82
   1   4   3    8.29    1.84
   1   4   3    7.26    1.50
   1   4   3    9.45    1.79
  -2  -4  -3    2.66    1.98
  -2  -4  -3   -0.68    1.27
  -2  -4  -3    1.12    1.98
  -2  -4  -3    0.39    1.19
  -2  -4  -3    3.24    1.63
   2   4   3    1.59    1.07
   2   4   3    2.19    1.29
   2   4   3    1.43    1.53
   2   4   3    1.71    0.63
   2   4   3    0.87    0.94
  -3  -4  -3    3.11    2.72
  -3  -4  -3    6.51    3.30
   3   4   3   -0.98    1.67
   3   4   3    0.15    2.03
   3   4   3    0.61    1.21
  -4  -4  -3    2.40    3.90
  -4  -4  -3   -0.70    3.37
   4   4   3   -1.97    2.71
   4   4   3    0.59    1.18
   5  -5  -3   -1.10    3.39
  -5   5   3    5.19    3.51
   4  -5  -3   -0.26    1.32
   4  -5  -3    1.93    2.57
   4  -5  -3    0.60    2.50
  -4   5   3   -1.69    2.33
  -4   5   3    3.16    2.40
   3  -5  -3    4.51    2.53
   3  -5  -3   -0.52    1.28
   3  -5  -3   -4.28    1.60
   3  -5  -3   -1.82    1.42
  -3   5   3   -0.83    1.85
  -3   5   3   -1.58    1.52
   2  -5  -3   41.24    5.56
   2  -5  -3   42.70    6.01
   2  -5  -3   38.16    5.64
   2  -5  -3   49.02    5.78
   2  -5  -3   43.74    5.21
   2  -5  -3   30.10    5.89
  -2   5   3   45.33    5.93
  -2   5   3   43.70    6.10
  -2   5   3   40.32    5.30
  -2   5   3   43.20    5.32
  -2   5   3   43.71    5.59
   1  -5  -3    2.36    1.03
   1  -5  -3    2.33    1.43
   1  -5  -3    1.83    1.68
   1  -5  -3    1.74    1.51
   1  -5  -3   -0.12    1.38
  -1   5   3    2.10    1.07
  -1   5   3    6.04    1.77
  -1   5   3    2.68    1.14
  -1   5   3    2.55    1.10
  -1   5   3    0.92    1.08
   0  -5  -3   -0.59    1.01
   0  -5  -3    1.88    1.74
   0  -5  -3    1.59    1.28
   0  -5  -3    0.61    1.43
   0   5   3    0.07    0.58
   0   5   3    0.70    0.93
   0   5   3    0.14    0.64
   0   5   3    0.60    0.90
   0   5   3    1.63    1.07
  -1  -5  -3   73.18    9.00
  -1  -5  -3   73.88    8.84
  -1  -5  -3   63.78    8.75
   1   5   3   73.23    8.62
   1   5   3   71.49    8.60
   1   5   3   69.33    8.54
   1   5   3   65.50    8.08
  -2  -5  -3    3.37    1.93
  -2  -5  -3    3.85    2.62
  -2  -5  -3    6.46    2.67
  -2  -5  -3    3.30    1.70
   2   5   3    3.92    1.77
   2   5   3   -0.52    1.44
   2   5   3    3.20    1.32
  -3  -5  -3   -4.57    2.48
  -3  -5  -3   -1.18    2.84
   3   5   3   -1.56    2.13
   3   5   3    2.45    2.06
   3   5   3   -0.16    1.17
  -4  -5  -3    2.00    3.94
  -4  -5  -3    3.18    4.01
   4   5   3    4.02    3.10
   4   5   3   -0.57    1.39
   4  -6  -3    7.39    3.14
   4  -6  -3    0.23    1.64
   4  -6  -3    4.66    3.03
  -4   6   3    1.39    2.51
  -4   6   3   -4.41    2.41
   3  -6  -3    0.30    1.87
   3  -6  -3    0.05    2.57
   3  -6  -3    0.56    2.28
   3  -6  -3   -0.60    1.50
  -3   6   3   -1.48    1.75
  -3   6   3   -1.80    1.80
   2  -6  -3    1.99    1.04
   2  -6  -3   -0.01    2.01
   2  -6  -3    3.00    1.87
   2  -6  -3    3.78    2.23
   2  -6  -3    3.54    1.75
  -2   6   3    4.66    1.42
  -2   6   3    1.51    1.42
  -2   6   3    3.81    1.59
  -2   6   3   -0.07    1.81
   1  -6  -3   16.18    2.18
   1  -6  -3    7.53    2.40
   1  -6  -3   10.49    2.67
   1  -6  -3   12.93    3.49
   1  -6  -3    9.77    2.75
  -1   6   3   16.02    2.56
  -1   6   3   15.83    3.02
  -1   6   3   15.05    2.45
  -1   6   3   14.49    2.52
  -1   6   3   14.75    2.46
   0  -6  -3   28.11    4.63
   0  -6  -3   29.94    5.43
   0  -6  -3   26.40    4.24
   0  -6  -3   37.16    5.35
   0  -6  -3   27.28    4.70
   0   6   3   30.62    4.36
   0   6   3   33.21    3.91
   0   6   3   35.29    4.38
   0   6   3   31.33    4.34
   0   6   3   26.61    3.73
  -1  -6  -3    1.80    1.84
  -1  -6  -3    4.17    2.30
  -1  -6  -3    2.58    2.18
  -1  -6  -3    2.83    0.88
   1   6   3    3.81    1.44
   1   6   3    3.43    0.86
   1   6   3    2.40    1.52
   1   6   3    4.12    1.73
  -2  -6  -3    1.42    2.81
  -2  -6  -3   -1.68    1.84
  -2  -6  -3   -0.95    2.55
  -2  -6  -3   -0.29    1.96
   2   6   3    1.50    1.75
   2   6   3   -0.47    1.82
   2   6   3    0.13    1.27
  -3  -6  -3   21.56    5.16
  -3  -6  -3   15.68    4.83
   3   6   3    9.94    3.32
   3   6   3   13.84    3.34
   3   6   3   11.23    2.59
  -4  -6  -3   -2.49    4.72
  -4  -6  -3   -1.09    4.25
   4   6   3   -0.66    1.60
   4   6   3   -2.72    3.00
   4  -7  -3   -1.71    1.88
   4  -7  -3    0.35    3.04
   4  -7  -3    6.55    3.39
  -4   7   3    1.64    3.04
  -4   7   3    0.77    2.49
   3  -7  -3    1.27    2.31
   3  -7  -3    3.65    2.96
   3  -7  -3   -0.59    2.58
   3  -7  -3   -2.73    1.65
  -3   7   3    2.11    2.04
  -3   7   3    1.03    2.42
   2  -7  -3    6.20    2.92
   2  -7  -3    5.31    2.78
   2  -7  -3    2.14    1.84
   2  -7  -3    3.12    2.33
  -2   7   3    4.00    2.37
  -2   7   3    2.73    1.88
  -2   7   3    1.73    1.51
  -2   7   3    7.26    2.05
   1  -7  -3    4.47    2.56
   1  -7  -3    4.55    1.34
   1  -7  -3    3.39    2.04
   1  -7  -3    0.40    1.79
   1  -7  -3    0.36    1.90
  -1   7   3    3.76    1.45
  -1   7   3    4.00    2.16
  -1   7   3    0.58    1.31
  -1   7   3   -0.56    1.52
  -1   7   3    3.93    1.59
   0  -7  -3    4.81    3.11
   0  -7  -3    2.85    1.81
   0  -7  -3    2.70    1.91
   0  -7  -3    1.96    2.22
   0  -7  -3    4.79    3.01
   0   7   3    2.70    1.71
   0   7   3    2.50    1.44
   0   7   3    7.00    1.43
   0   7   3    3.10    1.65
  -1  -7  -3    4.11    2.23
  -1  -7  -3    7.39    2.95
  -1  -7  -3    8.09    3.34
   1   7   3    5.90    2.14
   1   7   3   10.05    2.42
   1   7   3    3.98    1.74
   1   7   3    8.29    1.40
  -2  -7  -3    0.06    2.25
  -2  -7  -3    0.19    2.42
  -2  -7  -3    5.11    3.45
  -2  -7  -3   -1.65    3.61
   2   7   3    2.32    2.09
   2   7   3    2.96    1.67
   2   7   3   -0.75    2.13
  -3  -7  -3   -0.45    4.24
  -3  -7  -3    5.89    4.32
   3   7   3   -0.85    1.56
   3   7   3   -0.83    2.65
   3   7   3    0.19    2.70
   4  -8  -3    1.28    2.37
   4  -8  -3    8.67    3.73
   4  -8  -3    1.65    3.98
  -4   8   3    2.43    3.42
  -4   8   3    1.99    2.87
   3  -8  -3   -3.60    2.33
   3  -8  -3    0.34    2.85
   3  -8  -3   -0.74    2.10
   3  -8  -3   -0.92    3.17
  -3   8   3    2.43    2.16
  -3   8   3    0.14    2.61
   2  -8  -3    7.33    3.74
   2  -8  -3   12.22    3.68
   2  -8  -3   13.75    3.71
   2  -8  -3   13.84    3.39
  -2   8   3   15.68    3.18
  -2   8   3   14.83    3.65
  -2   8   3   15.32    2.84
  -2   8   3   21.64    3.34
   1  -8  -3    0.61    2.06
   1  -8  -3    0.24    1.89
   1  -8  -3    2.48    2.62
   1  -8  -3   -0.66    2.45
  -1   8   3    0.63    2.41
  -1   8   3    0.55    2.01
  -1   8   3    4.23    1.59
  -1   8   3    2.47    1.62
  -1   8   3    4.24    1.57
   0  -8  -3    4.60    2.21
   0  -8  -3    3.41    3.24
   0  -8  -3    1.70    2.57
   0  -8  -3   -0.99    2.74
   0  -8  -3    4.41    2.06
   0   8   3    2.24    1.56
   0   8   3    2.31    1.32
   0   8   3    4.40    2.18
   0   8   3    4.52    1.81
  -1  -8  -3    4.24    2.93
  -1  -8  -3   11.18    3.89
  -1  -8  -3   16.03    4.64
   1   8   3   13.29    2.91
   1   8   3   12.51    2.62
   1   8   3   15.98    3.21
  -2  -8  -3   -1.70    2.90
  -2  -8  -3    2.40    4.70
  -2  -8  -3   -0.40    3.71
  -2  -8  -3   -5.88    2.76
   2   8   3    0.05    1.60
   2   8   3    1.12    2.23
   2   8   3    2.96    2.35
  -3  -8  -3    3.56    4.67
  -3  -8  -3   -1.09    4.71
   3   8   3   -1.99    2.81
   3   8   3   -1.45    2.82
   3   8   3   -0.70    1.75
   3  -9  -3    2.07    3.20
   3  -9  -3    2.76    2.71
   3  -9  -3   -1.07    3.05
   3  -9  -3   -1.25    3.46
  -3   9   3    0.01    2.74
  -3   9   3   -1.84    2.00
   2  -9  -3    2.72    3.10
   2  -9  -3    3.97    3.15
   2  -9  -3   -2.91    2.00
   2  -9  -3    1.16    2.85
  -2   9   3    1.14    1.94
  -2   9   3   -2.29    2.20
  -2   9   3    0.11    2.23
  -2   9   3    2.58    2.79
   1  -9  -3    4.20    2.93
   1  -9  -3   -3.96    2.70
   1  -9  -3   -0.22    2.09
   1  -9  -3    0.51    2.23
  -1   9   3    2.35    3.03
  -1   9   3    0.71    1.50
  -1   9   3   -3.34    1.88
  -1   9   3   -0.18    1.47
   0  -9  -3   10.76    4.52
   0  -9  -3   15.39    4.03
   0  -9  -3   10.39    4.33
   0  -9  -3    9.10    2.86
   0   9   3   11.81    3.06
   0   9   3   13.77    2.40
   0   9   3    4.10    1.99
   0   9   3    8.25    2.48
  -1  -9  -3    2.05    3.43
  -1  -9  -3    5.01    4.24
  -1  -9  -3   -0.96    2.56
   1   9   3    2.27    2.18
   1   9   3    0.93    1.55
   1   9   3   -1.06    1.92
  -2  -9  -3    2.72    4.62
  -2  -9  -3   -0.83    4.81
  -2  -9  -3   -1.10    3.49
   2   9   3    2.44    2.02
   2   9   3   -3.87    2.25
   2   9   3    2.32    2.50
  -3  -9  -3   -7.34    4.99
  -3  -9  -3    8.49    6.12
   3   9   3    1.90    3.37
   3   9   3    4.41    3.46
   3 -10  -3   -0.19    3.76
   3 -10  -3    4.45    3.95
   3 -10  -3    1.18    2.80
   3 -10  -3   -2.93    3.81
  -3  10   3    2.17    3.26
  -3  10   3    0.51    2.51
   2 -10  -3    0.43    3.18
   2 -10  -3    1.94    2.54
   2 -10  -3    2.46    3.21
   2 -10  -3    2.69    4.05
  -2  10   3   -0.51    2.82
  -2  10   3    2.53    2.08
  -2  10   3   -0.41    3.07
   1 -10  -3    1.42    3.74
   1 -10  -3   -1.88    2.43
   1 -10  -3   -0.48    2.23
   1 -10  -3   -6.33    2.86
  -1  10   3    0.02    1.52
  -1  10   3    0.32    1.64
  -1  10   3   -2.97    2.94
  -1  10   3   -3.00    2.49
   0 -10  -3   -1.85    4.04
   0 -10  -3    1.28    4.26
   0 -10  -3   -1.37    3.49
   0 -10  -3    4.68    3.17
   0  10   3    2.55    2.09
   0  10   3    4.79    2.83
  -1 -10  -3    5.52    3.89
  -1 -10  -3    5.48    4.73
  -1 -10  -3    2.96    3.02
   1  10   3    3.83    2.45
   1  10   3    2.71    2.84
   1  10   3    1.17    1.85
  -2 -10  -3    0.62    4.24
  -2 -10  -3    1.09    5.72
  -2 -10  -3    1.49    5.82
   2  10   3    0.66    2.87
   2  10   3    3.99    2.81
   2  10   3    1.28    2.14
   2 -11  -3    2.39    3.73
   2 -11  -3   -2.46    4.30
   2 -11  -3    0.00    2.44
   2 -11  -3    0.08    3.24
  -2  11   3    1.69    3.49
  -2  11   3    3.79    2.60
  -2  11   3   -1.81    3.25
   1 -11  -3    0.46    4.32
   1 -11  -3    4.56    3.86
   1 -11  -3   -0.85    2.48
  -1  11   3    1.19    2.04
  -1  11   3   -2.38    3.04
  -1  11   3    1.73    3.51
   0 -11  -3    3.00    4.36
   0 -11  -3    3.24    4.32
   0 -11  -3    4.50    4.72
   0 -11  -3    2.25    2.67
   0  11   3   -0.72    1.70
   0  11   3   -1.68    2.95
  -1 -11  -3   -1.96    4.35
  -1 -11  -3   -1.70    3.04
  -1 -11  -3   -4.20    5.05
   1  11   3    0.49    1.95
   1  11   3   -4.29    2.80
   1  12  -4    0.03    1.69
  -1 -12   4   -3.30    4.70
  -1 -12   4    4.06    3.21
  -1 -12   4    9.56    4.45
  -1 -12   4   -0.52    5.08
   0  12  -4   -0.43    2.21
   0  12  -4    2.44    2.03
   0  12  -4   -1.47    2.85
   0 -12   4   -3.16    2.48
   0 -12   4    2.32    4.73
   0 -12   4    8.30    4.06
  -1  12  -4    3.43    3.25
  -1  12  -4    2.11    1.92
  -1  12  -4    1.27    2.62
   1 -12   4    1.41    2.84
   1 -12   4    2.91    3.45
   1 -12   4    9.27    4.63
  -2  12  -4   -4.58    3.44
  -2  12  -4    1.78    2.80
  -2  12  -4    1.87    3.61
   2 -12   4    8.17    3.76
   2 -12   4   -0.03    3.59
   2 -12   4    2.69    2.99
   2  11  -4    7.67    2.93
   2  11  -4    0.85    2.53
   2  11  -4    0.94    1.84
  -2 -11   4   -9.12    4.75
  -2 -11   4    0.78    5.15
  -2 -11   4    0.71    4.22
   1  11  -4    0.22    2.42
   1  11  -4    0.36    1.71
   1  11  -4    1.24    2.37
   1  11  -4   -0.15    2.03
  -1 -11   4   -2.21    2.35
  -1 -11   4    4.75    3.68
  -1 -11   4   -5.01    3.94
  -1 -11   4   -3.31    4.64
   0  11  -4    1.27    1.94
   0  11  -4    0.14    2.13
   0 -11   4    4.67    4.52
   0 -11   4    3.78    3.38
   0 -11   4    5.02    2.97
  -1  11  -4    1.65    2.51
  -1  11  -4   11.98    3.46
  -1  11  -4   10.54    2.85
   1 -11   4   14.51    3.83
   1 -11   4    4.61    2.68
   1 -11   4    2.37    3.74
  -2  11  -4    3.26    3.09
  -2  11  -4   -5.70    2.93
  -2  11  -4   -1.15    2.55
   2 -11   4    3.15    2.63
   2 -11   4   -4.03    2.66
   2 -11   4   -0.63    3.47
  -3  11  -4   -4.74    3.41
  -3  11  -4   -3.90    2.91
   3 -11   4   -1.60    3.34
   3 -11   4    1.68    3.86
   3 -11   4    1.91    2.90
   3  10  -4    2.55    3.30
   3  10  -4   -0.55    2.01
   3  10  -4   -1.35    2.73
  -3 -10   4   -8.17    6.20
  -3 -10   4   -1.82    5.73
   2  10  -4    1.31    2.46
   2  10  -4    0.79    1.81
   2  10  -4    5.34    2.59
  -2 -10   4    3.24    4.53
  -2 -10   4   -1.96    4.69
  -2 -10   4   -4.29    3.98
  -2 -10   4    2.76    3.78
   1  10  -4    0.11    1.92
   1  10  -4    0.10    1.62
   1  10  -4   -1.34    1.81
  -1 -10   4   -1.52    3.02
  -1 -10   4   -2.59    4.34
  -1 -10   4   -0.52    4.17
  -1 -10   4    1.09    2.74
  -1 -10   4   -2.06    3.01
   0  10  -4    1.22    1.80
   0  10  -4    5.37    2.24
   0  10  -4    3.34    1.90
   0 -10   4    8.07    4.24
   0 -10   4    2.21    2.85
   0 -10   4    3.00    2.41
   0 -10   4   -2.96    2.55
  -1  10  -4    1.73    1.67
  -1  10  -4    3.53    2.52
   1 -10   4    3.60    2.50
   1 -10   4    1.39    2.69
   1 -10   4    4.54    3.52
  -2  10  -4   -2.27    2.69
  -2  10  -4   -0.10    2.77
  -2  10  -4   -3.93    2.01
  -2  10  -4    3.67    2.32
   2 -10   4   -0.46    2.26
   2 -10   4    1.24    2.83
   2 -10   4    0.76    2.56
  -3  10  -4    4.68    3.71
  -3  10  -4    0.64    3.09
   3 -10   4    7.39    3.90
   3 -10   4    8.98    3.46
   3 -10   4    1.50    2.69
   3   9  -4   -1.97    2.47
   3   9  -4    1.79    2.82
   3   9  -4    0.97    2.21
  -3  -9   4   -3.31    4.20
  -3  -9   4    0.82    5.06
   2   9  -4    5.21    2.38
   2   9  -4    5.31    2.55
   2   9  -4    1.52    1.83
  -2  -9   4    4.79    3.33
  -2  -9   4   -1.20    4.19
  -2  -9   4    1.39    4.02
  -2  -9   4   12.07    4.42
   1   9  -4   -0.89    1.40
   1   9  -4    3.48    2.00
   1   9  -4    4.44    1.90
  -1  -9   4   -0.41    3.37
  -1  -9   4    6.83    2.87
  -1  -9   4    1.11    2.75
  -1  -9   4    5.01    4.37
  -1  -9   4   10.36    3.38
   0   9  -4    0.95    1.55
   0   9  -4    0.00    1.39
   0   9  -4   -3.30    1.26
   0   9  -4   -0.27    1.67
   0  -9   4   -2.35    2.10
   0  -9   4    2.40    3.31
   0  -9   4    2.57    2.44
   0  -9   4    0.96    1.98
  -1   9  -4    2.67    1.79
  -1   9  -4    2.61    2.06
   1  -9   4    1.59    1.90
   1  -9   4    4.82    3.09
   1  -9   4    1.25    2.17
   1  -9   4   -0.79    2.17
  -2   9  -4    4.04    2.49
  -2   9  -4    3.54    2.07
  -2   9  -4    1.02    2.74
  -2   9  -4    1.93    2.34
   2  -9   4    2.61    2.57
   2  -9   4   -1.09    2.08
   2  -9   4    0.99    2.42
  -3   9  -4   -0.33    2.56
  -3   9  -4    7.11    3.14
   3  -9   4    0.10    3.04
   3  -9   4    5.12    2.95
   3  -9   4   -0.79    2.30
  -4   9  -4    2.14    3.58
  -4   9  -4    1.74    3.24
   4  -9   4   -0.54    2.68
   4  -9   4    1.66    3.70
   3   8  -4   -1.27    1.71
   3   8  -4   -1.03    2.54
   3   8  -4   -0.63    2.21
  -3  -8   4    5.89    4.67
  -3  -8   4   -0.15    4.40
  -3  -8   4    7.22    4.66
   2   8  -4    2.08    2.00
   2   8  -4   -0.49    1.56
   2   8  -4    0.93    1.99
  -2  -8   4    2.96    3.50
  -2  -8   4    6.47    2.94
  -2  -8   4   -1.90    3.49
  -2  -8   4    1.68    2.63
  -2  -8   4    1.42    3.13
   1   8  -4   -0.10    1.38
   1   8  -4    6.47    1.79
   1   8  -4    1.47    1.75
  -1  -8   4   -2.03    2.04
  -1  -8   4   -4.11    2.35
  -1  -8   4   -6.35    2.84
  -1  -8   4   -1.16    2.25
  -1  -8   4    1.04    3.63
   0   8  -4   17.34    3.28
   0   8  -4   15.02    3.25
   0   8  -4   16.33    3.21
   0   8  -4   21.06    2.95
   0  -8   4   21.08    3.91
   0  -8   4   13.80    3.43
   0  -8   4   16.76    4.44
   0  -8   4   24.84    3.67
  -1   8  -4   13.55    2.81
  -1   8  -4   14.37    2.81
  -1   8  -4   12.69    3.14
   1  -8   4   10.99    3.13
   1  -8   4   15.97    2.79
   1  -8   4   10.74    3.21
   1  -8   4   10.60    3.46
  -2   8  -4    0.02    1.87
  -2   8  -4    1.62    2.40
  -2   8  -4    1.84    2.23
  -2   8  -4   -1.25    1.58
   2  -8   4    0.24    2.09
   2  -8   4    1.59    2.08
   2  -8   4   -2.10    2.29
  -3   8  -4    5.81    2.73
  -3   8  -4    3.99    2.72
   3  -8   4    0.99    2.94
   3  -8   4    2.80    2.46
   3  -8   4    2.21    2.39
  -4   8  -4    0.63    3.01
  -4   8  -4   -0.42    2.95
   4  -8   4   -1.15    2.23
   4  -8   4   -1.81    2.89
   4   7  -4    4.28    3.49
   4   7  -4   -1.18    1.61
  -4  -7   4   -0.27    5.46
  -4  -7   4    2.58    4.76
   3   7  -4    1.79    2.58
   3   7  -4   -0.58    1.94
   3   7  -4   -2.41    1.34
  -3  -7   4    0.74    3.38
  -3  -7   4    2.78    3.88
  -3  -7   4    0.24    3.32
   2   7  -4   21.61    3.32
   2   7  -4    9.25    2.69
   2   7  -4   10.50    2.60
  -2  -7   4   16.35    3.87
  -2  -7   4   11.08    3.32
  -2  -7   4   10.40    3.86
  -2  -7   4   14.75    3.19
  -2  -7   4   15.28    4.05
   1   7  -4    2.80    1.73
   1   7  -4    0.50    1.38
  -1  -7   4    1.93    2.07
  -1  -7   4    0.04    2.99
  -1  -7   4   -1.44    1.99
  -1  -7   4    1.35    2.26
  -1  -7   4   -3.31    1.86
   0   7  -4   24.32    3.60
   0   7  -4   26.96    3.75
   0  -7   4   11.92    3.56
   0  -7   4   20.87    3.57
   0  -7   4   16.90    3.55
   0  -7   4   23.04    4.30
  -1   7  -4   -1.59    1.22
  -1   7  -4   -1.14    1.66
  -1   7  -4    0.21    1.19
   1  -7   4   -1.78    1.69
   1  -7   4    0.35    1.75
   1  -7   4    1.75    1.93
  -2   7  -4    4.87    2.28
  -2   7  -4    3.61    1.85
  -2   7  -4    2.20    1.73
  -2   7  -4    5.85    2.26
   2  -7   4   -2.51    1.94
   2  -7   4   -0.23    1.84
   2  -7   4    0.98    1.90
  -3   7  -4    6.26    2.39
  -3   7  -4   -0.38    2.09
   3  -7   4    1.88    2.70
   3  -7   4    1.57    2.14
   3  -7   4    6.52    2.38
  -4   7  -4    2.71    2.70
  -4   7  -4    2.50    2.90
   4  -7   4    1.18    2.08
   4  -7   4    1.18    3.18
   4   6  -4   -0.47    3.12
   4   6  -4   -1.28    1.37
  -4  -6   4    5.66    4.31
  -4  -6   4    4.10    4.37
   3   6  -4    0.19    1.40
   3   6  -4    5.56    2.19
   3   6  -4    2.76    2.44
  -3  -6   4   -0.27    3.02
  -3  -6   4   -0.32    2.90
  -3  -6   4   -1.52    2.81
   2   6  -4   23.78    4.06
   2   6  -4   30.41    4.36
   2   6  -4   29.41    3.71
  -2  -6   4   22.16    4.05
  -2  -6   4   26.68    4.75
  -2  -6   4   35.26    4.88
  -2  -6   4   18.90    4.17
  -2  -6   4   24.45    4.96
   1   6  -4   -1.61    1.03
   1   6  -4   -1.63    1.08
  -1  -6   4    1.82    1.78
  -1  -6   4    0.25    1.75
  -1  -6   4   -0.57    1.61
  -1  -6   4   -2.19    1.33
  -1  -6   4   -0.81    1.92
   0   6  -4   61.89    7.74
   0   6  -4   71.15    7.83
   0  -6   4   63.17    7.65
   0  -6   4   60.68    7.86
   0  -6   4   52.49    8.28
   0  -6   4   49.91    7.82
  -1   6  -4    0.21    1.22
  -1   6  -4    0.70    1.48
  -1   6  -4    0.18    0.61
  -1   6  -4   -0.27    1.16
   1  -6   4    0.57    1.52
   1  -6   4   -1.51    1.34
   1  -6   4   -0.70    1.35
  -2   6  -4   20.85    3.33
  -2   6  -4   14.33    2.72
  -2   6  -4   20.53    2.79
  -2   6  -4   18.96    3.40
   2  -6   4   13.81    2.96
   2  -6   4   11.70    2.84
   2  -6   4   15.46    3.26
   2  -6   4    8.14    2.76
  -3   6  -4    0.33    2.09
  -3   6  -4    0.17    1.95
   3  -6   4    0.58    1.84
   3  -6   4    6.14    2.32
   3  -6   4    1.76    1.76
  -4   6  -4    0.18    2.45
  -4   6  -4    0.09    2.41
   4  -6   4    0.23    3.12
   4  -6   4   -1.38    1.65
   4   5  -4   -0.21    1.26
   4   5  -4   -0.46    2.94
  -4  -5   4   -3.32    3.94
  -4  -5   4   -0.05    3.46
  -4  -5   4   -0.03    3.33
   3   5  -4    1.43    1.81
   3   5  -4    4.19    1.34
   3   5  -4    2.98    1.56
  -3  -5   4    4.73    2.63
  -3  -5   4    1.64    3.06
  -3  -5   4   10.11    3.05
   2   5  -4    1.41    1.33
   2   5  -4    0.95    0.89
   2   5  -4    2.47    1.35
   2   5  -4   -0.35    1.17
  -2  -5   4    2.68    1.57
  -2  -5   4   -1.02    1.34
  -2  -5   4   -0.96    1.50
  -2  -5   4    0.51    1.15
  -2  -5   4    0.99    1.78
  -2  -5   4    1.65    2.08
  -2  -5   4   -0.17    2.00
   1   5  -4    2.03    1.06
   1   5  -4   -1.22    1.04
   1   5  -4    0.55    1.06
  -1  -5   4    0.85    1.68
  -1  -5   4   -2.40    1.42
  -1  -5   4   -3.12    1.34
  -1  -5   4    0.56    1.12
  -1  -5   4    0.91    1.76
   0   5  -4   73.15    8.49
   0   5  -4   71.86    8.49
   0  -5   4   76.23    8.52
   0  -5   4   65.72    8.60
   0  -5   4   53.76    8.65
   0  -5   4   64.98    8.52
  -1   5  -4    2.55    0.63
  -1   5  -4    0.79    1.05
  -1   5  -4    0.66    1.39
  -1   5  -4    0.07    1.07
   1  -5   4   -0.86    1.23
   1  -5   4    0.17    1.36
   1  -5   4    0.81    1.18
   1  -5   4    2.90    1.42
  -2   5  -4   11.40    2.29
  -2   5  -4   13.20    2.55
  -2   5  -4    8.90    2.05
  -2   5  -4    9.68    1.66
   2  -5   4    7.59    2.09
   2  -5   4    6.71    2.04
   2  -5   4    9.13    2.00
   2  -5   4    9.44    2.49
  -3   5  -4    2.70    1.93
  -3   5  -4    2.88    2.09
   3  -5   4    3.15    2.30
   3  -5   4   -1.20    1.44
   3  -5   4    2.10    1.50
   3  -5   4    1.00    1.18
  -4   5  -4    2.77    2.52
  -4   5  -4   -0.16    2.11
   4  -5   4    2.11    1.56
   4  -5   4    4.58    3.06
  -5   5  -4   -2.52    2.92
   5  -5   4   -2.32    3.49
   4   4  -4   -0.30    0.96
   4   4  -4   -0.12    3.07
  -4  -4   4    0.84    3.56
  -4  -4   4    0.23    2.89
  -4  -4   4   -3.32    2.73
   3   4  -4    4.58    1.50
   3   4  -4    1.95    1.31
   3   4  -4    2.97    1.65
  -3  -4   4    6.69    2.74
  -3  -4   4    2.05    2.67
  -3  -4   4    7.14    2.77
   2   4  -4   46.59    6.27
   2   4  -4   44.23    5.99
   2   4  -4   54.73    6.35
   2   4  -4   40.93    6.22
  -2  -4   4   44.82    6.96
  -2  -4   4   49.09    6.08
  -2  -4   4   34.69    6.34
  -2  -4   4   53.06    6.11
  -2  -4   4   54.08    6.05
  -2  -4   4   61.57    6.85
  -2  -4   4   51.62    6.44
   1   4  -4   16.35    2.47
   1   4  -4   15.84    2.61
   1   4  -4   23.12    2.94
   1   4  -4   18.89    2.81
  -1  -4   4   12.27    2.62
  -1  -4   4   14.65    2.69
  -1  -4   4   19.48    3.18
  -1  -4   4   17.12    2.58
  -1  -4   4   13.32    2.66
  -1  -4   4   16.00    2.93
   0   4  -4   49.30    5.82
   0   4  -4   51.74    5.66
   0   4  -4   47.42    5.73
   0   4  -4   36.72    5.60
   0   4  -4   49.37    5.68
   0  -4   4   41.61    5.77
   0  -4   4   42.83    5.69
   0  -4   4   46.14    5.68
   0  -4   4   30.19    5.73
  -1   4  -4    8.68    1.88
  -1   4  -4    6.91    1.18
  -1   4  -4    8.30    1.49
  -1   4  -4   19.57    2.22
  -1   4  -4    6.76    1.67
   1  -4   4    7.10    1.68
   1  -4   4    7.31    1.71
   1  -4   4    8.43    1.71
   1  -4   4    5.39    1.62
  -2   4  -4   27.75    4.02
  -2   4  -4   26.15    3.63
  -2   4  -4   28.15    3.76
  -2   4  -4   23.49    3.17
   2  -4   4   27.32    4.05
   2  -4   4   17.85    3.52
   2  -4   4   22.91    3.55
   2  -4   4   27.94    3.26
   2  -4   4   26.83    3.66
  -3   4  -4    2.21    1.83
  -3   4  -4    1.75    1.70
   3  -4   4    1.31    1.40
   3  -4   4   -0.87    1.17
   3  -4   4    0.85    1.84
   3  -4   4    1.01    1.10
   3  -4   4    1.42    1.26
  -4   4  -4    1.86    2.14
  -4   4  -4    2.44    2.14
   4  -4   4    1.70    1.15
   4  -4   4    2.97    1.96
   4  -4   4    2.99    2.56
  -5   4  -4    3.17    3.06
   5  -4   4    0.80    3.39
   5   3  -4    3.11    3.83
  -5  -3   4   -1.54    4.14
  -5  -3   4    3.15    4.05
   4   3  -4    1.14    1.67
   4   3  -4    2.38    3.14
  -4  -3   4   -0.45    3.17
  -4  -3   4    0.73    2.63
  -4  -3   4    4.35    3.00
   3   3  -4   16.38    2.67
   3   3  -4   18.57    3.02
   3   3  -4   22.05    3.14
   3   3  -4   17.54    2.84
  -3  -3   4   25.73    4.25
  -3  -3   4   27.99    4.68
  -3  -3   4   19.32    3.75
   2   3  -4    9.68    1.91
   2   3  -4   13.77    1.99
   2   3  -4   12.32    2.01
   2   3  -4   12.04    1.96
  -2  -3   4   10.45    2.00
  -2  -3   4    8.42    2.02
  -2  -3   4   11.64    2.69
  -2  -3   4   12.89    2.46
  -2  -3   4    9.33    2.19
   1   3  -4    4.92    1.22
   1   3  -4    6.99    1.37
   1   3  -4    5.53    1.23
   1   3  -4    8.50    1.43
   1   3  -4    7.75    1.41
   1   3  -4    7.65    1.40
  -1  -3   4    7.84    1.40
  -1  -3   4    7.62    1.59
  -1  -3   4    6.72    1.84
  -1  -3   4    5.41    1.45
  -1  -3   4    5.24    1.41
  -1  -3   4    3.70    1.29
  -1  -3   4    3.97    1.63
  -1  -3   4    8.88    1.35
   0   3  -4  191.77   19.20
   0   3  -4  180.01   19.19
   0   3  -4  166.27   19.28
   0   3  -4  170.64   19.16
   0   3  -4  172.22   19.15
   0   3  -4  162.63   19.10
   0   3  -4  171.58   19.12
   0  -3   4  143.24   19.25
   0  -3   4  144.24   19.16
   0  -3   4  160.28   19.17
   0  -3   4  148.71   19.14
   0  -3   4  147.96   19.13
   0  -3   4  158.75   19.12
  -1   3  -4    3.94    0.84
  -1   3  -4    7.04    1.58
  -1   3  -4    7.08    1.25
  -1   3  -4    2.31    1.12
  -1   3  -4    5.06    0.96
   1  -3   4    3.42    1.02
   1  -3   4    5.48    1.17
   1  -3   4    3.43    1.21
   1  -3   4    4.26    0.93
   1  -3   4    4.56    1.10
   1  -3   4    6.25    1.46
   1  -3   4    3.40    1.24
  -2   3  -4  115.47   14.93
  -2   3  -4  153.49   15.37
  -2   3  -4  131.54   15.24
  -2   3  -4  129.79   15.55
  -2   3  -4  130.53   15.43
  -2   3  -4  131.91   15.16
   2  -3   4  130.61   15.15
   2  -3   4  138.60   15.56
   2  -3   4  121.51   15.22
   2  -3   4  108.57   15.22
   2  -3   4  144.88   15.23
  -3   3  -4    9.46    2.55
  -3   3  -4   11.08    2.36
  -3   3  -4   11.05    2.49
  -3   3  -4   11.65    2.62
   3  -3   4   10.38    2.03
   3  -3   4    8.26    1.70
   3  -3   4   17.11    3.06
   3  -3   4   11.61    2.04
   3  -3   4   12.71    2.26
  -4   3  -4    1.04    2.17
  -4   3  -4    0.39    2.23
  -4   3  -4   -2.43    1.99
   4  -3   4    7.16    2.86
   4  -3   4    1.39    2.10
  -5   3  -4   -1.84    2.76
   5  -3   4   -4.00    2.84
   5   2  -4   -0.47    3.49
  -5  -2   4    6.14    4.15
  -5  -2   4    3.31    4.37
   4   2  -4    1.54    2.86
   4   2  -4    3.40    1.98
  -4  -2   4    2.97    3.00
  -4  -2   4    5.49    3.36
  -4  -2   4    0.00    2.62
   3   2  -4    5.88    1.24
   3   2  -4    1.34    1.50
   3   2  -4    5.59    1.33
  -3  -2   4    8.62    2.29
  -3  -2   4    6.32    2.59
  -3  -2   4    8.32    2.55
   2   2  -4    0.20    0.80
   2   2  -4   -0.84    0.78
   2   2  -4   -0.01    0.76
   2   2  -4   -0.45    0.68
   2   2  -4    0.11    0.55
   2   2  -4    0.12    0.66
   2   2  -4    0.05    0.83
  -2  -2   4    0.12    0.39
  -2  -2   4    0.55    1.51
  -2  -2   4   -1.15    1.00
  -2  -2   4    1.31    1.20
   1   2  -4   70.08    9.62
   1   2  -4   77.11    9.66
   1   2  -4   88.60    9.62
   1   2  -4   85.03    9.63
   1   2  -4   81.40    9.60
   1   2  -4   79.36    9.62
   1   2  -4   82.58    9.62
   1   2  -4   82.72    9.88
  -1  -2   4   81.40    9.51
  -1  -2   4   82.99    9.92
  -1  -2   4   79.33    9.64
  -1  -2   4   78.00    9.61
  -1  -2   4   80.23    9.58
  -1  -2   4   77.50    9.64
  -1  -2   4   90.53    9.77
  -1  -2   4   82.15    9.67
   0   2  -4  193.70   20.23
   0   2  -4  195.69   20.16
   0   2  -4  189.61   20.19
   0   2  -4  170.84   20.19
   0   2  -4  175.56   20.18
   0   2  -4  171.76   20.31
   0   2  -4  168.78   20.14
   0  -2   4  180.36   20.22
   0  -2   4  171.84   20.17
   0  -2   4  152.81   20.17
   0  -2   4  169.21   20.16
   0  -2   4  163.02   20.30
   0  -2   4  153.27   20.16
   0  -2   4  165.79   20.07
  -1   2  -4    4.76    0.96
  -1   2  -4    4.64    1.24
  -1   2  -4    6.41    1.12
  -1   2  -4    5.89    1.05
  -1   2  -4    7.14    1.03
  -1   2  -4    5.69    1.19
  -1   2  -4    6.03    1.41
  -1   2  -4    5.91    1.05
   1  -2   4    5.49    1.08
   1  -2   4    6.23    1.30
   1  -2   4    6.14    1.22
   1  -2   4    5.77    1.11
   1  -2   4    6.48    1.07
   1  -2   4    5.44    1.04
   1  -2   4    4.15    1.39
   1  -2   4    3.95    1.31
  -2   2  -4   38.30    4.80
  -2   2  -4   35.42    4.49
  -2   2  -4   37.58    5.24
  -2   2  -4   41.23    4.66
  -2   2  -4   43.82    4.94
   2  -2   4   40.01    4.66
   2  -2   4   39.91    4.60
   2  -2   4   38.25    4.88
   2  -2   4   36.61    4.64
   2  -2   4   29.92    4.48
   2  -2   4   31.61    4.49
   2  -2   4   32.37    4.58
  -3   2  -4    0.78    1.59
  -3   2  -4   -1.13    1.46
  -3   2  -4   -1.41    1.34
  -3   2  -4    0.53    0.75
   3  -2   4    1.38    1.47
   3  -2   4    1.02    1.10
   3  -2   4    0.17    0.75
   3  -2   4    0.11    0.85
   3  -2   4    2.83    1.76
  -4   2  -4    7.69    2.52
  -4   2  -4    2.74    2.50
   4  -2   4    4.94    2.44
   4  -2   4    6.45    2.82
  -5   2  -4   -1.52    2.92
  -5   2  -4    1.33    3.08
   5  -2   4   -0.89    3.06
   5  -2   4   -3.40    3.37
   5   1  -4    2.58    3.73
  -5  -1   4   12.60    4.36
  -5  -1   4    1.02    3.62
   4   1  -4   -0.66    1.75
   4   1  -4   -0.02    1.86
  -4  -1   4   -1.19    2.54
  -4  -1   4    1.08    2.61
  -4  -1   4    4.87    2.88
   3   1  -4    0.26    0.45
   3   1  -4   -0.31    0.71
   3   1  -4   -0.58    0.83
   3   1  -4    0.19    0.56
   3   1  -4    0.98    1.43
  -3  -1   4    0.74    1.68
  -3  -1   4   -2.17    1.90
  -3  -1   4   -2.07    1.53
   2   1  -4   33.96    3.66
   2   1  -4   28.42    3.65
   2   1  -4   30.56    3.65
   2   1  -4   28.85    3.90
   2   1  -4   27.68    3.89
  -2  -1   4   28.80    4.23
  -2  -1   4   32.01    4.34
  -2  -1   4   29.47    3.58
  -2  -1   4   34.66    4.63
  -2  -1   4   22.42    3.60
  -2  -1   4   29.48    4.10
   1   1  -4   16.56    2.20
   1   1  -4   21.07    2.43
   1   1  -4   16.51    2.31
   1   1  -4   20.45    2.26
   1   1  -4   14.94    2.15
   1   1  -4   16.30    2.25
   1   1  -4   17.52    2.26
   1   1  -4   18.55    2.53
   1   1  -4   27.45    3.11
  -1  -1   4   15.96    2.26
  -1  -1   4   19.54    2.80
  -1  -1   4   18.99    2.60
  -1  -1   4   17.90    2.46
  -1  -1   4   15.86    2.30
  -1  -1   4   17.60    2.25
  -1  -1   4   17.93    2.27
  -1  -1   4   16.12    2.32
   0   1  -4   60.24    7.05
   0   1  -4   57.56    6.94
   0   1  -4   62.14    7.05
   0   1  -4   68.02    7.10
   0   1  -4   53.43    6.92
   0   1  -4   62.33    7.13
   0   1  -4   57.25    6.99
   0  -1   4   62.60    6.94
   0  -1   4   55.56    7.02
   0  -1   4   59.79    6.95
   0  -1   4   62.35    7.12
   0  -1   4   56.64    7.02
   0  -1   4   61.75    7.05
   0  -1   4   55.90    7.01
   0  -1   4   57.10    7.06
  -1   1  -4    6.63    1.21
  -1   1  -4   10.21    1.40
  -1   1  -4    8.84    1.61
  -1   1  -4    9.83    1.37
  -1   1  -4    7.72    1.11
  -1   1  -4    8.58    1.50
  -1   1  -4    8.99    1.32
  -1   1  -4   10.30    1.43
   1  -1   4    8.95    1.15
   1  -1   4    9.27    1.34
   1  -1   4    5.35    1.22
   1  -1   4    5.27    1.60
   1  -1   4   10.26    1.36
   1  -1   4    6.84    1.32
   1  -1   4    9.33    1.68
   1  -1   4    7.48    1.32
   1  -1   4    9.70    1.66
  -2   1  -4   65.35    8.09
  -2   1  -4   60.17    7.66
  -2   1  -4   73.50    8.26
  -2   1  -4   62.42    7.78
   2  -1   4   62.85    7.61
   2  -1   4   58.91    7.71
   2  -1   4   63.71    7.64
   2  -1   4   68.38    7.64
   2  -1   4   60.60    7.59
   2  -1   4   66.47    7.72
  -3   1  -4    1.01    2.04
  -3   1  -4    1.69    1.87
  -3   1  -4    1.06    1.52
  -3   1  -4    0.59    0.64
   3  -1   4    0.87    0.67
   3  -1   4    0.75    1.55
   3  -1   4   -0.42    1.00
   3  -1   4   -0.12    0.68
  -4   1  -4   -0.58    2.12
  -4   1  -4    3.52    2.64
   4  -1   4    0.81    2.15
   4  -1   4    0.41    2.26
  -5   1  -4    1.38    3.24
   5  -1   4    0.98    3.15
   5  -1   4   -0.64    2.92
   5   0  -4    3.75    3.51
   5   0  -4    2.23    3.00
  -5   0   4    4.24    4.27
   4   0  -4   -1.68    1.68
   4   0  -4   -1.61    1.88
  -4   0   4    0.33    2.46
  -4   0   4    0.62    2.27
   3   0  -4   41.54    5.39
   3   0  -4   41.35    5.36
   3   0  -4   52.36    6.10
   3   0  -4   50.65    5.80
  -3   0   4   47.84    6.30
  -3   0   4   43.94    6.52
  -3   0   4   49.17    6.66
   2   0  -4    3.08    1.22
   2   0  -4    1.95    1.04
   2   0  -4    0.20    0.51
   2   0  -4    1.26    0.74
   2   0  -4    0.39    0.51
   2   0  -4   -0.09    0.53
   2   0  -4    0.20    0.51
   2   0  -4   -0.29    0.90
  -2   0   4    0.09    0.45
  -2   0   4   -0.01    0.47
  -2   0   4    1.19    1.14
  -2   0   4    1.43    1.16
  -2   0   4    2.64    1.20
   1   0  -4    2.59    0.88
   1   0  -4    1.79    0.41
   1   0  -4    1.87    0.60
   1   0  -4    3.13    0.94
   1   0  -4    2.69    0.66
   1   0  -4    1.81    0.52
   1   0  -4    0.51    0.71
   1   0  -4    0.93    0.75
   1   0  -4    2.54    0.62
   1   0  -4    1.67    0.58
  -1   0   4    1.49    0.71
  -1   0   4    2.40    0.56
  -1   0   4   -0.15    0.75
  -1   0   4    1.14    0.51
  -1   0   4    1.45    0.55
  -1   0   4    2.00    0.87
  -1   0   4    1.91    0.56
   0   0  -4  160.42   18.71
   0   0  -4  154.16   18.80
   0   0  -4  157.75   18.78
   0   0  -4  166.38   18.81
   0   0  -4  185.53   18.88
   0   0  -4  160.84   18.80
   0   0  -4  154.14   18.76
   0   0   4  151.26   18.78
   0   0   4  185.41   18.84
   0   0   4  153.24   18.70
   0   0   4  158.14   18.77
   0   0   4  165.84   18.81
   0   0   4  147.65   18.70
   0   0   4  167.42   18.80
   0   0   4  162.34   18.82
  -1   0  -4   14.40    2.07
  -1   0  -4   15.66    2.07
  -1   0  -4   18.01    2.46
  -1   0  -4   13.29    2.42
  -1   0  -4   15.70    2.05
  -1   0  -4   15.13    2.18
  -1   0  -4   13.88    2.00
  -1   0  -4   17.97    2.45
  -1   0  -4   13.54    1.98
   1   0   4   18.55    2.45
   1   0   4   13.34    1.87
   1   0   4   15.06    2.14
   1   0   4   15.30    2.14
   1   0   4   15.24    2.09
   1   0   4   14.25    2.28
   1   0   4   12.36    1.98
   1   0   4   16.66    2.38
   1   0   4   17.61    2.15
  -2   0  -4   15.06    2.41
  -2   0  -4   19.76    3.12
  -2   0  -4   21.88    3.20
  -2   0  -4   13.54    2.16
   2   0   4   15.76    2.54
   2   0   4   17.02    2.30
   2   0   4   13.44    2.68
   2   0   4   16.32    2.24
   2   0   4   12.36    2.20
   2   0   4   14.91    2.45
   2   0   4   15.62    2.39
   2   0   4   16.87    2.23
  -3   0  -4    2.36    2.26
  -3   0  -4    0.18    1.49
  -3   0  -4    0.90    1.79
  -3   0  -4    0.51    0.69
   3   0   4    0.70    1.10
   3   0   4   -0.24    0.73
   3   0   4    0.19    1.59
   3   0   4   -0.28    0.70
  -4   0  -4    0.67    2.08
  -4   0  -4   -1.76    2.89
  -4   0  -4    0.54    2.43
   4   0   4    1.81    2.37
  -5   0  -4    4.18    3.88
   5   0   4    4.98    3.40
   5   0   4    0.26    2.85
   5  -1  -4    2.06    3.03
   5  -1  -4    5.79    3.36
  -5   1   4    1.23    3.64
   4  -1  -4    0.83    2.24
   4  -1  -4   -0.11    1.86
  -4   1   4   -0.44    2.14
  -4   1   4    0.31    2.20
   3  -1  -4    5.24    1.15
   3  -1  -4    4.82    1.14
   3  -1  -4    7.41    2.10
   3  -1  -4    8.36    1.80
  -3   1   4    2.32    1.99
  -3   1   4    5.15    2.18
  -3   1   4    8.39    2.30
   2  -1  -4    1.53    0.56
   2  -1  -4    1.41    0.66
   2  -1  -4    1.48    0.67
   2  -1  -4    1.39    1.03
   2  -1  -4    0.37    1.00
   2  -1  -4    0.43    0.57
   2  -1  -4    0.94    0.77
  -2   1   4   -0.88    1.08
  -2   1   4    2.07    1.14
  -2   1   4    1.63    1.17
  -2   1   4    0.71    0.76
  -2   1   4    1.85    1.20
   1  -1  -4  233.08   29.51
   1  -1  -4  257.93   29.41
   1  -1  -4  252.35   29.39
   1  -1  -4  243.12   29.47
   1  -1  -4  223.28   29.30
   1  -1  -4  244.43   29.42
   1  -1  -4  263.26   29.57
   1  -1  -4  251.03   29.49
   1  -1  -4  254.74   29.39
  -1   1   4  281.85   29.43
  -1   1   4  235.28   29.53
  -1   1   4  263.88   29.36
  -1   1   4  253.34   29.50
  -1   1   4  256.24   29.33
  -1   1   4  247.54   29.35
  -1   1   4  284.94   29.54
  -1   1   4  263.52   29.49
  -1   1   4  254.83   29.38
   0  -1  -4   49.26    6.20
   0  -1  -4   47.07    6.19
   0  -1  -4   53.57    6.22
   0  -1  -4   53.54    6.27
   0  -1  -4   52.50    6.12
   0  -1  -4   59.15    6.27
   0  -1  -4   50.70    6.26
   0   1   4   47.50    6.15
   0   1   4   58.21    6.26
   0   1   4   54.79    6.25
   0   1   4   48.54    6.22
   0   1   4   50.27    6.21
   0   1   4   46.54    6.08
   0   1   4   50.56    6.21
   0   1   4   54.89    6.21
   0   1   4   57.68    6.21
  -1  -1  -4    3.81    1.26
  -1  -1  -4    4.99    1.38
  -1  -1  -4    6.98    0.85
  -1  -1  -4    3.93    0.89
  -1  -1  -4    3.70    0.90
  -1  -1  -4    4.02    1.49
  -1  -1  -4    3.13    1.19
  -1  -1  -4    3.37    0.98
  -1  -1  -4    4.51    1.02
   1   1   4    4.20    1.05
   1   1   4    6.39    1.06
   1   1   4    5.10    0.98
   1   1   4    4.15    0.97
   1   1   4    3.53    1.09
   1   1   4    4.37    1.05
   1   1   4    6.25    1.09
  -2  -1  -4   48.83    6.01
  -2  -1  -4   43.85    5.41
  -2  -1  -4   41.61    5.37
  -2  -1  -4   40.94    5.16
  -2  -1  -4   52.26    6.18
   2   1   4   43.75    5.40
   2   1   4   38.93    5.53
   2   1   4   41.87    5.32
   2   1   4   42.38    5.61
   2   1   4   47.45    5.39
   2   1   4   42.55    5.41
   2   1   4   46.92    5.42
  -3  -1  -4   -0.68    2.02
  -3  -1  -4    4.33    2.30
  -3  -1  -4    2.95    1.67
   3   1   4    2.93    1.09
   3   1   4    3.45    1.06
   3   1   4    7.16    2.19
   3   1   4    3.75    1.33
  -4  -1  -4    1.13    2.86
  -4  -1  -4    5.87    3.48
   4   1   4    0.73    2.57
   4   1   4   -0.41    0.76
  -5  -1  -4    6.59    4.60
  -5  -1  -4    1.70    3.43
   5   1   4   -2.54    3.11
   5  -2  -4    1.82    3.31
  -5   2   4   13.30    4.23
   4  -2  -4   -0.34    2.32
   4  -2  -4   -2.26    1.81
  -4   2   4    1.08    2.21
  -4   2   4    2.79    2.47
   3  -2  -4    4.46    0.99
   3  -2  -4    3.18    0.97
   3  -2  -4    2.80    1.75
   3  -2  -4    3.08    1.38
   3  -2  -4    3.17    1.09
   3  -2  -4    3.98    1.67
  -3   2   4    4.47    2.01
  -3   2   4    3.74    1.95
  -3   2   4    3.49    1.92
   2  -2  -4    0.15    0.70
   2  -2  -4   -0.35    0.73
   2  -2  -4   -0.03    0.91
   2  -2  -4   -0.94    0.54
   2  -2  -4    0.64    0.98
   2  -2  -4    0.56    1.31
   2  -2  -4    0.80    1.39
   2  -2  -4   -0.27    1.37
   2  -2  -4    0.01    0.72
  -2   2   4   -0.59    1.08
  -2   2   4    0.33    0.96
  -2   2   4   -0.67    0.44
  -2   2   4    0.54    1.28
   1  -2  -4   51.40    7.52
   1  -2  -4   67.35    7.52
   1  -2  -4   63.98    7.49
   1  -2  -4   61.72    7.62
   1  -2  -4   63.15    7.54
   1  -2  -4   66.63    7.47
   1  -2  -4   59.42    7.49
   1  -2  -4   58.39    7.43
  -1   2   4   64.02    7.44
  -1   2   4   65.45    7.61
  -1   2   4   63.54    7.52
  -1   2   4   67.95    7.56
  -1   2   4   58.72    7.56
  -1   2   4   57.83    7.40
  -1   2   4   63.21    7.42
  -1   2   4   62.40    7.41
   0  -2  -4    2.32    0.71
   0  -2  -4    1.50    0.58
   0  -2  -4    1.51    0.78
   0  -2  -4    0.58    0.70
   0  -2  -4    0.45    0.58
   0  -2  -4    2.29    0.78
   0  -2  -4    1.15    0.83
   0  -2  -4    0.33    0.73
   0  -2  -4    0.78    0.84
   0   2   4    2.76    0.85
   0   2   4    0.95    0.73
   0   2   4    2.79    0.71
   0   2   4    2.73    0.83
   0   2   4    3.18    0.82
   0   2   4    2.85    0.77
   0   2   4    3.75    0.90
  -1  -2  -4  148.19   18.08
  -1  -2  -4  154.59   18.06
  -1  -2  -4  123.16   18.00
  -1  -2  -4  169.91   18.25
  -1  -2  -4  150.93   18.23
   1   2   4  184.80   18.10
   1   2   4  148.42   18.07
   1   2   4  157.05   17.88
   1   2   4  144.59   17.99
   1   2   4  158.17   18.03
  -2  -2  -4   45.60    5.84
  -2  -2  -4   42.88    5.74
  -2  -2  -4   54.08    6.83
  -2  -2  -4   53.50    6.42
  -2  -2  -4   44.36    5.64
   2   2   4   47.41    5.57
   2   2   4   49.44    5.70
   2   2   4   47.44    5.77
   2   2   4   40.58    5.70
   2   2   4   46.27    6.02
   2   2   4   46.71    5.83
  -3  -2  -4    1.42    2.25
  -3  -2  -4    0.43    2.50
   3   2   4   -1.37    1.72
   3   2   4   -0.52    1.29
   3   2   4    0.65    1.01
  -4  -2  -4    2.38    2.99
  -4  -2  -4   10.89    3.99
   4   2   4    1.03    2.79
   5   2   4    0.26    3.50
   5  -3  -4    0.12    3.24
  -5   3   4   -1.43    3.13
   4  -3  -4    2.53    2.60
   4  -3  -4   -0.15    2.23
  -4   3   4    4.21    2.54
  -4   3   4    0.12    2.24
  -4   3   4    0.45    2.32
   3  -3  -4   28.30    3.41
   3  -3  -4   23.56    3.89
   3  -3  -4   21.51    4.01
   3  -3  -4   23.24    3.41
   3  -3  -4   22.43    3.40
  -3   3   4   24.99    4.13
  -3   3   4   28.06    4.55
  -3   3   4   24.49    3.95
   2  -3  -4    6.91    1.58
   2  -3  -4    8.70    1.99
   2  -3  -4    7.02    1.66
   2  -3  -4    7.70    1.86
   2  -3  -4   11.40    2.09
   2  -3  -4   10.00    1.96
   2  -3  -4    8.98    1.66
   2  -3  -4    8.68    1.56
  -2   3   4    4.88    1.65
  -2   3   4    9.57    1.51
  -2   3   4    6.38    1.28
  -2   3   4    8.92    1.57
  -2   3   4    8.91    2.14
  -2   3   4    8.16    1.23
   1  -3  -4    7.67    1.56
   1  -3  -4    8.48    1.73
   1  -3  -4    8.53    1.96
   1  -3  -4   10.68    1.65
   1  -3  -4    8.18    1.70
   1  -3  -4    8.09    1.87
  -1   3   4    9.29    1.62
  -1   3   4   10.82    1.67
  -1   3   4    7.66    1.57
  -1   3   4   11.61    1.80
  -1   3   4   12.85    1.42
  -1   3   4    8.16    1.96
  -1   3   4    6.59    1.66
  -1   3   4    8.15    1.81
   0  -3  -4   37.14    4.73
   0  -3  -4   41.16    4.90
   0  -3  -4   31.29    4.77
   0  -3  -4   33.44    4.66
   0  -3  -4   41.34    4.71
   0  -3  -4   33.89    4.92
   0  -3  -4   38.69    4.55
   0   3   4   41.13    4.71
   0   3   4   49.78    6.03
   0   3   4   31.52    4.53
   0   3   4   38.13    4.71
   0   3   4   44.53    4.76
   0   3   4   35.98    4.49
  -1  -3  -4   25.44    3.79
  -1  -3  -4   30.97    3.96
  -1  -3  -4   31.54    4.31
  -1  -3  -4   31.62    4.16
  -1  -3  -4   21.45    3.53
   1   3   4   30.46    3.68
   1   3   4   28.17    3.87
   1   3   4   24.32    3.69
   1   3   4   27.64    3.27
   1   3   4   23.76    3.52
  -2  -3  -4    2.75    1.34
  -2  -3  -4   -0.61    1.75
  -2  -3  -4    1.16    1.05
  -2  -3  -4    3.07    1.29
  -2  -3  -4    0.37    1.76
   2   3   4    0.97    1.12
   2   3   4    1.05    1.33
   2   3   4    0.88    0.88
   2   3   4    1.15    0.51
   2   3   4    1.13    0.61
   2   3   4    0.82    0.93
  -3  -3  -4    8.17    3.29
  -3  -3  -4    5.24    2.79
   3   3   4    2.57    1.29
   3   3   4    6.19    1.90
   3   3   4    1.41    2.03
   3   3   4    3.88    1.34
  -4  -3  -4    4.63    3.60
  -4  -3  -4    5.69    3.66
   4   3   4    0.94    1.12
   4   3   4    2.36    2.88
   5  -4  -4    8.08    4.09
  -5   4   4    7.13    3.50
   4  -4  -4    4.25    2.65
   4  -4  -4    2.74    1.25
   4  -4  -4    7.24    2.83
  -4   4   4    0.07    2.39
  -4   4   4    4.77    2.83
   3  -4  -4    1.30    1.36
   3  -4  -4    1.02    1.82
   3  -4  -4    1.39    1.23
   3  -4  -4    0.46    1.80
  -3   4   4    1.16    1.84
  -3   4   4    0.61    1.44
  -3   4   4    1.58    1.82
   2  -4  -4    0.08    1.01
   2  -4  -4    0.20    1.05
   2  -4  -4    0.97    1.43
   2  -4  -4    1.81    1.18
   2  -4  -4    0.78    1.23
   2  -4  -4    0.50    1.61
  -2   4   4    0.24    0.70
  -2   4   4   -0.58    1.29
  -2   4   4    1.02    0.95
  -2   4   4   -1.01    1.00
  -2   4   4   -0.12    1.21
  -2   4   4   -0.20    0.88
   1  -4  -4  157.94   17.84
   1  -4  -4  145.04   18.00
   1  -4  -4  142.67   18.31
   1  -4  -4  129.26   18.04
   1  -4  -4  169.13   18.12
   1  -4  -4  131.62   18.02
  -1   4   4  147.14   17.91
  -1   4   4  165.88   17.94
  -1   4   4  156.45   17.95
  -1   4   4  162.42   17.97
  -1   4   4  162.60   18.13
   0  -4  -4   23.44    2.94
   0  -4  -4   23.03    3.38
   0  -4  -4   21.09    3.09
   0  -4  -4   22.69    3.70
   0  -4  -4   17.99    3.22
   0  -4  -4   16.17    3.23
   0   4   4   21.65    2.72
   0   4   4   19.48    2.71
   0   4   4   23.36    3.16
   0   4   4   21.38    3.13
   0   4   4   23.08    3.16
  -1  -4  -4   -0.38    1.16
  -1  -4  -4    1.38    0.92
  -1  -4  -4    0.94    1.44
  -1  -4  -4    0.01    1.20
   1   4   4    1.82    0.96
   1   4   4    0.84    1.20
   1   4   4    1.55    1.00
  -2  -4  -4   33.76    4.84
  -2  -4  -4   31.94    4.83
  -2  -4  -4   20.93    3.53
  -2  -4  -4   22.57    3.68
   2   4   4   21.29    3.79
   2   4   4   21.69    3.71
   2   4   4   20.13    3.35
   2   4   4   30.13    3.80
  -3  -4  -4    0.29    2.74
  -3  -4  -4    2.75    2.89
   3   4   4    1.76    2.23
   3   4   4   -0.92    1.13
   3   4   4    0.34    1.79
  -4  -4  -4    2.29    3.86
  -4  -4  -4   -1.26    3.26
   4   4   4   -0.75    2.80
   4   4   4   -0.22    1.20
   4  -5  -4   -3.18    2.41
   4  -5  -4   -0.83    1.36
   4  -5  -4   -1.44    2.65
  -4   5   4    1.50    2.72
  -4   5   4    0.70    2.34
   3  -5  -4    4.82    2.22
   3  -5  -4    0.23    1.89
   3  -5  -4    0.72    1.44
   3  -5  -4   -0.17    1.61
  -3   5   4    4.85    2.13
  -3   5   4    5.91    2.40
   2  -5  -4    1.57    1.57
   2  -5  -4    2.70    1.82
   2  -5  -4    2.71    1.96
   2  -5  -4    1.68    1.45
   2  -5  -4    3.21    1.57
   2  -5  -4    3.43    1.27
  -2   5   4    3.49    1.32
  -2   5   4    3.27    1.83
  -2   5   4    2.79    1.57
  -2   5   4    3.96    1.30
  -2   5   4    6.39    1.72
   1  -5  -4    1.62    1.15
   1  -5  -4    2.66    1.71
   1  -5  -4    2.93    1.33
   1  -5  -4    2.67    1.92
   1  -5  -4    2.05    1.44
  -1   5   4    0.21    1.34
  -1   5   4    3.31    1.15
  -1   5   4    3.11    1.35
  -1   5   4    0.70    1.15
  -1   5   4    2.62    1.11
   0  -5  -4    0.45    1.31
   0  -5  -4    0.61    1.81
   0  -5  -4    0.31    1.57
   0  -5  -4    2.82    1.78
   0  -5  -4    0.67    1.22
   0   5   4    1.26    0.64
   0   5   4    0.00    1.16
   0   5   4    1.47    1.05
   0   5   4    0.19    0.62
   0   5   4    2.06    1.08
  -1  -5  -4   72.09    8.81
  -1  -5  -4   62.56    8.18
  -1  -5  -4   69.88    8.92
  -1  -5  -4   63.11    8.73
   1   5   4   65.05    8.52
   1   5   4   72.58    8.56
   1   5   4   76.03    8.52
  -2  -5  -4   15.66    2.78
  -2  -5  -4    9.70    2.70
  -2  -5  -4    9.31    3.41
  -2  -5  -4   17.64    4.04
   2   5   4   12.10    2.36
   2   5   4    9.68    2.51
   2   5   4   12.33    2.90
  -3  -5  -4   -0.99    3.00
  -3  -5  -4    2.52    3.36
   3   5   4   -0.88    2.07
   3   5   4    1.70    2.42
   3   5   4    0.32    1.44
  -4  -5  -4    5.70    4.39
  -4  -5  -4    0.06    4.36
   4   5   4    2.76    1.55
   4   5   4    2.17    3.19
   4  -6  -4   -1.66    1.65
   4  -6  -4   -0.50    2.79
   4  -6  -4   -2.10    2.87
  -4   6   4    0.02    2.74
  -4   6   4   -0.62    2.36
   3  -6  -4   -4.20    1.82
   3  -6  -4   -0.38    2.00
   3  -6  -4    3.25    1.86
   3  -6  -4    2.36    2.33
  -3   6   4    5.35    2.53
  -3   6   4    2.85    2.04
   2  -6  -4   -0.92    1.41
   2  -6  -4   -0.01    2.03
   2  -6  -4   -1.47    1.79
   2  -6  -4    1.64    1.82
  -2   6   4    1.34    1.45
  -2   6   4    1.89    1.87
  -2   6   4   -0.55    1.33
  -2   6   4    0.15    1.23
   1  -6  -4    8.27    3.11
   1  -6  -4   12.42    2.24
   1  -6  -4    7.95    2.56
   1  -6  -4    8.62    2.28
   1  -6  -4    6.24    2.29
  -1   6   4   10.75    2.60
  -1   6   4   13.71    2.20
  -1   6   4   10.16    2.24
  -1   6   4   11.14    2.09
  -1   6   4   10.25    2.22
   0  -6  -4    4.18    1.80
   0  -6  -4    4.13    1.98
   0  -6  -4    3.29    2.14
   0  -6  -4    5.74    2.44
   0  -6  -4    6.57    2.59
   0   6   4    7.55    1.86
   0   6   4    5.53    1.18
   0   6   4    6.52    1.66
   0   6   4    7.52    1.35
   0   6   4    2.55    1.47
  -1  -6  -4    0.72    1.22
  -1  -6  -4    4.06    2.50
  -1  -6  -4   -0.41    1.82
  -1  -6  -4    2.43    2.14
   1   6   4    3.38    1.83
   1   6   4    0.37    1.31
   1   6   4    4.04    1.50
  -2  -6  -4   -0.10    2.48
  -2  -6  -4   -0.58    1.92
  -2  -6  -4   -1.44    2.99
  -2  -6  -4   -2.55    1.84
   2   6   4   -0.58    1.19
   2   6   4    0.41    1.85
   2   6   4   -2.81    1.45
  -3  -6  -4    4.63    3.86
  -3  -6  -4    6.01    3.98
   3   6   4    7.26    2.03
   3   6   4    5.02    2.85
   3   6   4    1.79    2.77
  -4  -6  -4   -0.90    5.01
  -4  -6  -4   -2.00    4.43
   4   6   4    3.07    1.88
   4   6   4   -0.65    3.04
   4  -7  -4   -0.39    3.02
   4  -7  -4    8.25    3.81
   4  -7  -4    3.27    2.27
  -4   7   4   -3.05    2.42
  -4   7   4    2.64    3.15
   3  -7  -4   -0.63    1.89
   3  -7  -4    2.69    2.87
   3  -7  -4   -0.15    2.26
   3  -7  -4    2.65    2.91
  -3   7   4   -0.85    1.93
  -3   7   4    2.62    2.57
   2  -7  -4   -0.51    1.72
   2  -7  -4    0.55    2.69
   2  -7  -4   -0.29    2.30
   2  -7  -4    0.83    2.21
  -2   7   4    2.86    2.36
  -2   7   4    1.16    1.50
  -2   7   4   -1.35    1.58
  -2   7   4    3.59    1.61
   1  -7  -4   45.22    7.60
   1  -7  -4   54.19    8.06
   1  -7  -4   42.40    7.56
   1  -7  -4   60.63    8.80
  -1   7   4   65.22    7.87
  -1   7   4   68.16    7.57
  -1   7   4   61.56    7.21
  -1   7   4   61.88    7.33
  -1   7   4   50.49    7.31
   0  -7  -4    4.25    2.13
   0  -7  -4    0.60    2.39
   0  -7  -4    2.55    2.15
   0  -7  -4    1.74    2.96
   0  -7  -4    2.96    2.69
   0   7   4    5.44    1.29
   0   7   4    3.90    1.78
   0   7   4    4.66    1.88
   0   7   4    2.47    1.62
  -1  -7  -4   -1.85    1.85
  -1  -7  -4   -0.11    2.35
  -1  -7  -4    9.81    3.59
   1   7   4    4.37    1.89
   1   7   4    4.34    2.05
   1   7   4    3.31    1.84
  -2  -7  -4   -1.41    2.26
  -2  -7  -4    5.14    3.58
  -2  -7  -4   -2.37    2.33
  -2  -7  -4    3.07    3.86
   2   7   4   -0.17    1.91
   2   7   4    0.58    2.16
   2   7   4   -0.71    1.42
  -3  -7  -4   -0.15    4.13
  -3  -7  -4    2.25    4.24
   3   7   4   -1.55    1.56
   3   7   4    0.39    2.61
   3   7   4    0.27    2.61
   4  -8  -4   -6.05    3.55
   4  -8  -4   -1.16    2.33
   4  -8  -4    4.82    3.95
  -4   8   4    4.82    3.51
  -4   8   4    0.78    2.89
   3  -8  -4    0.35    3.05
   3  -8  -4    3.63    3.00
   3  -8  -4    2.43    2.42
   3  -8  -4    2.90    3.23
  -3   8   4    9.18    3.19
  -3   8   4    4.78    2.30
   2  -8  -4    0.48    2.04
   2  -8  -4   -1.72    2.27
   2  -8  -4    2.60    2.64
   2  -8  -4    3.22    3.31
  -2   8   4    2.85    1.98
  -2   8   4    0.71    2.12
  -2   8   4   -1.84    1.44
  -2   8   4    3.51    2.58
   1  -8  -4    0.82    1.84
   1  -8  -4   -1.02    2.94
   1  -8  -4   -0.45    2.27
   1  -8  -4   -0.84    2.03
  -1   8   4    2.97    2.55
  -1   8   4    0.25    1.89
  -1   8   4    1.11    1.27
  -1   8   4   -0.55    1.30
  -1   8   4   -1.65    1.65
   0  -8  -4    0.09    2.54
   0  -8  -4    1.30    1.97
   0  -8  -4   -2.80    3.04
   0  -8  -4    2.31    2.14
   0  -8  -4    3.83    3.16
   0   8   4   -0.56    1.20
   0   8   4    1.46    1.73
   0   8   4    2.55    1.99
   0   8   4   -1.39    0.96
  -1  -8  -4   16.64    4.07
  -1  -8  -4   27.83    5.55
  -1  -8  -4   16.46    4.44
   1   8   4   19.68    3.67
   1   8   4   20.60    3.93
   1   8   4   25.09    3.99
  -2  -8  -4   -3.60    2.82
  -2  -8  -4   -5.34    4.29
  -2  -8  -4   -0.88    3.76
   2   8   4    1.90    2.43
   2   8   4    1.98    2.39
   2   8   4   -1.77    1.51
  -3  -8  -4   -2.85    5.27
  -3  -8  -4   -2.38    4.55
   3   8   4   -0.74    1.90
   3   8   4   -1.97    2.92
   3   8   4    2.14    3.06
   3  -9  -4   -0.17    2.53
   3  -9  -4    2.20    3.56
   3  -9  -4   -0.04    3.58
   3  -9  -4    5.34    3.31
  -3   9   4    0.20    2.88
  -3   9   4   -0.20    2.17
   2  -9  -4   -1.71    2.10
   2  -9  -4    0.98    2.94
   2  -9  -4    0.66    3.29
   2  -9  -4   -5.38    2.48
  -2   9   4    0.27    2.56
  -2   9   4    2.67    2.04
  -2   9   4   -0.55    2.73
   1  -9  -4    5.29    3.54
   1  -9  -4    5.85    2.57
   1  -9  -4    3.72    2.77
   1  -9  -4    5.46    3.28
  -1   9   4    7.17    2.24
  -1   9   4    4.71    3.10
  -1   9   4    5.06    2.78
  -1   9   4    5.58    1.95
   0  -9  -4    2.48    2.44
   0  -9  -4    6.50    3.94
   0  -9  -4    8.99    4.09
   0  -9  -4    1.04    3.08
   0   9   4    5.60    2.19
   0   9   4    4.31    2.43
   0   9   4    0.71    1.70
  -1  -9  -4   -1.65    3.65
  -1  -9  -4   -0.03    2.39
  -1  -9  -4   -5.38    2.97
   1   9   4   -0.47    2.03
   1   9   4   -0.96    2.02
   1   9   4    1.48    1.86
  -2  -9  -4    3.90    3.78
  -2  -9  -4    0.65    4.76
  -2  -9  -4    0.25    5.62
   2   9   4    1.23    1.81
   2   9   4   -2.01    2.27
   2   9   4    1.10    2.65
   3 -10  -4    3.27    3.60
   3 -10  -4   -2.51    3.29
   3 -10  -4   -1.55    2.71
   3 -10  -4    1.06    4.23
  -3  10   4    0.33    2.27
  -3  10   4    1.15    3.25
   2 -10  -4    1.14    3.08
   2 -10  -4   -1.71    3.39
   2 -10  -4    2.29    4.36
   2 -10  -4    0.04    2.45
  -2  10   4    3.76    3.28
  -2  10   4    0.65    2.09
  -2  10   4    4.05    2.97
   1 -10  -4    0.92    3.37
   1 -10  -4    2.27    2.79
   1 -10  -4   -0.52    2.12
   1 -10  -4    2.24    4.05
  -1  10   4    2.47    2.09
  -1  10   4    2.28    1.95
  -1  10   4    1.86    3.18
  -1  10   4   -1.12    2.83
   0 -10  -4    3.72    4.25
   0 -10  -4    0.18    4.29
   0 -10  -4    0.16    3.70
   0 -10  -4   -0.42    2.42
   0  10   4    3.30    2.82
   0  10   4   -0.26    1.61
  -1 -10  -4    8.90    4.98
  -1 -10  -4   -2.39    3.72
  -1 -10  -4    2.02    2.87
   1  10   4    0.86    2.53
   1  10   4    0.05    2.38
   1  10   4   -1.35    1.66
  -2 -10  -4  -12.93    5.66
  -2 -10  -4   -4.37    5.18
  -2 -10  -4    1.60    4.54
   2  10   4   -5.28    2.54
   2  10   4    1.36    2.91
   2  10   4   -2.11    1.84
   2 -11  -4   -0.67    3.52
   2 -11  -4   -3.08    2.20
   2 -11  -4   -2.57    3.57
   2 -11  -4    9.97    5.20
  -2  11   4    0.25    3.42
  -2  11   4    0.20    3.76
  -2  11   4    1.23    2.38
   1 -11  -4   -0.86    3.88
   1 -11  -4   -2.44    4.54
   1 -11  -4    0.27    2.92
   1 -11  -4   -0.46    4.23
  -1  11   4   -0.36    3.15
  -1  11   4   -0.11    1.86
  -1  11   4    4.17    3.55
   0 -11  -4    1.79    4.90
   0 -11  -4   -1.05    2.72
   0 -11  -4   -1.25    4.11
   0 -11  -4    4.89    5.42
   0  11   4    3.16    1.96
   0  11   4   -6.67    2.68
  -1 -11  -4    2.99    3.38
  -1 -11  -4    0.42    4.65
  -1 -11  -4   -0.13    5.40
   1  11   4    3.27    2.23
   1  11   4    1.29    3.19
   1  12  -5    5.31    2.31
   1  12  -5    3.64    2.61
  -1 -12   5    9.64    4.30
  -1 -12   5    7.73    5.45
  -1 -12   5    4.77    3.51
  -1 -12   5   13.64    6.65
   0  12  -5   -0.54    2.13
   0  12  -5    2.32    1.91
   0 -12   5   -0.38    3.89
   0 -12   5    2.07    3.55
   0 -12   5   -1.46    2.45
  -1  12  -5    2.26    1.94
  -1  12  -5   -1.11    2.29
  -1  12  -5    0.38    3.19
   1 -12   5    2.92    2.73
   1 -12   5    7.18    4.45
   1 -12   5   10.83    3.91
  -2  12  -5    5.51    3.60
  -2  12  -5    1.11    2.75
  -2  12  -5   -1.26    3.42
   2 -12   5    1.78    3.43
   2 -12   5   -1.26    4.10
   2 -12   5   -0.97    2.30
   2  11  -5    0.00    2.39
   2  11  -5    2.92    2.12
   2  11  -5    1.16    2.55
  -2 -11   5   -3.48    3.84
  -2 -11   5   -1.19    4.82
  -2 -11   5   -2.36    4.97
   1  11  -5    3.31    2.26
   1  11  -5   -2.30    1.83
   1  11  -5    0.58    2.01
   1  11  -5   -1.07    2.11
  -1 -11   5    5.47    4.64
  -1 -11   5    1.30    2.47
  -1 -11   5    0.53    3.39
  -1 -11   5   -8.27    4.62
   0  11  -5   -1.42    1.81
   0  11  -5    1.79    2.26
   0  11  -5    2.04    1.70
   0 -11   5    3.07    3.12
   0 -11   5   -0.57    2.30
   0 -11   5   -5.05    3.24
  -1  11  -5    2.53    2.04
  -1  11  -5   11.88    3.18
   1 -11   5    2.58    2.38
   1 -11   5    8.11    3.89
   1 -11   5    2.65    3.09
  -2  11  -5   -1.19    2.96
  -2  11  -5   -1.32    2.47
  -2  11  -5   -8.14    2.93
   2 -11   5   -4.69    2.66
   2 -11   5    5.81    3.56
   2 -11   5    0.91    2.27
  -3  11  -5   -0.96    3.34
  -3  11  -5    6.76    4.15
   3 -11   5    2.13    2.85
   3 -11   5    2.84    3.35
   3 -11   5   -0.95    3.67
   3  10  -5   -1.10    1.87
   3  10  -5   -2.29    2.60
   3  10  -5   -1.43    2.90
  -3 -10   5   -7.50    5.15
  -3 -10   5   -4.34    5.72
   2  10  -5    0.51    2.23
   2  10  -5    0.19    1.66
   2  10  -5   -3.25    1.98
  -2 -10   5   -0.44    4.46
  -2 -10   5   -5.32    3.81
  -2 -10   5   -5.89    3.23
   1  10  -5    4.85    1.95
   1  10  -5    6.46    2.21
   1  10  -5    1.96    2.06
  -1 -10   5   -0.11    4.09
  -1 -10   5    4.30    3.30
  -1 -10   5    5.67    3.52
  -1 -10   5    5.47    4.28
  -1 -10   5    1.20    2.93
   0  10  -5    0.59    1.71
   0  10  -5   -0.07    1.97
   0  10  -5    0.10    1.70
   0 -10   5    2.20    3.30
   0 -10   5   -4.34    2.56
   0 -10   5    4.34    2.75
   0 -10   5    1.28    2.70
  -1  10  -5   -3.00    2.00
  -1  10  -5    0.29    1.73
  -1  10  -5   -0.42    1.74
   1 -10   5   -1.84    2.47
   1 -10   5   -1.00    1.70
   1 -10   5    1.73    3.24
  -2  10  -5    3.33    2.76
  -2  10  -5    1.27    2.58
  -2  10  -5   -1.29    1.87
  -2  10  -5   -2.68    2.85
   2 -10   5    3.53    2.82
   2 -10   5   -1.51    2.77
   2 -10   5   -0.05    2.19
  -3  10  -5   -1.69    3.00
  -3  10  -5    2.43    3.63
   3 -10   5    5.22    3.30
   3 -10   5    2.44    3.41
   3 -10   5    4.48    2.93
   3   9  -5   -0.36    2.00
   3   9  -5    1.19    2.80
   3   9  -5   -0.91    2.56
  -3  -9   5    5.74    4.65
  -3  -9   5    7.20    5.49
   2   9  -5    6.07    2.52
   2   9  -5    7.76    2.67
   2   9  -5    2.65    2.03
  -2  -9   5    3.74    4.46
  -2  -9   5    4.95    3.68
  -2  -9   5    9.42    4.05
  -2  -9   5    2.55    3.12
   1   9  -5    7.48    2.34
   1   9  -5    4.30    1.95
   1   9  -5    7.97    2.16
  -1  -9   5    9.96    3.49
  -1  -9   5    1.10    2.69
  -1  -9   5    4.82    4.17
  -1  -9   5    1.02    2.46
  -1  -9   5    9.53    4.51
   0   9  -5   -1.99    1.36
   0   9  -5    0.02    1.43
   0   9  -5   -0.12    1.73
   0   9  -5    2.75    1.47
   0  -9   5   -0.03    2.37
   0  -9   5   -2.38    1.96
   0  -9   5    1.29    2.84
   0  -9   5   -0.95    2.18
  -1   9  -5    2.22    1.95
  -1   9  -5    1.44    1.78
  -1   9  -5    4.38    2.55
   1  -9   5    0.07    2.25
   1  -9   5    1.07    2.62
   1  -9   5    7.70    2.34
   1  -9   5   -0.09    2.09
  -2   9  -5   -0.08    2.76
  -2   9  -5    0.80    2.50
  -2   9  -5    1.01    2.27
  -2   9  -5    0.09    1.90
   2  -9   5    2.09    2.28
   2  -9   5    1.82    2.46
   2  -9   5    1.09    2.53
  -3   9  -5    4.06    3.12
  -3   9  -5   -0.85    2.50
   3  -9   5   -4.97    1.95
   3  -9   5    1.47    3.19
   3  -9   5   -1.70    2.48
  -4   9  -5    0.83    3.60
  -4   9  -5   -8.38    2.61
   4  -9   5   -4.34    3.00
   4  -9   5    0.85    2.81
   3   8  -5   -1.62    2.04
   3   8  -5   -0.77    2.52
   3   8  -5    1.64    1.86
  -3  -8   5   -4.24    4.10
  -3  -8   5    7.72    4.88
   2   8  -5    5.82    2.20
   2   8  -5    5.02    2.26
   2   8  -5   -0.13    1.62
  -2  -8   5    8.81    3.89
  -2  -8   5    6.27    3.03
  -2  -8   5    2.84    2.75
  -2  -8   5    0.59    3.81
  -2  -8   5    3.96    2.97
   1   8  -5    5.32    2.09
   1   8  -5    4.22    1.85
  -1  -8   5    2.62    2.56
  -1  -8   5   -1.19    3.05
  -1  -8   5   -0.84    2.20
  -1  -8   5    4.35    2.85
   0   8  -5   28.31    3.99
   0   8  -5   20.81    3.76
   0  -8   5   19.76    4.74
   0  -8   5   16.76    3.91
   0  -8   5   21.16    4.11
   0  -8   5   23.71    3.97
  -1   8  -5   24.22    3.98
  -1   8  -5   25.28    3.03
  -1   8  -5   25.11    4.45
  -1   8  -5   22.86    3.81
   1  -8   5   24.63    4.34
   1  -8   5   33.67    4.29
   1  -8   5   19.94    4.10
   1  -8   5    8.85    4.06
  -2   8  -5    1.06    2.41
  -2   8  -5   -1.58    1.58
  -2   8  -5    2.57    2.21
   2  -8   5    0.62    2.14
   2  -8   5   -0.64    2.08
   2  -8   5    1.57    2.53
  -3   8  -5    3.94    2.62
  -3   8  -5    4.04    2.90
   3  -8   5    2.36    2.51
   3  -8   5    0.24    2.87
   3  -8   5    4.96    2.59
  -4   8  -5    1.40    3.06
  -4   8  -5    5.47    3.24
   4  -8   5   -2.87    2.27
   4  -8   5    1.42    3.61
   4   7  -5   -3.57    2.87
   4   7  -5    2.41    1.92
  -4  -7   5   -0.17    4.64
  -4  -7   5   -2.21    4.77
   3   7  -5    1.61    2.44
   3   7  -5   -0.05    1.61
   3   7  -5    2.88    2.15
  -3  -7   5   -5.17    3.42
  -3  -7   5    1.29    3.58
  -3  -7   5   -3.33    2.93
   2   7  -5    5.86    2.00
   2   7  -5    7.62    2.19
  -2  -7   5    4.89    2.78
  -2  -7   5    1.37    2.30
  -2  -7   5    1.88    2.32
  -2  -7   5    9.74    3.96
  -2  -7   5    6.55    2.91
   1   7  -5    9.08    2.25
   1   7  -5    6.43    1.95
  -1  -7   5    5.91    2.74
  -1  -7   5    5.52    3.49
  -1  -7   5    4.73    2.46
  -1  -7   5    4.94    2.31
   0   7  -5   11.50    2.59
   0   7  -5   15.17    2.76
   0  -7   5   14.38    2.90
   0  -7   5   10.32    3.26
   0  -7   5   11.58    2.74
   0  -7   5   10.23    2.94
  -1   7  -5   11.14    1.93
  -1   7  -5   14.92    2.67
  -1   7  -5   17.49    2.83
  -1   7  -5   13.31    2.90
   1  -7   5   11.49    3.07
   1  -7   5    8.43    2.71
   1  -7   5   12.53    2.76
  -2   7  -5    0.62    1.81
  -2   7  -5    0.93    2.02
  -2   7  -5   -3.00    1.31
   2  -7   5   -1.53    1.81
   2  -7   5    0.02    1.83
   2  -7   5   -0.87    1.68
  -3   7  -5   10.17    2.77
  -3   7  -5    9.03    3.17
   3  -7   5    6.01    3.10
   3  -7   5    5.78    2.51
   3  -7   5    4.91    2.50
  -4   7  -5    0.76    2.81
  -4   7  -5   -1.58    2.77
   4  -7   5   -0.59    2.11
   4  -7   5    1.29    3.07
   4   6  -5   -1.27    2.84
   4   6  -5    0.72    1.51
  -4  -6   5    2.08    4.78
  -4  -6   5    1.47    3.92
   3   6  -5    0.80    1.49
   3   6  -5    2.56    2.04
  -3  -6   5    5.08    2.98
  -3  -6   5   -3.30    2.86
  -3  -6   5    0.91    2.91
   2   6  -5   51.83    6.65
   2   6  -5   47.76    6.13
   2   6  -5   48.78    6.49
  -2  -6   5   43.62    6.54
  -2  -6   5   57.70    7.97
  -2  -6   5   36.69    7.04
  -2  -6   5   59.20    6.89
  -2  -6   5   44.39    6.84
   1   6  -5    6.55    1.84
   1   6  -5    6.33    1.66
   1   6  -5    6.34    1.78
  -1  -6   5    5.95    2.39
  -1  -6   5   -0.71    2.22
  -1  -6   5    7.47    2.33
  -1  -6   5    2.14    1.94
   0   6  -5   19.90    3.11
   0   6  -5   22.80    3.30
   0  -6   5    9.14    2.83
   0  -6   5   19.26    3.70
   0  -6   5   20.32    3.32
   0  -6   5   18.20    3.42
  -1   6  -5   26.55    3.79
  -1   6  -5   26.58    4.15
  -1   6  -5   24.33    3.69
  -1   6  -5   23.18    3.11
   1  -6   5   25.27    4.05
   1  -6   5   22.49    3.85
   1  -6   5   18.96    3.78
  -2   6  -5    1.05    1.74
  -2   6  -5    2.68    1.48
  -2   6  -5    4.16    2.04
   2  -6   5   -0.88    1.42
   2  -6   5   -3.00    1.87
   2  -6   5    1.22    1.63
   2  -6   5    1.62    1.79
  -3   6  -5   -1.16    1.67
  -3   6  -5    1.16    2.01
   3  -6   5   -2.95    1.67
   3  -6   5    0.28    1.79
   3  -6   5    1.59    2.29
  -4   6  -5    0.13    2.50
  -4   6  -5    1.88    2.62
   4  -6   5   -0.68    1.78
   4  -6   5   -3.44    2.52
   4   5  -5    3.76    3.30
   4   5  -5    4.77    1.68
  -4  -5   5    9.81    4.55
  -4  -5   5    4.32    3.55
   3   5  -5    0.87    1.20
   3   5  -5    1.56    1.80
   3   5  -5   -0.22    1.32
  -3  -5   5    3.75    2.80
  -3  -5   5    2.40    2.52
  -3  -5   5    1.18    2.70
   2   5  -5   13.93    2.76
   2   5  -5   15.76    2.82
   2   5  -5   14.35    2.81
   2   5  -5   14.48    2.52
  -2  -5   5   13.91    3.02
  -2  -5   5   16.20    3.04
  -2  -5   5   14.89    3.13
  -2  -5   5   15.98    2.79
  -2  -5   5   18.72    3.74
  -2  -5   5   16.47    3.69
  -2  -5   5   15.66    2.77
   1   5  -5   23.60    3.52
   1   5  -5   27.14    3.71
   1   5  -5   26.05    3.52
  -1  -5   5   21.44    3.75
  -1  -5   5   16.70    3.49
  -1  -5   5   18.91    3.52
  -1  -5   5   27.90    4.13
  -1  -5   5   25.84    4.23
   0   5  -5   34.80    4.65
   0   5  -5   38.47    4.75
   0  -5   5   45.08    4.98
   0  -5   5   28.36    4.90
   0  -5   5   27.33    4.94
   0  -5   5   32.42    4.87
  -1   5  -5   24.84    3.79
  -1   5  -5   20.17    2.75
  -1   5  -5   30.37    3.63
  -1   5  -5   20.84    3.28
   1  -5   5   16.20    3.20
   1  -5   5   18.28    3.43
   1  -5   5   21.07    3.31
  -2   5  -5   -0.73    1.45
  -2   5  -5   -1.40    0.93
  -2   5  -5   -0.08    0.92
  -2   5  -5   -0.39    1.12
  -2   5  -5   -0.84    1.31
   2  -5   5   -0.62    1.28
   2  -5   5   -0.96    1.23
   2  -5   5   -1.07    1.65
   2  -5   5   -0.24    1.28
   2  -5   5   -0.67    0.81
  -3   5  -5    6.76    2.40
  -3   5  -5    3.72    2.08
   3  -5   5    5.11    1.49
   3  -5   5    2.64    2.24
   3  -5   5    4.20    1.77
   3  -5   5    3.67    1.83
  -4   5  -5    3.95    2.49
  -4   5  -5    5.55    2.72
   4  -5   5   -1.59    2.40
   4  -5   5    2.35    1.67
   4   4  -5   -0.34    1.01
   4   4  -5   -4.49    2.96
  -4  -4   5   -0.61    3.19
  -4  -4   5    0.53    3.01
  -4  -4   5   -2.28    2.82
   3   4  -5   -0.47    1.28
   3   4  -5   -1.54    1.12
   3   4  -5   -0.87    1.39
  -3  -4   5   -1.27    1.95
  -3  -4   5   -0.32    2.08
  -3  -4   5   -1.55    2.14
   2   4  -5   65.01    7.78
   2   4  -5   67.99    7.84
   2   4  -5   59.85    7.64
   2   4  -5   62.83    7.83
  -2  -4   5   58.66    7.55
  -2  -4   5   52.28    7.85
  -2  -4   5   72.43    7.92
  -2  -4   5   45.21    8.32
  -2  -4   5   62.37    7.62
  -2  -4   5   73.09    8.29
   1   4  -5    1.60    1.04
   1   4  -5    1.68    0.95
   1   4  -5    1.69    0.93
   1   4  -5    1.34    0.85
   1   4  -5   -0.13    0.89
  -1  -4   5   -0.46    1.09
  -1  -4   5    1.32    0.97
  -1  -4   5    2.54    1.14
  -1  -4   5    2.58    1.60
  -1  -4   5   -1.17    1.08
  -1  -4   5   -0.12    1.08
  -1  -4   5    1.93    1.62
   0   4  -5   67.94    7.58
   0   4  -5   57.43    7.36
   0   4  -5   62.12    7.34
   0   4  -5   64.24    7.47
   0   4  -5   66.43    7.37
   0  -4   5   63.50    7.96
   0  -4   5   58.34    7.43
   0  -4   5   42.88    7.37
   0  -4   5   56.16    7.37
  -1   4  -5    7.77    1.51
  -1   4  -5    6.24    1.26
  -1   4  -5    4.23    0.96
  -1   4  -5    5.11    1.45
  -1   4  -5    5.78    1.79
   1  -4   5    3.84    1.32
   1  -4   5    2.59    0.98
   1  -4   5    2.76    1.23
   1  -4   5    4.23    1.39
   1  -4   5    3.68    1.32
  -2   4  -5   14.34    2.74
  -2   4  -5   15.21    2.39
  -2   4  -5   10.13    1.96
  -2   4  -5   16.81    2.08
  -2   4  -5   14.96    2.36
  -2   4  -5   10.53    1.87
   2  -4   5   18.55    2.94
   2  -4   5   10.04    2.21
   2  -4   5   15.54    2.10
   2  -4   5   12.74    2.25
   2  -4   5   14.33    2.37
  -3   4  -5   59.55    6.73
  -3   4  -5   39.97    6.86
   3  -4   5   64.42    6.57
   3  -4   5   51.39    7.21
   3  -4   5   44.57    6.28
   3  -4   5   40.43    6.52
  -4   4  -5    2.03    2.27
  -4   4  -5    2.60    2.27
   4  -4   5    1.49    2.73
   4  -4   5    0.97    1.97
   4  -4   5    0.40    1.39
  -5   4  -5   -2.45    2.93
   5  -4   5    0.04    3.44
   5   3  -5   -1.23    3.71
  -5  -3   5    1.59    4.50
  -5  -3   5    3.48    3.95
   4   3  -5    1.80    1.76
  -4  -3   5   -2.37    2.62
  -4  -3   5    0.20    2.76
  -4  -3   5    2.50    3.37
   3   3  -5   -0.88    1.16
   3   3  -5   -1.30    1.13
   3   3  -5    1.02    1.43
   3   3  -5   -1.23    1.01
  -3  -3   5    1.27    2.47
  -3  -3   5    0.53    2.16
  -3  -3   5    3.06    1.97
   2   3  -5   23.63    3.66
   2   3  -5   31.99    3.53
   2   3  -5   33.23    4.53
   2   3  -5   27.04    3.60
   2   3  -5   26.87    3.65
  -2  -3   5   21.92    4.32
  -2  -3   5   28.41    3.82
  -2  -3   5   28.61    4.20
  -2  -3   5   27.50    3.25
  -2  -3   5   21.06    3.18
  -2  -3   5   24.28    3.76
   1   3  -5   -0.28    0.61
   1   3  -5   -0.05    0.68
   1   3  -5    1.10    0.66
   1   3  -5    0.03    0.67
   1   3  -5   -0.98    0.48
  -1  -3   5    1.11    1.27
  -1  -3   5   -0.97    0.83
  -1  -3   5    1.15    1.09
  -1  -3   5    0.84    1.00
  -1  -3   5   -0.16    0.82
  -1  -3   5    0.15    0.65
  -1  -3   5   -0.73    0.83
   0   3  -5  141.41   16.34
   0   3  -5  110.14   16.38
   0   3  -5  143.34   16.28
   0   3  -5  168.35   16.37
   0   3  -5  148.85   16.34
   0   3  -5  154.98   16.36
   0   3  -5  146.45   16.31
   0  -3   5  138.34   16.36
   0  -3   5  136.47   16.19
   0  -3   5  142.35   16.32
   0  -3   5  122.38   16.32
   0  -3   5  137.65   16.37
   0  -3   5  128.88   16.49
   0  -3   5  116.64   16.29
  -1   3  -5   26.25    3.52
  -1   3  -5   25.43    3.24
  -1   3  -5   25.98    3.48
  -1   3  -5   27.09    3.77
  -1   3  -5   24.93    3.08
  -1   3  -5   24.42    3.13
   1  -3   5   23.86    3.41
   1  -3   5   17.98    3.14
   1  -3   5   22.15    3.09
   1  -3   5   26.81    3.30
   1  -3   5   23.94    3.58
   1  -3   5   23.09    3.23
  -2   3  -5   -0.08    0.61
  -2   3  -5    2.59    1.08
  -2   3  -5   -0.07    0.82
  -2   3  -5    1.36    1.33
  -2   3  -5    0.49    0.57
  -2   3  -5    1.83    1.39
  -2   3  -5    0.40    0.98
   2  -3   5    0.10    1.25
   2  -3   5    3.28    1.04
   2  -3   5   -0.15    0.95
   2  -3   5    0.09    0.95
   2  -3   5    1.25    0.92
  -3   3  -5   13.82    3.25
  -3   3  -5   11.64    3.10
  -3   3  -5   20.68    3.06
   3  -3   5   21.33    2.79
   3  -3   5   17.44    2.81
   3  -3   5   20.04    3.45
   3  -3   5   12.44    2.51
   3  -3   5   14.62    2.42
  -4   3  -5   -0.68    1.91
  -4   3  -5    3.13    2.42
  -4   3  -5    2.60    2.39
   4  -3   5   -1.48    1.07
   4  -3   5   -0.40    2.59
   4  -3   5   -1.07    2.00
  -5   3  -5   -4.93    2.66
   5  -3   5   -3.59    2.68
   5   2  -5    4.33    4.13
  -5  -2   5    2.41    4.76
  -5  -2   5    0.18    3.57
   4   2  -5    5.53    2.31
  -4  -2   5    8.02    3.45
  -4  -2   5    6.15    3.08
  -4  -2   5    7.09    3.75
   3   2  -5    4.56    1.34
   3   2  -5    4.67    1.74
   3   2  -5    6.91    1.44
  -3  -2   5    3.73    2.10
  -3  -2   5    4.85    2.33
  -3  -2   5    0.95    2.22
   2   2  -5    4.16    1.18
   2   2  -5    4.37    1.09
   2   2  -5    5.33    1.43
   2   2  -5    4.99    1.17
   2   2  -5    3.73    1.15
   2   2  -5    3.18    1.07
   2   2  -5    6.65    1.08
  -2  -2   5    6.16    1.66
  -2  -2   5    5.49    1.21
  -2  -2   5    2.63    1.31
  -2  -2   5    2.91    1.73
   1   2  -5   30.61    3.94
   1   2  -5   35.50    3.90
   1   2  -5   28.58    3.84
   1   2  -5   33.50    3.92
   1   2  -5   31.54    3.92
   1   2  -5   35.27    4.16
   1   2  -5   32.50    4.02
  -1  -2   5   29.37    4.02
  -1  -2   5   31.87    3.95
  -1  -2   5   33.44    4.09
  -1  -2   5   36.35    4.05
  -1  -2   5   22.89    3.78
  -1  -2   5   30.46    3.95
  -1  -2   5   28.60    3.94
  -1  -2   5   36.33    4.76
   0   2  -5  136.56   16.07
   0   2  -5  146.27   16.16
   0   2  -5  141.30   16.13
   0   2  -5  140.31   16.13
   0   2  -5  131.06   16.24
   0   2  -5  145.76   16.10
   0   2  -5  130.52   15.97
   0   2  -5  147.41   16.04
   0  -2   5  143.09   16.15
   0  -2   5  126.57   16.14
   0  -2   5  122.67   16.10
   0  -2   5  134.56   16.10
   0  -2   5  134.41   15.98
   0  -2   5  127.61   16.11
   0  -2   5  146.69   16.30
   0  -2   5  145.20   16.08
  -1   2  -5   18.53    2.89
  -1   2  -5   26.72    3.18
  -1   2  -5   25.55    3.36
  -1   2  -5   23.50    2.90
  -1   2  -5   21.09    2.74
  -1   2  -5   25.88    3.41
  -1   2  -5   27.48    3.39
  -1   2  -5   20.52    2.85
   1  -2   5   21.72    2.90
   1  -2   5   23.16    3.30
   1  -2   5   20.77    2.92
   1  -2   5   22.07    3.09
   1  -2   5   20.81    2.93
   1  -2   5   22.03    3.01
   1  -2   5   26.82    3.14
   1  -2   5   19.53    3.40
  -2   2  -5   11.00    1.75
  -2   2  -5   16.76    2.21
  -2   2  -5   13.88    2.48
  -2   2  -5   18.04    2.21
  -2   2  -5   16.09    2.78
   2  -2   5   17.90    2.27
   2  -2   5   14.65    2.65
   2  -2   5   13.99    2.20
   2  -2   5   10.13    2.00
   2  -2   5   15.74    2.24
   2  -2   5   13.36    2.11
  -3   2  -5   10.26    2.45
  -3   2  -5    6.69    2.43
  -3   2  -5    9.85    2.18
   3  -2   5   11.90    2.69
   3  -2   5    9.78    2.25
   3  -2   5   12.94    2.09
   3  -2   5   11.52    1.80
   3  -2   5    8.39    1.74
  -4   2  -5    1.15    2.01
  -4   2  -5    1.12    2.47
   4  -2   5    1.47    1.06
   4  -2   5    2.25    2.79
   4  -2   5    0.41    2.19
  -5   2  -5    1.71    3.33
  -5   2  -5   -1.10    2.86
   5  -2   5   -3.68    2.77
   5  -2   5   -7.14    3.08
   5   1  -5    8.51    3.85
   5   1  -5   -1.88    3.91
  -5  -1   5    1.64    3.81
  -5  -1   5    2.05    4.41
   4   1  -5    0.55    1.75
   4   1  -5   -1.13    2.00
  -4  -1   5    2.65    2.96
  -4  -1   5    0.12    2.55
   3   1  -5   -0.84    0.75
   3   1  -5    1.31    1.57
   3   1  -5   -1.31    0.86
   3   1  -5    0.08    0.82
   3   1  -5    0.12    0.54
  -3  -1   5   -1.77    1.72
  -3  -1   5   -4.22    1.75
   2   1  -5  188.18   22.97
   2   1  -5  190.82   23.09
   2   1  -5  195.54   22.83
   2   1  -5  192.89   22.85
   2   1  -5  201.97   22.81
   2   1  -5  200.80   22.86
  -2  -1   5  200.00   23.31
  -2  -1   5  191.04   23.10
  -2  -1   5  202.37   23.25
   1   1  -5   15.22    2.18
   1   1  -5   15.21    1.86
   1   1  -5   12.27    2.19
   1   1  -5   15.80    2.08
   1   1  -5   15.46    2.07
   1   1  -5   14.81    2.27
   1   1  -5   13.93    1.92
  -1  -1   5   15.68    2.74
  -1  -1   5   14.29    2.35
  -1  -1   5   16.17    2.15
  -1  -1   5   13.41    2.23
  -1  -1   5   16.26    2.12
  -1  -1   5   16.07    2.09
  -1  -1   5   15.26    2.12
  -1  -1   5   14.56    2.11
   0   1  -5    0.92    0.54
   0   1  -5   -0.36    0.33
   0   1  -5    0.29    0.58
   0   1  -5    0.49    0.43
   0   1  -5   -0.06    0.59
   0   1  -5    0.48    0.42
   0   1  -5    0.72    0.55
   0   1  -5    0.88    0.67
   0  -1   5    0.46    0.50
   0  -1   5    0.11    0.59
   0  -1   5    0.14    0.51
   0  -1   5    0.29    0.56
   0  -1   5    0.48    0.58
   0  -1   5    0.71    0.57
   0  -1   5    0.99    0.46
  -1   1  -5   23.53    3.01
  -1   1  -5   27.84    3.22
  -1   1  -5   23.53    3.80
  -1   1  -5   22.05    3.00
  -1   1  -5   22.80    3.06
  -1   1  -5   20.33    3.04
  -1   1  -5   23.76    3.10
  -1   1  -5   27.06    3.46
   1  -1   5   23.76    3.04
   1  -1   5   26.84    3.44
   1  -1   5   21.75    3.04
   1  -1   5   28.97    3.59
   1  -1   5   25.43    3.08
   1  -1   5   22.60    3.06
   1  -1   5   22.06    3.05
   1  -1   5   20.78    3.49
  -2   1  -5   24.29    3.29
  -2   1  -5   29.44    4.18
  -2   1  -5   27.33    3.67
   2  -1   5   25.44    3.35
   2  -1   5   25.48    3.35
   2  -1   5   26.58    3.41
   2  -1   5   23.92    3.62
   2  -1   5   23.83    3.32
   2  -1   5   26.13    3.61
  -3   1  -5    2.86    2.05
  -3   1  -5    0.85    1.62
   3  -1   5    4.67    1.84
   3  -1   5    7.34    1.58
   3  -1   5    3.62    1.08
   3  -1   5    3.13    1.04
  -4   1  -5    1.82    2.36
  -4   1  -5   -2.06    1.86
   4  -1   5    2.01    2.36
   4  -1   5   -0.50    0.91
   4  -1   5    2.94    2.65
  -5   1  -5   -1.92    2.86
   5  -1   5   -1.77    3.14
   5  -1   5    0.45    2.51
   5   0  -5    2.32    3.40
   5   0  -5    3.12    2.99
  -5   0   5    2.59    3.74
   4   0  -5    3.49    2.32
   4   0  -5   -0.07    1.72
  -4   0   5    2.08    2.61
  -4   0   5    0.35    2.18
   3   0  -5   12.51    2.11
   3   0  -5    9.57    1.52
   3   0  -5   11.16    1.68
   3   0  -5    9.04    1.78
   3   0  -5   13.02    2.65
   3   0  -5   14.86    1.84
  -3   0   5   17.67    3.23
  -3   0   5   17.89    3.13
  -3   0   5    9.74    2.74
   2   0  -5   25.86    3.27
   2   0  -5   25.19    3.66
   2   0  -5   22.37    3.21
   2   0  -5   25.35    3.54
   2   0  -5   24.94    3.75
   2   0  -5   27.91    3.24
   2   0  -5   26.83    3.26
   2   0  -5   24.42    3.29
  -2   0   5   22.76    3.78
  -2   0   5   22.46    3.64
  -2   0   5   32.03    4.14
   1   0  -5   11.61    1.94
   1   0  -5   10.78    1.69
   1   0  -5   12.91    2.03
   1   0  -5   12.13    1.79
   1   0  -5   13.81    1.80
   1   0  -5   13.20    2.00
   1   0  -5   14.71    2.13
   1   0  -5   12.33    1.83
  -1   0   5   12.24    1.73
  -1   0   5   10.55    1.87
  -1   0   5   13.91    2.38
  -1   0   5   12.04    1.74
  -1   0   5   10.84    1.64
  -1   0   5   11.86    1.76
  -1   0   5   11.04    1.97
   0   0  -5  374.89   44.29
   0   0  -5  419.34   44.37
   0   0  -5  370.26   44.25
   0   0  -5  389.94   44.29
   0   0  -5  381.98   44.29
   0   0  -5  384.61   44.25
   0   0  -5  379.86   44.16
   0   0   5  354.85   44.16
   0   0   5  355.92   44.16
   0   0   5  411.80   44.31
   0   0   5  381.84   44.31
   0   0   5  397.01   44.29
   0   0   5  364.91   44.26
   0   0   5  381.84   44.25
   0   0   5  390.81   44.29
  -1   0  -5    0.05    0.64
  -1   0  -5   -0.87    0.88
  -1   0  -5   -0.02    0.61
  -1   0  -5    0.24    0.66
  -1   0  -5    0.05    0.88
  -1   0  -5   -0.91    0.75
  -1   0  -5    1.06    0.83
  -1   0  -5   -0.46    0.67
  -1   0  -5   -0.06    0.53
   1   0   5    0.84    0.82
   1   0   5    0.36    0.91
   1   0   5    0.91    0.74
   1   0   5    0.60    0.68
   1   0   5    0.11    0.61
   1   0   5   -0.11    0.75
   1   0   5   -0.74    0.56
   1   0   5    0.45    0.64
  -2   0  -5   16.71    2.78
  -2   0  -5   23.66    3.59
  -2   0  -5   16.28    2.41
  -2   0  -5   20.23    3.49
  -2   0  -5   16.66    2.70
  -2   0  -5   18.55    2.52
   2   0   5   23.26    2.89
   2   0   5   27.63    3.02
   2   0   5   17.95    2.71
   2   0   5   22.07    2.79
   2   0   5   22.59    3.07
  -3   0  -5    8.21    2.54
  -3   0  -5    5.60    1.80
  -3   0  -5    5.37    2.53
   3   0   5    4.11    1.15
   3   0   5    4.94    1.52
   3   0   5    2.75    1.76
   3   0   5    3.22    1.12
  -4   0  -5   -0.61    2.43
  -4   0  -5    1.11    2.18
  -4   0  -5    6.82    3.57
   4   0   5    3.33    2.41
   4   0   5    1.12    0.93
  -5   0  -5    0.80    3.56
   5   0   5    1.28    3.19
   5   0   5    0.43    2.94
   5  -1  -5    1.93    3.26
   5  -1  -5   -1.23    2.97
  -5   1   5    0.95    3.60
   4  -1  -5    1.16    2.38
   4  -1  -5    0.24    1.86
  -4   1   5    1.70    2.46
  -4   1   5    4.27    2.79
   3  -1  -5    4.92    1.46
   3  -1  -5    2.81    0.93
   3  -1  -5    2.91    0.79
   3  -1  -5    4.81    1.97
   3  -1  -5    2.49    1.07
   3  -1  -5    3.82    1.16
  -3   1   5    1.58    1.88
  -3   1   5    7.33    2.14
  -3   1   5    5.15    2.04
   2  -1  -5    2.93    0.77
   2  -1  -5    2.10    0.92
   2  -1  -5    3.23    0.90
   2  -1  -5    3.66    1.15
   2  -1  -5    1.97    1.37
   2  -1  -5    1.22    0.82
   2  -1  -5    2.26    0.96
  -2   1   5    1.42    1.33
  -2   1   5    1.39    1.24
  -2   1   5    2.84    1.19
   1  -1  -5   30.71    3.98
   1  -1  -5   35.49    4.42
   1  -1  -5   36.42    4.27
   1  -1  -5   37.00    4.42
   1  -1  -5   33.55    4.23
   1  -1  -5   32.24    4.29
   1  -1  -5   36.29    4.21
   1  -1  -5   34.17    4.19
   1  -1  -5   32.37    4.26
   1  -1  -5   35.28    4.16
  -1   1   5   31.10    4.34
  -1   1   5   31.74    4.45
  -1   1   5   32.76    4.15
  -1   1   5   34.93    4.31
  -1   1   5   34.59    4.45
  -1   1   5   32.55    4.08
  -1   1   5   35.50    4.19
  -1   1   5   33.92    4.17
   0  -1  -5  207.24   21.69
   0  -1  -5  193.96   21.66
   0  -1  -5  182.99   21.60
   0  -1  -5  173.96   21.63
   0  -1  -5  182.24   21.60
   0  -1  -5  186.31   21.49
   0  -1  -5  174.09   21.58
   0   1   5  179.64   21.60
   0   1   5  179.93   21.62
   0   1   5  170.26   21.55
   0   1   5  185.54   21.59
   0   1   5  184.68   21.62
   0   1   5  179.86   21.45
   0   1   5  182.86   21.53
   0   1   5  196.64   21.63
   0   1   5  207.11   21.62
  -1  -1  -5    3.82    1.12
  -1  -1  -5    2.67    1.03
  -1  -1  -5    5.80    1.50
  -1  -1  -5    4.06    0.78
  -1  -1  -5    2.93    1.42
  -1  -1  -5    2.47    1.20
  -1  -1  -5    3.61    1.03
   1   1   5    4.60    1.03
   1   1   5    5.20    1.17
   1   1   5    3.99    0.95
   1   1   5    0.90    0.92
   1   1   5    3.78    0.97
   1   1   5    4.27    1.07
  -2  -1  -5   67.30    8.51
  -2  -1  -5   68.94    8.48
  -2  -1  -5   80.65    8.70
  -2  -1  -5   68.66    8.48
  -2  -1  -5   76.69    9.19
  -2  -1  -5   78.65    9.31
   2   1   5   71.64    8.63
   2   1   5   68.73    8.56
   2   1   5   80.82    8.80
   2   1   5   68.25    8.58
   2   1   5   75.64    8.63
   2   1   5   60.61    8.73
  -3  -1  -5   12.70    2.23
  -3  -1  -5   12.62    3.37
  -3  -1  -5    9.57    2.91
   3   1   5    5.38    2.27
   3   1   5    9.15    2.07
   3   1   5    7.34    1.65
  -4  -1  -5    0.40    2.73
  -4  -1  -5    0.75    2.71
   4   1   5    0.60    0.90
   4   1   5    4.72    2.59
  -5  -1  -5   -3.51    4.67
  -5  -1  -5    1.33    3.68
   5   1   5   -2.42    3.13
   5  -2  -5    5.73    3.50
  -5   2   5    4.37    3.50
   4  -2  -5   -1.05    2.34
   4  -2  -5    1.76    2.05
  -4   2   5    1.00    2.34
  -4   2   5    0.34    2.44
   3  -2  -5    2.17    0.94
   3  -2  -5    0.81    1.09
   3  -2  -5    1.00    0.78
   3  -2  -5    2.47    1.69
   3  -2  -5   -0.22    1.30
  -3   2   5    0.76    1.80
  -3   2   5   -0.59    1.72
  -3   2   5   -0.36    1.57
   2  -2  -5   39.33    5.28
   2  -2  -5   43.74    5.20
   2  -2  -5   35.03    5.60
   2  -2  -5   52.30    6.52
   2  -2  -5   39.57    5.26
   2  -2  -5   41.24    5.09
   2  -2  -5   48.54    5.28
  -2   2   5   36.96    5.37
  -2   2   5   37.76    5.24
  -2   2   5   42.65    5.16
  -2   2   5   44.24    5.59
  -2   2   5   39.26    5.06
   1  -2  -5    1.58    0.90
   1  -2  -5   -0.60    0.57
   1  -2  -5   -0.90    0.68
   1  -2  -5    0.53    0.85
   1  -2  -5   -0.91    0.87
   1  -2  -5    0.51    0.79
  -1   2   5    0.37    0.64
  -1   2   5    2.57    1.08
  -1   2   5    0.60    0.73
  -1   2   5    0.27    0.87
  -1   2   5   -1.06    0.76
  -1   2   5   -0.47    0.88
  -1   2   5    0.05    0.76
  -1   2   5   -0.05    0.72
   0  -2  -5    0.94    0.98
   0  -2  -5    3.20    0.96
   0  -2  -5    1.85    0.83
   0  -2  -5    1.06    0.96
   0  -2  -5   -0.68    0.62
   0  -2  -5    1.96    0.78
   0  -2  -5    1.83    0.68
   0   2   5    1.90    0.75
   0   2   5    2.02    0.79
   0   2   5    2.68    0.89
   0   2   5    0.63    0.87
   0   2   5    1.05    0.75
   0   2   5    0.79    0.76
   0   2   5    1.74    0.83
  -1  -2  -5    1.53    1.03
  -1  -2  -5    1.57    1.18
  -1  -2  -5    3.79    1.41
  -1  -2  -5    3.47    1.44
  -1  -2  -5    1.31    1.07
  -1  -2  -5    3.54    1.08
   1   2   5    2.51    0.77
   1   2   5    4.64    1.14
   1   2   5    2.98    1.07
   1   2   5    4.62    1.12
   1   2   5    4.08    1.08
  -2  -2  -5   45.85    6.42
  -2  -2  -5   44.37    5.71
  -2  -2  -5   49.24    6.64
  -2  -2  -5   37.94    5.53
  -2  -2  -5   45.04    5.54
   2   2   5   45.48    5.79
   2   2   5   42.22    5.45
   2   2   5   44.08    5.58
   2   2   5   48.05    5.63
   2   2   5   45.70    5.65
  -3  -2  -5   -1.92    2.01
  -3  -2  -5   -2.19    2.28
   3   2   5   -1.95    1.35
   3   2   5    1.68    1.87
   3   2   5    0.51    1.02
  -4  -2  -5    2.76    3.07
  -4  -2  -5    4.15    3.26
   4   2   5    1.74    2.73
   5  -3  -5    1.49    3.43
  -5   3   5   -3.00    3.18
   4  -3  -5    1.60    2.61
   4  -3  -5    0.81    2.15
  -4   3   5   -4.12    1.98
  -4   3   5    0.82    2.36
  -4   3   5   -0.51    2.32
   3  -3  -5   19.35    3.52
   3  -3  -5   16.20    3.44
   3  -3  -5   13.84    3.07
   3  -3  -5   22.00    2.87
   3  -3  -5   19.45    2.97
  -3   3   5   15.05    3.16
  -3   3   5   16.40    3.41
  -3   3   5   22.60    3.80
   2  -3  -5    0.95    1.37
   2  -3  -5    0.01    0.87
   2  -3  -5    0.38    0.94
   2  -3  -5   -0.19    1.13
   2  -3  -5   -1.95    1.00
   2  -3  -5    0.88    1.22
  -2   3   5   -0.66    0.72
  -2   3   5    0.06    0.80
  -2   3   5    0.57    0.91
  -2   3   5   -0.44    0.87
  -2   3   5    0.63    1.34
  -2   3   5    1.29    1.32
   1  -3  -5    8.03    1.62
   1  -3  -5    8.77    1.75
   1  -3  -5    9.27    1.72
   1  -3  -5    6.95    1.82
   1  -3  -5   10.50    2.04
   1  -3  -5    7.72    1.83
  -1   3   5    8.02    1.72
  -1   3   5    8.06    1.57
  -1   3   5   10.14    1.87
  -1   3   5    7.94    1.67
  -1   3   5    9.14    1.91
  -1   3   5    6.70    1.92
  -1   3   5    9.60    1.52
  -1   3   5   10.79    1.70
   0  -3  -5   90.57   11.73
   0  -3  -5   88.09   11.62
   0  -3  -5  101.72   11.61
   0  -3  -5  100.28   11.48
   0  -3  -5   93.86   11.76
   0  -3  -5   79.39   11.74
   0   3   5   98.64   11.64
   0   3   5   97.25   11.66
   0   3   5  121.39   11.60
   0   3   5   99.24   11.65
  -1  -3  -5    3.26    1.70
  -1  -3  -5    4.38    1.35
  -1  -3  -5    5.52    1.68
  -1  -3  -5    4.19    1.44
  -1  -3  -5    4.12    1.46
   1   3   5    4.62    0.90
   1   3   5    5.30    1.41
   1   3   5    2.50    1.03
   1   3   5    3.31    1.18
   1   3   5    2.66    1.72
  -2  -3  -5    2.37    1.43
  -2  -3  -5    4.48    1.38
  -2  -3  -5    1.02    1.94
  -2  -3  -5    0.59    1.79
  -2  -3  -5    2.92    1.40
   2   3   5    2.75    1.20
   2   3   5    0.90    1.05
   2   3   5    0.39    1.27
   2   3   5    1.60    0.65
   2   3   5    2.99    1.34
  -3  -3  -5    1.09    2.83
  -3  -3  -5    2.83    2.71
   3   3   5    1.01    1.66
   3   3   5   -0.08    1.09
   3   3   5   -0.09    1.84
  -4  -3  -5   -0.87    3.16
  -4  -3  -5    2.37    3.61
   4   3   5    0.60    1.17
   4   3   5    4.79    2.91
   5  -4  -5    2.47    3.65
  -5   4   5    2.31    3.26
   4  -4  -5    0.77    1.23
   4  -4  -5    0.45    2.37
   4  -4  -5   -1.66    2.25
  -4   4   5   -1.39    2.54
  -4   4   5    0.18    2.17
   3  -4  -5   -0.95    1.40
   3  -4  -5    0.15    2.08
   3  -4  -5   -1.14    1.18
   3  -4  -5    2.62    1.96
  -3   4   5   -0.16    1.35
  -3   4   5   -0.11    1.76
  -3   4   5   -1.79    1.51
   2  -4  -5   -3.91    1.38
   2  -4  -5    0.16    1.37
   2  -4  -5    0.67    1.19
   2  -4  -5    0.64    1.34
   2  -4  -5   -0.64    1.07
   2  -4  -5    0.32    1.55
  -2   4   5   -0.74    1.38
  -2   4   5   -0.48    0.93
  -2   4   5    0.37    0.74
  -2   4   5    1.14    1.32
  -2   4   5    0.17    1.09
  -2   4   5   -1.78    0.95
   1  -4  -5   97.35   10.47
   1  -4  -5   80.21   10.61
   1  -4  -5   73.77   10.76
   1  -4  -5   81.23   10.62
   1  -4  -5   78.15   10.58
  -1   4   5   90.89   10.66
  -1   4   5   84.11   10.12
  -1   4   5   85.39   10.46
  -1   4   5   97.27   10.58
  -1   4   5   85.83   10.43
  -1   4   5   97.91   10.50
   0  -4  -5   14.38    3.14
   0  -4  -5   19.76    3.02
   0  -4  -5   19.87    2.97
   0  -4  -5   13.63    2.53
   0  -4  -5   20.68    3.28
   0  -4  -5   15.41    2.90
   0   4   5   17.58    2.75
   0   4   5   19.97    2.91
   0   4   5   18.05    2.86
   0   4   5   24.02    2.67
   0   4   5   19.37    2.60
  -1  -4  -5    1.93    1.48
  -1  -4  -5   -1.17    1.35
  -1  -4  -5    1.42    1.18
  -1  -4  -5    1.41    1.39
   1   4   5    0.20    0.97
   1   4   5   -1.79    0.67
   1   4   5   -0.54    1.15
  -2  -4  -5   30.22    4.46
  -2  -4  -5   27.59    5.18
  -2  -4  -5   28.81    5.28
  -2  -4  -5   26.91    4.53
   2   4   5   35.77    4.56
   2   4   5   38.57    4.69
   2   4   5   24.91    4.58
  -3  -4  -5    2.30    2.84
  -3  -4  -5   -3.58    2.70
   3   4   5    6.72    2.18
   3   4   5    1.87    2.18
   3   4   5    3.51    1.47
  -4  -4  -5   11.27    4.36
  -4  -4  -5   -3.70    3.69
   4   4   5    0.25    1.33
   4   4   5    1.96    3.07
   4  -5  -5   -1.41    1.43
   4  -5  -5   -1.40    2.65
   4  -5  -5   -2.24    2.42
  -4   5   5    0.69    2.30
  -4   5   5    0.54    2.86
   3  -5  -5    1.92    2.15
   3  -5  -5    2.47    2.19
   3  -5  -5    0.37    1.57
   3  -5  -5    2.16    1.84
  -3   5   5    1.10    1.92
  -3   5   5    3.08    2.32
   2  -5  -5    0.26    1.98
   2  -5  -5    0.36    1.85
   2  -5  -5   -2.07    1.24
   2  -5  -5    1.30    1.86
   2  -5  -5    0.98    1.52
   2  -5  -5    1.63    1.62
  -2   5   5   -0.73    1.28
  -2   5   5    0.38    1.22
  -2   5   5    0.30    1.57
  -2   5   5    1.05    1.20
   1  -5  -5   -0.93    1.27
   1  -5  -5    0.43    1.62
   1  -5  -5    2.01    1.60
   1  -5  -5    2.51    2.02
  -1   5   5    1.37    1.13
  -1   5   5    0.57    1.50
  -1   5   5    0.19    0.95
  -1   5   5    2.03    1.37
  -1   5   5    1.22    1.15
   0  -5  -5   13.44    3.32
   0  -5  -5   10.85    2.76
   0  -5  -5   13.91    2.82
   0  -5  -5   10.67    2.82
   0  -5  -5   12.03    2.60
   0   5   5   15.48    2.15
   0   5   5   12.57    2.45
   0   5   5   13.97    2.56
   0   5   5   15.66    2.62
   0   5   5   19.60    2.33
  -1  -5  -5   37.04    5.64
  -1  -5  -5   55.00    6.91
  -1  -5  -5   49.51    6.52
  -1  -5  -5   41.54    6.24
   1   5   5   46.93    5.88
   1   5   5   45.45    5.92
   1   5   5   46.97    5.98
  -2  -5  -5    3.82    2.13
  -2  -5  -5    7.39    3.22
  -2  -5  -5    7.48    3.10
  -2  -5  -5    7.60    2.43
   2   5   5    6.74    2.40
   2   5   5    7.05    2.20
   2   5   5    8.71    2.02
  -3  -5  -5    0.38    3.18
  -3  -5  -5   -1.22    3.21
   3   5   5   -0.13    1.47
   3   5   5   -6.07    1.83
   3   5   5    0.09    2.15
  -4  -5  -5   -0.80    4.28
  -4  -5  -5    3.99    4.58
   4   5   5    0.28    1.54
   4   5   5   -1.62    3.00
   4  -6  -5    2.29    1.98
   4  -6  -5   -0.19    2.71
   4  -6  -5    2.84    3.14
  -4   6   5   -0.07    2.45
  -4   6   5    4.00    2.94
   3  -6  -5   16.55    2.87
   3  -6  -5   14.88    2.99
   3  -6  -5    4.96    3.02
   3  -6  -5    3.96    3.10
  -3   6   5    5.71    2.51
  -3   6   5   11.98    3.24
   2  -6  -5    2.17    2.35
   2  -6  -5   -2.79    1.74
   2  -6  -5    0.32    2.14
   2  -6  -5    2.27    1.81
  -2   6   5    2.10    1.56
  -2   6   5   -0.69    1.65
  -2   6   5    0.26    1.39
  -2   6   5    1.00    1.53
   1  -6  -5    5.01    2.11
   1  -6  -5    1.13    2.20
   1  -6  -5    1.29    1.73
   1  -6  -5    7.14    2.26
  -1   6   5    3.48    1.38
  -1   6   5    1.83    1.65
  -1   6   5    4.47    1.82
  -1   6   5    5.79    1.62
  -1   6   5    5.26    2.03
   0  -6  -5   28.30    4.70
   0  -6  -5   34.92    5.50
   0  -6  -5   18.26    4.29
   0  -6  -5   38.47    5.12
   0  -6  -5   26.94    4.37
   0   6   5   30.91    3.79
   0   6   5   28.88    4.22
   0   6   5   35.40    4.45
   0   6   5   26.57    3.69
   0   6   5   32.61    4.43
  -1  -6  -5   -3.94    1.83
  -1  -6  -5    0.32    1.82
  -1  -6  -5   -2.44    2.18
  -1  -6  -5   -0.87    1.40
   1   6   5   -0.75    1.02
   1   6   5    1.03    1.53
   1   6   5   -0.46    1.29
  -2  -6  -5   12.97    3.70
  -2  -6  -5    1.58    2.20
  -2  -6  -5   -2.31    2.09
  -2  -6  -5    3.58    3.61
   2   6   5    1.20    2.01
   2   6   5   -0.26    1.72
   2   6   5    2.53    1.55
  -3  -6  -5   -1.61    3.49
  -3  -6  -5    0.31    3.89
   3   6   5   -1.85    2.24
   3   6   5    1.16    1.82
   3   6   5   -1.14    2.39
  -4  -6  -5   -1.72    5.11
  -4  -6  -5    8.52    5.44
   4   6   5   -1.41    3.11
   4  -7  -5    0.37    2.26
   4  -7  -5    1.73    3.24
   4  -7  -5    3.73    3.46
  -4   7   5   -1.97    2.46
  -4   7   5    0.08    2.72
   3  -7  -5   -0.11    2.56
   3  -7  -5    1.11    2.84
   3  -7  -5    1.91    2.11
   3  -7  -5   -3.07    2.15
  -3   7   5   -2.53    2.38
  -3   7   5    0.27    2.00
   2  -7  -5    1.22    2.72
   2  -7  -5   -0.78    2.10
   2  -7  -5    0.01    1.97
   2  -7  -5    2.13    2.00
  -2   7   5    1.32    1.90
  -2   7   5    0.18    1.52
  -2   7   5   -0.87    1.93
  -2   7   5    0.21    1.48
   1  -7  -5   13.49    3.47
   1  -7  -5   13.51    3.51
   1  -7  -5   15.96    4.33
   1  -7  -5    8.95    3.15
  -1   7   5   21.24    3.95
  -1   7   5   24.70    3.55
  -1   7   5   21.21    3.16
  -1   7   5   19.17    3.30
  -1   7   5   22.95    3.24
   0  -7  -5   -0.47    1.92
   0  -7  -5   -2.40    2.58
   0  -7  -5   -1.12    2.28
   0  -7  -5    3.74    2.67
   0  -7  -5   -2.88    1.73
   0   7   5    2.45    1.48
   0   7   5    2.16    1.68
   0   7   5    3.25    1.74
   0   7   5    0.15    1.01
  -1  -7  -5   -4.31    2.13
  -1  -7  -5    1.86    2.96
  -1  -7  -5    2.04    2.12
   1   7   5    1.28    1.84
   1   7   5   -0.79    1.43
   1   7   5    0.33    1.59
  -2  -7  -5    9.72    4.16
  -2  -7  -5    3.29    4.20
  -2  -7  -5    6.46    3.03
  -2  -7  -5   16.10    3.58
   2   7   5    6.50    2.94
   2   7   5    9.00    3.00
   2   7   5    8.47    2.30
  -3  -7  -5   -0.16    4.38
  -3  -7  -5    5.38    4.63
   3   7   5   -2.87    2.42
   3   7   5   -0.18    1.95
   3   7   5    4.84    2.90
   4  -8  -5   -1.14    2.59
   4  -8  -5    2.70    4.32
  -4   8   5   -0.48    2.70
  -4   8   5    3.89    3.53
   3  -8  -5    0.80    2.98
   3  -8  -5    2.12    3.25
   3  -8  -5    0.86    3.19
   3  -8  -5    1.54    2.33
  -3   8   5   -1.22    2.70
  -3   8   5    4.65    2.41
   2  -8  -5    0.22    2.56
   2  -8  -5   -0.92    2.17
   2  -8  -5   -1.77    1.99
   2  -8  -5    1.83    3.27
  -2   8   5   -1.02    1.66
  -2   8   5    3.30    2.63
  -2   8   5   -2.14    2.02
  -2   8   5    1.60    1.81
   1  -8  -5    0.53    2.55
   1  -8  -5    0.28    1.98
   1  -8  -5    4.05    2.44
   1  -8  -5    2.35    3.37
  -1   8   5    2.77    2.61
  -1   8   5    1.39    1.98
  -1   8   5    3.87    1.73
  -1   8   5    6.43    2.31
  -1   8   5    5.86    1.73
   0  -8  -5    4.22    3.22
   0  -8  -5    2.79    2.98
   0  -8  -5    7.70    3.75
   0  -8  -5    1.04    2.21
   0  -8  -5   -0.83    2.02
   0   8   5    5.06    2.20
   0   8   5    0.87    1.56
   0   8   5    2.69    1.23
   0   8   5    0.11    1.92
  -1  -8  -5   12.00    3.83
  -1  -8  -5    7.57    2.99
  -1  -8  -5    9.88    4.30
   1   8   5   18.38    3.43
   1   8   5   14.76    3.24
   1   8   5   17.17    3.21
  -2  -8  -5    4.95    3.53
  -2  -8  -5    6.23    5.00
  -2  -8  -5   12.34    4.94
   2   8   5    2.75    2.53
   2   8   5    3.92    2.65
   2   8   5    2.78    2.16
  -3  -8  -5    0.40    5.20
  -3  -8  -5   -3.11    5.28
   3   8   5   -0.55    2.98
   3   8   5   -1.54    1.89
   3   8   5   -1.65    2.97
   3  -9  -5    0.77    2.73
   3  -9  -5    0.87    3.51
   3  -9  -5   -4.32    3.94
   3  -9  -5    2.07    3.65
  -3   9   5    1.22    2.31
  -3   9   5   -1.87    2.92
   2  -9  -5    0.58    3.72
   2  -9  -5    3.65    3.32
   2  -9  -5   -1.60    2.20
   2  -9  -5    1.05    3.00
  -2   9   5   -2.52    1.60
  -2   9   5    0.27    2.83
  -2   9   5    0.00    2.43
   1  -9  -5    2.25    3.74
   1  -9  -5    0.49    3.19
   1  -9  -5    1.43    2.45
   1  -9  -5    4.50    2.85
  -1   9   5    5.15    3.20
  -1   9   5    5.10    2.73
  -1   9   5    2.17    1.66
  -1   9   5    3.19    1.71
   0  -9  -5   -2.31    2.98
   0  -9  -5    1.43    2.47
   0  -9  -5    2.95    3.98
   0  -9  -5   -4.49    3.42
   0   9   5    0.62    2.13
   0   9   5    1.65    1.68
   0   9   5    3.03    2.43
  -1  -9  -5   -5.83    3.38
  -1  -9  -5    1.81    4.32
  -1  -9  -5   -3.20    2.34
   1   9   5   -0.68    2.17
   1   9   5   -1.67    1.32
   1   9   5   -3.08    2.00
  -2  -9  -5   -3.10    5.34
  -2  -9  -5   -1.32    4.43
  -2  -9  -5   -1.23    3.80
   2   9   5    4.72    2.64
   2   9   5   -2.59    1.67
   2   9   5    1.01    2.58
   3 -10  -5   -0.82    3.94
   3 -10  -5   -7.30    3.36
   2 -10  -5    0.81    4.31
   2 -10  -5   -1.85    2.44
   2 -10  -5   -1.11    3.07
   2 -10  -5   -0.10    3.55
  -2  10   5    0.37    3.02
  -2  10   5   -2.70    1.92
  -2  10   5    5.68    3.44
   1 -10  -5    0.10    4.02
   1 -10  -5    1.46    3.46
   1 -10  -5    4.79    2.95
   1 -10  -5   -4.50    3.22
   1 -10  -5    2.53    4.25
  -1  10   5    4.54    3.15
  -1  10   5   -0.13    1.73
  -1  10   5    1.81    3.14
   0 -10  -5    2.97    4.55
   0 -10  -5   -0.61    3.68
   0 -10  -5   -1.73    2.30
   0 -10  -5    3.05    4.13
   0  10   5    2.99    3.06
   0  10   5    1.55    1.73
  -1 -10  -5    1.95    3.04
  -1 -10  -5    6.66    4.58
  -1 -10  -5    8.26    5.04
   1  10   5    4.09    2.25
   1  10   5    0.68    2.65
   1  10   5    1.51    2.79
  -2 -10  -5    7.22    5.91
   2  10   5   -3.62    2.62
   2  10   5   -1.18    2.90
   2 -11  -5   -2.94    3.97
   2 -11  -5   -7.13    3.27
  -2  11   5    2.06    3.59
   1 -11  -5   -2.75    3.74
   1 -11  -5   -4.58    4.55
   1 -11  -5   -1.05    2.82
  -1  11   5   -0.85    3.38
  -1  11   5    0.23    3.49
  -1  11   5   -2.34    1.70
   0 -11  -5    3.34    3.47
   0 -11  -5   -3.67    4.69
   0 -11  -5   -3.41    4.86
   0 -11  -5   -2.50    4.00
   0  11   5    0.45    3.24
   0  11   5   -0.87    1.96
   1  12  -6    3.58    2.41
   1  12  -6    1.98    1.95
  -1 -12   6    7.79    4.17
  -1 -12   6   -5.60    4.68
  -1 -12   6    2.53    3.34
  -1 -12   6    7.86    6.40
   0  12  -6   -1.56    2.09
   0  12  -6    0.83    2.17
   0  12  -6    1.40    1.68
   0 -12   6    5.98    3.73
   0 -12   6    2.03    4.68
   0 -12   6    3.39    2.75
  -1  12  -6    1.44    2.43
  -1  12  -6    1.89    1.93
   1 -12   6    0.30    4.18
   1 -12   6    4.43    3.42
   1 -12   6    4.34    2.78
  -2  12  -6   -1.91    3.75
  -2  12  -6    1.33    3.32
  -2  12  -6    8.22    3.71
   2 -12   6    4.44    2.93
   2 -12   6    2.21    3.67
   2 -12   6   -0.49    3.75
   2  11  -6   -0.35    2.30
   2  11  -6    3.06    2.70
   2  11  -6    1.39    1.91
  -2 -11   6   -1.07    4.79
  -2 -11   6    2.46    3.86
  -2 -11   6   -0.48    5.59
   1  11  -6   -0.66    1.84
   1  11  -6    1.71    2.26
   1  11  -6    4.81    2.22
  -1 -11   6    2.60    2.63
  -1 -11   6   -3.57    2.96
  -1 -11   6    6.81    4.92
  -1 -11   6   -0.10    3.65
  -1 -11   6    4.22    5.29
   0  11  -6   -0.74    1.48
   0  11  -6   -0.73    1.85
   0  11  -6    0.30    2.07
   0 -11   6    4.03    3.06
   0 -11   6    1.29    2.42
   0 -11   6   -2.78    4.08
  -1  11  -6    1.86    1.88
  -1  11  -6    5.23    2.86
   1 -11   6    0.19    3.67
   1 -11   6    1.71    3.04
   1 -11   6    4.54    2.72
  -2  11  -6   -5.37    2.79
  -2  11  -6    3.47    3.03
  -2  11  -6    4.79    3.15
   2 -11   6   -2.61    2.74
   2 -11   6    0.65    3.56
   2 -11   6   -1.02    2.00
  -3  11  -6   -0.35    3.74
  -3  11  -6    5.26    4.31
   3 -11   6    2.25    3.51
   3 -11   6   -0.27    2.71
   3 -11   6    1.90    3.23
   3  10  -6   -2.07    2.70
   3  10  -6    1.34    2.23
   3  10  -6    4.07    3.19
  -3 -10   6    6.04    6.56
  -3 -10   6    3.43    5.50
   2  10  -6    0.57    2.34
   2  10  -6    0.97    1.87
   2  10  -6    0.99    2.03
  -2 -10   6    3.83    3.60
  -2 -10   6    3.14    5.32
  -2 -10   6    2.29    3.81
   1  10  -6    5.07    2.15
   1  10  -6    2.67    2.12
   1  10  -6    5.67    2.23
  -1 -10   6    1.46    4.23
  -1 -10   6    0.17    4.71
  -1 -10   6    3.66    3.23
  -1 -10   6    6.77    3.64
  -1 -10   6    1.44    2.59
   0  10  -6    1.18    1.92
   0  10  -6    1.00    1.51
   0  10  -6    3.27    2.33
   0 -10   6    2.52    2.21
   0 -10   6    4.12    2.82
   0 -10   6    7.93    4.03
   0 -10   6    3.85    2.91
  -1  10  -6   -4.79    1.92
  -1  10  -6    1.77    1.71
  -1  10  -6   -0.46    1.75
   1 -10   6   -0.65    2.77
   1 -10   6    0.91    2.22
   1 -10   6   -3.72    2.27
  -2  10  -6   -3.27    2.44
  -2  10  -6   -0.76    1.94
  -2  10  -6   -6.75    2.69
  -2  10  -6    3.38    2.78
   2 -10   6   -0.14    2.56
   2 -10   6   -2.52    2.84
   2 -10   6    0.97    2.27
  -3  10  -6   -1.38    3.11
  -3  10  -6    2.42    3.79
   3 -10   6   -1.15    2.87
   3 -10   6    3.70    3.10
   3 -10   6   -0.68    2.55
   3   9  -6    6.43    3.03
   3   9  -6   -0.38    1.98
   3   9  -6    5.12    2.83
  -3  -9   6    2.85    4.57
  -3  -9   6    3.79    5.30
   2   9  -6    1.66    2.13
   2   9  -6    4.31    2.19
   2   9  -6    0.79    1.70
  -2  -9   6    3.49    3.95
  -2  -9   6   -3.58    4.30
  -2  -9   6    0.62    2.95
   1   9  -6   11.88    2.78
   1   9  -6   12.89    2.93
   1   9  -6   15.66    2.72
  -1  -9   6    9.94    4.46
  -1  -9   6    9.60    3.09
  -1  -9   6   10.52    3.88
  -1  -9   6    9.22    3.36
   0   9  -6    3.02    1.83
   0   9  -6    4.42    1.45
   0   9  -6   -2.80    1.19
   0  -9   6   -0.21    2.35
   0  -9   6    1.14    2.68
   0  -9   6    6.42    2.67
   0  -9   6    2.88    2.43
  -1   9  -6    4.98    2.07
  -1   9  -6    3.59    2.59
  -1   9  -6    6.85    2.16
   1  -9   6    3.36    2.99
   1  -9   6    7.46    2.62
   1  -9   6    4.40    2.43
   1  -9   6    6.10    2.54
  -2   9  -6   -2.12    2.13
  -2   9  -6    4.69    3.01
  -2   9  -6    4.80    2.14
   2  -9   6    7.15    2.94
   2  -9   6    2.57    2.48
   2  -9   6    6.39    3.21
  -3   9  -6   -3.50    2.46
  -3   9  -6    1.56    3.12
   3  -9   6    0.99    3.09
   3  -9   6    0.28    2.36
   3  -9   6    1.17    2.80
  -4   9  -6    0.84    3.50
   4  -9   6   -1.84    2.61
   4  -9   6   -0.48    3.83
   3   8  -6   -0.37    2.13
   3   8  -6   -0.59    1.67
   3   8  -6    5.33    2.87
  -3  -8   6   -5.26    4.00
  -3  -8   6    2.79    4.23
   2   8  -6    1.19    1.67
   2   8  -6    2.19    2.08
  -2  -8   6    4.62    2.83
  -2  -8   6    3.26    3.00
  -2  -8   6    2.59    3.08
  -2  -8   6   -2.05    3.04
  -2  -8   6    0.18    2.40
   1   8  -6    1.58    1.58
   1   8  -6    3.65    1.95
  -1  -8   6    2.95    3.68
  -1  -8   6    5.16    2.68
  -1  -8   6    3.47    2.55
  -1  -8   6    2.22    2.68
   0   8  -6    0.29    1.50
   0   8  -6    1.01    1.48
   0  -8   6    0.17    1.97
   0  -8   6   -1.54    2.65
   0  -8   6   -0.25    1.94
   0  -8   6    3.43    2.29
  -1   8  -6   21.54    3.87
  -1   8  -6   20.92    3.38
  -1   8  -6   19.44    3.46
   1  -8   6   14.57    3.45
   1  -8   6   12.52    3.75
   1  -8   6   19.30    3.81
  -2   8  -6   -0.98    2.37
  -2   8  -6   -1.64    1.55
  -2   8  -6    0.51    2.17
   2  -8   6   -1.53    1.88
   2  -8   6   -0.11    2.50
   2  -8   6    2.23    2.22
  -3   8  -6   -2.92    2.10
  -3   8  -6   -3.93    2.33
   3  -8   6    1.95    2.43
   3  -8   6   -1.62    2.07
   3  -8   6    0.20    2.66
  -4   8  -6    2.28    3.42
   4  -8   6    3.04    3.25
   4  -8   6    1.91    2.49
   4   7  -6    4.80    3.46
   4   7  -6   -0.05    1.90
  -4  -7   6   -5.77    4.56
  -4  -7   6    2.66    4.62
   3   7  -6   -0.08    2.00
   3   7  -6   -0.66    1.53
  -3  -7   6    5.41    4.00
  -3  -7   6    1.91    3.99
   2   7  -6    0.69    1.21
   2   7  -6    0.51    1.60
   2   7  -6    0.54    1.52
  -2  -7   6    2.07    2.44
  -2  -7   6    1.71    2.51
  -2  -7   6    0.66    2.26
  -2  -7   6   -0.45    2.15
  -2  -7   6    1.71    3.30
   1   7  -6   50.46    6.72
   1   7  -6   51.18    6.76
  -1  -7   6   47.57    7.04
  -1  -7   6   64.60    7.28
  -1  -7   6   49.97    7.31
  -1  -7   6   32.95    7.51
   0   7  -6   -0.64    1.21
   0   7  -6   -0.29    1.28
   0  -7   6    0.90    1.89
   0  -7   6    1.25    1.85
   0  -7   6   -1.73    1.49
   0  -7   6    1.12    2.30
  -1   7  -6    6.11    2.43
  -1   7  -6    7.58    2.04
  -1   7  -6    4.08    1.39
  -1   7  -6    7.13    1.99
   1  -7   6    5.68    2.28
   1  -7   6    4.78    2.41
   1  -7   6    7.26    2.28
  -2   7  -6   -1.29    1.39
  -2   7  -6    0.93    2.01
  -2   7  -6    0.78    1.62
  -2   7  -6   -1.96    1.97
   2  -7   6   -0.25    2.09
   2  -7   6   -0.77    1.83
   2  -7   6    2.34    1.83
  -3   7  -6    4.21    2.79
  -3   7  -6    6.09    2.52
   3  -7   6    3.75    2.74
   3  -7   6    7.52    2.71
   3  -7   6    5.90    2.58
  -4   7  -6    1.48    3.30
  -4   7  -6    0.04    2.77
   4  -7   6   -3.25    2.97
   4  -7   6    3.54    2.35
   4   6  -6    2.02    3.09
   4   6  -6    1.15    1.70
  -4  -6   6    0.67    3.62
  -4  -6   6    0.13    3.85
   3   6  -6    2.21    1.74
   3   6  -6    3.19    2.00
  -3  -6   6    5.49    3.32
  -3  -6   6    0.23    3.13
  -3  -6   6    5.28    2.92
   2   6  -6   -0.55    1.41
   2   6  -6    2.24    1.22
   2   6  -6    2.40    1.56
  -2  -6   6    1.51    2.85
  -2  -6   6   -3.77    2.42
  -2  -6   6    1.26    2.06
  -2  -6   6    0.13    2.09
  -2  -6   6    0.50    1.95
   1   6  -6   19.42    3.00
   1   6  -6   17.55    2.89
   1   6  -6   16.72    2.94
  -1  -6   6   23.08    3.58
  -1  -6   6    4.15    3.18
  -1  -6   6   17.51    3.12
  -1  -6   6   10.71    2.89
   0   6  -6   -0.86    1.16
   0   6  -6   -0.35    1.13
   0  -6   6    1.80    1.83
   0  -6   6    0.26    1.52
   0  -6   6    3.53    2.00
   0  -6   6    0.33    1.48
  -1   6  -6   34.62    4.35
  -1   6  -6   26.43    3.64
  -1   6  -6   29.39    4.66
  -1   6  -6   33.48    4.29
   1  -6   6   21.26    4.18
   1  -6   6   24.77    4.11
   1  -6   6   22.53    4.25
  -2   6  -6   -1.87    1.10
  -2   6  -6    1.69    1.43
  -2   6  -6    1.81    1.71
  -2   6  -6    1.39    1.91
   2  -6   6    0.47    1.61
   2  -6   6    0.86    1.82
   2  -6   6    0.76    1.53
  -3   6  -6   -0.27    1.80
  -3   6  -6   -0.76    2.24
   3  -6   6    1.92    1.94
   3  -6   6   -1.90    1.57
   3  -6   6    4.46    2.75
  -4   6  -6    2.62    2.88
  -4   6  -6    0.25    2.50
   4  -6   6    1.39    3.23
   4  -6   6    0.10    2.01
   4   5  -6   -0.43    1.44
   4   5  -6    3.79    3.24
  -4  -5   6    6.17    3.86
  -4  -5   6    5.18    4.17
   3   5  -6    0.16    1.28
   3   5  -6   -1.65    1.26
   3   5  -6    0.36    1.62
  -3  -5   6   -3.69    1.89
  -3  -5   6    1.85    2.56
  -3  -5   6   -0.34    2.73
   2   5  -6   12.28    2.87
   2   5  -6   22.65    3.33
   2   5  -6   13.26    2.98
   2   5  -6   20.12    2.99
  -2  -5   6   17.68    3.87
  -2  -5   6   19.97    3.24
  -2  -5   6   19.82    3.46
  -2  -5   6   16.01    3.06
  -2  -5   6   24.48    4.20
  -2  -5   6   22.67    3.13
   1   5  -6   42.90    4.74
   1   5  -6   33.56    4.75
   1   5  -6   40.38    4.81
  -1  -5   6   35.30    4.86
  -1  -5   6   25.42    4.95
  -1  -5   6   26.20    4.72
  -1  -5   6   28.85    5.15
   0   5  -6   17.13    2.41
   0   5  -6   10.29    2.09
   0   5  -6   10.58    2.01
   0   5  -6    7.94    2.10
   0  -5   6    6.37    2.17
   0  -5   6   11.33    2.32
   0  -5   6    6.78    1.95
  -1   5  -6   73.74    9.11
  -1   5  -6   61.96    9.53
  -1   5  -6   79.60    9.48
  -1   5  -6   82.00    9.42
   1  -5   6   91.54    9.56
   1  -5   6   72.43    9.54
   1  -5   6   72.09    9.50
  -2   5  -6    1.54    1.06
  -2   5  -6    1.86    1.32
  -2   5  -6    1.71    1.88
  -2   5  -6    2.77    1.05
  -2   5  -6    5.06    1.61
  -2   5  -6    2.26    1.19
   2  -5   6    2.22    1.50
   2  -5   6    1.59    1.50
   2  -5   6    1.15    1.07
   2  -5   6    1.51    1.34
   2  -5   6    0.08    1.79
  -3   5  -6    2.49    2.13
  -3   5  -6    1.78    1.78
   3  -5   6    2.22    1.40
   3  -5   6    1.13    1.69
   3  -5   6   -1.97    2.33
   3  -5   6    2.04    1.67
  -4   5  -6    6.89    2.56
  -4   5  -6    2.04    2.48
   4  -5   6    9.89    3.44
   4  -5   6    1.78    1.96
   4   4  -6    1.05    1.24
  -4  -4   6    1.55    3.90
  -4  -4   6   -0.08    2.89
   3   4  -6   -1.69    1.08
   3   4  -6   -0.18    1.42
   3   4  -6    1.38    1.47
  -3  -4   6   -0.42    2.02
  -3  -4   6   -3.64    1.92
  -3  -4   6    3.35    2.11
   2   4  -6   21.05    3.19
   2   4  -6   18.02    3.06
   2   4  -6   21.59    3.11
   2   4  -6   18.49    3.04
  -2  -4   6   17.33    3.25
  -2  -4   6   24.19    3.25
  -2  -4   6   14.62    3.66
  -2  -4   6   15.34    2.89
  -2  -4   6   22.65    2.95
  -2  -4   6   23.86    3.83
   1   4  -6   30.89    4.20
   1   4  -6   34.59    4.03
   1   4  -6   25.85    4.06
   1   4  -6   29.98    4.17
   1   4  -6   35.28    4.06
  -1  -4   6   28.86    4.26
  -1  -4   6   24.69    4.13
  -1  -4   6   31.17    4.51
  -1  -4   6   25.52    4.49
  -1  -4   6   27.12    3.72
   0   4  -6   19.50    2.81
   0   4  -6   11.13    2.66
   0   4  -6   18.69    2.75
   0   4  -6   17.59    2.73
   0   4  -6   21.94    2.87
   0  -4   6   17.69    2.59
   0  -4   6   14.37    2.70
   0  -4   6   18.15    2.77
   0  -4   6   13.21    2.70
  -1   4  -6   16.89    2.55
  -1   4  -6   21.71    3.05
  -1   4  -6   23.62    3.06
   1  -4   6   17.12    2.86
   1  -4   6   24.40    3.07
   1  -4   6   16.97    2.64
   1  -4   6   13.24    2.83
   1  -4   6   17.14    2.79
  -2   4  -6    0.79    1.49
  -2   4  -6   -0.38    0.86
  -2   4  -6    1.10    1.21
  -2   4  -6   -0.35    0.91
  -2   4  -6   -1.42    0.66
  -2   4  -6    0.14    1.04
  -2   4  -6   -0.90    0.91
   2  -4   6   -0.97    0.98
   2  -4   6    1.30    1.06
   2  -4   6    0.91    1.19
   2  -4   6    1.61    1.12
   2  -4   6   -0.87    1.32
  -3   4  -6   21.75    4.12
  -3   4  -6   23.56    4.30
  -3   4  -6   28.85    3.93
   3  -4   6   21.48    3.65
   3  -4   6   30.27    4.54
   3  -4   6   27.27    3.61
   3  -4   6   15.91    3.52
  -4   4  -6    2.02    2.41
  -4   4  -6    6.04    2.57
   4  -4   6    1.88    1.67
   4  -4   6    3.73    3.05
   4  -4   6    2.86    2.15
  -5   4  -6    0.21    2.84
   5  -4   6    8.15    3.99
   5   3  -6    4.13    3.68
  -5  -3   6   -0.11    3.98
  -5  -3   6   -5.29    4.30
   4   3  -6    0.91    1.28
   4   3  -6    0.65    1.89
  -4  -3   6    0.42    2.84
  -4  -3   6    0.84    2.74
  -4  -3   6   -0.90    3.52
   3   3  -6    1.39    1.34
   3   3  -6    1.40    1.55
   3   3  -6   -0.32    1.14
  -3  -3   6    4.14    2.06
  -3  -3   6    3.71    2.87
  -3  -3   6    1.44    1.99
   2   3  -6   26.33    4.11
   2   3  -6   29.55    3.92
   2   3  -6   27.20    3.88
   2   3  -6   34.06    4.00
   2   3  -6   32.42    3.83
  -2  -3   6   32.77    3.98
  -2  -3   6   26.53    3.70
  -2  -3   6   26.59    3.62
  -2  -3   6   27.94    4.90
  -2  -3   6   25.77    4.09
  -2  -3   6   31.42    4.45
   1   3  -6   11.39    1.91
   1   3  -6   12.79    1.94
   1   3  -6   12.82    1.96
   1   3  -6    9.58    1.99
   1   3  -6   10.41    1.92
  -1  -3   6    9.97    2.00
  -1  -3   6   15.84    2.24
  -1  -3   6    9.57    2.50
  -1  -3   6   13.48    2.09
  -1  -3   6   10.82    2.13
   0   3  -6   86.06    9.38
   0   3  -6   83.32    9.43
   0   3  -6   71.72    9.38
   0   3  -6   74.88    9.54
   0   3  -6   81.91    9.40
   0   3  -6   84.98    9.33
   0  -3   6   76.03    9.39
   0  -3   6   78.38    9.40
   0  -3   6   75.85    9.21
   0  -3   6   67.28    9.49
   0  -3   6   73.60    9.41
  -1   3  -6   66.31    7.53
  -1   3  -6   61.00    7.42
  -1   3  -6   58.34    7.39
  -1   3  -6   64.69    7.59
  -1   3  -6   57.01    7.53
   1  -3   6   61.46    7.55
   1  -3   6   67.94    7.56
   1  -3   6   53.64    7.49
   1  -3   6   59.06    7.45
   1  -3   6   68.05    7.68
  -2   3  -6    0.66    0.93
  -2   3  -6    0.96    0.90
  -2   3  -6   -0.03    0.65
  -2   3  -6    0.53    0.86
  -2   3  -6   -0.89    1.17
  -2   3  -6    1.30    1.35
   2  -3   6   -0.41    0.89
   2  -3   6    0.12    1.02
   2  -3   6    0.58    0.83
   2  -3   6    1.41    1.17
   2  -3   6    0.08    1.45
  -3   3  -6   -0.14    1.59
  -3   3  -6    3.12    1.52
  -3   3  -6   -1.05    1.64
   3  -3   6   -0.74    1.38
   3  -3   6    0.34    1.10
   3  -3   6    1.61    1.88
   3  -3   6   -1.80    1.41
  -4   3  -6    2.13    2.24
  -4   3  -6   -2.59    1.86
   4  -3   6   -0.56    1.32
   4  -3   6    1.09    2.68
   4  -3   6   -2.19    1.81
  -5   3  -6   -2.03    2.95
   5  -3   6    0.21    3.40
   5   2  -6   -3.10    3.51
  -5  -2   6    1.30    3.72
  -5  -2   6    0.11    4.78
   4   2  -6    6.17    2.46
  -4  -2   6   10.66    3.45
  -4  -2   6    8.47    3.73
   3   2  -6    0.70    1.07
   3   2  -6   -3.12    1.31
   3   2  -6   -0.59    0.98
   3   2  -6    0.89    0.81
  -3  -2   6    0.64    1.85
  -3  -2   6    0.35    1.73
  -3  -2   6    2.94    2.55
   2   2  -6    9.25    1.68
   2   2  -6    9.34    2.00
   2   2  -6    9.55    1.56
   2   2  -6    9.60    1.76
   2   2  -6    9.04    1.65
   2   2  -6   11.73    1.76
  -2  -2   6    8.64    1.75
  -2  -2   6    7.82    2.58
  -2  -2   6   10.54    2.10
   1   2  -6  104.32   12.81
   1   2  -6  121.40   12.75
   1   2  -6  118.80   12.76
   1   2  -6  127.20   12.72
   1   2  -6   99.10   12.57
  -1  -2   6  104.63   12.72
  -1  -2   6  109.26   12.70
  -1  -2   6   94.59   13.05
  -1  -2   6   97.85   12.71
  -1  -2   6   96.95   12.55
  -1  -2   6  109.51   12.78
   0   2  -6   32.25    4.34
   0   2  -6   37.75    4.60
   0   2  -6   33.27    4.47
   0   2  -6   38.71    4.51
   0   2  -6   36.94    4.61
   0   2  -6   38.51    4.71
   0   2  -6   40.45    4.42
   0   2  -6   38.63    4.57
   0  -2   6   35.95    4.56
   0  -2   6   35.13    4.59
   0  -2   6   32.57    4.53
   0  -2   6   37.68    4.56
   0  -2   6   36.05    4.38
   0  -2   6   33.31    4.59
   0  -2   6   36.84    4.70
   0  -2   6   36.82    4.47
  -1   2  -6   30.14    3.97
  -1   2  -6   34.74    4.08
  -1   2  -6   30.45    4.07
  -1   2  -6   28.30    4.10
  -1   2  -6   29.70    3.74
  -1   2  -6   35.82    4.05
  -1   2  -6   34.92    4.89
   1  -2   6   33.86    4.13
   1  -2   6   36.08    4.17
   1  -2   6   30.42    4.03
   1  -2   6   28.91    4.03
   1  -2   6   31.87    4.05
   1  -2   6   30.04    4.22
  -2   2  -6    1.22    0.75
  -2   2  -6    0.21    0.81
  -2   2  -6   -0.56    0.70
  -2   2  -6    1.15    1.40
  -2   2  -6   -0.08    0.55
  -2   2  -6    1.25    1.32
   2  -2   6   -1.38    0.96
   2  -2   6    1.82    0.89
   2  -2   6    0.79    1.06
   2  -2   6    0.33    0.76
   2  -2   6   -0.01    1.40
   2  -2   6    0.23    0.86
  -3   2  -6    7.37    2.25
  -3   2  -6    7.90    2.47
   3  -2   6    5.61    1.42
   3  -2   6    3.20    1.78
   3  -2   6    9.82    1.97
   3  -2   6    9.15    2.65
   3  -2   6    6.34    1.50
  -4   2  -6   -2.65    2.10
  -4   2  -6   -1.21    2.13
   4  -2   6    1.69    1.24
   4  -2   6    1.36    2.47
   4  -2   6    2.97    2.18
  -5   2  -6   -1.06    2.99
   5  -2   6   -1.54    3.13
   5  -2   6   -0.15    3.74
   5   1  -6    1.37    3.08
   5   1  -6    5.53    3.70
  -5  -1   6    1.35    4.54
  -5  -1   6    5.82    4.16
   4   1  -6    2.98    2.22
   4   1  -6    1.79    1.71
  -4  -1   6    1.19    2.71
  -4  -1   6    6.75    3.31
   3   1  -6    2.01    1.68
   3   1  -6    0.57    0.88
   3   1  -6    0.91    0.71
   3   1  -6    0.76    1.00
   3   1  -6    0.05    1.17
  -3  -1   6   -0.23    1.72
  -3  -1   6    1.03    1.97
   2   1  -6   64.70    6.75
   2   1  -6   55.70    6.79
   2   1  -6   51.78    6.72
   2   1  -6   53.67    6.97
   2   1  -6   57.26    6.85
   2   1  -6   61.93    6.67
  -2  -1   6   54.95    7.21
  -2  -1   6   44.81    6.63
  -2  -1   6   51.02    6.89
  -2  -1   6   55.25    7.11
   1   1  -6    1.61    0.92
   1   1  -6    1.55    0.55
   1   1  -6    3.01    1.02
   1   1  -6    1.66    0.75
   1   1  -6    2.10    0.77
   1   1  -6    2.63    0.91
   1   1  -6    1.31    0.65
  -1  -1   6    2.42    0.89
  -1  -1   6    3.14    1.10
  -1  -1   6    2.39    1.53
  -1  -1   6    1.38    0.77
  -1  -1   6    1.42    0.78
  -1  -1   6    1.76    0.74
   0   1  -6   31.98    4.27
   0   1  -6   34.71    4.33
   0   1  -6   33.77    4.40
   0   1  -6   34.55    4.40
   0   1  -6   38.70    4.53
   0   1  -6   41.16    4.63
   0   1  -6   36.00    4.48
   0   1  -6   37.66    4.53
   0  -1   6   34.61    4.45
   0  -1   6   41.81    4.60
   0  -1   6   38.30    4.51
   0  -1   6   32.60    4.44
   0  -1   6   34.88    4.47
   0  -1   6   33.36    4.50
   0  -1   6   37.53    4.33
  -1   1  -6   45.13    5.80
  -1   1  -6   40.88    5.43
  -1   1  -6   50.17    5.67
  -1   1  -6   34.87    5.27
  -1   1  -6   48.02    5.36
  -1   1  -6   40.65    5.24
   1  -1   6   43.20    5.29
   1  -1   6   43.03    5.32
   1  -1   6   39.99    5.65
   1  -1   6   48.80    5.72
   1  -1   6   46.48    5.32
   1  -1   6   39.07    5.28
   1  -1   6   40.78    5.55
  -2   1  -6   10.10    2.38
  -2   1  -6   11.62    2.09
  -2   1  -6   10.58    1.84
  -2   1  -6    8.95    1.53
  -2   1  -6   10.08    1.72
   2  -1   6   13.63    1.80
   2  -1   6   13.34    2.01
   2  -1   6   10.69    1.84
   2  -1   6    8.73    1.74
   2  -1   6   10.93    2.00
  -3   1  -6    6.89    2.26
  -3   1  -6   13.95    3.13
   3  -1   6    9.84    1.84
   3  -1   6   12.03    2.15
   3  -1   6    8.69    1.68
   3  -1   6    8.17    2.30
  -4   1  -6    2.45    2.43
  -4   1  -6    1.89    2.13
   4  -1   6    1.19    1.05
   4  -1   6   -0.50    2.27
   4  -1   6   -0.62    2.10
  -5   1  -6    7.04    3.67
   5  -1   6    3.01    3.33
   5  -1   6   -1.94    2.86
   5   0  -6    2.60    3.08
   5   0  -6   -3.92    2.97
  -5   0   6   -2.43    3.13
   4   0  -6    1.20    1.82
   4   0  -6    2.95    2.33
  -4   0   6   -0.63    2.56
  -4   0   6    1.91    2.86
   3   0  -6    3.03    0.93
   3   0  -6    2.19    0.73
   3   0  -6    2.17    1.24
   3   0  -6    1.79    1.04
   3   0  -6    1.18    1.53
  -3   0   6    1.27    2.21
  -3   0   6    0.26    1.79
  -3   0   6    1.20    1.87
   2   0  -6   42.75    4.89
   2   0  -6   34.74    4.90
   2   0  -6   35.63    4.87
   2   0  -6   35.54    4.72
   2   0  -6   35.80    5.27
   2   0  -6   44.97    4.83
   2   0  -6   40.24    5.04
   2   0  -6   43.00    4.93
  -2   0   6   42.27    5.37
  -2   0   6   33.79    5.00
  -2   0   6   43.20    5.29
  -2   0   6   36.80    4.78
   1   0  -6   -0.64    0.56
   1   0  -6    0.25    0.71
   1   0  -6    0.39    0.52
   1   0  -6   -1.22    0.51
   1   0  -6    0.49    0.79
   1   0  -6    0.64    0.98
  -1   0   6   -1.88    1.28
  -1   0   6    0.73    0.73
  -1   0   6    0.16    0.77
  -1   0   6    0.34    0.80
  -1   0   6   -0.10    0.43
  -1   0   6   -0.24    0.66
   0   0  -6  140.25   16.41
   0   0  -6  141.86   16.41
   0   0  -6  145.89   16.48
   0   0  -6  136.92   16.29
   0   0  -6  135.14   16.45
   0   0  -6  150.65   16.54
   0   0  -6  147.36   16.46
   0   0   6  132.65   16.29
   0   0   6  136.87   16.43
   0   0   6  131.85   16.46
   0   0   6  150.07   16.47
   0   0   6  143.59   16.41
   0   0   6  133.19   16.29
   0   0   6  135.40   16.42
   0   0   6  143.18   16.45
  -1   0  -6   55.01    6.76
  -1   0  -6   57.15    6.97
  -1   0  -6   57.85    6.77
  -1   0  -6   53.23    6.60
  -1   0  -6   49.32    6.51
  -1   0  -6   56.17    6.63
   1   0   6   52.29    6.58
   1   0   6   46.40    6.52
   1   0   6   54.08    6.56
   1   0   6   55.39    6.58
   1   0   6   55.39    6.71
   1   0   6   58.48    6.70
  -2   0  -6   24.70    3.32
  -2   0  -6   22.92    3.92
  -2   0  -6   21.59    3.26
  -2   0  -6   26.55    4.05
  -2   0  -6   25.16    3.14
   2   0   6   24.81    3.28
   2   0   6   18.75    3.17
   2   0   6   24.37    3.22
   2   0   6   24.32    3.34
   2   0   6   17.96    3.29
  -3   0  -6    5.77    1.87
  -3   0  -6    3.23    2.45
  -3   0  -6    4.08    2.27
   3   0   6    7.90    2.13
   3   0   6    5.54    1.39
   3   0   6    7.55    1.87
  -4   0  -6    1.21    2.69
  -4   0  -6    0.97    3.24
  -4   0  -6   -1.60    2.03
   4   0   6   -0.04    0.91
   4   0   6    0.53    2.43
  -5   0  -6    3.64    3.81
   5   0   6   -0.92    3.16
   5  -1  -6   -0.16    3.23
   5  -1  -6    0.46    2.98
  -5   1   6   -2.41    3.34
   4  -1  -6    2.90    1.99
   4  -1  -6    0.14    2.42
  -4   1   6    7.90    2.95
  -4   1   6    7.07    3.13
   3  -1  -6    1.15    1.27
   3  -1  -6   -0.43    1.04
   3  -1  -6    1.23    0.71
   3  -1  -6   -0.45    1.54
   3  -1  -6    0.78    0.85
  -3   1   6    2.59    1.94
  -3   1   6    2.23    1.89
   2  -1  -6   -0.77    0.73
   2  -1  -6   -0.02    0.75
   2  -1  -6   -1.06    1.06
   2  -1  -6   -0.31    0.68
   2  -1  -6    0.57    0.90
   2  -1  -6    0.08    0.87
  -2   1   6    1.14    1.35
  -2   1   6    0.58    1.21
   1  -1  -6   -0.15    0.79
   1  -1  -6    0.70    0.68
   1  -1  -6   -0.79    0.64
   1  -1  -6   -0.23    0.50
   1  -1  -6   -0.87    0.99
  -1   1   6    0.44    0.77
  -1   1   6   -0.21    1.01
  -1   1   6    1.81    1.01
  -1   1   6    0.27    0.73
  -1   1   6    0.15    0.68
  -1   1   6   -0.34    1.23
  -1   1   6    0.91    0.63
   0  -1  -6   95.52   12.91
   0  -1  -6  110.32   13.02
   0  -1  -6  111.84   13.03
   0  -1  -6  108.67   12.81
   0  -1  -6  101.75   12.98
   0   1   6  109.45   13.00
   0   1   6  107.86   12.90
   0   1   6  107.74   12.77
   0   1   6  123.38   13.01
   0   1   6  110.66   12.95
   0   1   6  107.06   12.86
   0   1   6  112.51   12.95
   0   1   6  119.57   12.96
  -1  -1  -6    1.36    1.03
  -1  -1  -6    2.36    1.28
  -1  -1  -6    2.67    1.26
  -1  -1  -6    2.56    1.11
  -1  -1  -6    1.92    0.95
  -1  -1  -6    4.25    1.50
  -1  -1  -6    3.81    0.78
   1   1   6    2.85    1.00
   1   1   6    1.50    0.81
   1   1   6    1.02    0.91
   1   1   6    2.02    0.96
   1   1   6    1.43    0.97
  -2  -1  -6   23.27    4.04
  -2  -1  -6   20.41    3.00
  -2  -1  -6   28.93    4.18
  -2  -1  -6   17.49    2.98
  -2  -1  -6   21.72    3.29
  -2  -1  -6   19.75    2.96
   2   1   6   26.54    3.30
   2   1   6   18.53    3.35
   2   1   6   24.68    3.13
   2   1   6   28.25    3.43
   2   1   6   24.12    3.37
   2   1   6   19.97    3.07
  -3  -1  -6   19.90    4.41
  -3  -1  -6   28.43    4.47
  -3  -1  -6   19.06    3.13
   3   1   6   17.49    2.91
   3   1   6   19.40    3.53
   3   1   6   20.29    3.26
  -4  -1  -6   -1.42    2.61
  -4  -1  -6    3.55    3.35
   4   1   6    4.63    2.67
   4   1   6    0.73    1.07
   5  -2  -6    5.66    3.45
  -5   2   6    1.05    3.50
  -5   2   6    5.45    3.59
   4  -2  -6    0.68    2.56
   4  -2  -6    0.18    1.89
  -4   2   6    2.50    2.44
  -4   2   6   -0.27    2.31
   3  -2  -6   -0.50    1.10
   3  -2  -6   -1.66    1.25
   3  -2  -6    0.78    0.98
   3  -2  -6    0.60    1.69
   3  -2  -6    0.62    0.84
  -3   2   6    1.00    1.67
  -3   2   6    1.83    1.86
   2  -2  -6   76.33    8.92
   2  -2  -6   75.28    8.90
   2  -2  -6   64.83    9.19
   2  -2  -6   86.28    9.04
   2  -2  -6   86.36    9.06
   2  -2  -6   55.84    8.93
  -2   2   6   71.31    8.86
  -2   2   6   73.81    9.01
  -2   2   6   75.59    8.71
  -2   2   6   73.22    8.87
  -2   2   6   72.50    9.16
  -2   2   6   75.71    9.31
  -2   2   6   74.57    8.79
   1  -2  -6    8.08    1.67
   1  -2  -6   11.62    2.08
   1  -2  -6    7.09    1.68
   1  -2  -6    7.37    1.55
   1  -2  -6   11.12    1.77
  -1   2   6    8.99    1.91
  -1   2   6    7.09    1.73
  -1   2   6   10.80    1.93
  -1   2   6    9.98    1.66
  -1   2   6    9.95    1.66
  -1   2   6    8.60    1.61
   0  -2  -6   28.38    4.10
   0  -2  -6   35.70    4.16
   0  -2  -6   29.94    3.88
   0  -2  -6   33.03    3.94
   0  -2  -6   33.54    4.39
   0   2   6   31.38    4.10
   0   2   6   30.03    3.99
   0   2   6   27.46    4.01
   0   2   6   31.16    4.04
   0   2   6   30.59    4.07
   0   2   6   33.01    4.01
  -1  -2  -6    7.97    1.90
  -1  -2  -6    6.48    1.85
  -1  -2  -6   11.82    2.30
  -1  -2  -6   12.90    2.30
  -1  -2  -6   13.30    2.44
   1   2   6   11.34    2.01
   1   2   6    9.84    1.86
   1   2   6   11.62    1.94
   1   2   6   12.05    1.73
   1   2   6   11.24    2.03
  -2  -2  -6   11.45    2.85
  -2  -2  -6   11.83    3.08
  -2  -2  -6    8.62    2.00
  -2  -2  -6   11.57    2.11
  -2  -2  -6   11.29    2.28
   2   2   6   14.20    2.22
   2   2   6   11.45    2.17
   2   2   6   14.28    2.05
   2   2   6   12.97    2.56
   2   2   6   13.51    2.29
  -3  -2  -6    3.02    2.76
  -3  -2  -6    2.24    2.46
   3   2   6    0.00    1.03
   3   2   6   -0.83    1.53
   3   2   6    1.12    1.97
  -4  -2  -6   -0.24    3.07
  -4  -2  -6    1.43    3.52
   4   2   6   -2.04    2.61
   5  -3  -6    0.56    3.30
  -5   3   6   -3.06    3.44
   4  -3  -6   -1.93    2.49
   4  -3  -6    3.03    2.23
   4  -3  -6    0.67    1.22
  -4   3   6    2.87    2.59
  -4   3   6    3.40    2.48
   3  -3  -6   14.90    2.52
   3  -3  -6    6.41    2.77
   3  -3  -6   15.22    2.34
   3  -3  -6   11.68    2.61
  -3   3   6   14.67    3.25
  -3   3   6    9.18    2.46
  -3   3   6   10.67    2.74
   2  -3  -6    1.19    1.46
   2  -3  -6    1.88    1.31
   2  -3  -6    3.03    1.27
   2  -3  -6    2.16    1.79
   2  -3  -6    3.20    1.36
   2  -3  -6    2.72    1.17
  -2   3   6    3.20    1.10
  -2   3   6    3.59    1.62
  -2   3   6    4.25    1.17
  -2   3   6    3.60    1.25
  -2   3   6    1.02    1.61
  -2   3   6    1.82    1.13
   1  -3  -6    3.13    1.23
   1  -3  -6    2.85    1.40
   1  -3  -6    2.28    1.10
   1  -3  -6    2.52    1.19
   1  -3  -6    0.65    1.26
  -1   3   6    2.28    1.07
  -1   3   6    2.81    1.33
  -1   3   6    0.54    0.99
  -1   3   6    0.42    1.29
  -1   3   6    1.20    1.19
  -1   3   6    1.80    1.02
   0  -3  -6  178.67   21.00
   0  -3  -6  168.47   21.20
   0  -3  -6  154.24   21.25
   0  -3  -6  185.55   21.34
   0  -3  -6  184.28   21.11
   0   3   6  182.73   21.22
   0   3   6  166.98   21.16
   0   3   6  193.04   21.23
   0   3   6  205.46   21.13
  -1  -3  -6   15.71    2.92
  -1  -3  -6   17.93    3.06
  -1  -3  -6   14.02    3.29
  -1  -3  -6   17.39    3.21
  -1  -3  -6   19.02    3.08
   1   3   6   21.62    2.95
   1   3   6   18.89    2.90
   1   3   6   17.44    2.95
   1   3   6   21.03    2.62
  -2  -3  -6    6.07    1.82
  -2  -3  -6    6.60    2.58
  -2  -3  -6    4.77    1.85
  -2  -3  -6    7.98    2.72
   2   3   6    7.61    2.00
   2   3   6    6.97    1.27
   2   3   6    9.68    1.84
   2   3   6    9.95    2.23
   2   3   6    6.30    1.71
  -3  -3  -6    3.05    2.89
  -3  -3  -6    5.18    3.22
   3   3   6    1.73    2.04
   3   3   6    3.45    1.98
   3   3   6    1.26    1.32
  -4  -3  -6   -3.29    3.12
  -4  -3  -6    1.19    3.54
   4   3   6   -1.16    1.21
   4   3   6    0.22    2.81
   4  -4  -6   -2.19    2.35
   4  -4  -6    1.09    1.37
   4  -4  -6   -0.15    2.52
  -4   4   6    0.65    2.50
  -4   4   6   -0.87    2.41
   3  -4  -6    1.75    1.40
   3  -4  -6    2.83    2.18
   3  -4  -6    0.29    1.87
   3  -4  -6   -0.17    1.69
  -3   4   6   -1.73    1.38
  -3   4   6   -2.30    1.53
  -3   4   6   -3.97    1.63
   2  -4  -6    3.36    1.40
   2  -4  -6    2.77    1.65
   2  -4  -6    1.84    1.80
   2  -4  -6    3.81    1.94
   2  -4  -6    2.80    1.54
   2  -4  -6    4.93    1.60
  -2   4   6    2.42    1.29
  -2   4   6    6.52    1.99
  -2   4   6    4.22    1.58
  -2   4   6    3.99    1.08
  -2   4   6    8.40    1.42
  -2   4   6    0.04    1.22
   1  -4  -6   10.83    2.63
   1  -4  -6   13.82    2.50
   1  -4  -6   13.08    2.79
   1  -4  -6   10.17    2.47
  -1   4   6   14.60    2.41
  -1   4   6   10.98    2.22
  -1   4   6   17.18    2.48
  -1   4   6   11.59    1.92
  -1   4   6   13.21    2.49
  -1   4   6   14.31    2.61
   0  -4  -6   23.78    4.20
   0  -4  -6   35.43    4.39
   0  -4  -6   23.17    4.34
   0  -4  -6   30.05    4.23
   0  -4  -6   29.13    3.79
   0  -4  -6   29.51    4.47
   0   4   6   36.09    4.36
   0   4   6   27.70    3.74
   0   4   6   32.95    4.09
   0   4   6   27.48    4.04
  -1  -4  -6    0.93    1.59
  -1  -4  -6    0.11    1.44
  -1  -4  -6    2.88    1.67
  -1  -4  -6    0.07    1.59
   1   4   6    2.37    1.41
   1   4   6    1.90    0.75
   1   4   6    0.91    1.13
   1   4   6    1.31    1.19
  -2  -4  -6   32.03    5.61
  -2  -4  -6   35.33    4.69
  -2  -4  -6   43.44    5.97
  -2  -4  -6   24.32    4.55
   2   4   6   26.12    4.72
   2   4   6   28.61    4.49
   2   4   6   37.82    4.85
  -3  -4  -6    0.00    3.17
  -3  -4  -6    0.63    3.42
   3   4   6    2.09    2.35
   3   4   6    3.62    1.58
   3   4   6    5.67    2.42
  -4  -4  -6   -2.03    3.57
  -4  -4  -6   -0.50    3.90
   4   4   6    1.14    3.16
   4   4   6    1.03    1.38
   4  -5  -6    1.86    4.51
   4  -5  -6   -1.85    2.85
   4  -5  -6   -2.04    1.55
  -4   5   6   -0.99    2.33
  -4   5   6    1.16    2.67
   3  -5  -6    2.19    2.29
   3  -5  -6    0.60    2.41
   3  -5  -6   -0.34    1.59
   3  -5  -6    0.74    1.91
  -3   5   6    0.23    2.09
  -3   5   6   -1.99    1.66
   2  -5  -6   13.28    3.41
   2  -5  -6   19.61    3.55
   2  -5  -6   17.79    3.32
   2  -5  -6   15.04    3.64
  -2   5   6   19.18    3.63
  -2   5   6   24.06    3.24
  -2   5   6   22.06    3.08
  -2   5   6   19.28    3.36
   1  -5  -6    0.96    1.76
   1  -5  -6    1.10    1.43
   1  -5  -6   -0.22    1.88
   1  -5  -6    1.93    1.72
  -1   5   6   -0.24    1.11
  -1   5   6   -0.43    1.24
  -1   5   6   -1.19    1.34
  -1   5   6    0.33    1.00
  -1   5   6   -1.39    1.36
   0  -5  -6    2.12    1.72
   0  -5  -6    2.96    1.62
   0  -5  -6    0.69    1.91
   0  -5  -6   -0.17    1.53
   0  -5  -6   -1.00    1.02
   0  -5  -6   -0.91    1.36
   0   5   6    1.46    0.78
   0   5   6    0.43    1.23
   0   5   6   -0.74    1.09
   0   5   6   -0.78    0.69
   0   5   6   -0.93    0.95
  -1  -5  -6    5.28    1.90
  -1  -5  -6    2.67    1.97
  -1  -5  -6    4.49    2.43
  -1  -5  -6    5.26    2.15
   1   5   6    4.75    1.78
   1   5   6    6.22    1.77
   1   5   6    3.88    1.53
  -2  -5  -6    4.43    2.18
  -2  -5  -6    6.46    3.13
  -2  -5  -6    2.04    2.06
  -2  -5  -6    1.46    2.60
   2   5   6    5.16    1.92
   2   5   6    4.86    1.96
   2   5   6    9.34    2.49
  -3  -5  -6   -2.14    3.24
  -3  -5  -6   -4.80    2.95
   3   5   6    3.50    2.53
   3   5   6    1.40    1.65
   3   5   6   -1.81    2.13
  -4  -5  -6    6.72    4.93
  -4  -5  -6   -2.74    4.57
   4   5   6   -0.54    3.09
   4   5   6   -0.20    1.53
   4  -6  -6    0.98    2.96
  -4   6   6   -5.04    2.67
  -4   6   6    2.54    2.66
   3  -6  -6    8.51    2.48
   3  -6  -6    2.61    2.75
   3  -6  -6    4.40    2.59
   3  -6  -6    5.64    2.91
  -3   6   6    7.81    2.98
  -3   6   6   10.32    2.76
   2  -6  -6    1.71    1.76
   2  -6  -6   -0.24    2.05
   2  -6  -6    0.54    2.39
   2  -6  -6   -1.18    1.83
  -2   6   6    2.30    1.74
  -2   6   6    1.75    1.58
  -2   6   6   -0.88    1.44
  -2   6   6   -0.23    1.94
   1  -6  -6    0.42    2.02
   1  -6  -6    2.00    2.09
   1  -6  -6    3.69    2.61
   1  -6  -6    1.60    1.71
  -1   6   6    2.83    1.81
  -1   6   6    3.82    1.48
  -1   6   6    2.35    1.97
  -1   6   6    3.55    1.52
  -1   6   6    1.77    1.86
   0  -6  -6   67.28    9.46
   0  -6  -6   74.96   10.24
   0  -6  -6   71.05    9.16
   0  -6  -6   80.51    9.36
   0  -6  -6   61.06    9.21
   0   6   6   75.70    8.62
   0   6   6   68.30    8.94
   0   6   6   69.28    9.03
   0   6   6   73.36    9.06
  -1  -6  -6    0.96    1.88
  -1  -6  -6    0.62    2.48
  -1  -6  -6   -3.13    1.75
  -1  -6  -6    1.34    2.23
   1   6   6   -0.45    1.64
   1   6   6    0.51    1.51
   1   6   6    1.92    1.33
  -2  -6  -6   -1.39    2.05
  -2  -6  -6   -1.34    2.06
  -2  -6  -6   -3.02    2.93
  -2  -6  -6    2.72    3.36
   2   6   6   -0.18    1.92
   2   6   6   -1.52    1.27
   2   6   6   -0.50    1.80
  -3  -6  -6    4.46    4.20
  -3  -6  -6   -0.77    3.89
   3   6   6    2.28    2.66
   3   6   6    2.09    2.73
   3   6   6    2.42    1.92
   4  -7  -6    0.89    2.35
   4  -7  -6   -0.16    3.27
  -4   7   6   -1.88    2.98
  -4   7   6    2.48    2.80
   3  -7  -6   -2.66    2.80
   3  -7  -6    3.56    2.80
   3  -7  -6   -1.17    3.12
   3  -7  -6   -2.11    1.93
  -3   7   6   -0.01    2.42
  -3   7   6   -1.69    1.83
   2  -7  -6    1.96    2.11
   2  -7  -6    2.61    2.69
   2  -7  -6    2.55    2.64
   2  -7  -6   10.02    3.53
  -2   7   6    1.91    2.40
  -2   7   6    3.70    1.73
  -2   7   6    3.18    1.98
  -2   7   6    3.17    1.84
   1  -7  -6    2.88    2.07
   1  -7  -6    5.68    3.10
   1  -7  -6    6.16    2.76
   1  -7  -6    2.64    2.46
  -1   7   6    7.38    2.33
  -1   7   6    4.97    1.79
  -1   7   6    6.45    1.82
  -1   7   6    1.40    2.07
  -1   7   6    3.50    2.41
   0  -7  -6    8.79    2.99
   0  -7  -6   11.66    3.52
   0  -7  -6    3.39    2.90
   0  -7  -6   11.86    4.10
   0  -7  -6   10.03    2.91
   0   7   6   15.89    2.98
   0   7   6   11.98    2.69
   0   7   6   17.76    2.34
   0   7   6   12.58    2.85
  -1  -7  -6   -1.50    2.01
  -1  -7  -6   -1.63    2.70
  -1  -7  -6   -2.26    2.46
   1   7   6   -0.32    1.61
   1   7   6    1.80    2.05
   1   7   6    1.14    1.49
  -2  -7  -6   13.03    3.82
  -2  -7  -6    7.85    3.49
  -2  -7  -6   15.28    5.58
  -2  -7  -6    8.56    4.15
   2   7   6   14.71    3.06
   2   7   6   13.73    3.39
   2   7   6   16.94    3.45
  -3  -7  -6    4.46    4.64
  -3  -7  -6    2.04    4.58
   3   7   6   -1.08    2.85
   3   7   6   -0.68    2.78
   3   7   6   -0.92    1.86
   3  -8  -6    0.18    2.47
   3  -8  -6    0.54    3.72
   3  -8  -6   -0.61    2.89
   3  -8  -6    1.81    3.24
  -3   8   6    1.61    2.29
  -3   8   6   -1.89    2.68
   2  -8  -6   -2.74    2.76
   2  -8  -6   -2.24    2.30
   2  -8  -6   -0.81    2.11
   2  -8  -6   -0.29    3.34
  -2   8   6   -0.38    2.47
  -2   8   6    1.68    1.67
  -2   8   6   -3.08    2.07
  -2   8   6    2.17    2.29
   1  -8  -6   -3.30    2.75
   1  -8  -6    1.10    2.05
   1  -8  -6   -4.01    2.31
   1  -8  -6    0.87    3.03
   1  -8  -6    0.50    2.76
  -1   8   6   -1.08    2.15
  -1   8   6    0.02    2.24
  -1   8   6   -3.37    1.85
  -1   8   6    0.96    1.51
  -1   8   6    2.34    1.80
   0  -8  -6    7.41    3.96
   0  -8  -6    8.49    3.56
   0  -8  -6    5.44    2.60
   0  -8  -6    0.00    2.25
   0  -8  -6    2.85    2.97
   0   8   6    6.52    2.33
   0   8   6    2.42    1.82
   0   8   6    0.63    2.04
  -1  -8  -6    4.27    3.34
  -1  -8  -6    2.32    2.63
  -1  -8  -6    3.74    3.64
   1   8   6    3.94    2.31
   1   8   6    2.28    1.82
   1   8   6    8.56    2.58
  -2  -8  -6   -1.24    4.92
  -2  -8  -6   -1.12    3.04
  -2  -8  -6   -0.42    3.92
   2   8   6    2.36    2.50
   2   8   6   -0.35    1.65
   2   8   6    0.97    2.24
  -3  -8  -6   -0.69    5.14
  -3  -8  -6   -4.73    5.05
   3   8   6   -1.23    2.96
   3   8   6    1.99    3.43
   3   8   6   -0.49    2.18
   3  -9  -6   -3.27    3.20
   3  -9  -6    1.96    3.57
   3  -9  -6    0.72    4.01
   3  -9  -6   -0.39    2.69
  -3   9   6    1.15    2.29
  -3   9   6   -3.04    2.63
   2  -9  -6    0.33    2.37
   2  -9  -6    0.26    3.36
   2  -9  -6    1.17    3.23
   2  -9  -6    3.92    4.03
  -2   9   6    3.28    2.83
  -2   9   6    0.86    1.89
  -2   9   6    2.19    2.77
   1  -9  -6    4.32    3.60
   1  -9  -6    3.86    2.49
   1  -9  -6    4.08    3.07
   1  -9  -6    3.81    3.62
   1  -9  -6    2.90    3.65
  -1   9   6    2.32    2.78
  -1   9   6   -0.04    1.80
  -1   9   6    1.22    1.79
  -1   9   6   -2.53    2.57
   0  -9  -6    6.88    4.09
   0  -9  -6   -0.40    2.36
   0  -9  -6   -0.48    3.91
   0  -9  -6    5.53    3.60
   0   9   6    0.55    2.13
   0   9   6    5.42    2.08
   0   9   6    7.25    3.00
  -1  -9  -6    1.70    3.90
  -1  -9  -6    2.52    4.34
  -1  -9  -6    0.88    2.82
   1   9   6   -2.46    2.25
   1   9   6   -1.03    1.77
   1   9   6   -0.05    2.30
  -2  -9  -6   -4.26    5.66
  -2  -9  -6    5.18    5.03
  -2  -9  -6    0.89    3.65
   2   9   6    0.84    2.69
   2   9   6    0.39    2.60
   2   9   6    3.06    2.23
   2 -10  -6   -0.95    2.44
   2 -10  -6    1.82    3.93
   2 -10  -6    2.87    3.51
   2 -10  -6    2.05    4.47
  -2  10   6    2.75    3.54
  -2  10   6   -0.81    3.15
  -2  10   6   -0.49    2.08
   1 -10  -6   -0.18    4.24
   1 -10  -6   -2.30    3.39
   1 -10  -6   -2.46    2.14
  -1  10   6    4.91    3.18
  -1  10   6    1.33    2.02
  -1  10   6    2.85    3.25
   0 -10  -6    1.22    2.82
   0 -10  -6   -5.54    3.43
   0 -10  -6   -1.93    4.48
   0 -10  -6    8.20    4.67
   0  10   6    3.59    2.33
   0  10   6    4.63    3.11
  -1 -10  -6    1.45    4.80
  -1 -10  -6   -1.97    4.16
  -1 -10  -6    0.14    2.99
   1  10   6   -2.51    1.88
   1  10   6   -2.04    2.68
   1  10   6   -1.10    2.68
   1 -11  -6    1.36    5.10
   1 -11  -6    2.62    4.24
   1 -11  -6   -2.81    2.43
  -1  11   6    0.80    3.72
  -1  11   6   -2.33    2.03
  -1  11   6   -1.83    3.31
   0 -11  -6   -6.44    3.77
   0 -11  -6    6.43    3.83
   0 -11  -6   -3.12    4.48
   0  11   6    2.02    2.47
   0  11   6   -2.38    3.36
   0  11   6    1.74    3.36
   1  12  -7    4.45    2.37
   1  12  -7    0.80    2.40
   1  12  -7    1.45    2.26
  -1 -12   7    2.21    3.82
  -1 -12   7    0.28    3.11
  -1 -12   7   -2.56    5.32
  -1 -12   7    9.12    5.24
   0  12  -7    1.02    2.34
   0  12  -7   -0.51    1.63
   0  12  -7    1.12    2.10
   0 -12   7   -0.25    4.80
   0 -12   7    2.25    2.88
   0 -12   7    3.46    3.42
  -1  12  -7    1.17    1.91
  -1  12  -7    3.97    2.60
   1 -12   7    1.07    2.24
   1 -12   7   -0.60    3.69
   1 -12   7    0.65    3.19
  -2  12  -7    3.80    3.50
  -2  12  -7    0.99    3.67
  -2  12  -7    3.31    3.48
   2 -12   7   -1.32    4.03
   2 -12   7   -0.02    3.31
   2 -12   7   -0.70    2.17
   2  11  -7   -0.81    2.26
   2  11  -7    2.17    2.56
   2  11  -7    0.90    1.97
  -2 -11   7   -0.89    4.70
  -2 -11   7    5.12    3.92
  -2 -11   7    1.18    6.01
   1  11  -7   -1.05    2.06
   1  11  -7   -0.68    1.71
   1  11  -7   -1.85    1.81
  -1 -11   7    0.88    4.98
  -1 -11   7    4.21    3.41
  -1 -11   7   -5.58    4.16
  -1 -11   7   -1.09    3.66
  -1 -11   7    1.45    2.63
   0  11  -7    2.42    2.06
   0  11  -7    1.58    1.76
   0  11  -7    3.67    2.38
   0 -11   7   -7.76    3.60
   0 -11   7    0.02    2.90
   0 -11   7    0.73    2.32
  -1  11  -7   -0.72    1.59
  -1  11  -7   -3.07    2.38
  -1  11  -7    0.97    2.09
   1 -11   7    0.26    2.22
   1 -11   7   -0.42    2.93
   1 -11   7   -1.08    3.74
  -2  11  -7   -2.13    2.74
  -2  11  -7   -2.84    3.51
  -2  11  -7    6.46    3.19
   2 -11   7    0.11    2.91
   2 -11   7   -2.82    2.92
   2 -11   7    0.54    2.25
  -3  11  -7   -2.53    3.34
  -3  11  -7   -4.63    3.92
   3 -11   7    3.99    3.32
   3 -11   7   -2.26    2.47
   3 -11   7    3.46    3.99
   3  10  -7    0.99    2.88
  -3 -10   7    2.10    5.00
  -3 -10   7   -6.95    5.58
   2  10  -7   -1.98    2.06
   2  10  -7   -1.98    1.99
   2  10  -7   -1.41    1.66
  -2 -10   7   -6.00    4.82
  -2 -10   7   -0.50    4.23
  -2 -10   7    4.06    3.52
   1  10  -7    4.00    2.19
   1  10  -7    4.40    1.95
   1  10  -7    3.70    2.21
  -1 -10   7    2.86    4.52
  -1 -10   7    2.31    2.36
  -1 -10   7    6.92    3.25
  -1 -10   7    7.11    3.67
   0  10  -7    7.03    2.15
   0  10  -7    4.65    2.11
   0  10  -7    5.12    2.47
   0 -10   7    5.74    2.59
   0 -10   7    3.45    3.07
   0 -10   7    7.31    2.96
   0 -10   7    3.51    3.43
  -1  10  -7    0.29    1.50
  -1  10  -7   -1.37    2.34
  -1  10  -7    3.37    2.04
   1 -10   7    0.21    2.58
   1 -10   7    2.42    3.00
   1 -10   7   -1.18    3.07
   1 -10   7    0.03    2.38
  -2  10  -7   -8.52    2.61
  -2  10  -7    0.14    2.33
  -2  10  -7    1.37    2.74
   2 -10   7    6.35    3.05
   2 -10   7    3.57    2.66
   2 -10   7    1.50    2.87
  -3  10  -7    2.66    3.63
  -3  10  -7    1.80    3.18
   3 -10   7    3.10    3.10
   3 -10   7   -4.13    3.19
   3 -10   7    1.07    2.47
   3   9  -7    5.39    2.97
   3   9  -7    0.40    1.90
   3   9  -7    0.64    2.61
  -3  -9   7   -0.84    5.18
  -3  -9   7    0.66    4.92
   2   9  -7    0.14    1.98
   2   9  -7    3.36    2.00
  -2  -9   7    2.73    3.47
  -2  -9   7   -3.46    2.80
  -2  -9   7   -2.45    4.02
   1   9  -7    8.61    2.46
   1   9  -7   11.91    2.90
  -1  -9   7   14.33    5.18
  -1  -9   7   14.76    4.06
  -1  -9   7   15.52    3.62
  -1  -9   7    8.97    3.27
   0   9  -7   -0.57    1.21
   0   9  -7   -0.76    1.51
   0  -9   7    0.96    2.06
   0  -9   7   -2.72    2.85
   0  -9   7    2.78    2.47
   0  -9   7   -0.52    2.40
  -1   9  -7    5.39    1.99
  -1   9  -7    2.66    2.32
  -1   9  -7    3.10    1.98
   1  -9   7    6.54    2.69
   1  -9   7    4.70    2.65
   1  -9   7    4.59    3.06
   1  -9   7    9.95    3.13
  -2   9  -7   11.15    3.69
  -2   9  -7   13.74    3.57
  -2   9  -7   12.79    2.82
   2  -9   7    2.12    3.25
   2  -9   7    5.79    2.70
   2  -9   7    9.88    3.24
  -3   9  -7    1.84    2.79
  -3   9  -7    0.67    2.73
   3  -9   7   -3.83    2.20
   3  -9   7    2.57    2.84
   3  -9   7   -4.97    2.90
   4  -9   7    0.28    3.89
   4  -9   7    1.85    2.79
   3   8  -7    5.28    2.24
   3   8  -7    5.98    2.96
   3   8  -7    3.99    2.58
  -3  -8   7    8.21    4.78
  -3  -8   7    2.61    3.84
   2   8  -7   -0.22    1.81
   2   8  -7    2.04    1.64
  -2  -8   7   -0.49    2.49
  -2  -8   7   -0.31    2.93
  -2  -8   7   -4.82    3.68
  -2  -8   7    5.27    2.83
   1   8  -7   -2.79    1.37
   1   8  -7   -0.66    1.33
  -1  -8   7   -0.15    2.11
  -1  -8   7   -0.72    2.10
  -1  -8   7   -2.00    2.55
  -1  -8   7    2.46    3.36
   0   8  -7    5.04    2.08
   0   8  -7   10.99    2.34
   0  -8   7   10.68    2.65
   0  -8   7    7.85    2.55
   0  -8   7    6.00    3.24
   0  -8   7   10.64    2.96
  -1   8  -7   11.29    2.62
  -1   8  -7   12.87    2.82
  -1   8  -7   16.11    3.40
   1  -8   7    6.85    3.26
   1  -8   7   11.37    3.02
   1  -8   7   15.94    3.28
  -2   8  -7    3.51    2.52
  -2   8  -7    0.92    2.43
  -2   8  -7    0.75    1.68
  -2   8  -7    1.38    1.83
   2  -8   7   -3.01    2.12
   2  -8   7    0.29    1.97
   2  -8   7    4.07    2.33
  -3   8  -7   -2.44    2.51
  -3   8  -7   -0.47    2.20
   3  -8   7   -1.02    2.36
   3  -8   7    4.29    3.17
   3  -8   7   -1.15    2.06
  -4   8  -7    6.30    3.64
   4  -8   7    2.58    2.77
   4  -8   7    2.45    3.63
   4   7  -7   -0.36    3.08
   4   7  -7    3.13    2.16
  -4  -7   7   -2.00    4.54
  -4  -7   7   -5.04    4.28
   3   7  -7    4.28    2.09
   3   7  -7    6.13    2.45
  -3  -7   7   12.22    4.58
  -3  -7   7    5.56    3.86
   2   7  -7   -1.39    1.55
   2   7  -7    0.05    1.42
   2   7  -7    0.15    1.48
  -2  -7   7    0.52    2.75
  -2  -7   7    2.09    2.38
  -2  -7   7   -0.50    3.26
  -2  -7   7   -2.42    2.09
  -2  -7   7    2.24    2.18
   1   7  -7   17.31    3.57
   1   7  -7   27.54    3.99
   1   7  -7   28.44    4.08
  -1  -7   7   15.59    4.86
  -1  -7   7   24.60    4.34
  -1  -7   7   22.16    4.39
  -1  -7   7   18.64    3.94
   0   7  -7   12.26    2.52
   0   7  -7   12.65    2.62
   0  -7   7    8.75    2.64
   0  -7   7   16.51    3.11
   0  -7   7   10.66    3.22
   0  -7   7   14.61    3.28
  -1   7  -7    0.36    1.39
  -1   7  -7    1.06    1.28
  -1   7  -7    2.49    2.15
  -1   7  -7   -1.04    1.40
   1  -7   7   -0.06    2.07
   1  -7   7    0.97    1.80
   1  -7   7   -0.40    1.62
  -2   7  -7    6.26    2.06
  -2   7  -7    5.19    2.32
  -2   7  -7    3.73    1.84
  -2   7  -7    7.03    2.78
   2  -7   7    3.87    2.13
   2  -7   7    5.25    2.40
   2  -7   7    3.49    2.64
  -3   7  -7    2.30    2.23
  -3   7  -7   -0.30    2.43
   3  -7   7    0.87    2.03
   3  -7   7    0.53    2.20
   3  -7   7   -1.89    2.63
  -4   7  -7    4.72    3.28
   4  -7   7   -4.83    3.03
   4  -7   7    1.92    2.45
   4   6  -7    0.59    1.59
   4   6  -7   -6.11    2.63
  -4  -6   7    1.93    3.65
  -4  -6   7   -0.33    4.07
   3   6  -7    8.13    2.45
   3   6  -7    5.47    2.02
  -3  -6   7    9.22    3.66
  -3  -6   7    8.28    3.64
   2   6  -7    0.54    1.31
   2   6  -7   -1.68    1.37
   2   6  -7   -1.31    1.10
  -2  -6   7    0.28    1.85
  -2  -6   7    2.51    2.54
  -2  -6   7   -0.70    1.99
  -2  -6   7    0.43    1.87
  -2  -6   7    1.62    2.62
   1   6  -7   73.61    8.51
   1   6  -7   72.16    8.49
   1   6  -7   74.63    8.58
  -1  -6   7   63.93    8.69
  -1  -6   7   69.13    8.65
  -1  -6   7   59.19    8.62
  -1  -6   7   43.60    8.99
   0   6  -7    2.38    1.39
   0   6  -7    6.33    1.78
   0  -6   7    1.34    1.67
   0  -6   7    3.71    2.04
   0  -6   7    2.02    1.77
  -1   6  -7    7.21    1.68
  -1   6  -7    6.36    1.94
  -1   6  -7    8.00    2.42
  -1   6  -7   15.32    2.43
   1  -6   7    6.23    2.01
   1  -6   7    7.18    2.08
   1  -6   7   10.00    2.67
  -2   6  -7   11.89    2.50
  -2   6  -7   18.04    2.98
  -2   6  -7   15.64    3.40
  -2   6  -7   17.34    3.01
   2  -6   7   10.21    2.71
   2  -6   7   15.21    3.47
   2  -6   7   11.08    2.70
  -3   6  -7    3.93    2.06
  -3   6  -7    0.78    2.31
   3  -6   7    0.43    1.89
   3  -6   7    0.04    2.23
   3  -6   7    0.75    1.79
  -4   6  -7   -1.48    2.61
   4  -6   7    1.14    2.18
   4  -6   7    3.36    3.40
   4   5  -7   -0.73    1.46
  -4  -5   7    5.01    4.18
  -4  -5   7   -1.48    3.20
   3   5  -7    0.48    1.41
   3   5  -7    2.27    1.84
   3   5  -7    2.83    1.54
  -3  -5   7    4.97    2.37
  -3  -5   7    1.87    2.57
  -3  -5   7   -1.29    2.99
   2   5  -7    0.40    1.26
   2   5  -7    0.43    1.14
   2   5  -7    1.39    1.30
   2   5  -7    0.25    1.39
  -2  -5   7    1.38    1.55
  -2  -5   7   -0.82    1.49
  -2  -5   7   -1.40    1.56
  -2  -5   7    1.29    2.31
  -2  -5   7    2.50    2.26
  -2  -5   7   -2.89    1.58
   1   5  -7   31.17    4.09
   1   5  -7   28.50    3.98
   1   5  -7   31.26    4.05
  -1  -5   7   21.93    3.86
  -1  -5   7   21.21    4.28
  -1  -5   7   18.15    4.21
  -1  -5   7   27.13    4.06
   0   5  -7    1.27    1.15
   0   5  -7    0.61    0.95
   0   5  -7    1.67    1.27
   0  -5   7    0.60    1.28
   0  -5   7   -0.89    1.12
   0  -5   7    0.13    1.39
   0  -5   7    1.82    1.42
  -1   5  -7   35.73    5.04
  -1   5  -7   45.75    5.33
  -1   5  -7   38.68    5.50
   1  -5   7   41.56    5.44
   1  -5   7   47.55    5.68
   1  -5   7   32.82    5.38
  -2   5  -7   -0.70    0.98
  -2   5  -7   -0.42    1.23
  -2   5  -7   -2.37    1.58
  -2   5  -7   -1.74    1.10
  -2   5  -7   -1.20    1.16
   2  -5   7    1.25    1.62
   2  -5   7    1.30    1.78
   2  -5   7    0.51    1.18
   2  -5   7   -1.67    1.13
   2  -5   7    0.42    1.41
  -3   5  -7    5.95    2.04
  -3   5  -7   -0.11    2.11
   3  -5   7    1.87    1.90
   3  -5   7    3.17    1.74
   3  -5   7    2.37    1.58
   3  -5   7    3.13    2.57
  -4   5  -7    1.52    2.81
   4  -5   7    9.83    2.57
   4  -5   7   10.20    3.72
   4   4  -7    0.48    1.39
  -4  -4   7   -0.50    3.02
  -4  -4   7    2.30    3.48
   3   4  -7    2.99    1.66
   3   4  -7   -1.28    1.16
   3   4  -7    0.38    1.45
  -3  -4   7    2.96    2.41
  -3  -4   7    4.65    2.90
  -3  -4   7    0.65    1.87
   2   4  -7   -0.62    0.98
   2   4  -7    1.05    1.03
   2   4  -7    1.26    1.27
   2   4  -7    1.83    1.24
  -2  -4   7   -1.72    1.34
  -2  -4   7    2.12    1.27
  -2  -4   7    1.14    1.33
  -2  -4   7    1.70    1.19
  -2  -4   7    1.76    1.76
  -2  -4   7   -0.51    2.14
   1   4  -7   59.31    6.32
   1   4  -7   42.64    6.20
   1   4  -7   57.47    6.30
   1   4  -7   48.49    6.21
   1   4  -7   46.11    6.27
  -1  -4   7   49.88    6.50
  -1  -4   7   48.39    7.03
  -1  -4   7   47.72    6.39
  -1  -4   7   41.63    6.30
   0   4  -7    6.71    1.85
   0   4  -7   10.24    2.03
   0   4  -7    7.52    1.54
   0   4  -7    6.25    1.54
   0  -4   7    5.04    1.37
   0  -4   7    4.67    1.53
   0  -4   7    5.57    1.61
   0  -4   7    3.15    1.53
  -1   4  -7   31.89    4.04
  -1   4  -7   30.99    3.93
  -1   4  -7   36.05    4.37
   1  -4   7   33.67    4.29
   1  -4   7   28.77    3.94
   1  -4   7   20.18    3.95
   1  -4   7   29.83    4.28
  -2   4  -7    2.46    1.04
  -2   4  -7    1.54    1.21
  -2   4  -7    2.99    1.90
  -2   4  -7    2.09    1.47
  -2   4  -7    2.97    1.20
  -2   4  -7    3.55    1.36
   2  -4   7    4.37    1.42
   2  -4   7    2.41    1.87
   2  -4   7    4.40    1.41
   2  -4   7    2.25    1.39
   2  -4   7    3.34    1.50
  -3   4  -7    3.51    1.68
  -3   4  -7    2.86    1.89
  -3   4  -7    0.91    2.00
   3  -4   7    1.48    1.66
   3  -4   7    5.77    2.50
   3  -4   7    1.87    1.40
   3  -4   7    0.53    1.56
  -4   4  -7    1.13    2.30
  -4   4  -7    3.55    2.41
   4  -4   7   -3.22    2.43
   4  -4   7   -2.43    2.15
   4  -4   7   -0.31    1.65
   5   3  -7   -4.75    3.57
   4   3  -7   -0.99    1.97
   4   3  -7   -0.76    1.10
  -4  -3   7   -0.84    2.58
  -4  -3   7    1.75    3.40
   3   3  -7    7.97    2.51
   3   3  -7   15.91    2.58
   3   3  -7   14.80    2.50
  -3  -3   7   11.99    2.88
  -3  -3   7   17.76    4.22
  -3  -3   7   24.05    3.87
   2   3  -7   19.51    2.55
   2   3  -7   18.16    2.86
   2   3  -7   15.65    2.57
   2   3  -7   14.86    2.41
   2   3  -7   15.87    2.59
  -2  -3   7   13.04    2.23
  -2  -3   7   12.73    3.26
  -2  -3   7   18.72    2.50
  -2  -3   7   15.73    2.95
  -2  -3   7   14.21    2.45
  -2  -3   7   16.40    2.77
   1   3  -7   83.01   10.11
   1   3  -7   85.01   10.24
   1   3  -7   84.92   10.32
   1   3  -7   94.14   10.20
   1   3  -7   89.95   10.24
  -1  -3   7   78.71   10.25
  -1  -3   7   86.18   10.22
  -1  -3   7   78.76   10.71
  -1  -3   7   74.76   10.24
  -1  -3   7   88.19   10.28
   0   3  -7    1.40    0.82
   0   3  -7    2.56    1.11
   0   3  -7   -0.56    0.73
   0   3  -7   -0.18    0.64
   0  -3   7    1.48    0.91
   0  -3   7   -0.80    0.82
   0  -3   7   -0.59    0.73
   0  -3   7   -0.69    0.84
  -1   3  -7   90.42   10.45
  -1   3  -7   89.13   10.40
  -1   3  -7   78.81   10.38
  -1   3  -7   84.35   10.32
  -1   3  -7   83.78   10.93
   1  -3   7   90.38   10.39
   1  -3   7   89.19   10.41
   1  -3   7   69.67   10.37
   1  -3   7   92.54   10.53
   1  -3   7   96.84   10.49
  -2   3  -7    7.89    2.10
  -2   3  -7    9.47    1.48
  -2   3  -7    7.40    1.98
  -2   3  -7    7.03    1.61
  -2   3  -7    5.44    1.46
  -2   3  -7    5.92    1.26
   2  -3   7    7.13    1.63
   2  -3   7   10.52    1.90
   2  -3   7    7.67    1.65
   2  -3   7    2.88    1.34
   2  -3   7    6.07    1.97
  -3   3  -7    1.10    1.87
  -3   3  -7    1.75    1.92
  -3   3  -7   -0.82    1.28
   3  -3   7    0.90    1.16
   3  -3   7    0.37    1.80
   3  -3   7    2.15    1.77
   3  -3   7    1.40    1.59
  -4   3  -7    2.34    2.37
  -4   3  -7    0.03    2.30
   4  -3   7    2.30    2.56
   4  -3   7   -0.15    1.40
   4  -3   7    0.64    2.04
  -5   3  -7   -1.21    3.46
   5   2  -7    1.64    3.55
  -5  -2   7   -2.08    4.60
  -5  -2   7    0.74    3.36
   4   2  -7    1.10    2.21
  -4  -2   7    6.45    3.07
  -4  -2   7    4.54    3.73
   3   2  -7    4.57    1.90
   3   2  -7    3.69    1.26
   3   2  -7    2.24    1.33
  -3  -2   7    2.22    1.95
  -3  -2   7    6.62    2.90
   2   2  -7    6.06    1.22
   2   2  -7    6.16    1.21
   2   2  -7    4.18    1.65
   2   2  -7    5.63    1.43
   2   2  -7    6.26    1.34
  -2  -2   7    7.77    2.27
  -2  -2   7    4.48    1.02
  -2  -2   7    5.33    1.20
  -2  -2   7    8.75    1.80
  -2  -2   7    6.13    1.46
   1   2  -7  141.33   16.15
   1   2  -7  138.30   16.02
   1   2  -7  144.48   15.76
   1   2  -7  129.48   16.00
   1   2  -7  154.84   16.00
  -1  -2   7  120.44   15.76
  -1  -2   7  110.41   16.35
  -1  -2   7  139.44   15.99
  -1  -2   7  131.39   16.01
  -1  -2   7  139.82   16.01
   0   2  -7   24.01    3.15
   0   2  -7   47.03    4.97
   0   2  -7   17.74    2.40
   0   2  -7   21.80    2.79
   0   2  -7   14.68    2.38
   0   2  -7   23.12    2.89
   0  -2   7   18.31    2.79
   0  -2   7   18.42    2.48
   0  -2   7   14.46    2.63
   0  -2   7   19.18    2.54
   0  -2   7   20.84    2.86
  -1   2  -7   54.50    7.10
  -1   2  -7   59.26    7.28
  -1   2  -7   66.33    7.26
  -1   2  -7   59.38    7.21
  -1   2  -7   59.61    7.71
   1  -2   7   60.25    7.22
   1  -2   7   51.99    7.18
   1  -2   7   55.19    7.20
   1  -2   7   62.21    7.29
   1  -2   7   59.32    7.19
  -2   2  -7    3.66    1.63
  -2   2  -7    4.20    1.20
  -2   2  -7    3.39    1.27
  -2   2  -7    2.76    0.94
  -2   2  -7    2.86    1.70
   2  -2   7    1.79    1.31
   2  -2   7    4.78    1.29
   2  -2   7    6.70    1.53
   2  -2   7    5.46    1.77
   2  -2   7    4.55    1.19
  -3   2  -7    5.79    2.03
  -3   2  -7    5.33    2.26
   3  -2   7    9.04    2.50
   3  -2   7    4.52    1.93
   3  -2   7    5.52    1.50
   3  -2   7    4.84    1.93
  -4   2  -7   -0.85    2.17
  -4   2  -7   -2.43    2.16
   4  -2   7    0.34    2.10
   4  -2   7    3.44    2.80
   4  -2   7   -0.33    1.27
  -5   2  -7   -0.91    3.35
   5   1  -7    1.31    3.02
  -5  -1   7    1.11    4.35
  -5  -1   7    0.52    4.16
   4   1  -7    6.34    2.56
  -4  -1   7    1.44    2.45
  -4  -1   7   -0.10    2.55
   3   1  -7   -2.24    1.57
   3   1  -7   -0.22    0.89
   3   1  -7    0.12    0.77
   3   1  -7   -0.55    1.03
   3   1  -7   -1.52    0.97
  -3  -1   7    1.43    1.80
  -3  -1   7   -2.52    1.75
   2   1  -7   23.23    2.64
   2   1  -7   22.69    2.89
   2   1  -7   20.21    3.12
   2   1  -7   24.72    2.77
   2   1  -7   17.90    2.40
   2   1  -7   24.60    2.92
   2   1  -7   17.63    2.46
  -2  -1   7   18.30    2.96
  -2  -1   7   16.67    3.35
  -2  -1   7   15.27    2.32
  -2  -1   7   17.15    2.68
  -2  -1   7   17.12    2.44
  -2  -1   7   24.47    3.53
   1   1  -7  146.81   15.41
   1   1  -7  135.76   15.45
   1   1  -7  118.20   15.51
   1   1  -7  138.15   15.45
  -1  -1   7  130.70   15.27
  -1  -1   7  127.04   15.38
  -1  -1   7  131.15   15.50
  -1  -1   7  125.34   15.42
  -1  -1   7  103.68   15.72
  -1  -1   7  138.12   15.40
   0   1  -7   22.32    2.91
   0   1  -7   25.73    3.44
   0   1  -7   21.87    3.05
   0   1  -7   24.24    3.30
   0   1  -7   24.56    3.32
   0   1  -7   21.96    3.00
   0  -1   7   25.14    2.97
   0  -1   7   22.11    3.18
   0  -1   7   21.78    3.33
   0  -1   7   23.54    3.26
   0  -1   7   22.20    3.10
  -1   1  -7   72.75    8.97
  -1   1  -7   65.52    8.48
  -1   1  -7   68.69    8.57
  -1   1  -7   70.40    8.69
  -1   1  -7   67.36    8.54
   1  -1   7   75.11    8.57
   1  -1   7   68.74    8.52
   1  -1   7   76.61    8.58
  -2   1  -7    4.44    1.17
  -2   1  -7    2.86    1.10
  -2   1  -7    0.64    1.56
  -2   1  -7    1.32    0.85
  -2   1  -7    2.58    1.38
   2  -1   7    0.97    0.97
   2  -1   7    1.70    1.26
   2  -1   7    2.92    1.34
   2  -1   7    5.32    1.24
   2  -1   7    2.65    0.90
  -3   1  -7   24.07    4.19
  -3   1  -7   15.46    3.18
   3  -1   7   21.41    3.42
   3  -1   7   23.35    3.34
   3  -1   7   16.08    2.80
  -4   1  -7    6.15    2.85
  -4   1  -7    0.80    2.12
   4  -1   7    0.35    1.08
   4  -1   7   -2.80    2.40
   4  -1   7    1.95    2.22
   5  -1   7    3.01    3.27
   5   0  -7   -0.68    3.16
  -5   0   7    3.12    3.63
   4   0  -7   -2.57    1.78
  -4   0   7    1.11    2.46
  -4   0   7    3.45    2.71
  -4   0   7    5.48    3.16
   3   0  -7    1.82    1.24
   3   0  -7    3.11    0.97
   3   0  -7    3.64    2.09
   3   0  -7    3.58    1.34
   3   0  -7    3.32    1.11
  -3   0   7    8.93    2.26
  -3   0   7    5.32    2.16
  -3   0   7    4.23    2.29
   2   0  -7   15.24    2.23
   2   0  -7   18.51    2.54
   2   0  -7   22.54    2.85
   2   0  -7   14.52    2.50
   2   0  -7   21.17    2.56
   2   0  -7   16.25    2.87
   2   0  -7   21.47    2.60
  -2   0   7   14.41    2.09
  -2   0   7   17.59    2.46
  -2   0   7   21.98    3.16
  -2   0   7   13.47    2.18
  -2   0   7   20.18    3.33
  -2   0   7   14.41    2.56
   1   0  -7   14.37    2.38
   1   0  -7   19.67    2.76
   1   0  -7   14.96    2.33
   1   0  -7   23.42    2.51
  -1   0   7   18.45    2.62
  -1   0   7   12.96    1.94
  -1   0   7   13.48    2.29
  -1   0   7   17.31    2.38
  -1   0   7   14.47    2.32
   0   0  -7   30.19    3.74
   0   0  -7   28.19    3.92
   0   0  -7   32.58    4.03
   0   0  -7   28.42    3.93
   0   0  -7   38.89    4.17
   0   0   7   31.16    4.03
   0   0   7   28.42    3.90
   0   0   7   30.79    3.74
   0   0   7   28.11    3.73
   0   0   7   28.70    3.91
   0   0   7   30.94    4.67
  -1   0  -7  164.36   19.56
  -1   0  -7  166.69   19.47
  -1   0  -7  154.91   19.42
  -1   0  -7  155.61   19.50
  -1   0  -7  169.73   19.78
  -1   0  -7  168.83   19.56
   1   0   7  152.66   19.42
   1   0   7  197.71   19.80
   1   0   7  159.80   19.41
   1   0   7  166.75   19.44
   1   0   7  170.92   19.42
  -2   0  -7    0.47    0.76
  -2   0  -7   -2.24    1.30
  -2   0  -7    2.22    0.98
  -2   0  -7    1.34    1.70
  -2   0  -7   -0.72    0.98
  -2   0  -7   -0.86    1.01
   2   0   7    0.05    1.07
   2   0   7    0.10    0.81
   2   0   7   -0.77    0.93
   2   0   7   -1.25    1.06
   2   0   7   -0.11    0.88
  -3   0  -7    1.45    2.22
  -3   0  -7   -0.36    2.41
  -3   0  -7    2.90    1.76
   3   0   7    3.50    1.76
   3   0   7    9.73    2.23
  -4   0  -7   -1.58    2.65
   4   0   7    2.88    1.22
   4   0   7    2.92    2.50
   5  -1  -7    1.00    3.19
  -5   1   7    1.98    3.52
   4  -1  -7    4.70    2.83
  -4   1   7    8.74    3.35
  -4   1   7   10.59    3.22
   3  -1  -7   -0.40    1.85
   3  -1  -7    2.34    1.35
   3  -1  -7    1.08    1.22
   3  -1  -7    0.35    0.92
   3  -1  -7    0.13    0.90
  -3   1   7    3.23    2.08
  -3   1   7    2.02    1.89
   2  -1  -7    0.69    0.85
   2  -1  -7   -0.61    0.96
   2  -1  -7   -1.34    1.14
   2  -1  -7    0.74    0.88
   2  -1  -7   -0.46    0.74
   2  -1  -7   -0.25    0.82
  -2   1   7   -0.46    0.60
  -2   1   7    0.70    1.40
  -2   1   7   -0.10    0.66
  -2   1   7    0.17    1.26
   1  -1  -7   55.79    7.46
   1  -1  -7   65.09    7.43
   1  -1  -7   62.15    7.33
   1  -1  -7   57.10    7.35
  -1   1   7   59.60    7.28
  -1   1   7   56.90    7.28
  -1   1   7   57.37    7.54
  -1   1   7   57.34    7.27
  -1   1   7   63.92    7.17
  -1   1   7   60.18    7.43
   0  -1  -7    1.78    1.19
   0  -1  -7    7.65    1.66
   0  -1  -7    4.77    1.41
   0   1   7    7.33    1.05
   0   1   7    5.68    1.37
   0   1   7    8.74    1.37
   0   1   7    5.41    1.42
   0   1   7    3.29    1.20
   0   1   7    5.78    1.20
  -1  -1  -7   21.52    3.58
  -1  -1  -7   29.36    4.02
  -1  -1  -7   27.53    4.12
  -1  -1  -7   26.08    3.73
  -1  -1  -7   27.25    3.89
   1   1   7   27.44    3.67
   1   1   7   26.15    3.59
   1   1   7   23.67    3.62
   1   1   7   20.73    3.44
   1   1   7   26.54    3.65
  -2  -1  -7    2.86    1.34
  -2  -1  -7    2.70    1.15
  -2  -1  -7    1.63    1.84
  -2  -1  -7    2.57    1.96
  -2  -1  -7    1.94    0.99
   2   1   7    1.82    1.10
   2   1   7    2.08    1.01
   2   1   7    2.72    1.45
   2   1   7    2.39    1.12
   2   1   7    1.95    1.34
  -3  -1  -7   10.03    3.16
  -3  -1  -7   10.55    3.30
  -3  -1  -7    7.25    1.99
   3   1   7    9.12    2.27
   3   1   7    7.17    1.77
   3   1   7    7.54    2.34
  -4  -1  -7    1.53    3.54
  -4  -1  -7    2.42    2.89
   4   1   7    1.49    1.19
   4   1   7   -0.99    2.31
   5  -2  -7   -1.08    2.83
  -5   2   7    1.64    3.61
   4  -2  -7   -0.61    2.55
  -4   2   7    0.48    2.35
  -4   2   7    0.31    2.50
   3  -2  -7    0.71    1.49
   3  -2  -7   -2.18    1.90
   3  -2  -7    0.15    1.33
   3  -2  -7    0.38    1.10
  -3   2   7    0.29    1.82
  -3   2   7    2.02    1.71
   2  -2  -7   63.01    7.71
   2  -2  -7   58.70    7.94
   2  -2  -7   66.91    7.83
   2  -2  -7   61.58    8.23
   2  -2  -7   70.54    7.95
   2  -2  -7   52.72    7.83
  -2   2   7   66.42    8.24
  -2   2   7   62.71    7.79
  -2   2   7   63.12    7.71
  -2   2   7   68.30    7.68
  -2   2   7   65.66    7.72
  -2   2   7   67.74    7.99
   1  -2  -7    2.55    1.12
   1  -2  -7    3.28    1.04
   1  -2  -7    1.36    1.01
   1  -2  -7    5.07    1.65
   1  -2  -7    1.74    1.14
  -1   2   7    0.21    1.03
  -1   2   7    0.81    1.10
  -1   2   7    0.12    1.13
  -1   2   7    2.40    1.07
  -1   2   7    3.39    1.17
   0  -2  -7   13.52    1.99
   0  -2  -7    7.93    2.07
   0  -2  -7   12.52    2.24
   0  -2  -7   13.95    1.95
   0  -2  -7    9.97    2.14
   0   2   7   12.80    2.20
   0   2   7   10.86    2.01
   0   2   7   11.38    2.18
   0   2   7   13.91    2.29
   0   2   7   12.86    2.06
  -1  -2  -7   54.37    7.06
  -1  -2  -7   55.00    7.22
  -1  -2  -7   58.62    7.32
  -1  -2  -7   51.71    7.06
  -1  -2  -7   61.11    7.25
   1   2   7   54.22    6.95
   1   2   7   58.13    7.01
   1   2   7   53.12    7.01
   1   2   7   58.33    6.83
  -2  -2  -7    0.50    1.20
  -2  -2  -7    0.95    1.78
  -2  -2  -7   -2.89    1.82
  -2  -2  -7   -3.15    1.08
   2   2   7    0.60    1.13
   2   2   7    0.39    1.31
   2   2   7   -0.27    1.00
   2   2   7    0.76    0.91
   2   2   7    1.63    1.40
  -3  -2  -7    4.42    2.95
  -3  -2  -7    7.38    3.30
   3   2   7    8.16    2.60
   3   2   7    8.77    2.38
   3   2   7    6.71    1.66
  -4  -2  -7   -0.41    3.19
  -4  -2  -7   -0.50    3.46
   4   2   7   -0.70    2.53
   5  -3  -7    4.85    3.23
  -5   3   7    0.52    3.60
   4  -3  -7    1.63    1.26
   4  -3  -7    4.82    3.10
  -4   3   7   -1.91    2.09
  -4   3   7    1.06    2.59
   3  -3  -7    1.07    1.31
   3  -3  -7    0.14    1.52
   3  -3  -7    0.48    1.68
   3  -3  -7    0.12    2.14
  -3   3   7    0.48    2.05
  -3   3   7    0.08    1.54
   2  -3  -7    5.57    1.57
   2  -3  -7    8.74    2.04
   2  -3  -7    9.74    2.35
   2  -3  -7    7.25    1.97
   2  -3  -7    7.18    1.86
   2  -3  -7    6.80    1.61
  -2   3   7    8.69    2.37
  -2   3   7    9.06    1.73
  -2   3   7    7.24    2.11
  -2   3   7    6.86    1.60
  -2   3   7    6.08    1.69
  -2   3   7    8.52    1.60
   1  -3  -7    1.72    1.21
   1  -3  -7   -1.05    1.27
   1  -3  -7    1.55    0.66
   1  -3  -7   -1.27    1.02
   1  -3  -7    0.35    1.26
  -1   3   7    0.04    1.06
  -1   3   7    0.79    1.19
  -1   3   7   -0.77    1.73
  -1   3   7   -0.94    1.16
  -1   3   7    0.92    1.11
   0  -3  -7   72.93   10.11
   0  -3  -7   89.34   10.22
   0  -3  -7   80.06    9.88
   0  -3  -7   87.64   10.14
   0  -3  -7   79.33    9.76
   0   3   7   86.53   10.03
   0   3   7   82.08   10.00
   0   3   7   83.24   10.04
   0   3   7   81.92    9.95
  -1  -3  -7   28.55    4.88
  -1  -3  -7   37.82    5.54
  -1  -3  -7   33.10    5.02
  -1  -3  -7   37.77    5.30
  -1  -3  -7   39.26    5.17
   1   3   7   37.53    4.46
   1   3   7   32.58    4.71
   1   3   7   38.65    4.99
   1   3   7   34.49    4.97
  -2  -3  -7    2.14    1.69
  -2  -3  -7    0.84    1.48
  -2  -3  -7    0.74    2.14
  -2  -3  -7    1.43    2.17
   2   3   7    0.37    1.46
   2   3   7    3.02    0.93
   2   3   7    0.63    1.27
   2   3   7    1.69    1.65
  -3  -3  -7    8.18    3.47
  -3  -3  -7    1.01    3.25
   3   3   7    7.43    2.71
   3   3   7    5.59    1.76
   3   3   7    7.99    2.51
  -4  -3  -7   -0.03    3.53
  -4  -3  -7    0.17    3.90
   4   3   7   -0.78    1.34
   4   3   7    0.77    2.93
   4  -4  -7    4.22    1.74
   4  -4  -7   -1.06    2.64
  -4   4   7    9.44    3.30
   3  -4  -7    0.72    1.78
   3  -4  -7    0.16    2.01
   3  -4  -7   -1.52    1.37
   3  -4  -7   -2.26    1.82
  -3   4   7    0.15    1.50
  -3   4   7   -0.15    2.01
  -3   4   7   -1.24    1.73
   2  -4  -7   -0.06    1.75
   2  -4  -7   -1.19    1.51
   2  -4  -7   -0.17    1.33
   2  -4  -7    0.71    1.35
   2  -4  -7   -0.16    1.30
   2  -4  -7   -1.74    1.61
  -2   4   7   -0.59    1.22
  -2   4   7   -1.18    1.56
  -2   4   7    1.40    1.23
  -2   4   7    0.22    0.86
  -2   4   7    0.07    1.20
   1  -4  -7    3.08    1.71
   1  -4  -7    0.03    1.65
   1  -4  -7    1.10    1.54
   1  -4  -7    3.27    1.56
   1  -4  -7    3.01    1.24
  -1   4   7    1.74    1.46
  -1   4   7    1.70    1.45
  -1   4   7    0.47    1.15
  -1   4   7    2.08    1.32
  -1   4   7    1.33    1.21
   0  -4  -7   16.99    3.51
   0  -4  -7   23.10    3.47
   0  -4  -7   15.64    3.48
   0  -4  -7   25.21    3.68
   0  -4  -7   22.85    3.12
   0   4   7   24.61    3.54
   0   4   7   24.41    3.49
   0   4   7   21.91    3.53
   0   4   7   25.17    3.61
  -1  -4  -7   -0.66    1.75
  -1  -4  -7   -1.05    1.41
  -1  -4  -7   -2.27    1.53
  -1  -4  -7   -1.50    1.37
   1   4   7    0.43    0.75
   1   4   7    0.27    1.38
   1   4   7   -1.42    1.15
   1   4   7   -1.37    1.05
  -2  -4  -7   25.89    4.40
  -2  -4  -7   33.91    5.56
  -2  -4  -7   31.34    5.63
  -2  -4  -7   28.29    4.62
   2   4   7   32.66    4.58
   2   4   7   27.92    4.38
   2   4   7   26.18    4.54
  -3  -4  -7    5.57    3.51
  -3  -4  -7    2.36    3.67
   3   4   7    2.42    2.26
   3   4   7    3.97    1.76
   3   4   7    4.28    2.48
  -4  -4  -7    1.02    3.72
  -4  -4  -7   -0.01    4.19
   4   4   7    2.31    3.13
   4   4   7    1.14    1.45
   4  -5  -7   -3.03    2.94
   4  -5  -7   -2.29    1.61
  -4   5   7   -3.35    2.61
   3  -5  -7   -1.03    2.19
   3  -5  -7    2.75    2.49
   3  -5  -7    0.47    1.74
   3  -5  -7   -2.14    1.90
  -3   5   7    0.62    2.28
  -3   5   7   -0.93    1.78
   2  -5  -7   31.34    5.42
   2  -5  -7   30.67    5.25
   2  -5  -7   31.53    5.67
   2  -5  -7   30.65    5.59
  -2   5   7   39.14    5.65
  -2   5   7   42.35    5.03
  -2   5   7   36.26    5.36
  -2   5   7   42.49    5.05
   1  -5  -7    4.05    1.97
   1  -5  -7    5.78    2.12
   1  -5  -7    5.79    2.47
   1  -5  -7    4.98    1.85
   1  -5  -7    4.32    2.20
  -1   5   7    7.22    1.84
  -1   5   7    4.69    2.02
  -1   5   7    3.53    1.79
  -1   5   7    5.80    1.69
  -1   5   7    5.08    1.08
  -1   5   7    5.09    2.00
   0  -5  -7    0.73    1.57
   0  -5  -7   -0.23    1.12
   0  -5  -7   -0.55    1.67
   0  -5  -7    0.88    1.69
   0  -5  -7    2.20    1.80
   0   5   7    0.18    0.86
   0   5   7    0.32    1.23
   0   5   7   -1.97    1.37
   0   5   7    0.21    1.20
  -1  -5  -7   60.49    7.64
  -1  -5  -7   45.39    7.13
  -1  -5  -7   51.68    7.38
  -1  -5  -7   53.29    7.04
   1   5   7   48.44    6.75
   1   5   7   53.67    6.76
   1   5   7   49.27    6.81
  -2  -5  -7    2.39    2.11
  -2  -5  -7   -0.68    2.72
  -2  -5  -7    4.70    2.31
  -2  -5  -7    3.55    3.09
   2   5   7   -0.10    1.43
   2   5   7    0.78    1.91
   2   5   7    4.52    2.00
  -3  -5  -7    0.62    3.52
  -3  -5  -7   -4.05    3.41
   3   5   7    0.42    1.59
   3   5   7    0.30    2.40
   3   5   7   -0.13    2.31
  -4  -5  -7   -1.36    4.60
  -4  -5  -7    0.47    4.95
   4   5   7    0.58    1.61
   4   5   7   -2.31    2.97
   4  -6  -7    4.72    2.32
   4  -6  -7    0.70    3.02
  -4   6   7   -2.84    2.58
  -4   6   7    2.36    2.90
   3  -6  -7    4.28    2.19
   3  -6  -7    0.38    2.47
   3  -6  -7    5.21    3.09
   3  -6  -7   -1.81    2.80
  -3   6   7    2.29    2.45
  -3   6   7    1.51    2.04
   2  -6  -7   -1.09    2.21
   2  -6  -7   -0.84    1.69
   2  -6  -7   -0.65    2.58
   2  -6  -7    0.50    2.21
  -2   6   7    1.44    1.85
  -2   6   7    1.22    1.78
  -2   6   7   -1.48    1.34
  -2   6   7    1.44    1.67
   1  -6  -7    3.98    2.38
   1  -6  -7    2.89    2.65
   1  -6  -7   -2.37    1.94
   1  -6  -7    1.73    1.85
   1  -6  -7    4.11    2.08
  -1   6   7    1.54    1.42
  -1   6   7   -0.06    1.84
  -1   6   7    2.60    1.93
  -1   6   7    2.13    1.46
  -1   6   7    1.12    1.75
   0  -6  -7   18.66    3.52
   0  -6  -7   13.49    3.59
   0  -6  -7    9.82    3.65
   0  -6  -7   14.83    3.44
   0  -6  -7   21.94    3.59
   0   6   7   20.19    3.28
   0   6   7   18.12    3.17
   0   6   7   15.15    3.17
  -1  -6  -7    2.12    2.16
  -1  -6  -7    3.25    2.82
  -1  -6  -7    3.11    2.47
   1   6   7    7.06    2.17
   1   6   7    4.68    1.71
   1   6   7    1.11    1.67
  -2  -6  -7   -1.58    2.25
  -2  -6  -7   -2.74    2.16
  -2  -6  -7    6.80    3.54
  -2  -6  -7    3.78    3.62
   2   6   7   -0.58    1.99
   2   6   7    0.18    2.00
   2   6   7   -2.14    1.41
  -3  -6  -7   -1.21    4.38
  -3  -6  -7    7.15    4.66
   3   6   7    0.58    1.86
   3   6   7   -0.37    2.42
   3   6   7    4.41    2.93
   4  -7  -7   -1.46    2.26
   4  -7  -7   -2.40    3.34
  -4   7   7    0.24    2.84
  -4   7   7   -0.56    3.16
   3  -7  -7    6.84    3.88
   3  -7  -7    3.34    2.30
   3  -7  -7    0.43    2.81
   3  -7  -7    0.66    3.27
  -3   7   7    1.63    2.56
  -3   7   7    1.94    2.32
   2  -7  -7    0.74    3.08
   2  -7  -7    0.71    1.96
   2  -7  -7   -0.63    2.43
   2  -7  -7   -0.12    2.61
  -2   7   7    1.28    2.13
  -2   7   7    2.03    1.82
  -2   7   7    1.04    1.77
  -2   7   7    4.23    2.45
   1  -7  -7   -1.63    2.15
   1  -7  -7    3.54    2.05
   1  -7  -7   -0.96    2.52
   1  -7  -7    1.03    2.48
   1  -7  -7    1.32    2.47
  -1   7   7    3.12    1.51
  -1   7   7   -0.12    1.48
  -1   7   7   -3.52    1.81
  -1   7   7   -0.25    1.95
  -1   7   7   -2.50    1.80
   0  -7  -7    4.73    3.10
   0  -7  -7    5.99    2.67
   0  -7  -7   10.94    2.87
   0  -7  -7    9.70    3.22
   0  -7  -7    6.80    3.02
   0   7   7    5.97    2.31
   0   7   7    9.53    2.40
   0   7   7    7.98    2.46
  -1  -7  -7   -2.38    2.81
  -1  -7  -7   -2.20    2.13
  -1  -7  -7    1.64    2.64
   1   7   7   -0.97    1.95
   1   7   7   -0.03    1.46
   1   7   7   -2.78    1.61
  -2  -7  -7   10.08    4.58
  -2  -7  -7   13.42    3.61
  -2  -7  -7    6.25    4.86
   2   7   7   10.50    3.02
   2   7   7    7.03    2.55
   2   7   7    5.45    2.78
  -3  -7  -7    3.15    5.03
  -3  -7  -7    2.38    4.99
   3   7   7    2.08    3.25
   3   7   7    5.04    2.51
   3   7   7    4.12    3.00
   3  -8  -7    0.10    2.44
   3  -8  -7    6.28    3.95
   3  -8  -7   -2.26    2.94
   3  -8  -7    0.98    3.91
  -3   8   7    0.25    2.26
  -3   8   7    0.56    2.72
   2  -8  -7    7.23    4.04
   2  -8  -7   -1.67    2.73
   2  -8  -7    2.59    2.37
   2  -8  -7   -0.62    2.86
  -2   8   7   -0.13    2.58
  -2   8   7   -4.07    2.27
  -2   8   7   -0.70    1.73
   1  -8  -7    0.35    2.54
   1  -8  -7   -1.27    2.78
   1  -8  -7   -1.34    3.27
   1  -8  -7    0.18    2.02
   1  -8  -7    3.04    3.11
  -1   8   7    3.20    2.60
  -1   8   7    1.58    1.63
  -1   8   7    0.21    1.67
  -1   8   7   -1.92    2.23
  -1   8   7    3.69    2.62
   0  -8  -7   -0.09    2.89
   0  -8  -7   -2.11    3.22
   0  -8  -7    4.43    2.30
   0  -8  -7    2.47    3.13
   0   8   7    1.65    2.26
   0   8   7    1.31    2.23
   0   8   7   -0.48    1.54
  -1  -8  -7   -2.64    2.97
  -1  -8  -7   -1.17    3.33
  -1  -8  -7    3.12    2.54
   1   8   7    4.32    2.68
   1   8   7   -1.97    1.73
   1   8   7   -1.32    1.99
  -2  -8  -7    1.91    5.31
  -2  -8  -7   -0.24    3.26
  -2  -8  -7    4.86    4.54
   2   8   7    3.75    2.26
   2   8   7   -1.52    2.46
   2   8   7    3.57    2.70
   3  -9  -7    6.76    5.04
   3  -9  -7    1.36    2.78
   3  -9  -7    2.58    4.17
   3  -9  -7    0.91    3.82
  -3   9   7    1.22    2.47
  -3   9   7    0.01    2.95
   2  -9  -7   -2.68    3.25
   2  -9  -7    6.02    4.42
   2  -9  -7   -4.42    2.84
   2  -9  -7   -0.50    2.25
  -2   9   7    3.38    2.89
  -2   9   7   -1.06    2.80
  -2   9   7    0.22    2.19
   1  -9  -7   -1.54    2.95
   1  -9  -7    5.91    3.54
   1  -9  -7   -2.75    3.58
   1  -9  -7   -1.82    2.42
  -1   9   7   -0.46    1.72
  -1   9   7   -2.48    2.50
  -1   9   7   -3.29    2.47
   0  -9  -7    3.40    3.80
   0  -9  -7    6.08    4.03
   0  -9  -7    7.73    4.12
   0  -9  -7    2.47    2.61
   0   9   7    7.65    2.99
   0   9   7    7.91    2.40
   0   9   7    8.78    2.93
  -1  -9  -7   -0.58    2.52
  -1  -9  -7    0.82    3.75
  -1  -9  -7   -1.78    4.06
   1   9   7    4.70    2.95
   1   9   7    1.58    2.30
   1   9   7   -0.51    2.62
  -2  -9  -7   -0.74    4.88
  -2  -9  -7   -0.47    3.98
  -2  -9  -7    2.07    6.36
   2   9   7    1.77    2.33
   2   9   7   -0.22    2.81
   2   9   7    0.02    2.95
   2 -10  -7    3.62    4.02
   2 -10  -7   -0.11    3.61
   2 -10  -7    4.64    5.16
   2 -10  -7    0.61    2.46
  -2  10   7    3.31    3.27
  -2  10   7   -6.45    3.05
   1 -10  -7   -1.31    3.58
   1 -10  -7   -0.88    2.29
   1 -10  -7   -1.54    4.23
  -1  10   7   -0.03    3.11
  -1  10   7    2.40    3.17
  -1  10   7    4.06    2.49
   0 -10  -7    1.51    4.08
   0 -10  -7    3.20    3.16
   0  10   7    0.17    3.10
   0  10   7   -4.14    1.74
   0  10   7   -6.10    2.58
  -1 -10  -7    0.33    4.49
  -1 -10  -7   -1.11    3.10
  -1 -10  -7    2.04    5.06
   1  10   7    1.16    2.86
   1  10   7   -4.12    3.03
   1  10   7    1.21    2.09
   1  12  -8    1.03    2.22
   1  12  -8    1.18    1.73
  -1 -12   8    2.52    2.94
  -1 -12   8   -1.84    5.12
  -1 -12   8   -1.56    4.60
  -1 -12   8   12.49    4.31
   0  12  -8   -0.75    2.18
   0  12  -8    0.55    2.10
   0  12  -8    0.88    1.86
   0 -12   8    4.40    3.54
   0 -12   8    5.11    3.26
   0 -12   8    6.16    5.02
  -1  12  -8   -1.97    2.38
  -1  12  -8    3.68    2.53
  -1  12  -8   -2.14    1.84
   1 -12   8    0.79    4.51
   1 -12   8    1.38    2.56
   1 -12   8    8.27    3.52
  -2  12  -8    4.54    4.37
  -2  12  -8    1.09    3.26
  -2  12  -8    1.83    3.20
   2 -12   8    0.70    3.93
   2 -12   8    1.00    2.51
   2 -12   8    1.39    3.48
   2  11  -8    4.20    2.61
   2  11  -8    4.46    2.27
   2  11  -8    0.20    2.30
  -2 -11   8   -0.92    4.92
  -2 -11   8    0.27    5.69
  -2 -11   8    1.31    3.65
   1  11  -8    1.96    1.91
   1  11  -8    3.29    2.26
   1  11  -8   -1.61    1.86
  -1 -11   8    2.97    4.90
  -1 -11   8    0.49    4.98
  -1 -11   8   -1.90    2.39
  -1 -11   8   -3.94    3.73
  -1 -11   8   -1.54    3.26
   0  11  -8    1.34    1.88
   0  11  -8   -3.12    1.74
   0  11  -8    0.05    2.07
   0 -11   8   -1.09    3.75
   0 -11   8    1.66    3.08
   0 -11   8   -0.70    3.54
   0 -11   8    0.99    2.61
  -1  11  -8    2.36    2.28
  -1  11  -8    2.52    2.87
  -1  11  -8    4.17    2.14
   1 -11   8    8.38    3.49
   1 -11   8    1.16    2.26
   1 -11   8    2.09    3.87
  -2  11  -8   -5.56    3.36
  -2  11  -8    6.26    3.41
   2 -11   8   -0.03    2.17
   2 -11   8    5.75    3.23
   2 -11   8   -6.05    3.21
   3 -11   8   -1.21    2.41
   3 -11   8    5.14    4.28
   3 -11   8   -0.06    3.19
   3  10  -8    5.69    3.30
   2  10  -8    3.64    2.44
   2  10  -8    0.18    2.32
   2  10  -8   -0.16    1.63
  -2 -10   8    0.76    4.12
  -2 -10   8   -6.71    4.79
  -2 -10   8    7.09    3.57
   1  10  -8    0.45    1.86
   1  10  -8   -0.83    1.58
  -1 -10   8   -1.85    3.28
  -1 -10   8    0.72    2.35
  -1 -10   8    4.20    4.65
  -1 -10   8    1.33    2.87
   0  10  -8   10.08    2.79
   0  10  -8   11.48    2.85
   0 -10   8   12.39    3.43
   0 -10   8   14.55    3.56
   0 -10   8   13.55    3.81
   0 -10   8    9.15    4.38
  -1  10  -8    0.60    1.70
  -1  10  -8    1.87    2.55
  -1  10  -8   -0.87    1.76
   1 -10   8   -1.47    2.11
   1 -10   8    2.93    2.71
   1 -10   8    0.47    2.72
   1 -10   8    2.18    3.05
  -2  10  -8   -2.62    2.52
  -2  10  -8   -1.43    2.91
  -2  10  -8   -0.24    2.86
   2 -10   8    4.31    2.93
   2 -10   8    1.22    3.26
   2 -10   8    0.21    2.42
  -3  10  -8    0.07    3.35
  -3  10  -8    6.95    3.84
   3 -10   8   -0.23    2.54
   3 -10   8   -0.54    3.57
   3 -10   8   -1.64    3.02
   3   9  -8   -1.19    1.72
   3   9  -8    1.62    2.65
   3   9  -8    2.06    2.50
  -3  -9   8   -1.58    4.72
  -3  -9   8   -2.69    4.76
   2   9  -8    1.52    1.73
   2   9  -8    2.79    2.20
  -2  -9   8    0.72    3.34
  -2  -9   8   -2.14    2.67
  -2  -9   8   -8.32    3.89
   1   9  -8    5.18    2.05
   1   9  -8    3.76    2.08
  -1  -9   8    6.31    3.00
  -1  -9   8    1.52    2.44
  -1  -9   8    4.88    3.15
  -1  -9   8    1.32    4.11
   0   9  -8    2.63    1.63
   0   9  -8   -0.87    1.57
   0  -9   8    2.09    2.21
   0  -9   8    1.82    2.69
   0  -9   8    1.01    2.26
   0  -9   8   -2.84    2.54
  -1   9  -8    3.56    2.45
  -1   9  -8    2.32    1.75
  -1   9  -8   -0.90    1.75
   1  -9   8    1.01    2.18
   1  -9   8    0.41    2.42
   1  -9   8   -0.77    2.47
  -2   9  -8    8.75    3.49
  -2   9  -8    6.51    3.24
  -2   9  -8   10.75    2.65
  -2   9  -8    9.79    2.62
   2  -9   8    8.72    3.52
   2  -9   8    8.63    3.06
   2  -9   8    5.95    3.01
  -3   9  -8   -2.14    2.88
  -3   9  -8    6.76    3.11
   3  -9   8    0.18    2.43
   3  -9   8   -2.47    2.58
   3  -9   8    2.21    3.21
   3   8  -8    0.96    2.30
   3   8  -8    4.82    2.12
  -3  -8   8    9.03    4.89
  -3  -8   8    0.30    3.87
   2   8  -8    7.62    2.20
   2   8  -8    4.62    2.07
   2   8  -8    2.96    2.19
  -2  -8   8    7.38    2.98
  -2  -8   8    2.66    4.22
  -2  -8   8    4.11    2.79
  -2  -8   8    6.46    3.50
   1   8  -8    4.26    1.91
   1   8  -8   -2.74    1.45
  -1  -8   8    0.08    2.21
  -1  -8   8   -1.11    3.33
  -1  -8   8    1.24    2.17
  -1  -8   8    2.28    2.81
   0   8  -8   24.52    3.93
   0   8  -8   28.13    4.17
   0  -8   8   11.67    3.88
   0  -8   8   25.31    4.51
   0  -8   8   24.23    4.22
   0  -8   8   24.68    4.62
  -1   8  -8    1.45    1.70
  -1   8  -8   -0.16    2.06
  -1   8  -8   -2.06    1.58
   1  -8   8    2.25    2.47
   1  -8   8   -2.15    1.97
   1  -8   8    0.21    1.94
  -2   8  -8   -3.92    2.18
  -2   8  -8   -0.14    1.52
  -2   8  -8    2.18    1.81
  -2   8  -8    1.31    2.58
   2  -8   8   -0.30    2.14
   2  -8   8    0.66    2.78
   2  -8   8    0.36    1.96
  -3   8  -8    0.26    2.94
  -3   8  -8    3.42    2.47
   3  -8   8   -0.64    3.12
   3  -8   8    2.03    2.60
   3  -8   8   -0.44    2.24
  -4   8  -8    5.30    3.51
   4  -8   8   -0.26    2.72
   4  -8   8    8.75    4.23
   4   7  -8   -2.60    3.14
   4   7  -8   -2.23    1.68
  -4  -7   8   10.89    5.08
  -4  -7   8   -2.86    4.13
   3   7  -8    1.76    1.78
   3   7  -8    6.82    2.52
  -3  -7   8    8.84    4.11
  -3  -7   8    2.83    3.57
   2   7  -8    3.30    2.02
   2   7  -8    8.44    2.10
   2   7  -8    4.94    1.90
  -2  -7   8    3.37    2.95
  -2  -7   8    3.98    2.64
  -2  -7   8    2.28    2.38
  -2  -7   8    4.78    3.55
   1   7  -8    2.32    1.67
   1   7  -8    2.21    1.61
   1   7  -8    1.26    1.42
  -1  -7   8   -4.20    2.69
  -1  -7   8   -0.69    1.88
  -1  -7   8    1.05    2.28
  -1  -7   8    1.19    2.14
   0   7  -8   36.46    5.39
   0   7  -8   41.37    5.44
   0  -7   8   38.34    5.90
   0  -7   8   36.77    5.46
   0  -7   8   27.02    5.37
   0  -7   8   42.12    6.12
  -1   7  -8   -0.13    1.44
  -1   7  -8    3.22    2.23
  -1   7  -8    2.94    1.59
  -1   7  -8    0.84    1.45
   1  -7   8   -1.01    2.13
   1  -7   8    0.90    1.80
   1  -7   8    2.13    2.03
  -2   7  -8    0.75    2.03
  -2   7  -8    3.68    1.83
  -2   7  -8    1.46    2.17
  -2   7  -8    1.65    1.73
   2  -7   8    0.79    1.99
   2  -7   8    0.62    1.70
   2  -7   8    2.36    2.41
  -3   7  -8    0.22    2.44
  -3   7  -8    0.73    2.11
   3  -7   8    0.85    2.22
   3  -7   8    4.59    3.07
   3  -7   8   -1.59    1.79
  -4   7  -8   -1.45    2.92
   4  -7   8   -2.90    3.25
   4  -7   8   -1.07    2.28
   4   6  -8   -1.94    1.66
  -4  -6   8    4.77    4.03
  -4  -6   8   -2.06    4.65
   3   6  -8    5.15    2.23
   3   6  -8    4.84    1.90
   3   6  -8    3.82    1.84
  -3  -6   8   -2.13    3.07
  -3  -6   8    1.42    3.05
   2   6  -8   -0.80    1.46
   2   6  -8    3.58    1.55
   2   6  -8    0.67    1.40
  -2  -6   8   -3.43    2.21
  -2  -6   8   -1.27    1.58
  -2  -6   8   -2.56    2.84
  -2  -6   8    0.76    1.93
  -2  -6   8    1.96    2.11
   1   6  -8   13.09    2.71
   1   6  -8   16.55    2.81
   1   6  -8   17.34    2.89
  -1  -6   8   12.02    2.88
  -1  -6   8    7.17    3.32
  -1  -6   8   12.67    2.91
  -1  -6   8   19.06    3.54
   0   6  -8    8.58    2.34
   0   6  -8    5.49    1.94
   0   6  -8   13.05    2.20
   0  -6   8    4.43    2.27
   0  -6   8    7.88    2.21
   0  -6   8   11.09    2.33
   0  -6   8    3.71    1.93
  -1   6  -8    1.14    1.33
  -1   6  -8    3.09    1.49
  -1   6  -8    0.23    1.33
   1  -6   8    3.46    1.81
   1  -6   8    2.74    1.58
   1  -6   8    2.36    2.03
  -2   6  -8   30.11    5.10
  -2   6  -8   38.43    4.66
  -2   6  -8   29.84    4.49
  -2   6  -8   30.00    4.40
   2  -6   8   21.90    4.47
   2  -6   8   27.42    4.54
   2  -6   8   25.69    4.80
  -3   6  -8   -1.21    1.75
  -3   6  -8   -0.81    2.23
   3  -6   8    1.64    1.90
   3  -6   8   -1.36    1.98
   3  -6   8   -0.77    2.34
  -4   6  -8    2.98    2.92
   4  -6   8    0.82    2.10
   4  -6   8    0.91    3.35
   4   5  -8   -1.26    1.43
  -4  -5   8   -0.46    3.09
  -4  -5   8   -1.85    4.33
   3   5  -8    9.47    2.27
   3   5  -8    8.61    2.30
   3   5  -8    4.55    1.90
  -3  -5   8    1.64    3.07
  -3  -5   8   11.18    3.43
   2   5  -8    1.67    1.96
   2   5  -8   -0.58    1.12
   2   5  -8   -0.55    1.36
   2   5  -8    0.65    1.39
  -2  -5   8    1.47    1.78
  -2  -5   8    0.99    1.30
  -2  -5   8    0.52    2.16
  -2  -5   8    3.57    2.78
  -2  -5   8   -3.19    1.49
   1   5  -8    4.77    1.59
   1   5  -8    5.08    1.49
   1   5  -8    2.77    1.26
  -1  -5   8    4.44    2.28
  -1  -5   8    0.86    1.55
  -1  -5   8    0.20    2.08
  -1  -5   8    3.64    1.81
   0   5  -8   24.58    3.67
   0   5  -8   19.72    3.82
   0   5  -8   27.21    3.68
   0  -5   8   22.17    3.71
   0  -5   8   27.21    3.47
   0  -5   8   25.85    3.88
   0  -5   8   16.26    3.45
  -1   5  -8   21.88    3.37
  -1   5  -8   20.39    3.50
   1  -5   8   24.00    3.31
   1  -5   8   17.56    3.30
   1  -5   8   24.80    3.74
   1  -5   8   19.59    3.45
  -2   5  -8   -0.22    1.24
  -2   5  -8    0.05    1.43
  -2   5  -8   -3.52    1.81
  -2   5  -8   -0.77    1.13
   2  -5   8    1.09    1.38
   2  -5   8    0.48    1.35
   2  -5   8   -1.71    1.47
   2  -5   8    1.37    2.02
  -3   5  -8   -3.06    1.50
  -3   5  -8    1.36    2.13
   3  -5   8    2.37    2.58
   3  -5   8    3.21    1.74
   3  -5   8    1.11    1.94
   3  -5   8    0.77    1.57
  -4   5  -8    4.45    2.72
   4  -5   8    4.58    2.93
   4  -5   8    0.42    2.07
   4   4  -8   -0.71    2.19
   4   4  -8    1.30    1.54
  -4  -4   8    1.62    3.23
  -4  -4   8    2.40    3.87
   3   4  -8    7.34    2.07
   3   4  -8    5.77    2.01
   3   4  -8    2.98    1.53
  -3  -4   8    9.08    3.73
  -3  -4   8    5.83    2.25
  -3  -4   8    4.82    2.37
   2   4  -8    5.29    1.53
   2   4  -8    7.17    1.56
   2   4  -8    3.16    1.59
   2   4  -8    4.03    1.37
   2   4  -8    6.98    1.66
  -2  -4   8    3.03    2.45
  -2  -4   8    3.48    1.46
  -2  -4   8    5.85    1.98
  -2  -4   8    9.73    2.49
  -2  -4   8    7.23    1.86
   1   4  -8   44.39    5.73
   1   4  -8   42.60    5.80
   1   4  -8   51.52    5.64
   1   4  -8   53.95    5.77
  -1  -4   8   37.57    5.75
  -1  -4   8   55.90    6.45
  -1  -4   8   33.64    5.92
  -1  -4   8   33.99    5.77
   0   4  -8   70.46    8.13
   0   4  -8   68.49    8.16
   0   4  -8   59.35    8.28
   0  -4   8   65.62    7.90
   0  -4   8   65.27    8.22
   0  -4   8   63.84    8.13
   0  -4   8   62.90    8.19
  -1   4  -8   14.76    2.53
  -1   4  -8   19.67    2.68
  -1   4  -8   16.90    2.62
   1  -4   8   11.37    2.30
   1  -4   8   10.05    2.28
   1  -4   8   14.29    2.65
   1  -4   8   12.23    2.51
  -2   4  -8   19.06    2.69
  -2   4  -8   14.11    2.55
  -2   4  -8    9.32    2.64
  -2   4  -8    9.69    2.90
  -2   4  -8   11.74    2.22
  -2   4  -8   20.25    2.40
   2  -4   8   10.92    2.52
   2  -4   8   12.26    2.58
   2  -4   8   15.51    2.97
   2  -4   8   10.77    2.42
   2  -4   8   16.12    2.59
  -3   4  -8    1.61    1.36
  -3   4  -8    1.17    2.05
  -3   4  -8    1.55    1.91
   3  -4   8    0.80    1.63
   3  -4   8    0.14    1.36
   3  -4   8    0.38    1.75
   3  -4   8    0.23    2.29
  -4   4  -8    1.20    2.48
  -4   4  -8    1.16    2.46
   4  -4   8    0.59    2.37
   4  -4   8    3.47    1.84
   4  -4   8    0.33    3.03
   4   3  -8   -1.14    1.27
   4   3  -8   -1.27    2.11
  -4  -3   8   -0.94    3.35
  -4  -3   8   -1.20    2.58
   3   3  -8   11.96    2.32
   3   3  -8   14.13    2.49
   3   3  -8    8.40    2.54
  -3  -3   8   17.80    3.43
  -3  -3   8    7.99    3.36
   2   3  -8    0.85    0.97
   2   3  -8    1.24    0.84
   2   3  -8    0.56    1.37
   2   3  -8    0.70    1.14
   2   3  -8   -0.91    0.83
  -2  -3   8    0.88    1.28
  -2  -3   8   -1.23    1.32
  -2  -3   8   -0.28    1.21
  -2  -3   8    1.20    2.00
  -2  -3   8    1.46    0.99
   1   3  -8   36.61    4.74
   1   3  -8   40.02    4.99
   1   3  -8   44.87    4.97
   1   3  -8   41.80    5.18
   1   3  -8   44.15    5.13
  -1  -3   8   40.59    5.16
  -1  -3   8   38.89    5.12
  -1  -3   8   30.60    4.90
  -1  -3   8   28.38    5.70
   0   3  -8   80.82    8.79
   0   3  -8   83.04    9.06
   0   3  -8   76.76    8.80
   0   3  -8   73.66    8.56
   0  -3   8   72.09    8.77
   0  -3   8   61.82    8.72
   0  -3   8   68.26    8.50
   0  -3   8   67.60    8.65
   0  -3   8   65.46    8.79
  -1   3  -8   24.51    3.46
  -1   3  -8   23.83    3.40
  -1   3  -8   23.31    4.06
  -1   3  -8   24.64    3.46
   1  -3   8   25.89    3.46
   1  -3   8   14.10    3.05
   1  -3   8   24.19    3.38
   1  -3   8   24.82    3.41
  -2   3  -8   17.69    2.74
  -2   3  -8   18.74    3.26
  -2   3  -8   25.22    3.79
  -2   3  -8   18.86    3.64
  -2   3  -8   28.86    3.42
  -2   3  -8   23.06    3.01
   2  -3   8   21.18    3.27
   2  -3   8   22.84    3.41
   2  -3   8   22.26    3.67
   2  -3   8   21.95    3.29
   2  -3   8   19.65    3.25
  -3   3  -8    0.40    1.71
  -3   3  -8    1.24    1.93
   3  -3   8   -0.47    1.71
   3  -3   8    0.23    2.16
   3  -3   8    0.70    1.20
   3  -3   8   -1.69    1.56
  -4   3  -8    3.49    2.73
  -4   3  -8    1.84    2.30
   4  -3   8   -0.77    2.25
   4  -3   8   -0.07    1.48
   4  -3   8   -1.64    2.74
  -5  -2   8   -2.22    5.00
   4   2  -8    0.61    1.63
   4   2  -8    3.54    2.32
  -4  -2   8    0.65    2.66
  -4  -2   8    0.63    3.26
   3   2  -8    6.43    1.74
   3   2  -8    5.78    1.57
   3   2  -8    7.78    2.33
  -3  -2   8    9.18    3.19
  -3  -2   8   10.90    2.64
   2   2  -8    1.38    0.76
   2   2  -8    2.00    1.19
   2   2  -8    1.32    0.98
   2   2  -8    0.69    1.25
   2   2  -8    0.94    0.67
   2   2  -8    0.74    1.02
  -2  -2   8    1.62    1.19
  -2  -2   8    0.41    0.84
  -2  -2   8    2.35    2.18
  -2  -2   8   -1.07    1.06
  -2  -2   8   -1.42    1.03
   1   2  -8   27.55    4.08
   1   2  -8   29.52    3.36
   1   2  -8   31.70    3.90
   1   2  -8   30.88    3.81
  -1  -2   8   36.62    4.29
  -1  -2   8   27.34    3.91
  -1  -2   8   24.32    3.40
  -1  -2   8   26.84    4.75
  -1  -2   8   26.59    3.87
   0   2  -8   28.31    3.39
   0   2  -8   25.05    3.45
   0   2  -8   23.59    3.00
   0   2  -8   30.95    3.89
   0   2  -8   20.03    2.99
   0  -2   8   28.92    3.48
   0  -2   8   26.23    3.15
   0  -2   8   19.64    3.25
   0  -2   8   17.67    3.37
  -1   2  -8   63.62    7.42
  -1   2  -8   58.99    6.79
  -1   2  -8   53.63    6.81
  -1   2  -8   43.98    6.70
   1  -2   8   67.11    6.89
   1  -2   8   53.42    6.81
   1  -2   8   55.11    6.81
   1  -2   8   53.52    6.76
   1  -2   8   46.02    6.71
  -2   2  -8    5.80    1.50
  -2   2  -8    2.72    1.70
  -2   2  -8    6.68    1.54
  -2   2  -8    3.21    1.16
  -2   2  -8    4.07    1.76
   2  -2   8    3.16    1.28
   2  -2   8    6.72    1.57
   2  -2   8    6.63    2.15
   2  -2   8    5.33    1.56
   2  -2   8    4.44    1.59
  -3   2  -8    4.55    2.07
  -3   2  -8    2.06    2.07
   3  -2   8    0.17    1.65
   3  -2   8   -0.35    1.66
   3  -2   8    5.29    2.30
   3  -2   8    0.55    1.08
  -4   2  -8    2.42    2.55
  -4   2  -8    6.83    2.60
   4  -2   8    2.27    2.49
   4  -2   8    1.72    1.46
   4  -2   8    3.16    2.34
   5   1  -8   -1.61    2.91
  -5  -1   8   -3.05    4.25
   4   1  -8    1.60    2.38
  -4  -1   8    2.09    2.61
  -4  -1   8    4.82    2.96
   3   1  -8    0.52    1.22
   3   1  -8    0.39    0.98
   3   1  -8    0.07    0.98
   3   1  -8   -0.17    1.81
  -3  -1   8    1.49    2.27
  -3  -1   8   -2.28    1.71
   2   1  -8    1.03    1.30
   2   1  -8    2.82    1.25
   2   1  -8    2.75    1.03
   2   1  -8    1.56    0.96
   2   1  -8    1.77    1.00
  -2  -1   8    3.25    2.15
  -2  -1   8    2.19    1.08
  -2  -1   8   -0.20    0.97
  -2  -1   8    1.80    0.79
  -2  -1   8    1.78    1.13
  -2  -1   8    2.03    1.48
   1   1  -8   79.42    8.81
   1   1  -8   74.82    8.87
   1   1  -8   75.07    8.91
   1   1  -8   75.83    9.06
  -1  -1   8   73.66    8.83
  -1  -1   8   70.35    8.81
  -1  -1   8   70.80    8.84
  -1  -1   8   74.29    8.93
  -1  -1   8   66.04    8.61
   0   1  -8    5.35    1.50
   0   1  -8    4.07    1.23
   0   1  -8    5.93    1.18
   0   1  -8    3.51    1.28
   0   1  -8    4.89    1.02
   0  -1   8    7.04    1.49
   0  -1   8    5.69    1.13
   0  -1   8    3.52    1.29
   0  -1   8    3.91    1.22
  -1   1  -8   24.33    3.54
  -1   1  -8   19.62    3.09
  -1   1  -8   20.22    3.17
  -1   1  -8   24.96    3.99
   1  -1   8   19.71    3.17
   1  -1   8   21.87    3.17
   1  -1   8   20.03    3.15
  -2   1  -8   28.10    4.00
  -2   1  -8   32.09    4.72
  -2   1  -8   25.34    3.70
  -2   1  -8   29.98    4.06
  -2   1  -8   26.42    3.88
   2  -1   8   28.29    4.10
   2  -1   8   21.47    3.81
   2  -1   8   33.60    3.92
   2  -1   8   29.51    4.05
  -3   1  -8   12.09    2.42
  -3   1  -8    8.71    2.75
   3  -1   8    5.68    1.60
   3  -1   8    8.14    2.20
   3  -1   8    6.02    2.21
  -4   1  -8   -1.10    3.01
  -4   1  -8    1.08    2.41
   4  -1   8    1.56    2.44
   4  -1   8   -0.69    2.62
   4  -1   8    0.37    1.19
   5   0  -8    3.99    3.35
  -5   0   8    7.37    3.89
   4   0  -8    0.07    2.44
  -4   0   8   -0.58    2.54
  -4   0   8    4.83    3.04
  -4   0   8    2.05    2.89
   3   0  -8   15.43    2.66
   3   0  -8   12.19    2.44
   3   0  -8   18.74    2.65
   3   0  -8   17.34    3.46
  -3   0   8   20.62    3.80
  -3   0   8   19.60    3.29
  -3   0   8   17.90    3.67
   2   0  -8    1.42    1.17
   2   0  -8    3.10    1.29
   2   0  -8    2.22    1.05
   2   0  -8    5.58    1.84
   2   0  -8    4.14    1.18
  -2   0   8    2.74    1.12
  -2   0   8    4.25    1.99
  -2   0   8    1.33    1.05
  -2   0   8    2.01    0.78
  -2   0   8    2.66    1.49
  -2   0   8    2.02    0.99
   1   0  -8   11.90    1.79
   1   0  -8    8.80    1.80
   1   0  -8    9.83    2.00
   1   0  -8    7.83    1.66
  -1   0   8   13.07    2.04
  -1   0   8    9.82    1.80
  -1   0   8    8.70    1.74
  -1   0   8    7.70    1.76
  -1   0   8    4.29    1.78
   0   0  -8   -0.83    0.81
   0   0  -8    0.91    1.03
   0   0  -8    0.95    1.09
   0   0  -8    0.68    0.90
   0   0  -8    0.68    0.68
   0   0   8    0.20    0.91
   0   0   8    0.55    1.03
   0   0   8    2.88    1.01
   0   0   8    0.92    0.69
   0   0   8    1.39    0.70
  -1   0  -8   21.67    3.44
  -1   0  -8   21.38    3.45
  -1   0  -8   27.83    4.16
  -1   0  -8   25.13    3.72
   1   0   8   19.96    3.25
   1   0   8   25.47    3.48
   1   0   8   26.77    3.60
   1   0   8   23.51    3.52
  -2   0  -8    6.43    1.50
  -2   0  -8    5.81    1.62
  -2   0  -8    6.87    2.33
  -2   0  -8    2.60    1.16
  -2   0  -8    7.30    2.24
  -2   0  -8    3.13    1.39
   2   0   8    4.87    1.67
   2   0   8    2.51    1.49
   2   0   8    1.75    1.26
   2   0   8    6.44    1.17
   2   0   8    3.49    1.36
  -3   0  -8    3.41    1.66
  -3   0  -8    0.74    2.45
  -3   0  -8   -0.08    2.15
   3   0   8   -0.70    1.61
   3   0   8   -0.10    1.63
  -4   0  -8    0.12    2.79
   4   0   8   -2.22    2.30
   4   0   8    1.90    1.26
   5  -1  -8    0.64    3.18
  -5   1   8    3.36    3.92
   4  -1  -8    1.64    2.60
   4  -1  -8    2.77    1.68
  -4   1   8    7.21    3.16
  -4   1   8    5.71    2.99
   3  -1  -8    0.60    1.34
   3  -1  -8    2.54    1.93
   3  -1  -8    5.14    1.39
   3  -1  -8    4.23    1.62
  -3   1   8    4.67    2.17
  -3   1   8    3.08    2.17
   2  -1  -8    4.54    1.42
   2  -1  -8    6.03    1.15
   2  -1  -8    4.41    1.38
   2  -1  -8    2.64    1.71
   2  -1  -8    4.84    1.54
  -2   1   8    6.33    1.18
  -2   1   8    3.93    1.18
  -2   1   8    7.66    2.06
  -2   1   8    4.56    1.73
   1  -1  -8   96.35   12.26
   1  -1  -8  110.56   12.14
   1  -1  -8  103.45   12.17
   1  -1  -8  103.33   12.18
  -1   1   8  101.42   12.33
  -1   1   8   92.81   11.91
  -1   1   8  109.19   12.10
  -1   1   8   98.20   12.14
  -1   1   8   96.54   12.04
   0  -1  -8    1.54    1.32
   0  -1  -8    0.41    1.10
   0  -1  -8    0.15    1.01
   0   1   8    0.87    0.94
   0   1   8    0.83    0.83
   0   1   8    0.59    1.08
   0   1   8    0.54    0.75
   0   1   8    0.11    0.54
   0   1   8   -0.34    0.88
  -1  -1  -8   74.33    8.95
  -1  -1  -8   80.49    9.17
  -1  -1  -8   67.43    8.81
  -1  -1  -8   67.50    8.96
  -1  -1  -8   68.56    8.86
   1   1   8   76.30    8.85
   1   1   8   72.81    8.74
   1   1   8   67.33    8.74
  -2  -1  -8   -0.69    1.86
  -2  -1  -8    0.16    1.15
  -2  -1  -8   -1.21    1.67
  -2  -1  -8    2.13    1.48
  -2  -1  -8   -0.01    0.99
   2   1   8    2.98    1.32
   2   1   8    1.26    1.51
   2   1   8    2.04    1.49
   2   1   8   -0.53    1.00
   2   1   8    0.00    0.88
  -3  -1  -8    3.08    2.86
  -3  -1  -8    2.46    2.43
   3   1   8    3.34    2.08
   3   1   8    1.55    1.37
   3   1   8    2.11    1.91
  -4  -1  -8    5.75    3.49
  -4  -1  -8    0.29    3.35
   4   1   8    3.03    2.55
   4   1   8   -0.08    1.29
   5  -2  -8   -2.83    3.23
  -5   2   8    3.23    4.14
   4  -2  -8   -0.19    1.13
   4  -2  -8   -0.60    2.66
  -4   2   8    4.08    2.66
  -4   2   8   -1.13    2.32
   3  -2  -8    4.94    1.52
   3  -2  -8    4.57    1.73
   3  -2  -8    1.61    1.53
   3  -2  -8    0.81    1.98
  -3   2   8    3.68    2.05
  -3   2   8    2.51    2.21
   2  -2  -8   17.46    3.44
   2  -2  -8   17.89    2.46
   2  -2  -8   16.29    2.89
   2  -2  -8   19.38    2.83
   2  -2  -8   18.09    2.81
   2  -2  -8   15.19    2.93
  -2   2   8   19.18    2.87
  -2   2   8   16.93    2.64
  -2   2   8   19.71    2.60
  -2   2   8   16.58    3.31
  -2   2   8   18.91    2.69
  -2   2   8   20.03    3.22
   1  -2  -8   43.54    4.93
   1  -2  -8   31.49    4.97
   1  -2  -8   28.50    4.46
   1  -2  -8   41.26    4.82
  -1   2   8   32.69    4.74
  -1   2   8   45.12    5.10
  -1   2   8   38.12    4.70
  -1   2   8   31.16    4.56
   0  -2  -8    0.20    0.91
   0  -2  -8   -0.89    0.97
   0  -2  -8    0.06    0.90
   0  -2  -8    0.12    1.40
   0  -2  -8    0.00    1.10
   0   2   8   -0.27    0.86
   0   2   8   -0.07    0.96
   0   2   8   -1.63    1.02
   0   2   8   -1.29    0.97
  -1  -2  -8   51.68    7.47
  -1  -2  -8   57.20    7.71
  -1  -2  -8   60.63    7.56
  -1  -2  -8   60.83    7.63
  -1  -2  -8   69.06    7.77
   1   2   8   56.88    7.44
   1   2   8   61.93    7.42
   1   2   8   55.72    7.36
  -2  -2  -8    5.79    2.04
  -2  -2  -8    7.66    2.78
  -2  -2  -8    8.44    2.03
  -2  -2  -8   10.13    2.78
   2   2   8    7.92    2.17
   2   2   8    9.24    2.23
   2   2   8    8.70    1.89
  -3  -2  -8    4.46    3.02
  -3  -2  -8    2.97    3.23
   3   2   8    5.12    1.65
   3   2   8    8.66    2.48
   3   2   8    7.22    2.38
  -4  -2  -8    2.70    3.53
  -4  -2  -8    0.23    3.85
   4   2   8    1.32    2.50
   4  -3  -8    2.85    1.54
   4  -3  -8    3.00    3.06
  -4   3   8    6.63    3.16
   3  -3  -8    4.75    1.69
   3  -3  -8    0.45    1.97
   3  -3  -8    2.90    1.84
   3  -3  -8    2.37    1.75
  -3   3   8    2.04    1.64
  -3   3   8    1.41    2.17
   2  -3  -8    8.23    1.87
   2  -3  -8    6.98    2.34
   2  -3  -8    7.79    1.92
   2  -3  -8    8.88    1.49
   2  -3  -8    3.33    1.94
   2  -3  -8    8.52    2.08
  -2   3   8    6.86    1.81
  -2   3   8    8.31    2.43
  -2   3   8    7.73    1.84
  -2   3   8    9.70    1.81
  -2   3   8    7.61    1.70
   1  -3  -8   -0.02    1.21
   1  -3  -8    0.30    1.36
   1  -3  -8    1.66    1.37
   1  -3  -8    5.09    1.95
  -1   3   8   -0.64    1.09
  -1   3   8    2.00    1.32
  -1   3   8    2.40    1.41
  -1   3   8    0.83    1.50
   0  -3  -8   18.89    3.22
   0  -3  -8   13.30    2.99
   0  -3  -8   17.52    2.76
   0  -3  -8   19.63    2.62
   0  -3  -8   12.76    2.94
   0   3   8   21.83    3.16
   0   3   8   15.34    2.87
   0   3   8   17.59    2.83
   0   3   8   21.49    3.01
  -1  -3  -8   44.20    5.97
  -1  -3  -8   49.59    6.11
  -1  -3  -8   36.58    6.01
  -1  -3  -8   35.14    5.60
  -1  -3  -8   31.04    5.61
   1   3   8   39.99    5.69
   1   3   8   38.08    5.55
   1   3   8   50.51    5.25
   1   3   8   37.58    5.32
  -2  -3  -8    1.00    1.77
  -2  -3  -8   -0.41    1.50
  -2  -3  -8    2.29    2.34
  -2  -3  -8    3.05    2.79
   2   3   8   -0.32    1.46
   2   3   8   -1.82    1.50
   2   3   8    1.82    1.38
  -3  -3  -8    9.90    3.69
  -3  -3  -8    9.16    3.75
   3   3   8    7.34    2.57
   3   3   8    5.81    1.87
   3   3   8    4.40    2.52
  -4  -3  -8   -0.43    3.58
  -4  -3  -8    4.85    4.38
   4   3   8    0.89    1.47
   4   3   8   -1.73    2.62
   4  -4  -8    2.81    3.00
   4  -4  -8    7.27    2.02
  -4   4   8    0.19    2.80
   3  -4  -8   -0.02    2.31
   3  -4  -8   -0.54    2.07
   3  -4  -8   -1.69    1.46
   3  -4  -8    0.71    1.91
  -3   4   8    2.27    2.32
   2  -4  -8   -2.74    1.55
   2  -4  -8    0.97    1.91
   2  -4  -8   -1.29    1.42
   2  -4  -8   -0.40    2.06
  -2   4   8    0.94    1.08
  -2   4   8   -1.46    1.53
  -2   4   8    1.83    1.48
  -2   4   8    0.96    1.43
   1  -4  -8   28.66    5.22
   1  -4  -8   36.21    5.49
   1  -4  -8   42.07    4.71
   1  -4  -8   40.38    5.66
   1  -4  -8   29.38    5.25
  -1   4   8   40.61    5.52
  -1   4   8   34.15    5.36
  -1   4   8   40.65    5.21
  -1   4   8   38.92    5.06
   0  -4  -8    0.76    1.74
   0  -4  -8   -0.77    1.40
   0  -4  -8   -0.04    1.29
   0  -4  -8    0.12    1.03
   0  -4  -8   -1.67    1.47
   0   4   8    2.71    1.36
   0   4   8    0.84    1.48
   0   4   8    1.39    1.28
   0   4   8   -1.39    1.14
  -1  -4  -8   10.37    2.97
  -1  -4  -8    9.24    2.70
  -1  -4  -8   11.86    2.85
  -1  -4  -8   12.33    2.98
  -1  -4  -8   16.51    3.70
   1   4   8   16.42    2.75
   1   4   8   12.25    2.74
   1   4   8   16.44    2.25
   1   4   8   11.99    2.58
  -2  -4  -8    2.91    2.84
  -2  -4  -8    3.68    2.74
  -2  -4  -8    3.01    1.86
  -2  -4  -8    1.66    1.96
   2   4   8    0.84    1.44
   2   4   8    2.03    1.96
   2   4   8    0.66    1.68
  -3  -4  -8   -5.00    2.71
  -3  -4  -8    1.30    3.66
   3   4   8    1.61    1.64
   3   4   8    0.42    2.43
   3   4   8    6.68    2.59
  -4  -4  -8   -4.97    3.49
  -4  -4  -8   -1.11    4.28
   4   4   8   -1.80    2.57
   4   4   8    0.66    1.56
   4  -5  -8    2.51    2.02
   4  -5  -8   -0.17    3.13
  -4   5   8   -0.48    2.72
   3  -5  -8    0.19    2.52
   3  -5  -8   -2.02    1.98
   3  -5  -8    2.49    2.99
   3  -5  -8   -0.26    1.77
  -3   5   8    3.77    2.27
  -3   5   8    2.69    2.50
   2  -5  -8   23.13    4.10
   2  -5  -8   19.92    4.13
   2  -5  -8   26.25    4.03
   2  -5  -8   16.58    4.23
  -2   5   8   20.44    3.77
  -2   5   8   21.25    3.52
  -2   5   8   23.87    4.11
  -2   5   8   21.93    3.52
   1  -5  -8   11.89    2.22
   1  -5  -8    6.15    2.45
   1  -5  -8   11.29    2.95
   1  -5  -8    8.79    2.85
   1  -5  -8    8.30    3.10
  -1   5   8   10.16    2.47
  -1   5   8   14.95    2.83
  -1   5   8   15.15    2.54
  -1   5   8   10.00    2.60
   0  -5  -8   -0.84    1.84
   0  -5  -8    0.54    1.72
   0  -5  -8   -0.21    1.78
   0  -5  -8   -2.96    1.66
   0  -5  -8   -0.83    1.61
   0   5   8   -1.75    1.27
   0   5   8   -1.24    1.52
   0   5   8   -0.27    1.51
   0   5   8   -1.49    1.39
  -1  -5  -8   20.03    3.52
  -1  -5  -8   15.91    3.51
  -1  -5  -8   12.69    3.24
  -1  -5  -8    8.84    2.92
   1   5   8   15.48    2.95
   1   5   8   20.64    3.27
   1   5   8   16.10    3.27
  -2  -5  -8   -2.19    1.84
  -2  -5  -8    6.71    3.28
  -2  -5  -8    1.44    2.20
  -2  -5  -8   -0.98    2.74
   2   5   8    0.88    1.89
   2   5   8    1.94    1.92
   2   5   8   -0.05    1.57
  -3  -5  -8    0.18    3.97
  -3  -5  -8    0.94    3.59
   3   5   8    2.38    1.84
   3   5   8    3.31    2.81
   3   5   8    4.65    2.60
   4  -6  -8   -6.13    3.17
   4  -6  -8   -0.54    2.11
  -4   6   8   -2.06    2.84
   3  -6  -8    0.41    2.05
   3  -6  -8    1.75    2.78
   3  -6  -8    1.90    2.65
   3  -6  -8   -2.07    2.96
  -3   6   8    2.40    2.61
  -3   6   8   -1.69    1.87
   2  -6  -8   -0.04    1.77
   2  -6  -8   -1.10    2.24
   2  -6  -8   -2.99    2.50
   2  -6  -8   -1.72    2.21
  -2   6   8   -0.94    1.47
  -2   6   8   -1.33    1.50
  -2   6   8   -1.48    1.80
  -2   6   8   -0.08    1.92
   1  -6  -8    0.83    1.74
   1  -6  -8    2.80    1.89
   1  -6  -8    0.79    2.09
   1  -6  -8    0.58    2.62
   1  -6  -8   -1.90    2.24
  -1   6   8   -1.46    1.77
  -1   6   8    1.36    1.79
  -1   6   8    0.98    1.41
  -1   6   8    3.14    1.63
  -1   6   8   -0.92    1.82
   0  -6  -8   10.84    3.26
   0  -6  -8   20.80    3.49
   0  -6  -8   13.12    3.26
   0  -6  -8    6.22    2.74
   0   6   8   16.70    2.92
   0   6   8   10.65    2.91
   0   6   8   18.37    3.26
   0   6   8   21.55    3.57
  -1  -6  -8   16.40    3.84
  -1  -6  -8   17.33    4.26
  -1  -6  -8   24.72    4.55
   1   6   8   23.65    4.15
   1   6   8   30.20    4.26
   1   6   8   20.47    3.83
  -2  -6  -8    0.53    3.58
  -2  -6  -8   -3.81    3.30
  -2  -6  -8   -3.92    2.24
  -2  -6  -8   -0.34    2.51
   2   6   8   -0.78    1.69
   2   6   8    0.66    2.27
   2   6   8   -0.25    2.04
  -3  -6  -8    9.22    5.19
  -3  -6  -8   18.89    5.53
   3   6   8    2.97    3.18
   3   6   8    1.28    1.98
   3   6   8    3.49    2.86
   4  -7  -8    6.36    4.69
   3  -7  -8    0.67    2.28
   3  -7  -8   -1.55    2.88
   3  -7  -8    0.88    3.52
   3  -7  -8   -1.25    2.90
  -3   7   8    3.41    2.80
  -3   7   8    2.21    2.32
   2  -7  -8   -1.43    2.47
   2  -7  -8    0.52    2.19
   2  -7  -8   -1.12    3.16
   2  -7  -8    2.52    2.79
  -2   7   8   -0.17    1.64
  -2   7   8   -1.22    1.98
  -2   7   8    3.16    2.22
  -2   7   8   -0.40    1.93
   1  -7  -8    0.85    2.60
   1  -7  -8    0.84    2.38
   1  -7  -8    0.63    1.96
   1  -7  -8    2.72    2.54
   1  -7  -8    2.75    3.12
  -1   7   8   -1.35    2.06
  -1   7   8   -1.50    1.88
  -1   7   8   -0.23    1.38
  -1   7   8   -0.57    1.59
  -1   7   8   -0.34    2.09
   0  -7  -8    3.41    2.59
   0  -7  -8    0.29    1.90
   0  -7  -8    1.96    2.53
   0  -7  -8    1.38    2.88
   0   7   8    2.06    2.02
   0   7   8    0.26    1.50
   0   7   8   -1.23    2.04
   0   7   8    0.40    2.00
  -1  -7  -8    2.42    3.01
  -1  -7  -8    0.10    2.76
  -1  -7  -8    2.04    2.27
   1   7   8   -0.73    1.92
   1   7   8   -3.07    2.13
   1   7   8   -1.08    1.62
  -2  -7  -8    0.31    3.97
  -2  -7  -8    1.12    2.94
  -2  -7  -8    3.41    4.68
   2   7   8    1.90    2.51
   2   7   8   -1.30    2.31
   2   7   8    2.03    1.98
  -3  -7  -8    6.34    5.17
  -3  -7  -8    3.96    5.51
   3   7   8   -2.71    2.51
   3   7   8    2.73    3.38
   3   7   8    5.01    2.49
   3  -8  -8   -1.55    3.15
   3  -8  -8    5.78    4.06
   3  -8  -8    3.40    2.74
  -3   8   8   -0.45    2.15
  -3   8   8    2.07    2.84
   2  -8  -8    3.64    3.44
   2  -8  -8    4.38    2.70
   2  -8  -8    1.91    3.33
   2  -8  -8   12.02    4.51
  -2   8   8    1.18    2.70
  -2   8   8    7.55    2.62
  -2   8   8   11.09    2.91
   1  -8  -8    1.62    3.12
   1  -8  -8    0.23    2.10
   1  -8  -8    4.46    3.15
   1  -8  -8    5.96    3.83
  -1   8   8    1.60    1.88
  -1   8   8    5.74    3.35
  -1   8   8    3.55    1.95
  -1   8   8    1.19    2.52
  -1   8   8   -0.54    2.46
   0  -8  -8   -2.30    2.96
   0  -8  -8   -0.26    2.97
   0  -8  -8   -2.48    2.10
   0   8   8   -1.13    2.29
   0   8   8    2.00    1.93
   0   8   8   -0.94    2.32
   0   8   8    3.44    2.73
  -1  -8  -8   -1.45    3.29
  -1  -8  -8   -2.36    2.28
  -1  -8  -8    7.04    3.80
   1   8   8    4.91    2.52
   1   8   8    3.08    2.47
   1   8   8    0.44    2.09
  -2  -8  -8    0.32    4.55
  -2  -8  -8   -4.61    5.27
  -2  -8  -8    1.33    3.52
   2   8   8    0.27    2.70
   2   8   8   -1.36    1.91
   2   8   8    2.57    3.02
   3  -9  -8   -3.05    4.09
   2  -9  -8    4.57    3.73
   2  -9  -8    1.26    2.39
   2  -9  -8    0.64    4.43
   2  -9  -8   -0.28    3.35
  -2   9   8    2.32    3.05
  -2   9   8   -2.33    2.84
  -2   9   8    2.63    2.46
   1  -9  -8   -3.41    4.10
   1  -9  -8   -2.41    3.15
   1  -9  -8   -0.33    2.22
   1  -9  -8   -0.86    3.29
  -1   9   8   -2.99    2.47
  -1   9   8   -0.71    1.81
  -1   9   8   -3.21    2.69
   0  -9  -8    4.03    2.92
   0  -9  -8    5.66    3.95
   0   9   8    4.44    3.20
   0   9   8    3.93    2.42
   0   9   8    6.90    3.19
   0   9   8    4.57    3.00
  -1  -9  -8    1.56    3.89
  -1  -9  -8    6.24    4.68
  -1  -9  -8    2.91    3.00
   1   9   8    0.13    2.23
   1   9   8    0.82    2.68
   1   9   8    2.70    2.89
   2   9   8   -4.04    2.80
   2   9   8    1.40    3.07
   2 -10  -8   -0.27    4.00
   2 -10  -8    3.07    4.05
   2 -10  -8    4.80    5.19
   2 -10  -8   -2.17    2.41
  -2  10   8   -2.03    3.38
  -2  10   8   -0.62    3.08
   1 -10  -8    0.51    4.67
   1 -10  -8    1.28    2.65
   1 -10  -8   -2.68    3.80
  -1  10   8   -0.55    2.95
  -1  10   8   -2.31    3.13
  -1  10   8    3.81    2.52
   0 -10  -8    2.92    4.31
   0 -10  -8   -0.67    2.87
   0  10   8    0.77    3.33
   0  10   8    1.19    2.14
   0  10   8    2.28    3.28
   1  10   8    5.34    3.65
   1  10   8   -3.12    2.87
   1  12  -9   -1.30    1.66
   1  12  -9   -0.37    2.15
  -1 -12   9    2.74    3.31
  -1 -12   9   -4.57    4.76
  -1 -12   9   -1.14    5.27
  -1 -12   9    6.79    3.89
   0  12  -9   -0.61    2.16
   0  12  -9    0.72    1.73
   0  12  -9    0.10    2.18
   0 -12   9   -2.98    4.24
   0 -12   9    7.66    3.83
   0 -12   9    3.24    2.74
  -1  12  -9    3.79    3.04
  -1  12  -9    0.64    1.81
  -1  12  -9   -2.72    2.05
   1 -12   9   -0.22    2.57
   1 -12   9    2.91    3.23
   1 -12   9   -2.18    4.15
  -2  12  -9    3.74    3.22
  -2  12  -9    0.46    4.05
   2 -12   9    1.80    3.61
   2 -12   9   -1.28    3.25
   2 -12   9    0.67    2.72
   2  11  -9    5.81    2.58
   2  11  -9    0.60    1.94
   2  11  -9    3.62    2.71
  -2 -11   9   10.33    4.15
  -2 -11   9    7.08    5.01
  -2 -11   9   -6.52    5.41
   1  11  -9    3.98    2.38
   1  11  -9    3.23    2.18
   1  11  -9   -0.68    1.47
  -1 -11   9   -2.10    2.72
  -1 -11   9    5.76    3.42
  -1 -11   9    8.21    4.35
  -1 -11   9    2.21    4.91
   0  11  -9   -1.44    1.91
   0  11  -9    4.26    2.52
   0  11  -9   -0.23    1.76
   0 -11   9    5.17    2.89
   0 -11   9    1.41    3.45
   0 -11   9    2.49    3.07
   0 -11   9    2.15    3.60
  -1  11  -9    1.15    2.07
  -1  11  -9    3.21    2.14
  -1  11  -9    1.31    2.64
   1 -11   9    2.74    2.90
   1 -11   9    1.58    3.77
   1 -11   9    3.10    2.55
  -2  11  -9   -3.89    2.65
  -2  11  -9   -9.22    3.07
   2 -11   9   -0.45    2.27
   2 -11   9    0.91    3.83
   2 -11   9    2.75    3.28
   2  10  -9   -0.29    1.69
   2  10  -9   -1.44    2.16
  -2 -10   9    1.66    3.31
  -2 -10   9   -5.50    4.69
  -2 -10   9    3.23    4.67
   1  10  -9    0.77    1.99
   1  10  -9    0.13    1.69
  -1 -10   9   -0.88    4.56
  -1 -10   9   -1.08    2.29
  -1 -10   9    7.54    3.39
  -1 -10   9   -3.82    3.36
   0  10  -9    5.41    2.19
   0  10  -9    8.02    2.61
   0 -10   9   12.02    3.68
   0 -10   9   11.03    4.23
   0 -10   9   10.10    3.38
   0 -10   9    6.39    2.92
  -1  10  -9    2.89    2.62
  -1  10  -9   -1.45    1.53
  -1  10  -9    0.06    1.95
   1 -10   9   -1.21    2.63
   1 -10   9    1.20    2.59
   1 -10   9   -1.35    3.06
   1 -10   9   -0.89    3.16
  -2  10  -9   -6.91    2.66
  -2  10  -9    0.22    2.97
  -2  10  -9    2.71    2.16
   2 -10   9   -2.74    3.08
   2 -10   9    1.38    2.55
   2 -10   9   -3.20    2.62
  -3  10  -9    4.78    3.66
   3 -10   9    5.10    4.16
   3 -10   9    0.91    3.13
   3 -10   9    4.63    3.03
   3   9  -9    0.34    2.49
   3   9  -9    1.22    1.99
  -3  -9   9   -6.87    4.49
  -3  -9   9    4.22    5.83
   2   9  -9   -0.75    2.03
   2   9  -9    3.45    1.85
  -2  -9   9    1.90    2.87
  -2  -9   9    0.49    3.93
  -2  -9   9    1.48    4.54
   1   9  -9    1.66    1.99
   1   9  -9   -0.53    1.64
  -1  -9   9    2.31    4.01
  -1  -9   9    6.72    3.50
  -1  -9   9    2.12    2.72
  -1  -9   9    4.73    2.63
   0   9  -9    4.96    2.02
   0   9  -9    0.92    1.54
   0  -9   9   -0.21    2.20
   0  -9   9    3.40    2.93
   0  -9   9   -5.46    2.70
   0  -9   9   -2.70    1.89
  -1   9  -9    5.63    2.65
  -1   9  -9    2.01    1.94
  -1   9  -9    4.85    1.97
   1  -9   9    8.13    3.34
   1  -9   9    3.65    2.79
   1  -9   9    1.65    2.10
  -2   9  -9    0.02    1.79
  -2   9  -9   -0.94    2.36
  -2   9  -9    1.90    2.04
  -2   9  -9    7.77    3.31
   2  -9   9    7.72    3.02
   2  -9   9    3.26    2.52
   2  -9   9    2.48    2.89
  -3   9  -9   -1.25    3.08
   3  -9   9    1.80    2.94
   3  -9   9    0.23    2.42
   3  -9   9    2.62    3.30
   3   8  -9   -0.40    2.37
   3   8  -9    2.37    1.88
  -3  -8   9    0.65    4.22
  -3  -8   9   -1.46    3.55
   2   8  -9   10.23    2.63
   2   8  -9    8.95    2.83
   2   8  -9   11.83    2.83
  -2  -8   9    9.74    3.33
  -2  -8   9    9.89    4.67
  -2  -8   9   11.35    3.98
  -2  -8   9   15.81    4.27
   1   8  -9   -0.79    1.56
   1   8  -9    1.60    1.48
   1   8  -9    2.59    1.73
  -1  -8   9   -0.83    2.72
  -1  -8   9   -4.00    2.97
  -1  -8   9   -0.72    1.98
  -1  -8   9   -3.50    1.94
   0   8  -9    0.88    1.30
   0   8  -9    0.21    1.56
   0  -8   9   -0.09    2.60
   0  -8   9    3.83    2.98
   0  -8   9    0.13    2.04
   0  -8   9    0.96    2.02
  -1   8  -9    7.42    2.84
  -1   8  -9    8.91    2.40
  -1   8  -9    6.88    2.16
   1  -8   9    5.27    2.57
   1  -8   9   10.28    3.14
   1  -8   9    3.07    2.44
  -2   8  -9   -0.38    1.63
  -2   8  -9   -1.37    2.64
  -2   8  -9   -0.12    1.74
  -2   8  -9    0.45    2.43
   2  -8   9   -0.53    2.27
   2  -8   9   -2.42    1.75
   2  -8   9   -0.53    2.44
  -3   8  -9    0.99    2.85
   3  -8   9   -1.44    3.09
   3  -8   9   -0.29    2.63
   3  -8   9    2.70    2.27
  -4   8  -9   -0.71    3.58
   4  -8   9    1.21    2.71
   4  -8   9    1.86    3.93
   4   7  -9    0.19    1.92
  -4  -7   9    1.53    4.63
  -4  -7   9    1.12    4.69
   3   7  -9    2.86    2.27
   3   7  -9    3.48    1.84
  -3  -7   9    4.56    3.86
  -3  -7   9    3.03    3.61
   2   7  -9   -0.07    1.47
   2   7  -9    2.08    1.73
   2   7  -9   -0.58    1.72
  -2  -7   9    3.33    2.51
  -2  -7   9    2.64    3.02
  -2  -7   9    1.47    3.49
  -2  -7   9    6.52    2.51
   1   7  -9    2.93    1.57
   1   7  -9    5.21    1.93
   1   7  -9    3.27    1.86
  -1  -7   9    2.87    2.46
  -1  -7   9    3.37    3.22
  -1  -7   9    2.34    2.11
  -1  -7   9    2.01    2.22
   0   7  -9   59.18    7.19
   0   7  -9   52.51    7.20
   0  -7   9   44.43    7.41
   0  -7   9   54.39    7.57
   0  -7   9   51.57    7.74
   0  -7   9   59.34    8.08
  -1   7  -9    1.69    1.63
  -1   7  -9    0.80    1.61
   1  -7   9    0.24    1.98
   1  -7   9   -0.55    1.55
   1  -7   9   -1.38    1.80
  -2   7  -9    1.06    1.68
  -2   7  -9   -1.24    2.36
  -2   7  -9   -1.97    1.40
  -2   7  -9   -0.46    1.92
   2  -7   9   -1.33    1.73
   2  -7   9    2.45    2.01
   2  -7   9   -0.84    2.26
  -3   7  -9    2.92    2.95
   3  -7   9    1.72    2.36
   3  -7   9    2.68    2.23
   3  -7   9    4.79    3.29
  -4   7  -9    0.85    3.18
   4  -7   9   -0.68    2.38
   4  -7   9   -2.85    3.38
   4   6  -9   -0.45    1.74
  -4  -6   9    2.99    3.70
  -4  -6   9   -6.04    4.33
   3   6  -9    0.36    1.55
   3   6  -9   -0.18    1.70
   3   6  -9   -0.80    1.96
  -3  -6   9   -2.79    3.10
  -3  -6   9    3.21    3.14
   2   6  -9   12.05    2.51
   2   6  -9    6.72    2.21
   2   6  -9    7.17    2.13
  -2  -6   9   11.65    2.96
  -2  -6   9    9.75    3.51
  -2  -6   9    5.94    2.44
  -2  -6   9    7.62    3.39
   1   6  -9   -0.83    1.29
   1   6  -9    0.09    1.17
   1   6  -9   -0.35    1.33
  -1  -6   9    1.01    1.82
  -1  -6   9    2.84    2.43
  -1  -6   9   -1.83    1.69
  -1  -6   9    0.76    2.39
   0   6  -9    3.90    1.94
   0   6  -9    3.48    1.58
   0   6  -9    1.87    1.47
   0  -6   9   -1.17    1.48
   0  -6   9    0.47    1.79
   0  -6   9   -0.84    1.73
   0  -6   9    3.67    1.59
  -1   6  -9   -0.74    1.23
  -1   6  -9   -1.18    1.33
   1  -6   9   -2.61    1.70
   1  -6   9    1.59    1.66
   1  -6   9   -0.04    1.72
  -2   6  -9   16.31    3.86
  -2   6  -9   19.56    3.16
  -2   6  -9   22.48    3.24
  -2   6  -9   15.64    3.11
   2  -6   9   14.47    3.08
   2  -6   9   15.83    3.66
   2  -6   9   13.46    2.80
   2  -6   9   14.22    3.31
  -3   6  -9    2.89    2.60
   3  -6   9    0.80    2.18
   3  -6   9   -0.49    1.76
   3  -6   9    3.44    2.63
  -4   6  -9    4.32    3.01
   4  -6   9   -1.03    2.90
   4  -6   9    1.99    2.28
   4   5  -9    0.00    1.72
  -4  -5   9   -2.12    4.48
  -4  -5   9    2.63    3.69
   3   5  -9    4.81    2.16
   3   5  -9    2.87    1.73
   3   5  -9    9.25    2.27
  -3  -5   9    5.66    3.44
  -3  -5   9    4.42    2.92
   2   5  -9   15.74    2.95
   2   5  -9   14.38    2.72
   2   5  -9   11.99    2.77
  -2  -5   9   12.78    3.04
  -2  -5   9   14.34    3.76
  -2  -5   9   18.11    3.98
  -2  -5   9   15.36    2.97
   1   5  -9    0.02    1.19
   1   5  -9   -0.01    0.97
   1   5  -9    1.66    1.38
  -1  -5   9    2.24    1.72
  -1  -5   9   -2.34    1.87
  -1  -5   9   -5.13    1.93
  -1  -5   9   -2.85    1.29
   0   5  -9   38.17    4.47
   0   5  -9   24.70    4.39
   0   5  -9   30.07    4.33
   0  -5   9   23.72    4.13
   0  -5   9   31.46    3.92
   0  -5   9   25.07    4.14
   0  -5   9   21.99    4.19
  -1   5  -9    1.44    1.35
  -1   5  -9    1.33    1.24
   1  -5   9    3.21    1.65
   1  -5   9    2.40    1.59
   1  -5   9    2.83    1.54
   1  -5   9    1.66    1.52
  -2   5  -9    0.88    2.04
  -2   5  -9    2.63    1.34
  -2   5  -9    2.70    1.56
  -2   5  -9    2.56    1.49
   2  -5   9   -0.22    2.19
   2  -5   9    1.61    1.48
   2  -5   9    0.50    1.53
   2  -5   9    2.14    1.84
  -3   5  -9   -0.51    2.35
   3  -5   9    1.57    1.63
   3  -5   9   -0.92    2.08
   3  -5   9   -1.13    1.73
   3  -5   9    0.68    2.52
  -4   5  -9    3.04    2.84
   4  -5   9    2.58    3.46
   4  -5   9    1.60    1.96
   4   4  -9    0.30    2.17
   4   4  -9   -0.47    1.56
  -4  -4   9    4.91    3.32
  -4  -4   9    3.58    4.07
   3   4  -9    3.96    1.93
   3   4  -9    4.45    1.66
   3   4  -9    4.38    2.03
  -3  -4   9    2.72    3.09
  -3  -4   9    6.38    2.57
   2   4  -9   13.25    2.33
   2   4  -9    9.95    2.50
   2   4  -9   13.12    2.41
   2   4  -9   12.41    2.18
   2   4  -9   13.18    2.49
  -2  -4   9   11.01    3.41
  -2  -4   9   13.10    2.78
  -2  -4   9   16.95    3.19
  -2  -4   9    9.95    2.53
  -2  -4   9   13.97    2.44
   1   4  -9    8.44    1.79
   1   4  -9   13.09    2.22
   1   4  -9   11.08    2.04
   1   4  -9   12.30    2.42
  -1  -4   9    5.61    2.12
  -1  -4   9   11.98    2.39
  -1  -4   9    9.61    2.25
  -1  -4   9    9.34    3.13
   0   4  -9  108.50   13.69
   0   4  -9  121.73   13.50
   0   4  -9  115.39   13.52
   0  -4   9  106.30   13.44
   0  -4   9  112.63   13.52
   0  -4   9  115.17   13.20
   0  -4   9   99.77   13.49
  -1   4  -9   15.93    2.52
  -1   4  -9   17.69    2.65
  -1   4  -9   10.24    2.38
  -1   4  -9   15.32    3.17
   1  -4   9   16.97    2.83
   1  -4   9   10.26    2.30
   1  -4   9   12.41    2.44
   1  -4   9   10.44    2.32
  -2   4  -9   15.68    2.82
  -2   4  -9   17.14    3.48
  -2   4  -9   12.75    2.80
  -2   4  -9   19.77    2.53
  -2   4  -9   19.59    3.40
   2  -4   9   12.07    2.69
   2  -4   9   16.71    3.03
   2  -4   9   14.60    3.34
   2  -4   9   19.60    3.02
  -3   4  -9    4.33    2.32
  -3   4  -9    4.65    2.34
   3  -4   9    1.80    1.73
   3  -4   9   -0.82    1.95
   3  -4   9   -0.30    2.12
   3  -4   9   -1.32    1.28
  -4   4  -9    0.81    2.52
  -4   4  -9   -1.44    2.24
   4  -4   9    1.32    3.25
   4  -4   9   -3.07    1.61
   4  -4   9   -2.00    2.66
   4   3  -9   -1.43    2.08
   4   3  -9    0.57    1.57
  -4  -3   9   -5.85    3.35
  -4  -3   9    2.93    2.89
   3   3  -9    3.44    1.53
   3   3  -9    4.78    2.23
   3   3  -9    4.32    1.84
  -3  -3   9    6.83    3.40
  -3  -3   9    6.91    2.41
   2   3  -9   15.52    2.73
   2   3  -9   12.70    2.14
   2   3  -9    8.79    2.11
   2   3  -9   11.83    1.81
  -2  -3   9    9.61    1.94
  -2  -3   9   14.55    2.64
  -2  -3   9    7.83    2.97
  -2  -3   9    9.10    2.26
  -2  -3   9    8.17    2.19
   1   3  -9   34.09    3.77
   1   3  -9   25.02    4.33
   1   3  -9   32.79    4.14
   1   3  -9   33.63    4.41
  -1  -3   9   24.39    4.21
  -1  -3   9   28.15    4.30
  -1  -3   9   30.17    5.14
  -1  -3   9   27.42    4.02
   0   3  -9   10.93    2.03
   0   3  -9    8.06    1.50
   0   3  -9    6.83    1.81
   0   3  -9    6.32    1.95
   0   3  -9   11.36    1.56
   0  -3   9    8.44    1.94
   0  -3   9    9.75    2.14
   0  -3   9    6.81    1.78
   0  -3   9    8.79    1.63
   0  -3   9    8.48    1.74
  -1   3  -9   -0.73    0.91
  -1   3  -9   -0.42    0.95
  -1   3  -9    0.43    1.38
  -1   3  -9    0.23    1.01
   1  -3   9   -0.16    1.13
   1  -3   9    1.27    1.16
   1  -3   9   -0.76    1.14
   1  -3   9    0.26    1.19
  -2   3  -9   50.17    6.87
  -2   3  -9   54.05    7.17
  -2   3  -9   58.37    6.89
  -2   3  -9   56.72    7.49
   2  -3   9   46.74    6.82
   2  -3   9   54.20    7.04
   2  -3   9   50.56    7.09
   2  -3   9   59.51    6.94
   2  -3   9   54.52    6.91
  -3   3  -9   -0.15    1.96
  -3   3  -9   -0.83    1.83
   3  -3   9    0.70    2.39
   3  -3   9   -1.42    1.81
   3  -3   9    0.34    1.29
   3  -3   9    1.24    1.69
  -4   3  -9    2.57    2.61
  -4   3  -9    2.42    2.64
   4  -3   9    3.72    3.11
   4  -3   9   -0.86    1.48
   4  -3   9    1.44    2.40
   4   2  -9   -0.38    2.28
   4   2  -9    0.84    1.39
  -4  -2   9   -3.30    2.60
  -4  -2   9   -1.42    3.07
   3   2  -9    6.24    1.96
   3   2  -9   10.62    1.66
   3   2  -9    6.58    1.84
   3   2  -9    5.35    2.39
  -3  -2   9   13.93    2.83
  -3  -2   9    8.87    3.47
   2   2  -9    3.91    1.02
   2   2  -9    3.51    1.45
   2   2  -9    3.97    1.36
   2   2  -9    5.46    1.39
   2   2  -9    5.71    1.92
  -2  -2   9    5.81    1.56
  -2  -2   9    3.24    1.45
  -2  -2   9    3.63    2.61
  -2  -2   9    4.55    1.25
  -2  -2   9    6.49    1.61
   1   2  -9   10.71    2.40
   1   2  -9   13.70    2.26
   1   2  -9   13.25    2.33
   1   2  -9   13.14    2.19
  -1  -2   9   12.26    2.24
  -1  -2   9   12.74    2.28
   0   2  -9   95.00    9.95
   0   2  -9   93.33   10.14
   0   2  -9   74.76    9.57
   0   2  -9   84.30    9.91
   0   2  -9   82.11    9.65
   0  -2   9   77.93    9.66
   0  -2   9   73.88    9.85
   0  -2   9   81.38    9.86
   0  -2   9   77.02    9.93
  -1   2  -9   13.87    2.30
  -1   2  -9    9.81    2.64
  -1   2  -9   12.88    2.43
  -1   2  -9   10.61    2.09
   1  -2   9   11.46    2.28
   1  -2   9   11.19    2.27
   1  -2   9   11.11    2.19
   1  -2   9   11.06    2.20
  -2   2  -9   -0.25    1.42
  -2   2  -9   -0.04    1.15
  -2   2  -9   -1.55    0.99
  -2   2  -9    3.58    1.90
  -2   2  -9    1.48    1.32
   2  -2   9    1.04    1.41
   2  -2   9   -0.50    1.07
   2  -2   9   -0.38    1.83
   2  -2   9   -2.27    1.27
   2  -2   9   -2.65    1.08
  -3   2  -9    1.43    1.85
  -3   2  -9    0.62    1.96
   3  -2   9    0.11    1.82
   3  -2   9    1.50    1.25
   3  -2   9   -3.01    1.77
   3  -2   9    0.05    2.37
  -4   2  -9    4.15    2.64
  -4   2  -9    4.73    2.79
   4  -2   9    1.74    1.52
   4  -2   9    7.56    2.97
   4  -2   9    7.54    2.78
   5   1  -9   -1.57    3.09
   4   1  -9    0.96    1.37
   4   1  -9   -4.42    2.20
  -4  -1   9    0.00    2.48
  -4  -1   9    2.22    3.33
   3   1  -9    2.10    1.25
   3   1  -9    3.58    2.08
   3   1  -9    1.37    1.15
   3   1  -9    2.22    1.55
  -3  -1   9    3.64    2.26
  -3  -1   9    4.08    2.66
  -3  -1   9    3.66    2.06
   2   1  -9    2.29    1.04
   2   1  -9    2.87    1.61
   2   1  -9    3.13    1.20
   2   1  -9    3.12    1.14
   2   1  -9    0.47    1.22
  -2  -1   9    1.71    2.09
  -2  -1   9    1.72    1.18
  -2  -1   9    2.49    0.99
  -2  -1   9    1.01    1.16
  -2  -1   9    1.12    1.56
  -2  -1   9    0.01    1.07
   1   1  -9   44.43    4.91
   1   1  -9   40.05    4.96
   1   1  -9   37.54    5.38
   1   1  -9   37.14    5.02
  -1  -1   9   36.75    4.94
  -1  -1   9   38.18    4.98
  -1  -1   9   37.33    5.02
  -1  -1   9   34.43    4.63
   0   1  -9   53.67    6.76
   0   1  -9   53.67    6.59
   0   1  -9   55.16    6.64
   0   1  -9   48.22    6.38
   0   1  -9   48.39    6.24
   0  -1   9   55.31    6.33
   0  -1   9   48.93    6.59
   0  -1   9   54.10    6.58
   0  -1   9   53.83    6.60
  -1   1  -9   17.61    3.51
  -1   1  -9   15.87    2.79
  -1   1  -9   19.00    2.85
  -1   1  -9   18.97    3.18
   1  -1   9   19.33    3.06
   1  -1   9   15.15    2.76
  -2   1  -9   27.57    4.83
  -2   1  -9   30.30    4.23
  -2   1  -9   28.09    4.42
  -2   1  -9   29.93    4.35
  -2   1  -9   32.74    4.38
   2  -1   9   30.82    4.39
   2  -1   9   28.25    4.32
   2  -1   9   25.63    4.17
   2  -1   9   34.19    4.38
  -3   1  -9   -0.45    1.75
  -3   1  -9    3.42    2.26
   3  -1   9    0.25    1.68
   3  -1   9    1.31    1.24
   3  -1   9   -2.20    1.68
  -4   1  -9    0.96    2.51
   4  -1   9   -1.82    2.66
   4  -1   9    1.66    2.32
   4  -1   9   -0.84    1.18
   5   0  -9    0.58    3.36
   4   0  -9    1.45    1.30
   4   0  -9    0.43    2.60
  -4   0   9    2.16    2.73
  -4   0   9    3.52    2.90
   3   0  -9   17.96    3.06
   3   0  -9   17.79    3.65
   3   0  -9   16.93    3.08
   3   0  -9   22.00    2.97
  -3   0   9   18.13    3.43
  -3   0   9   14.97    3.67
  -3   0   9   18.46    3.97
   2   0  -9    2.80    1.73
   2   0  -9    3.80    1.38
   2   0  -9    6.36    1.61
   2   0  -9    5.66    1.58
   2   0  -9    6.52    1.46
  -2   0   9    3.84    1.24
  -2   0   9    7.98    2.55
  -2   0   9    5.54    1.83
  -2   0   9    3.91    1.28
  -2   0   9    4.87    1.45
  -2   0   9    2.74    1.10
   1   0  -9   17.83    2.94
   1   0  -9   21.07    3.10
   1   0  -9   13.79    2.96
   1   0  -9   17.96    2.81
  -1   0   9   18.32    3.29
  -1   0   9   17.88    2.88
  -1   0   9   18.84    2.82
   0   0  -9   31.47    4.30
   0   0  -9   32.70    4.21
   0   0  -9   32.96    4.01
   0   0  -9   25.60    4.31
   0   0  -9   43.34    4.95
   0   0   9   31.51    4.27
   0   0   9   32.12    4.60
   0   0   9   32.69    4.30
   0   0   9   31.98    4.01
   0   0   9   28.54    3.95
  -1   0  -9    1.17    1.16
  -1   0  -9   -0.62    1.49
  -1   0  -9    2.77    1.34
  -1   0  -9    1.04    1.25
   1   0   9    0.83    1.11
   1   0   9    2.30    1.29
   1   0   9    0.69    1.09
  -2   0  -9   34.34    4.71
  -2   0  -9   38.75    5.03
  -2   0  -9   35.95    4.95
  -2   0  -9   43.35    5.87
   2   0   9   27.77    4.96
   2   0   9   35.99    5.08
   2   0   9   38.49    4.91
   2   0   9   36.66    4.89
  -3   0  -9    1.06    1.57
  -3   0  -9    0.63    2.33
   3   0   9    0.19    1.86
   3   0   9   -1.29    1.70
   3   0   9    1.63    1.31
  -4   0  -9   -3.03    2.63
   4   0   9   -0.55    2.39
   4   0   9    0.73    1.31
   4  -1  -9    2.62    1.29
   4  -1  -9   -0.57    2.24
  -4   1   9   -0.39    2.46
  -4   1   9   -0.48    2.51
   3  -1  -9    7.40    2.29
   3  -1  -9    7.39    2.51
   3  -1  -9   13.27    2.22
   3  -1  -9    6.10    2.63
  -3   1   9   14.88    3.04
  -3   1   9   15.83    3.27
   2  -1  -9    4.07    2.04
   2  -1  -9    0.56    1.14
   2  -1  -9    4.91    1.34
   2  -1  -9    2.94    1.50
  -2   1   9    2.77    1.06
  -2   1   9    2.51    1.18
  -2   1   9    1.46    1.60
  -2   1   9    0.65    1.73
   1  -1  -9   71.85    8.32
   1  -1  -9   67.67    8.43
   1  -1  -9   73.32    8.39
  -1   1   9   52.94    7.97
  -1   1   9   65.64    8.25
  -1   1   9   71.85    8.23
  -1   1   9   64.44    8.47
  -1   1   9   73.45    8.22
   0  -1  -9   16.31    2.92
   0  -1  -9   15.41    2.84
   0  -1  -9   13.99    2.82
   0   1   9   18.45    2.63
   0   1   9   14.00    2.69
   0   1   9   13.25    2.64
   0   1   9   19.36    2.41
   0   1   9   22.74    2.83
   0   1   9   18.09    3.00
  -1  -1  -9   15.44    3.07
  -1  -1  -9   10.16    2.38
  -1  -1  -9   14.45    2.76
  -1  -1  -9    8.87    2.30
  -1  -1  -9   13.22    2.67
   1   1   9   13.24    2.41
   1   1   9   14.93    2.00
   1   1   9   11.31    2.35
   1   1   9   16.00    2.53
  -2  -1  -9    9.52    1.84
  -2  -1  -9    9.64    2.35
  -2  -1  -9   10.70    2.19
  -2  -1  -9    5.50    2.63
  -2  -1  -9   10.28    3.11
   2   1   9   12.68    2.51
   2   1   9    9.59    2.16
   2   1   9   12.69    2.51
   2   1   9   10.66    1.75
  -3  -1  -9   -0.21    2.69
  -3  -1  -9   -1.91    2.24
   3   1   9    0.33    1.90
   3   1   9    0.78    1.36
   3   1   9   -1.61    1.69
  -4  -1  -9    1.92    3.85
  -4  -1  -9    2.71    3.38
   4   1   9    1.05    2.47
   4   1   9    2.21    1.46
   4  -2  -9   -0.36    2.85
   4  -2  -9    0.09    1.31
  -4   2   9   -2.15    2.50
  -4   2   9    5.97    2.99
   3  -2  -9    0.78    2.16
   3  -2  -9   -2.07    1.21
   3  -2  -9    2.21    1.68
   3  -2  -9    3.69    2.29
  -3   2   9   -1.28    1.82
  -3   2   9   -0.58    1.54
   2  -2  -9   -0.51    0.99
   2  -2  -9    0.68    1.15
   2  -2  -9   -0.78    1.30
   2  -2  -9    0.29    1.23
   2  -2  -9   -0.80    1.82
  -2   2   9   -1.62    1.43
  -2   2   9    0.23    1.53
  -2   2   9    0.32    0.92
  -2   2   9    0.57    0.98
  -2   2   9   -0.02    1.12
  -2   2   9    0.68    1.34
   1  -2  -9   38.40    5.51
   1  -2  -9   35.99    5.57
   1  -2  -9   36.36    5.45
  -1   2   9   38.70    5.31
  -1   2   9   41.77    5.67
  -1   2   9   39.65    5.14
  -1   2   9   44.01    5.28
   0  -2  -9    0.28    1.27
   0  -2  -9   -0.29    1.49
   0  -2  -9   -0.56    0.98
   0  -2  -9   -0.35    1.12
   0  -2  -9   -0.73    0.93
   0   2   9    0.51    1.09
   0   2   9   -0.11    0.99
   0   2   9    0.96    1.33
   0   2   9   -0.37    1.07
  -1  -2  -9   28.07    4.67
  -1  -2  -9   41.69    5.40
  -1  -2  -9   30.90    4.68
  -1  -2  -9   29.09    4.89
  -1  -2  -9   33.32    4.98
   1   2   9   29.16    4.67
   1   2   9   35.24    4.73
   1   2   9   31.09    4.59
  -2  -2  -9   23.98    4.12
  -2  -2  -9   17.39    3.20
  -2  -2  -9   17.29    4.12
  -2  -2  -9   15.84    3.27
   2   2   9   21.47    3.24
   2   2   9   24.00    3.65
   2   2   9   15.84    3.30
  -3  -2  -9    6.00    3.22
  -3  -2  -9    8.92    3.85
   3   2   9    5.77    2.60
   3   2   9    5.41    1.80
   3   2   9    3.56    2.22
  -4  -2  -9   -3.33    3.73
  -4  -2  -9    1.40    3.43
   4   2   9    1.61    2.56
   4  -3  -9   -1.35    3.05
   4  -3  -9   -0.93    1.47
  -4   3   9    0.78    2.55
   3  -3  -9   11.89    3.45
   3  -3  -9   16.38    3.22
   3  -3  -9   17.85    3.07
   3  -3  -9    9.63    3.74
  -3   3   9   24.71    4.13
  -3   3   9   17.27    3.18
   2  -3  -9   -1.24    1.45
   2  -3  -9    2.09    1.47
   2  -3  -9    0.11    1.41
   2  -3  -9   -2.66    1.62
  -2   3   9    1.57    1.45
  -2   3   9   -0.26    1.68
  -2   3   9   -1.22    1.18
  -2   3   9   -2.25    1.23
   1  -3  -9    3.53    1.82
   1  -3  -9    8.71    2.54
   1  -3  -9   10.04    2.28
  -1   3   9    9.51    2.16
  -1   3   9    7.40    1.88
  -1   3   9    9.49    2.37
  -1   3   9    9.83    2.04
   0  -3  -9    2.75    1.95
   0  -3  -9    3.50    1.21
   0  -3  -9    2.17    1.67
   0  -3  -9    4.23    1.48
   0  -3  -9    2.05    1.65
   0   3   9    5.01    1.56
   0   3   9    3.26    1.34
   0   3   9    0.53    1.56
   0   3   9    3.57    1.50
  -1  -3  -9   15.19    3.46
  -1  -3  -9   33.46    4.39
  -1  -3  -9   18.82    3.59
  -1  -3  -9   31.04    4.44
  -1  -3  -9   22.16    4.12
   1   3   9   19.30    3.59
   1   3   9   23.69    3.52
   1   3   9   23.34    3.69
  -2  -3  -9   16.62    3.95
  -2  -3  -9   11.61    3.51
  -2  -3  -9    9.03    2.73
  -2  -3  -9   17.32    2.99
   2   3   9    9.46    2.63
   2   3   9   15.16    3.03
   2   3   9   10.67    2.44
  -3  -3  -9    2.71    3.61
  -3  -3  -9    2.80    3.23
   3   3   9    2.00    1.61
   3   3   9   -0.06    2.19
   3   3   9    5.34    2.48
  -4  -3  -9    2.98    3.84
  -4  -3  -9    4.74    4.42
   4   3   9   -0.39    1.63
   4   3   9    2.00    2.81
   4  -4  -9    0.14    1.78
   4  -4  -9    0.05    2.82
  -4   4   9   -0.22    2.61
   3  -4  -9    1.09    2.65
   3  -4  -9   -1.74    1.88
   3  -4  -9    1.27    1.81
  -3   4   9    4.85    2.57
   2  -4  -9   -0.50    2.23
   2  -4  -9    1.99    1.92
   2  -4  -9    1.84    1.69
   2  -4  -9    3.41    1.92
  -2   4   9   -0.67    1.42
  -2   4   9    1.35    1.20
  -2   4   9   -0.21    1.77
  -2   4   9   -2.47    1.48
   1  -4  -9   42.93    6.37
   1  -4  -9   46.28    6.59
   1  -4  -9   41.23    6.47
   1  -4  -9   44.65    6.70
   1  -4  -9   46.88    5.54
  -1   4   9   45.44    6.21
  -1   4   9   46.01    6.20
  -1   4   9   47.31    6.05
  -1   4   9   47.00    6.57
   0  -4  -9   14.21    3.26
   0  -4  -9    8.87    2.83
   0  -4  -9   21.74    3.51
   0  -4  -9   17.80    2.87
   0  -4  -9   19.78    2.61
   0   4   9   14.25    2.74
   0   4   9   16.07    2.91
   0   4   9   17.85    3.18
   0   4   9   14.90    2.89
  -1  -4  -9    3.46    2.23
  -1  -4  -9    0.32    1.89
  -1  -4  -9    4.28    2.26
  -1  -4  -9   -1.36    2.40
  -1  -4  -9    1.23    2.34
   1   4   9    2.53    1.58
   1   4   9    0.15    1.28
   1   4   9    1.49    1.68
  -2  -4  -9   10.55    2.86
  -2  -4  -9   10.81    3.85
  -2  -4  -9   10.91    3.03
  -2  -4  -9    8.17    3.64
   2   4   9   12.90    2.94
   2   4   9   20.44    3.32
   2   4   9    9.64    2.39
  -3  -4  -9    2.22    3.48
  -3  -4  -9    4.84    4.01
   3   4   9    3.68    2.48
   3   4   9    3.36    2.65
   3   4   9    1.23    1.69
  -4  -4  -9   -1.12    4.19
  -4  -4  -9    6.36    5.11
   4   4   9    2.07    1.80
   4   4   9    5.12    3.22
   4  -5  -9    1.19    3.07
   4  -5  -9   -1.09    1.96
  -4   5   9    0.08    2.92
   3  -5  -9    0.70    2.01
   3  -5  -9   -0.83    2.24
   3  -5  -9   -1.29    2.65
  -3   5   9    0.87    2.22
   2  -5  -9    8.58    2.69
   2  -5  -9    5.71    2.38
   2  -5  -9    2.08    2.78
   2  -5  -9    6.00    2.78
  -2   5   9    4.87    2.41
  -2   5   9    7.84    2.08
  -2   5   9    9.29    2.27
   1  -5  -9    4.74    2.22
   1  -5  -9   10.64    2.87
   1  -5  -9    4.28    2.61
   1  -5  -9   13.34    2.04
   1  -5  -9    4.31    2.50
  -1   5   9   13.00    2.72
  -1   5   9   10.39    2.50
  -1   5   9    9.65    2.25
  -1   5   9    6.65    2.43
   0  -5  -9   -2.18    2.08
   0  -5  -9   -0.72    1.66
   0  -5  -9    0.16    1.66
   0  -5  -9   -1.24    1.90
   0   5   9   -0.12    1.84
   0   5   9   -1.96    1.32
   0   5   9   -0.27    1.48
   0   5   9   -0.65    1.32
  -1  -5  -9    5.73    2.45
  -1  -5  -9   15.07    4.12
  -1  -5  -9    6.19    2.59
  -1  -5  -9    5.15    2.95
  -1  -5  -9    7.31    2.99
   1   5   9    7.21    2.21
   1   5   9    8.26    2.50
   1   5   9    4.84    1.86
  -2  -5  -9    7.41    3.84
  -2  -5  -9    3.77    2.62
  -2  -5  -9   18.47    4.69
  -2  -5  -9    8.25    2.81
   2   5   9    6.38    2.64
   2   5   9   15.55    3.19
   2   5   9    7.61    2.28
  -3  -5  -9    5.46    4.64
  -3  -5  -9    9.60    4.41
   3   5   9    3.67    2.04
   3   5   9    0.51    2.49
   3   5   9    2.52    3.00
   4  -6  -9    1.01    2.35
   4  -6  -9    2.85    3.84
  -4   6   9   -0.70    3.06
   3  -6  -9    6.41    3.57
   3  -6  -9    2.67    2.86
   3  -6  -9    5.17    2.53
  -3   6   9    5.02    2.88
   2  -6  -9   -2.75    2.16
   2  -6  -9   -0.49    1.82
   2  -6  -9    3.22    2.83
   2  -6  -9    0.95    2.78
  -2   6   9    0.34    1.83
  -2   6   9    0.21    2.02
  -2   6   9    2.18    2.10
   1  -6  -9   -2.33    2.24
   1  -6  -9    3.53    2.78
   1  -6  -9   -0.43    1.81
   1  -6  -9    1.05    2.36
   1  -6  -9    1.07    1.94
  -1   6   9    1.67    1.89
  -1   6   9   -0.78    1.97
  -1   6   9   -0.49    1.47
  -1   6   9    0.36    2.02
   0  -6  -9    1.17    2.24
   0  -6  -9    3.10    2.68
   0  -6  -9    0.72    2.27
   0  -6  -9    0.00    2.03
   0   6   9    2.85    2.11
   0   6   9    5.78    2.20
   0   6   9    1.78    2.09
   0   6   9    1.25    1.70
  -1  -6  -9    3.11    2.59
  -1  -6  -9    5.87    3.09
  -1  -6  -9    1.64    2.56
   1   6   9    9.21    2.67
   1   6   9    4.05    1.94
   1   6   9    9.09    2.58
  -2  -6  -9    0.91    3.85
  -2  -6  -9   -1.35    2.55
  -2  -6  -9    0.22    3.61
  -2  -6  -9   -5.57    3.24
   2   6   9    0.83    2.18
   2   6   9    0.41    1.85
   2   6   9    0.21    2.22
  -3  -6  -9   -3.99    4.67
  -3  -6  -9    6.45    4.91
   3   6   9    3.22    2.20
   3   6   9   -1.08    2.67
   3   6   9    1.05    3.13
   3  -7  -9    4.45    3.56
   3  -7  -9    1.26    2.48
   3  -7  -9   -3.85    2.78
  -3   7   9   -0.15    2.63
   2  -7  -9   -0.67    2.86
   2  -7  -9    0.34    3.23
   2  -7  -9   -2.72    2.56
   2  -7  -9   -0.86    1.93
  -2   7   9   -0.13    1.79
  -2   7   9   -2.54    2.15
  -2   7   9    0.37    2.27
   1  -7  -9    4.15    3.39
   1  -7  -9    4.97    2.29
   1  -7  -9    4.36    2.98
   1  -7  -9    5.23    3.04
  -1   7   9    7.82    2.25
  -1   7   9    6.29    2.72
  -1   7   9    3.33    2.57
  -1   7   9    8.78    2.85
   0  -7  -9   -2.54    2.51
   0  -7  -9   -0.79    2.54
   0  -7  -9    3.74    2.64
   0  -7  -9   -0.77    2.67
   0   7   9    3.92    2.35
   0   7   9    0.30    2.07
   0   7   9    1.56    1.86
   0   7   9   -0.35    2.07
  -1  -7  -9   -0.74    2.99
  -1  -7  -9   -3.22    1.85
  -1  -7  -9    2.46    2.85
   1   7   9   -2.80    1.56
   1   7   9    2.58    2.28
   1   7   9   -4.48    1.81
  -2  -7  -9   -0.38    3.88
  -2  -7  -9    3.32    4.65
  -2  -7  -9   -1.55    2.95
   2   7   9    0.13    1.94
   2   7   9   -1.29    2.30
   2   7   9   -2.01    2.43
   3   7   9    0.23    3.05
   3  -8  -9    5.29    4.09
   3  -8  -9    1.27    2.58
   3  -8  -9   -2.38    3.28
  -3   8   9    1.08    2.99
   2  -8  -9    6.53    2.84
   2  -8  -9    0.69    3.72
   2  -8  -9   10.50    3.96
   2  -8  -9    3.53    3.31
  -2   8   9    5.99    2.86
  -2   8   9    1.53    2.61
  -2   8   9    4.27    2.37
   1  -8  -9   -1.59    3.64
   1  -8  -9    4.34    2.74
   1  -8  -9   -0.08    3.04
   1  -8  -9    0.76    2.98
  -1   8   9    0.20    2.65
  -1   8   9    1.54    1.90
  -1   8   9    8.02    3.23
   0  -8  -9   -2.70    2.95
   0  -8  -9    3.24    2.67
   0   8   9   -0.17    2.43
   0   8   9    0.97    1.91
   0   8   9   -1.33    2.34
   0   8   9   -2.37    2.28
  -1  -8  -9    5.19    3.21
  -1  -8  -9    6.31    3.92
  -1  -8  -9    9.32    4.39
   1   8   9   14.35    3.30
   1   8   9    7.50    2.52
   1   8   9    7.17    3.08
  -2  -8  -9    6.34    5.82
  -2  -8  -9   -0.28    3.82
  -2  -8  -9   -2.75    4.68
   2   8   9    4.97    3.22
   2   8   9    1.59    3.05
   2   8   9    1.23    2.30
   2  -9  -9   -2.39    3.41
   2  -9  -9    1.46    2.52
   2  -9  -9    0.24    3.81
   2  -9  -9    1.61    4.40
  -2   9   9   -0.82    3.03
  -2   9   9   -5.47    2.43
   1  -9  -9   -5.70    3.84
   1  -9  -9    3.81    2.58
   1  -9  -9   -0.54    3.43
  -1   9   9    0.94    2.31
  -1   9   9   -2.29    2.67
  -1   9   9    1.90    3.02
   0  -9  -9    3.86    3.17
   0  -9  -9   -1.97    3.63
   0   9   9    0.83    2.23
   0   9   9   -0.26    2.77
   0   9   9   -2.13    2.81
   0   9   9   -0.25    2.94
  -1  -9  -9    4.30    3.04
  -1  -9  -9   -0.89    4.09
   1   9   9    3.16    2.51
   1   9   9   -0.16    3.08
   1   9   9   -2.07    2.69
   1 -10  -9   -3.84    2.35
   1 -10  -9   -3.57    3.40
   1 -10  -9   -2.24    4.57
  -1  10   9   -2.35    3.04
  -1  10   9   -0.05    3.60
  -1  10   9   -1.60    2.20
   0 -10  -9   -4.66    4.12
   0 -10  -9   -2.05    2.90
   0  10   9   -3.38    3.03
   0  10   9   -1.18    2.28
   0  10   9   -5.92    3.09
   1  12 -10    3.97    2.63
   1  12 -10    1.32    1.76
  -1 -12  10    4.45    3.03
  -1 -12  10    6.41    3.87
  -1 -12  10   10.90    5.79
  -1 -12  10    0.31    5.12
  -1 -12  10   -5.15    6.78
   0  12 -10   -0.37    2.42
   0  12 -10    1.82    2.10
   0  12 -10   -0.07    2.06
   0 -12  10    1.08    4.86
   0 -12  10    2.45    3.43
   0 -12  10    0.80    2.67
  -1  12 -10   -1.23    1.97
  -1  12 -10   -3.18    2.04
  -1  12 -10   -0.91    2.76
   1 -12  10   -1.90    3.33
   1 -12  10   -0.07    2.60
   1 -12  10   -0.91    4.43
   2 -12  10    0.17    3.50
   2 -12  10    0.44    2.49
   2  11 -10    1.73    1.91
   2  11 -10    4.96    2.77
   2  11 -10    4.18    2.71
  -2 -11  10    0.48    4.27
  -2 -11  10    1.24    5.73
  -2 -11  10   10.71    4.35
   1  11 -10    1.47    2.16
   1  11 -10    2.70    2.08
  -1 -11  10   -0.32    4.04
  -1 -11  10   -3.28    4.58
  -1 -11  10    0.79    3.21
  -1 -11  10    0.64    2.86
   0  11 -10   -0.09    1.54
   0  11 -10    0.54    2.09
   0 -11  10    4.46    3.20
   0 -11  10   -4.50    3.17
   0 -11  10    1.49    2.46
   0 -11  10    1.11    4.09
  -1  11 -10    2.02    1.83
  -1  11 -10    4.32    2.27
  -1  11 -10    2.04    2.86
   1 -11  10    6.68    4.01
   1 -11  10   -0.94    2.82
   1 -11  10    3.89    2.83
  -2  11 -10   -0.06    2.20
  -2  11 -10    4.39    3.36
  -2  11 -10   -0.89    3.68
   2 -11  10   -2.15    3.58
   2 -11  10   -0.60    2.35
   2 -11  10    1.06    3.26
   2  10 -10    1.30    1.95
   2  10 -10   -2.75    2.04
  -2 -10  10    2.43    4.67
  -2 -10  10   -3.01    4.91
  -2 -10  10    0.59    3.17
   1  10 -10   -0.33    1.62
   1  10 -10    0.06    1.98
  -1 -10  10   -0.59    3.66
  -1 -10  10   -3.53    4.27
  -1 -10  10   -0.48    2.54
  -1 -10  10   -0.49    3.06
   0  10 -10    1.91    2.12
   0  10 -10    1.01    1.62
   0 -10  10    6.62    3.43
   0 -10  10    5.32    3.73
   0 -10  10    9.01    3.24
   0 -10  10    2.24    2.37
  -1  10 -10    7.95    2.54
  -1  10 -10    6.08    2.87
  -1  10 -10    2.09    1.82
   1 -10  10    1.43    2.82
   1 -10  10    3.88    2.66
   1 -10  10    1.07    3.60
   1 -10  10    4.87    3.75
  -2  10 -10   -3.53    2.69
  -2  10 -10    3.43    2.22
  -2  10 -10   -1.55    3.13
   2 -10  10    2.09    2.54
   2 -10  10    0.44    3.49
   2 -10  10    6.81    3.29
  -3  10 -10   -3.83    3.02
   3 -10  10    4.94    4.31
   3 -10  10    1.76    3.31
   3 -10  10    1.42    2.71
   3   9 -10    0.29    2.49
   3   9 -10    0.51    1.90
  -3  -9  10    4.61    4.53
  -3  -9  10    2.57    5.34
   2   9 -10    1.50    1.75
   2   9 -10    6.39    2.69
  -2  -9  10    2.65    4.02
  -2  -9  10    0.51    4.63
  -2  -9  10    1.07    2.83
   1   9 -10    4.58    2.28
   1   9 -10    5.03    2.19
  -1  -9  10    7.88    2.94
  -1  -9  10    1.84    2.66
  -1  -9  10    8.77    4.47
  -1  -9  10   10.56    3.57
   0   9 -10    1.58    1.56
   0   9 -10    1.62    1.85
   0  -9  10    2.22    2.47
   0  -9  10    2.17    2.15
   0  -9  10    1.66    3.22
   0  -9  10    1.75    3.03
  -1   9 -10    0.19    2.42
  -1   9 -10    1.42    1.78
  -1   9 -10    1.69    1.90
   1  -9  10   -0.81    2.24
   1  -9  10    5.68    3.17
   1  -9  10   -0.43    2.05
  -2   9 -10   -1.71    2.78
  -2   9 -10   -0.22    2.77
  -2   9 -10    1.72    1.91
  -2   9 -10   -1.78    1.73
   2  -9  10    2.18    2.43
   2  -9  10   -2.27    2.53
   2  -9  10    1.14    2.90
  -3   9 -10   -3.32    3.00
   3  -9  10    1.02    2.45
   3  -9  10   -0.06    2.97
   3  -9  10   -1.42    3.17
   3   8 -10   -1.11    1.72
   3   8 -10   -0.93    2.33
  -3  -8  10    5.63    4.64
  -3  -8  10   -0.72    4.08
   2   8 -10   13.37    3.02
   2   8 -10   15.15    3.26
   2   8 -10   10.61    3.07
  -2  -8  10    5.84    4.15
  -2  -8  10    6.16    4.58
  -2  -8  10   18.42    3.68
   1   8 -10    2.90    1.96
   1   8 -10    2.35    1.51
   1   8 -10   -1.95    1.57
  -1  -8  10    0.15    2.18
  -1  -8  10    2.06    3.49
  -1  -8  10    3.91    3.08
  -1  -8  10    3.28    2.46
   0   8 -10   -1.04    1.50
   0   8 -10    2.29    1.60
   0  -8  10    1.58    1.97
   0  -8  10   -1.01    2.03
   0  -8  10   -2.82    2.24
   0  -8  10    2.27    2.50
  -1   8 -10   26.21    4.46
  -1   8 -10   24.85    4.35
   1  -8  10   28.09    5.06
   1  -8  10   34.37    5.24
   1  -8  10   25.14    4.92
  -2   8 -10   -4.58    2.41
  -2   8 -10    1.22    2.54
  -2   8 -10    1.12    1.81
  -2   8 -10    1.37    1.87
   2  -8  10   -1.66    2.45
   2  -8  10   -2.34    1.88
   2  -8  10   -1.00    2.29
  -3   8 -10    0.77    3.11
   3  -8  10   -3.07    2.63
   3  -8  10    0.74    2.30
   3  -8  10    2.08    3.45
  -4   8 -10    0.70    3.71
   4  -8  10   -0.01    3.35
   4  -8  10    3.70    2.89
   3   7 -10    1.88    2.22
   3   7 -10   -0.98    1.68
  -3  -7  10   -0.32    3.83
  -3  -7  10    0.22    3.60
   2   7 -10    2.73    1.70
   2   7 -10    1.70    1.96
   2   7 -10   -0.26    1.85
  -2  -7  10   -2.08    2.20
  -2  -7  10   -0.12    3.22
  -2  -7  10    1.51    2.52
  -2  -7  10    4.67    3.66
   1   7 -10   -0.41    1.59
   1   7 -10   -0.49    1.52
   1   7 -10    2.86    1.73
  -1  -7  10    0.50    2.07
  -1  -7  10   -2.53    3.00
  -1  -7  10   -0.53    2.03
  -1  -7  10    0.50    2.85
   0   7 -10   10.24    2.52
   0   7 -10   10.23    2.57
   0   7 -10   13.85    3.16
   0  -7  10   10.08    2.91
   0  -7  10   10.77    3.07
   0  -7  10    5.54    2.73
  -1   7 -10   -1.00    1.35
  -1   7 -10   -1.25    1.41
   1  -7  10    2.58    2.21
   1  -7  10    3.09    2.59
   1  -7  10   -0.63    1.86
  -2   7 -10   -0.72    1.98
  -2   7 -10   -0.33    1.71
  -2   7 -10    0.30    1.70
  -2   7 -10   -2.26    2.41
   2  -7  10    0.67    2.23
   2  -7  10    0.93    2.73
   2  -7  10   -1.06    1.63
  -3   7 -10    7.13    3.40
   3  -7  10    3.15    2.37
   3  -7  10    9.04    2.92
   3  -7  10    5.23    3.47
  -4   7 -10   -6.91    2.91
   4  -7  10    0.87    2.35
   4  -7  10   -2.87    3.56
   4   6 -10    3.48    2.13
  -4  -6  10    5.86    4.26
  -4  -6  10    1.45    5.31
   3   6 -10    0.45    1.61
   3   6 -10    0.80    1.89
   3   6 -10    0.51    2.04
  -3  -6  10    2.89    4.03
  -3  -6  10    2.15    2.91
   2   6 -10   12.60    2.60
   2   6 -10   11.27    2.70
   2   6 -10    8.47    2.33
  -2  -6  10   12.95    3.75
  -2  -6  10    8.04    2.97
  -2  -6  10    8.48    3.53
  -2  -6  10    7.17    2.53
   1   6 -10    5.85    1.96
   1   6 -10    5.50    2.07
   1   6 -10    4.92    1.69
  -1  -6  10    3.61    2.22
  -1  -6  10    5.78    2.97
  -1  -6  10    3.93    2.30
  -1  -6  10    5.04    2.90
   0   6 -10   -2.43    1.33
   0   6 -10   -0.08    1.31
   0   6 -10    0.34    1.26
   0  -6  10   -2.18    1.52
   0  -6  10   -3.18    1.64
   0  -6  10   -0.01    1.71
   0  -6  10    2.46    1.52
  -1   6 -10    3.75    1.80
  -1   6 -10    5.42    1.86
   1  -6  10    3.33    2.12
   1  -6  10    3.31    1.94
   1  -6  10    1.76    2.24
  -2   6 -10    8.52    2.33
  -2   6 -10   13.09    2.47
  -2   6 -10   10.65    2.56
  -2   6 -10    4.72    3.28
   2  -6  10   10.12    2.78
   2  -6  10    8.40    2.41
   2  -6  10   12.57    2.64
   2  -6  10    9.39    3.07
  -3   6 -10    1.10    2.69
   3  -6  10   -0.06    1.75
   3  -6  10    2.08    2.45
   3  -6  10   -3.53    2.65
  -4   6 -10    0.20    2.88
   4  -6  10    3.25    3.84
   4  -6  10   -1.67    2.05
   4   5 -10    0.69    1.78
  -4  -5  10    1.49    3.59
  -4  -5  10    1.77    4.88
   3   5 -10    2.17    1.82
   3   5 -10   -3.02    1.66
   3   5 -10   -2.73    1.19
  -3  -5  10    2.23    3.54
  -3  -5  10    3.25    2.72
   2   5 -10   20.76    3.76
   2   5 -10   21.70    3.74
   2   5 -10   21.44    3.52
  -2  -5  10   22.92    4.52
  -2  -5  10   25.16    4.93
  -2  -5  10   15.49    3.68
  -2  -5  10   25.19    3.80
   1   5 -10    5.28    1.69
   1   5 -10    3.07    1.42
   1   5 -10    4.82    1.93
  -1  -5  10    5.36    2.75
  -1  -5  10    1.07    1.86
  -1  -5  10   -1.93    1.89
  -1  -5  10    1.82    1.72
   0   5 -10   20.50    3.64
   0   5 -10   28.56    3.55
   0   5 -10   18.27    3.36
   0  -5  10   16.20    3.23
   0  -5  10   18.70    3.32
   0  -5  10   15.06    3.30
   0  -5  10   19.87    2.96
  -1   5 -10   64.51    7.45
  -1   5 -10   58.49    8.39
  -1   5 -10   49.82    7.36
   1  -5  10   51.63    7.37
   1  -5  10   54.70    7.56
   1  -5  10   58.94    7.66
   1  -5  10   66.13    7.65
  -2   5 -10    0.76    1.14
  -2   5 -10    0.39    1.44
  -2   5 -10    0.73    2.38
  -2   5 -10   -0.41    1.41
  -2   5 -10    0.54    1.53
   2  -5  10    0.52    1.46
   2  -5  10   -0.92    1.49
   2  -5  10    0.94    2.28
   2  -5  10    0.72    1.82
  -3   5 -10    4.50    2.60
  -3   5 -10    0.31    2.13
   3  -5  10    3.09    1.87
   3  -5  10   -4.96    1.92
   3  -5  10   -1.84    2.23
   3  -5  10    2.14    2.15
  -4   5 -10    1.88    2.98
   4  -5  10    1.32    1.99
   4  -5  10    1.02    2.93
   4   4 -10   -2.04    2.15
   4   4 -10    1.09    1.68
  -4  -4  10    7.71    3.50
  -4  -4  10    1.76    4.08
   3   4 -10    1.26    1.42
   3   4 -10    2.52    1.85
   3   4 -10    1.24    1.97
  -3  -4  10    1.84    2.21
  -3  -4  10    2.92    3.21
   2   4 -10    2.87    1.91
   2   4 -10    6.97    1.60
   2   4 -10    6.37    1.76
   2   4 -10    7.23    1.98
  -2  -4  10    6.14    2.10
  -2  -4  10    3.01    2.01
  -2  -4  10    6.01    2.23
  -2  -4  10    6.76    3.19
   1   4 -10    2.44    1.03
   1   4 -10    0.91    1.24
   1   4 -10    2.35    1.22
   1   4 -10    2.67    1.46
  -1  -4  10    1.43    1.60
  -1  -4  10    2.69    1.67
  -1  -4  10    4.98    2.50
  -1  -4  10   -1.08    1.58
   0   4 -10   51.24    7.49
   0   4 -10   55.67    6.97
   0   4 -10   58.54    6.94
   0  -4  10   54.13    7.05
   0  -4  10   58.52    6.64
   0  -4  10   45.73    6.94
   0  -4  10   49.87    6.85
  -1   4 -10    1.66    1.24
  -1   4 -10    0.65    1.89
  -1   4 -10    2.72    1.39
  -1   4 -10    3.97    1.46
   1  -4  10    2.06    1.52
   1  -4  10    3.00    1.82
   1  -4  10    2.90    1.49
   1  -4  10    1.88    1.53
  -2   4 -10    5.11    1.82
  -2   4 -10    1.13    2.35
  -2   4 -10    3.88    1.53
  -2   4 -10    2.32    1.57
   2  -4  10    0.10    1.32
   2  -4  10    0.25    1.70
   2  -4  10    4.25    1.88
   2  -4  10    1.26    2.11
  -3   4 -10   10.11    3.17
  -3   4 -10   12.08    3.14
   3  -4  10   13.35    2.67
   3  -4  10    9.20    3.31
   3  -4  10   13.58    2.96
   3  -4  10    5.75    2.09
  -4   4 -10   -3.88    2.24
  -4   4 -10    2.50    2.77
   4  -4  10   -4.39    2.89
   4  -4  10   -0.20    1.72
   4  -4  10    1.02    3.50
   4   3 -10    1.89    1.71
   4   3 -10   -0.56    2.50
  -4  -3  10    0.36    2.88
  -4  -3  10    1.09    3.94
   3   3 -10   -0.06    2.03
   3   3 -10    0.74    1.28
   3   3 -10    0.48    1.57
  -3  -3  10    4.04    3.14
  -3  -3  10    1.24    1.86
   2   3 -10   14.27    2.57
   2   3 -10   20.34    2.87
   2   3 -10   17.00    2.88
   2   3 -10   14.35    2.11
   2   3 -10   17.67    3.17
  -2  -3  10   12.97    2.53
  -2  -3  10   13.27    2.76
  -2  -3  10   17.85    2.96
  -2  -3  10   18.53    3.06
  -2  -3  10   18.14    4.36
   1   3 -10    1.00    1.05
   1   3 -10    0.60    1.20
   1   3 -10    0.45    1.12
   1   3 -10    0.87    0.60
  -1  -3  10   -3.10    1.29
  -1  -3  10    2.11    1.13
  -1  -3  10    0.35    2.10
  -1  -3  10    0.18    1.26
   0   3 -10    3.87    1.59
   0   3 -10    7.02    2.02
   0   3 -10    8.30    1.83
   0   3 -10    5.71    1.23
   0   3 -10    8.32    1.30
   0  -3  10    6.99    1.99
   0  -3  10    4.94    1.46
   0  -3  10    3.46    1.60
   0  -3  10    3.66    1.63
  -1   3 -10   15.96    2.58
  -1   3 -10   12.08    2.31
  -1   3 -10   12.84    2.30
  -1   3 -10   14.83    3.03
   1  -3  10    8.02    2.11
   1  -3  10    9.28    2.24
   1  -3  10   10.88    2.29
   1  -3  10   10.74    2.37
  -2   3 -10   19.67    3.91
  -2   3 -10   18.62    3.35
  -2   3 -10   28.07    3.67
  -2   3 -10   25.46    4.12
   2  -3  10   27.34    4.05
   2  -3  10   22.95    3.65
   2  -3  10   22.35    3.66
   2  -3  10   14.10    3.14
  -3   3 -10    0.54    2.10
  -3   3 -10    2.34    2.05
   3  -3  10    1.76    2.25
   3  -3  10    1.57    1.32
   3  -3  10   -0.75    1.83
   3  -3  10   -2.29    1.85
  -4   3 -10   -2.45    2.42
  -4   3 -10   -0.67    2.47
   4  -3  10   -0.07    1.59
   4  -3  10   -1.02    2.37
   4  -3  10   -0.12    2.71
   4   2 -10    4.51    2.76
   4   2 -10   -0.52    1.49
  -4  -2  10    4.55    3.87
  -4  -2  10    2.89    3.14
   3   2 -10    4.43    2.28
   3   2 -10    2.05    1.38
   3   2 -10    4.20    1.82
  -3  -2  10    6.94    3.33
  -3  -2  10    2.90    2.01
   2   2 -10   15.23    2.89
   2   2 -10   11.34    2.14
   2   2 -10   11.76    1.73
   2   2 -10   12.81    2.34
   2   2 -10   14.08    2.15
  -2  -2  10    7.46    2.17
  -2  -2  10    6.79    2.04
  -2  -2  10   11.04    3.31
  -2  -2  10   10.70    2.28
  -2  -2  10   14.33    2.12
   1   2 -10    1.12    1.21
   1   2 -10    3.24    1.48
   1   2 -10    1.05    1.05
  -1  -2  10   -0.23    1.17
  -1  -2  10    2.15    1.34
   0   2 -10   57.42    7.27
   0   2 -10   64.66    7.65
   0   2 -10   70.69    7.91
   0   2 -10   57.42    7.35
   0   2 -10   58.69    7.67
   0  -2  10   64.77    7.67
   0  -2  10   66.05    7.41
   0  -2  10   49.56    7.61
   0  -2  10   61.11    7.64
  -1   2 -10    4.33    2.36
  -1   2 -10    7.90    1.81
  -1   2 -10    3.81    1.66
  -1   2 -10    6.48    1.69
   1  -2  10    7.07    1.76
   1  -2  10    5.77    1.83
   1  -2  10    4.98    1.79
   1  -2  10    8.88    1.92
  -2   2 -10    1.24    1.93
  -2   2 -10    1.33    1.38
  -2   2 -10    1.58    1.40
  -2   2 -10    0.75    1.64
   2  -2  10    3.19    2.14
   2  -2  10    3.35    1.68
   2  -2  10    2.77    1.45
   2  -2  10    0.18    1.62
  -3   2 -10    9.71    2.61
  -3   2 -10    4.42    2.68
   3  -2  10    6.48    2.21
   3  -2  10    8.23    2.49
   3  -2  10    4.84    1.76
   3  -2  10    6.19    2.90
  -4   2 -10    2.07    2.47
   4  -2  10    0.27    2.38
   4  -2  10   -0.11    1.44
   4  -2  10    0.51    2.56
   4   1 -10    1.61    2.63
   4   1 -10   -1.31    1.26
  -4  -1  10    6.15    3.83
   3   1 -10    7.28    1.94
   3   1 -10    8.07    1.87
   3   1 -10    3.99    2.40
  -3  -1  10    6.94    2.41
  -3  -1  10    8.32    2.93
  -3  -1  10    2.20    2.62
   2   1 -10   25.76    3.53
   2   1 -10   16.83    3.74
   2   1 -10   28.82    3.53
   2   1 -10   27.63    3.37
   2   1 -10   24.84    3.65
  -2  -1  10   20.77    3.48
  -2  -1  10   21.59    3.91
  -2  -1  10   20.30    3.23
  -2  -1  10   12.85    4.04
  -2  -1  10   25.48    3.44
  -2  -1  10   23.75    3.47
   1   1 -10    2.90    1.19
   1   1 -10    0.78    1.37
   1   1 -10    1.54    1.18
  -1  -1  10    3.22    1.39
  -1  -1  10    1.15    1.21
  -1  -1  10    1.89    1.23
  -1  -1  10    0.97    0.74
   0   1 -10   41.07    5.01
   0   1 -10   39.35    5.34
   0   1 -10   42.42    5.19
   0   1 -10   39.17    5.39
   0   1 -10   44.97    5.59
   0  -1  10   43.40    5.08
   0  -1  10   38.61    5.37
   0  -1  10   34.66    5.29
   0  -1  10   40.29    5.42
   0  -1  10   39.24    5.12
  -1   1 -10    0.32    1.72
  -1   1 -10    0.08    1.15
  -1   1 -10   -1.29    1.12
  -1   1 -10   -1.06    1.01
   1  -1  10   -0.45    1.26
   1  -1  10   -0.55    1.21
  -2   1 -10    1.81    1.82
  -2   1 -10    2.92    1.68
  -2   1 -10    1.64    1.35
  -2   1 -10    0.81    1.38
   2  -1  10    1.84    1.59
   2  -1  10    1.52    1.35
   2  -1  10    4.13    1.82
  -3   1 -10    2.01    1.86
  -3   1 -10    1.53    2.33
   3  -1  10    1.32    1.36
   3  -1  10    4.04    2.21
   3  -1  10    2.32    2.05
  -4   1 -10    2.48    2.98
   4  -1  10    2.57    2.64
   4  -1  10    0.35    1.34
   4  -1  10   -1.64    2.59
   4   0 -10    0.37    1.30
   4   0 -10   -0.27    2.73
  -4   0  10    3.83    3.06
  -4   0  10    3.07    2.99
   3   0 -10    2.49    2.57
   3   0 -10    9.07    2.16
   3   0 -10    6.94    1.89
  -3   0  10   12.00    3.21
  -3   0  10    8.53    2.24
  -3   0  10   12.98    3.38
   2   0 -10   40.46    4.87
   2   0 -10   33.05    4.92
   2   0 -10   29.59    5.12
   2   0 -10   39.53    4.81
  -2   0  10   30.10    4.73
  -2   0  10   37.62    5.32
  -2   0  10   34.08    4.60
  -2   0  10   38.53    5.75
  -2   0  10   33.52    4.45
  -2   0  10   37.40    4.70
   1   0 -10   16.77    2.95
   1   0 -10   18.84    3.13
   1   0 -10   25.60    3.66
  -1   0  10   22.20    3.16
  -1   0  10   16.59    2.98
  -1   0  10   16.05    3.36
   0   0 -10   45.47    6.05
   0   0 -10   49.10    5.95
   0   0 -10   49.54    6.17
   0   0 -10   47.46    6.19
   0   0  10   44.88    6.13
   0   0  10   50.62    6.03
   0   0  10   52.62    6.10
   0   0  10   43.22    5.67
   0   0  10   42.21    5.70
  -1   0 -10    0.86    1.24
  -1   0 -10    1.20    1.29
  -1   0 -10    1.97    1.99
  -1   0 -10    0.11    1.38
   1   0  10    0.12    1.10
   1   0  10   -0.28    1.17
   1   0  10    0.72    1.34
  -2   0 -10   40.89    6.22
  -2   0 -10   33.48    5.21
  -2   0 -10   44.59    5.62
   2   0  10   43.85    5.62
   2   0  10   33.04    5.23
   2   0  10   38.93    5.56
  -3   0 -10   -2.87    2.28
   3   0  10    0.83    1.91
   3   0  10    0.63    1.40
   3   0  10    1.03    1.99
  -4   0 -10    1.91    2.95
   4   0  10   -1.27    2.57
   4   0  10   -0.68    1.32
   4  -1 -10    0.27    1.37
   4  -1 -10   -4.16    2.49
  -4   1  10    1.00    2.84
  -4   1  10    0.85    2.67
   3  -1 -10    2.32    1.45
   3  -1 -10    0.31    1.59
   3  -1 -10    2.19    2.14
  -3   1  10    1.61    2.36
  -3   1  10    0.90    2.18
   2  -1 -10   -1.31    1.31
   2  -1 -10    1.99    1.40
   2  -1 -10    0.51    1.69
   2  -1 -10    1.03    1.24
  -2   1  10    2.01    1.25
  -2   1  10   -0.58    1.43
  -2   1  10   -0.37    1.03
  -2   1  10   -0.70    1.82
   1  -1 -10    8.17    1.76
   1  -1 -10    6.47    1.98
   1  -1 -10    5.65    1.73
  -1   1  10    6.29    1.69
  -1   1  10    4.30    2.00
  -1   1  10    6.00    1.70
  -1   1  10    6.61    1.77
  -1   1  10    3.63    1.28
   0  -1 -10   45.67    6.18
   0  -1 -10   47.70    6.22
   0  -1 -10   46.77    6.23
   0   1  10   53.32    6.10
   0   1  10   44.69    5.65
   0   1  10   46.83    5.85
   0   1  10   46.35    6.09
   0   1  10   44.51    6.18
  -1  -1 -10    2.97    1.78
  -1  -1 -10    2.23    1.62
  -1  -1 -10    0.59    1.46
  -1  -1 -10    2.55    2.27
   1   1  10    2.77    1.54
   1   1  10    4.02    1.40
   1   1  10    2.65    1.56
   1   1  10    3.88    1.00
  -2  -1 -10    2.40    2.20
  -2  -1 -10    2.93    1.59
  -2  -1 -10    1.96    1.28
  -2  -1 -10    3.55    1.89
  -2  -1 -10    4.64    2.66
   2   1  10    2.68    1.59
   2   1  10    3.90    1.91
   2   1  10    0.34    1.65
  -3  -1 -10    0.46    2.40
  -3  -1 -10    2.85    3.08
   3   1  10    5.18    2.35
   3   1  10    1.10    1.58
   3   1  10    1.39    2.24
  -4  -1 -10    8.76    3.77
   4   1  10    0.88    2.61
   4   1  10    1.32    1.54
   4  -2 -10   -1.14    1.39
   4  -2 -10   -0.27    2.81
  -4   2  10    1.10    2.68
  -4   2  10    0.89    2.69
   3  -2 -10   12.31    3.28
   3  -2 -10    9.52    2.49
   3  -2 -10    6.99    2.10
  -3   2  10    5.79    2.44
  -3   2  10    8.58    2.82
   2  -2 -10    4.09    1.94
   2  -2 -10    2.25    2.14
   2  -2 -10    7.12    1.39
   2  -2 -10    5.57    1.88
  -2   2  10   11.98    2.56
  -2   2  10    3.59    2.03
  -2   2  10    8.55    1.87
  -2   2  10    7.37    1.98
   1  -2 -10   12.60    2.72
   1  -2 -10   12.50    3.05
   1  -2 -10   14.16    2.74
  -1   2  10    6.12    2.29
  -1   2  10   19.80    2.77
  -1   2  10   17.86    2.70
  -1   2  10   19.84    3.12
  -1   2  10   18.05    2.93
   0  -2 -10   34.50    4.83
   0  -2 -10   26.21    4.46
   0  -2 -10   35.43    4.91
   0   2  10   27.70    4.41
   0   2  10   33.49    4.72
   0   2  10   28.84    4.37
   0   2  10   34.33    4.43
  -1  -2 -10    8.00    2.40
  -1  -2 -10   11.12    2.63
  -1  -2 -10    8.07    2.25
  -1  -2 -10    5.92    2.15
  -1  -2 -10    9.55    2.92
   1   2  10    4.59    1.96
   1   2  10    8.45    2.08
   1   2  10    7.78    2.05
   1   2  10    8.23    1.66
  -2  -2 -10    7.91    2.89
  -2  -2 -10    6.63    2.41
  -2  -2 -10   11.79    2.53
  -2  -2 -10   14.54    3.62
   2   2  10   11.69    2.66
   2   2  10    7.14    2.51
   2   2  10   14.39    2.41
  -3  -2 -10    2.80    3.44
  -3  -2 -10    0.93    2.74
   3   2  10   -1.54    1.86
   3   2  10    1.66    2.32
   3   2  10    0.30    1.51
  -4  -2 -10    6.89    4.68
  -4  -2 -10    2.60    3.84
   4   2  10    1.23    2.92
   4  -3 -10    2.54    3.20
   4  -3 -10   -3.63    1.48
  -4   3  10   -1.59    2.55
   3  -3 -10    3.47    2.29
   3  -3 -10    5.46    2.97
   3  -3 -10    5.69    2.14
  -3   3  10    8.17    2.90
  -3   3  10    7.23    2.21
   2  -3 -10    5.31    1.74
   2  -3 -10    4.04    2.57
   2  -3 -10    3.59    1.87
   2  -3 -10    4.47    2.20
  -2   3  10    5.00    1.79
  -2   3  10    5.66    1.84
  -2   3  10    6.10    2.26
  -2   3  10    3.36    1.69
   1  -3 -10    0.21    2.03
   1  -3 -10    2.82    1.78
   1  -3 -10    1.07    1.63
  -1   3  10    2.56    1.54
  -1   3  10    5.12    2.12
  -1   3  10    1.44    1.51
  -1   3  10   -0.22    1.53
   0  -3 -10    9.62    2.90
   0  -3 -10   16.31    3.45
   0  -3 -10   18.60    2.90
   0  -3 -10   15.62    2.74
   0  -3 -10   16.44    3.29
   0   3  10   16.44    3.28
   0   3  10   21.56    3.10
   0   3  10   21.37    3.24
   0   3  10   18.44    3.11
  -1  -3 -10   -1.12    1.44
  -1  -3 -10    2.73    2.10
  -1  -3 -10    0.00    1.62
  -1  -3 -10   -2.28    1.84
  -1  -3 -10   -1.52    2.30
   1   3  10   -1.25    1.43
   1   3  10   -0.12    1.61
   1   3  10   -0.15    1.28
  -2  -3 -10    9.22    3.31
  -2  -3 -10   14.98    3.79
  -2  -3 -10    7.71    2.74
  -2  -3 -10    7.22    2.47
   2   3  10    8.80    2.59
   2   3  10   11.62    2.35
   2   3  10    6.81    2.51
  -3  -3 -10    1.37    3.58
  -3  -3 -10    8.17    3.61
   3   3  10   -0.87    2.42
   3   3  10    4.25    2.46
   3   3  10    4.75    1.79
  -4  -3 -10   -0.88    4.30
  -4  -3 -10   -6.33    3.59
   4   3  10   -1.13    1.65
   4   3  10    0.13    2.98
   4  -4 -10    2.14    3.10
   4  -4 -10   -1.22    1.82
  -4   4  10   -0.03    2.73
   3  -4 -10    3.51    2.34
   3  -4 -10    4.83    2.16
   3  -4 -10    6.54    3.03
  -3   4  10    2.32    2.59
   2  -4 -10   -0.90    1.56
   2  -4 -10   -4.02    1.91
   2  -4 -10   -1.69    1.74
   2  -4 -10   -0.38    1.88
  -2   4  10    0.78    1.72
  -2   4  10    0.73    1.55
  -2   4  10    1.61    1.35
  -2   4  10    0.87    1.91
   1  -4 -10   39.65    5.90
   1  -4 -10   28.03    5.28
   1  -4 -10   31.12    5.43
  -1   4  10   42.84    5.80
  -1   4  10   46.76    5.50
  -1   4  10   38.35    5.48
  -1   4  10   33.77    5.12
   0  -4 -10   11.75    2.90
   0  -4 -10    9.69    2.90
   0  -4 -10   11.18    3.25
   0  -4 -10   17.20    2.79
   0   4  10   17.49    2.90
   0   4  10   13.77    3.00
   0   4  10   18.63    3.09
   0   4  10   10.10    2.60
  -1  -4 -10   -0.19    2.50
  -1  -4 -10   -1.19    1.62
  -1  -4 -10    0.90    2.31
  -1  -4 -10   -2.07    1.86
  -1  -4 -10    2.69    2.82
   1   4  10    2.13    1.56
   1   4  10   -0.43    1.60
   1   4  10    1.47    1.93
  -2  -4 -10    0.01    2.08
  -2  -4 -10    2.10    2.32
  -2  -4 -10    0.51    3.11
  -2  -4 -10   -4.41    2.55
   2   4  10    1.84    2.08
   2   4  10   -0.10    1.94
   2   4  10    1.12    1.57
  -3  -4 -10    1.50    3.65
  -3  -4 -10    2.89    4.15
   3   4  10    1.18    1.68
   3   4  10   -1.90    2.37
   3   4  10   -1.30    2.21
   4  -5 -10    0.41    2.17
   4  -5 -10   -0.28    3.03
  -4   5  10   -1.53    2.89
   3  -5 -10    0.97    2.47
   3  -5 -10   -1.59    2.55
   3  -5 -10   -0.81    1.83
  -3   5  10   -3.70    2.02
   2  -5 -10   -0.84    2.36
   2  -5 -10   -0.78    2.09
   2  -5 -10    2.03    1.94
   2  -5 -10    3.14    2.50
  -2   5  10    1.55    1.71
  -2   5  10    0.85    1.90
  -2   5  10    0.19    1.99
   1  -5 -10    6.00    2.48
   1  -5 -10    0.81    2.39
   1  -5 -10    4.09    2.29
  -1   5  10    5.30    1.89
  -1   5  10    4.94    2.08
  -1   5  10    0.03    1.90
  -1   5  10    6.45    2.37
   0  -5 -10    1.67    1.92
   0  -5 -10    0.77    1.87
   0  -5 -10   -1.47    2.25
   0  -5 -10   -0.84    1.99
   0   5  10   -1.15    1.82
   0   5  10    1.14    1.75
   0   5  10    0.82    1.61
   0   5  10   -0.32    1.52
  -1  -5 -10   11.54    3.30
  -1  -5 -10    8.01    2.93
  -1  -5 -10    6.66    2.93
  -1  -5 -10   14.87    4.42
  -1  -5 -10   11.21    3.57
   1   5  10   14.00    2.85
   1   5  10   11.51    2.85
   1   5  10   13.94    3.09
  -2  -5 -10    9.26    3.04
  -2  -5 -10    2.72    2.77
  -2  -5 -10   12.71    4.20
  -2  -5 -10   12.04    4.34
   2   5  10    8.17    2.92
   2   5  10   10.96    2.89
   2   5  10    8.55    2.44
  -3  -5 -10    2.05    4.21
  -3  -5 -10    3.07    4.22
   3   5  10   -0.97    1.73
   3   5  10   -0.59    2.57
   3   5  10   -1.32    2.77
   4  -6 -10    3.35    4.46
   3  -6 -10    2.95    2.56
   3  -6 -10   -1.56    2.75
   3  -6 -10   -3.62    3.18
  -3   6  10    1.44    2.69
   2  -6 -10   -0.80    1.98
   2  -6 -10   -1.55    2.41
   2  -6 -10    0.32    2.92
   2  -6 -10   -0.11    2.70
  -2   6  10   -2.76    2.07
  -2   6  10   -3.10    2.06
  -2   6  10    0.30    2.67
   1  -6 -10    0.09    1.83
   1  -6 -10    4.07    2.81
   1  -6 -10   -3.46    2.13
   1  -6 -10   -0.33    2.59
  -1   6  10   -2.03    1.87
  -1   6  10   -0.76    2.07
  -1   6  10   -0.55    1.51
  -1   6  10    6.95    2.44
   0  -6 -10   -3.98    2.21
   0  -6 -10   -3.32    1.51
   0  -6 -10    1.29    2.13
   0  -6 -10   -1.43    2.62
   0   6  10   -0.62    1.81
   0   6  10   -1.99    2.01
   0   6  10    0.87    1.86
   0   6  10    1.13    1.56
  -1  -6 -10    5.40    3.07
  -1  -6 -10    5.01    3.01
  -1  -6 -10    9.09    4.59
  -1  -6 -10    5.87    2.76
   1   6  10    3.66    1.97
   1   6  10    2.84    2.35
   1   6  10    4.40    2.38
  -2  -6 -10   -1.58    3.45
  -2  -6 -10    4.35    4.18
  -2  -6 -10    2.46    3.00
   2   6  10    4.76    2.70
   2   6  10   -0.04    1.80
   2   6  10   -1.08    2.29
  -3  -6 -10   -4.15    4.55
  -3  -6 -10    2.94    4.98
   3   6  10    1.66    2.03
   3   6  10   -3.24    2.64
   3   6  10   -1.37    3.12
   3  -7 -10    2.05    3.83
   3  -7 -10    1.14    2.46
   3  -7 -10   -1.02    3.32
  -3   7  10    5.02    3.15
   2  -7 -10   -1.27    3.25
   2  -7 -10    2.37    3.47
   2  -7 -10    1.37    2.24
   2  -7 -10   -0.17    2.88
  -2   7  10    1.09    2.38
  -2   7  10    3.10    2.56
   1  -7 -10    5.55    2.88
   1  -7 -10    9.33    3.88
   1  -7 -10    7.46    3.39
   1  -7 -10    8.93    3.53
  -1   7  10   11.89    2.59
  -1   7  10   12.34    3.20
  -1   7  10    4.70    2.89
  -1   7  10   15.63    3.42
   0  -7 -10    0.64    3.59
   0  -7 -10    4.08    2.86
   0  -7 -10    2.24    2.55
   0   7  10    4.62    2.20
   0   7  10    6.33    2.62
   0   7  10    1.41    2.45
   0   7  10    5.13    2.81
  -1  -7 -10   -6.80    2.52
  -1  -7 -10    0.80    4.32
  -1  -7 -10    1.40    3.60
  -1  -7 -10   -0.99    2.31
   1   7  10    0.23    2.29
   1   7  10    0.92    1.99
   1   7  10    2.48    2.41
  -2  -7 -10   -2.20    3.06
  -2  -7 -10    4.93    4.53
  -2  -7 -10   -0.07    4.50
   2   7  10   -1.74    2.65
   2   7  10    1.52    2.77
   2   7  10    1.77    2.23
   3  -8 -10   -3.94    3.12
   3  -8 -10    3.68    3.85
   3  -8 -10    1.66    2.78
  -3   8  10   -1.72    2.92
   2  -8 -10   -1.81    3.32
   2  -8 -10    1.05    3.46
   2  -8 -10   -0.33    2.18
   2  -8 -10   -3.39    3.90
  -2   8  10    4.06    2.85
  -2   8  10    3.53    2.94
   1  -8 -10    7.31    3.77
   1  -8 -10    4.36    3.89
   1  -8 -10    7.62    3.63
   1  -8 -10    5.78    2.82
  -1   8  10    4.62    3.02
  -1   8  10    8.64    3.23
  -1   8  10    3.31    2.04
   0  -8 -10    4.04    2.63
   0  -8 -10    1.02    3.27
   0   8  10   -4.69    2.53
   0   8  10    0.25    1.98
   0   8  10   -3.70    2.53
   0   8  10    1.46    2.39
  -1  -8 -10    8.05    4.09
  -1  -8 -10    6.78    3.36
   1   8  10    2.89    2.26
   1   8  10    7.42    3.10
   1   8  10   10.17    3.28
  -2  -8 -10   -0.83    4.98
  -2  -8 -10    1.34    4.16
  -2  -8 -10   12.55    6.78
   2   8  10   -0.28    3.04
   2   8  10    3.49    3.24
   2   8  10    6.45    2.79
   2  -9 -10    2.11    3.71
   2  -9 -10   -0.44    2.54
   2  -9 -10   -1.18    3.78
  -2   9  10    1.54    3.38
  -2   9  10    3.02    3.01
   1  -9 -10    2.03    2.67
   1  -9 -10    0.72    3.76
  -1   9  10   -0.44    2.78
  -1   9  10    1.58    2.33
  -1   9  10   -1.45    3.10
   0  -9 -10    0.50    2.93
   0  -9 -10   -0.45    3.60
   0   9  10    1.72    3.87
   0   9  10    0.24    2.75
   0   9  10   -0.13    2.24
   0   9  10    2.13    3.29
  -1  -9 -10    0.51    3.12
  -1  -9 -10   -5.60    3.59
  -1  -9 -10   -3.50    5.87
   1   9  10    3.03    3.24
   1   9  10    5.54    3.36
   1   9  10    2.78    2.64
   1  12 -11    3.28    2.64
   1  12 -11    4.70    2.31
  -1 -12  11    0.42    3.55
  -1 -12  11    9.23    6.01
  -1 -12  11   10.68    3.90
  -1 -12  11    5.44    5.06
  -1 -12  11    8.21    5.99
   0  12 -11   -0.70    1.74
   0  12 -11   -0.86    2.29
   0  12 -11    4.87    2.73
   0 -12  11   -0.94    2.72
   0 -12  11   -0.03    3.29
   0 -12  11    2.12    4.65
  -1  12 -11   -0.06    2.27
  -1  12 -11    0.54    1.91
  -1  12 -11    0.46    2.78
   1 -12  11    0.62    4.65
   1 -12  11    0.49    2.55
   1 -12  11    2.21    3.38
   2  11 -11   -1.36    1.57
   2  11 -11    3.24    2.59
  -2 -11  11    6.56    5.27
  -2 -11  11    1.64    5.83
  -2 -11  11   -3.82    3.33
   1  11 -11   -1.14    1.48
   1  11 -11    5.08    2.49
  -1 -11  11    3.19    5.00
  -1 -11  11   -0.35    3.03
  -1 -11  11   -2.61    4.37
  -1 -11  11   -4.81    3.12
   0  11 -11    0.46    1.88
   0  11 -11    2.45    2.28
   0 -11  11    3.25    3.18
   0 -11  11   -1.14    3.63
   0 -11  11    3.08    2.85
   0 -11  11    0.30    3.60
  -1  11 -11    4.13    2.75
  -1  11 -11    2.34    2.14
  -1  11 -11    5.65    2.45
   1 -11  11   -1.56    2.84
   1 -11  11    5.13    3.96
   1 -11  11    4.58    2.83
  -2  11 -11    2.98    3.25
  -2  11 -11    0.71    2.27
   2 -11  11   -0.25    3.46
   2 -11  11    5.44    4.18
   2 -11  11    1.20    2.36
   2  10 -11   -1.73    2.08
   2  10 -11    1.72    1.80
  -2 -10  11    6.29    4.37
  -2 -10  11   -0.26    3.10
  -2 -10  11    4.04    5.17
   1  10 -11    1.59    2.11
   1  10 -11    1.45    1.69
  -1 -10  11    4.07    3.48
  -1 -10  11    2.12    4.38
  -1 -10  11   -1.28    2.72
  -1 -10  11    4.96    3.09
   0  10 -11    2.23    2.01
   0  10 -11    1.78    2.01
   0 -10  11   -1.71    3.43
   0 -10  11    3.40    3.52
   0 -10  11    0.40    2.42
   0 -10  11   -0.61    2.70
  -1  10 -11    0.34    1.87
  -1  10 -11   -0.26    2.52
  -1  10 -11   -0.94    1.97
   1 -10  11    0.44    3.40
   1 -10  11   -0.37    3.69
   1 -10  11   -0.86    2.08
   1 -10  11    0.58    2.99
  -2  10 -11   -6.76    4.61
  -2  10 -11    1.76    2.15
  -2  10 -11   -0.82    3.06
   2 -10  11    1.39    2.35
   2 -10  11    0.82    2.93
   2 -10  11    7.05    3.91
  -3  10 -11    0.88    3.71
   3 -10  11    3.36    4.32
   3 -10  11    0.30    2.64
   3 -10  11    0.48    3.24
   3   9 -11   -1.82    2.33
   3   9 -11    0.31    1.91
  -3  -9  11   -0.43    4.12
  -3  -9  11   -9.90    4.63
   2   9 -11   -0.75    1.57
   2   9 -11   -0.77    2.11
  -2  -9  11    1.54    2.88
  -2  -9  11   -2.65    4.34
  -2  -9  11   -1.33    3.84
   1   9 -11    8.64    2.65
   1   9 -11    8.95    2.89
  -1  -9  11   16.86    3.98
  -1  -9  11   13.25    3.64
  -1  -9  11   13.73    4.76
  -1  -9  11   14.74    4.60
   0   9 -11   -0.73    1.69
   0   9 -11    0.11    1.42
   0  -9  11    1.68    3.44
   0  -9  11   -0.73    2.55
   0  -9  11    1.34    2.10
   0  -9  11    5.15    3.26
  -1   9 -11    0.48    2.40
  -1   9 -11    0.99    1.98
  -1   9 -11    2.28    1.74
   1  -9  11   -0.32    2.14
   1  -9  11    0.27    3.02
   1  -9  11    3.48    2.85
  -2   9 -11   -0.42    2.92
  -2   9 -11    1.43    1.98
  -2   9 -11    2.57    3.07
  -2   9 -11    4.95    2.23
   2  -9  11   -0.33    2.80
   2  -9  11   -2.33    2.54
   2  -9  11    1.06    2.14
  -3   9 -11   -3.34    3.40
   3  -9  11   -0.48    2.93
   3  -9  11    0.61    3.70
   3  -9  11   -2.44    2.21
   3   8 -11   -0.40    1.65
   3   8 -11    1.61    2.40
  -3  -8  11   -1.02    4.07
  -3  -8  11   -1.65    4.22
   2   8 -11   -1.36    1.81
   2   8 -11    1.64    1.79
   2   8 -11    4.27    2.27
  -2  -8  11   -0.20    4.13
  -2  -8  11    1.52    3.64
  -2  -8  11    6.82    2.87
   1   8 -11    0.94    1.57
   1   8 -11    2.40    1.93
   1   8 -11    1.08    2.04
  -1  -8  11    2.62    3.16
  -1  -8  11    0.34    2.45
  -1  -8  11    1.84    2.34
  -1  -8  11   -4.60    3.08
   0   8 -11   -2.38    1.16
   0   8 -11   -0.18    1.60
   0  -8  11    2.51    2.35
   0  -8  11    2.03    2.52
   0  -8  11    3.40    2.88
   0  -8  11   -0.56    2.55
  -1   8 -11   13.82    3.02
  -1   8 -11   13.38    3.17
   1  -8  11   14.80    3.67
   1  -8  11   15.49    3.52
   1  -8  11   15.55    3.75
  -2   8 -11   -0.44    2.90
  -2   8 -11   -0.75    2.36
  -2   8 -11    0.67    1.83
  -2   8 -11    0.16    1.80
   2  -8  11    3.04    2.07
   2  -8  11    1.21    2.76
   2  -8  11   -0.51    2.51
  -3   8 -11   -0.70    3.01
   3  -8  11   -3.63    3.39
   3  -8  11   -0.86    2.15
   3  -8  11    0.56    2.93
   3   7 -11    2.22    1.90
   3   7 -11    4.15    2.64
  -3  -7  11    4.14    4.11
  -3  -7  11    0.33    4.34
   2   7 -11    0.08    1.75
   2   7 -11    1.11    2.07
   2   7 -11    0.64    1.59
  -2  -7  11    0.27    2.23
  -2  -7  11    3.25    3.43
  -2  -7  11   -2.60    2.17
  -2  -7  11   -0.13    3.13
   1   7 -11    6.32    2.29
   1   7 -11    2.45    1.72
   1   7 -11    1.24    1.91
  -1  -7  11    6.19    2.64
  -1  -7  11    6.26    3.30
  -1  -7  11    8.30    2.59
  -1  -7  11    4.34    3.24
   0   7 -11    3.42    1.68
   0   7 -11    4.74    1.90
   0   7 -11    0.11    1.86
   0  -7  11    3.02    2.24
   0  -7  11    2.36    2.07
   0  -7  11    3.49    2.40
  -1   7 -11    0.81    1.48
  -1   7 -11    0.79    1.63
   1  -7  11    0.16    2.02
   1  -7  11    2.89    2.61
   1  -7  11    2.39    1.97
  -2   7 -11   -1.06    2.36
  -2   7 -11    2.03    2.09
  -2   7 -11    1.32    1.82
  -2   7 -11    0.27    1.73
   2  -7  11   -1.72    2.12
   2  -7  11   -1.13    1.88
   2  -7  11   -0.37    2.36
  -3   7 -11    7.71    3.65
   3  -7  11    2.32    3.01
   3  -7  11    5.22    2.40
   3  -7  11    3.04    2.95
  -4   7 -11   -1.71    3.58
   4  -7  11   -1.25    3.81
   4  -7  11    0.75    2.39
   4   6 -11    0.49    1.95
  -4  -6  11    0.75    3.96
  -4  -6  11    4.22    4.94
   3   6 -11   -0.46    1.61
   3   6 -11    1.07    2.07
   3   6 -11    2.23    2.20
  -3  -6  11   -6.64    3.27
  -3  -6  11    3.01    3.18
   2   6 -11    2.99    1.74
   2   6 -11    6.68    2.20
   2   6 -11    2.22    1.86
  -2  -6  11    3.28    3.01
  -2  -6  11    4.60    3.12
  -2  -6  11   11.42    3.05
  -2  -6  11    7.21    2.56
   1   6 -11   34.60    5.40
   1   6 -11   32.97    5.05
   1   6 -11   32.08    4.94
  -1  -6  11   31.69    5.32
  -1  -6  11   37.00    5.26
  -1  -6  11   42.44    6.34
  -1  -6  11   27.03    5.42
   0   6 -11    1.04    1.50
   0   6 -11    2.05    1.82
   0   6 -11    2.54    1.60
   0  -6  11    3.71    2.02
   0  -6  11    1.92    1.62
   0  -6  11    8.31    2.47
   0  -6  11   -1.50    1.75
  -1   6 -11    2.76    1.79
  -1   6 -11    4.44    1.85
   1  -6  11    2.74    2.38
   1  -6  11    4.33    2.27
   1  -6  11    4.05    1.99
  -2   6 -11    3.92    1.85
  -2   6 -11    0.36    1.54
  -2   6 -11    2.15    2.70
  -2   6 -11   -0.90    1.55
   2  -6  11    1.97    2.28
   2  -6  11    6.43    2.22
   2  -6  11    1.99    1.86
   2  -6  11    0.98    2.34
  -3   6 -11    1.85    2.76
   3  -6  11    0.40    2.45
   3  -6  11   -0.40    1.77
   3  -6  11   -2.87    2.45
  -4   6 -11   10.07    3.86
   4  -6  11   -3.68    3.03
   4  -6  11    2.39    2.39
   4   5 -11    2.91    1.98
  -4  -5  11    1.56    4.32
  -4  -5  11    0.76    3.32
   3   5 -11    0.37    1.97
   3   5 -11   -0.98    1.34
   3   5 -11   -2.67    1.82
  -3  -5  11   -1.67    3.23
  -3  -5  11    1.08    2.71
   2   5 -11    9.69    2.75
   2   5 -11   12.41    2.45
   2   5 -11    9.86    2.55
  -2  -5  11    8.50    2.85
  -2  -5  11   10.51    3.43
  -2  -5  11   14.84    3.00
  -2  -5  11   12.04    3.97
   1   5 -11    0.10    1.42
   1   5 -11    0.95    1.51
   1   5 -11    1.34    1.35
  -1  -5  11    2.42    2.00
  -1  -5  11   -1.69    1.86
  -1  -5  11    0.71    1.73
  -1  -5  11    7.78    2.93
   0   5 -11   -1.46    1.22
   0   5 -11   -0.74    1.55
   0   5 -11   -0.99    1.08
   0  -5  11   -0.42    1.43
   0  -5  11   -1.26    1.72
   0  -5  11    1.43    1.22
   0  -5  11   -1.15    1.43
  -1   5 -11   51.71    6.45
  -1   5 -11   50.25    6.76
  -1   5 -11   42.26    7.18
   1  -5  11   44.09    6.58
   1  -5  11   35.13    6.35
   1  -5  11   53.94    6.70
   1  -5  11   60.52    6.85
  -2   5 -11    1.93    1.80
  -2   5 -11    8.17    1.76
  -2   5 -11   -1.08    2.42
  -2   5 -11    5.82    2.15
  -2   5 -11    4.77    1.93
   2  -5  11    2.58    1.94
   2  -5  11    2.21    1.79
   2  -5  11    9.12    2.50
   2  -5  11    9.35    2.69
  -3   5 -11    3.98    2.76
  -3   5 -11    3.56    2.19
   3  -5  11   -0.50    2.41
   3  -5  11   -5.29    2.62
   3  -5  11   -1.35    1.71
   3  -5  11    2.12    2.26
  -4   5 -11    0.14    3.08
   4  -5  11    1.41    3.70
   4  -5  11   -0.25    2.01
   4   4 -11    4.68    2.74
   4   4 -11    2.21    1.86
  -4  -4  11    3.96    4.12
  -4  -4  11   -1.29    2.90
   3   4 -11    0.79    1.41
   3   4 -11   -0.67    1.60
   3   4 -11    0.88    2.23
  -3  -4  11   -0.40    2.86
  -3  -4  11   -0.51    1.96
   2   4 -11   -0.29    1.53
   2   4 -11    0.37    1.25
   2   4 -11   -1.25    1.31
  -2  -4  11    0.41    1.73
  -2  -4  11    1.02    1.91
  -2  -4  11    0.10    2.56
  -2  -4  11   -0.02    1.73
   1   4 -11    9.03    2.04
   1   4 -11   11.33    1.59
   1   4 -11    7.68    1.89
   1   4 -11    9.73    2.27
  -1  -4  11    6.68    2.10
  -1  -4  11    7.70    2.20
  -1  -4  11    8.80    3.04
  -1  -4  11    0.05    1.75
   0   4 -11   29.19    4.61
   0   4 -11   27.40    4.09
   0   4 -11   27.86    4.01
   0  -4  11   18.59    3.80
   0  -4  11   31.08    3.68
   0  -4  11   24.55    3.85
   0  -4  11   24.10    3.92
  -1   4 -11    2.78    1.36
  -1   4 -11    1.49    1.91
  -1   4 -11    0.77    1.38
  -1   4 -11    5.01    1.76
   1  -4  11    1.48    1.68
   1  -4  11    0.60    1.57
   1  -4  11    1.23    1.76
   1  -4  11    0.90    1.65
  -2   4 -11    1.71    1.59
  -2   4 -11    0.36    2.26
  -2   4 -11    1.50    1.60
  -2   4 -11    3.04    1.87
   2  -4  11   -0.09    1.38
   2  -4  11    0.81    1.94
   2  -4  11   -0.59    1.77
   2  -4  11   -2.18    2.09
  -3   4 -11   10.47    3.03
  -3   4 -11   12.88    3.51
   3  -4  11    7.34    2.31
   3  -4  11   11.98    2.97
   3  -4  11   13.12    3.69
   3  -4  11   10.16    3.00
  -4   4 -11   -3.35    2.41
  -4   4 -11   -0.44    2.79
   4  -4  11    4.64    3.70
   4  -4  11   -1.22    1.64
   4   3 -11    2.39    2.82
   4   3 -11    2.26    1.71
  -4  -3  11    4.45    4.04
   3   3 -11    2.41    2.19
   3   3 -11   -0.05    1.64
   3   3 -11    1.39    1.39
  -3  -3  11   -0.15    1.90
  -3  -3  11   -2.26    2.66
   2   3 -11   13.22    2.49
   2   3 -11   14.19    2.99
   2   3 -11   13.96    2.68
  -2  -3  11    8.37    3.76
  -2  -3  11   13.99    2.77
  -2  -3  11   10.67    2.64
  -2  -3  11   13.79    2.67
   1   3 -11   10.30    2.50
   1   3 -11   13.63    2.29
   1   3 -11   10.97    2.33
  -1  -3  11    8.79    2.28
  -1  -3  11   12.83    2.43
  -1  -3  11    7.15    1.77
   0   3 -11    1.49    1.52
   0   3 -11    0.26    0.77
   0   3 -11    0.68    0.77
   0   3 -11   -1.93    0.96
   0   3 -11   -0.45    1.10
   0  -3  11    0.03    1.18
   0  -3  11    2.73    1.61
   0  -3  11   -1.20    1.35
   0  -3  11    1.71    1.27
  -1   3 -11   14.43    2.85
  -1   3 -11   15.74    2.89
  -1   3 -11   14.62    3.57
  -1   3 -11   19.55    3.25
   1  -3  11   11.44    2.84
   1  -3  11   16.09    3.05
   1  -3  11   20.63    3.18
   1  -3  11   16.64    2.99
  -2   3 -11    2.62    2.28
  -2   3 -11   -0.23    1.73
  -2   3 -11    4.13    1.72
  -2   3 -11    6.86    1.92
   2  -3  11    8.11    2.53
   2  -3  11    3.73    2.21
   2  -3  11    3.11    1.82
   2  -3  11    2.73    1.59
  -3   3 -11    0.69    2.19
  -3   3 -11    2.08    2.21
   3  -3  11    0.04    2.27
   3  -3  11    0.89    2.06
   3  -3  11    5.18    2.68
   3  -3  11   -0.35    1.47
  -4   3 -11    2.13    2.91
  -4   3 -11   -1.08    3.07
   4  -3  11   -0.23    1.59
   4  -3  11    4.62    2.73
   4  -3  11   -1.77    2.70
   4   2 -11    1.74    1.57
   4   2 -11    3.95    2.93
  -4  -2  11    2.10    3.37
   3   2 -11   -0.67    1.81
   3   2 -11    0.89    1.28
   3   2 -11    1.87    1.62
  -3  -2  11    0.10    3.14
  -3  -2  11    2.75    2.01
   2   2 -11   33.25    4.36
   2   2 -11   27.09    3.46
   2   2 -11   34.18    4.03
   2   2 -11   33.93    4.27
   2   2 -11   31.94    4.75
  -2  -2  11   19.82    3.95
  -2  -2  11   27.43    3.99
  -2  -2  11   11.66    4.55
  -2  -2  11   30.52    4.30
   1   2 -11    1.51    1.17
   1   2 -11    2.59    1.68
   1   2 -11    1.15    1.31
  -1  -2  11    1.56    1.42
  -1  -2  11    0.95    1.38
   0   2 -11   20.56    3.01
   0   2 -11   22.59    3.47
   0   2 -11   22.05    3.65
   0   2 -11   15.93    3.24
   0   2 -11   24.81    2.97
   0  -2  11   19.70    2.94
   0  -2  11   19.91    3.35
   0  -2  11   20.15    3.30
   0  -2  11   12.88    3.18
  -1   2 -11   41.85    5.38
  -1   2 -11   34.93    5.14
  -1   2 -11   35.58    5.19
  -1   2 -11   43.16    6.12
   1  -2  11   32.60    5.04
   1  -2  11   37.62    5.09
   1  -2  11   32.78    5.16
   1  -2  11   33.46    5.08
  -2   2 -11    2.72    2.01
  -2   2 -11   -2.26    1.86
  -2   2 -11    0.31    1.47
  -2   2 -11    0.79    1.41
   2  -2  11   -1.54    1.66
   2  -2  11    1.57    1.41
   2  -2  11   -1.49    1.59
   2  -2  11    4.32    2.09
  -3   2 -11   -4.73    1.69
  -3   2 -11    2.02    2.57
   3  -2  11   -0.79    1.86
   3  -2  11   -2.61    1.22
   3  -2  11    1.36    2.39
   3  -2  11    2.05    2.27
  -4   2 -11    0.83    2.56
   4  -2  11   -1.42    2.31
   4  -2  11   -1.60    1.39
   4  -2  11   -1.48    2.56
   4   1 -11    0.34    1.44
   4   1 -11   -0.45    2.57
  -4  -1  11    3.72    3.61
   3   1 -11   -3.08    2.00
   3   1 -11    2.16    1.74
   3   1 -11    2.30    1.46
  -3  -1  11    2.06    2.95
  -3  -1  11    0.83    2.18
  -3  -1  11   -0.24    1.81
   2   1 -11    9.25    2.71
   2   1 -11   10.80    2.27
   2   1 -11   12.39    2.03
   2   1 -11    9.58    2.36
   2   1 -11   15.42    2.54
  -2  -1  11   12.62    2.12
  -2  -1  11   11.15    2.29
  -2  -1  11   10.01    2.39
  -2  -1  11   11.72    3.43
  -2  -1  11   14.99    3.07
   1   1 -11   12.70    2.36
   1   1 -11   13.16    2.53
   1   1 -11    9.05    2.46
  -1  -1  11   15.29    2.61
  -1  -1  11    7.53    2.52
  -1  -1  11   14.88    1.90
  -1  -1  11   12.31    2.38
  -1  -1  11    9.72    2.39
   0   1 -11   53.03    6.75
   0   1 -11   55.18    7.12
   0   1 -11   50.40    6.52
   0   1 -11   56.46    7.03
   0   1 -11   55.17    6.95
   0  -1  11   52.52    7.00
   0  -1  11   54.96    6.97
   0  -1  11   55.29    6.68
   0  -1  11   49.22    6.88
   0  -1  11   56.41    6.63
  -1   1 -11    3.60    1.75
  -1   1 -11    7.75    2.68
  -1   1 -11    4.65    1.67
  -1   1 -11    7.47    2.06
   1  -1  11    2.91    1.70
   1  -1  11    3.28    1.64
   1  -1  11    5.36    1.95
  -2   1 -11    0.53    1.78
  -2   1 -11    2.52    2.05
  -2   1 -11    1.00    1.41
  -2   1 -11    1.11    1.55
   2  -1  11    0.35    1.67
   2  -1  11   -0.73    1.58
   2  -1  11    1.84    1.42
  -3   1 -11   13.80    2.85
  -3   1 -11   18.30    3.89
   3  -1  11   22.46    3.52
   3  -1  11    7.32    2.37
   3  -1  11    7.70    2.77
  -4   1 -11   -2.96    2.73
   4  -1  11    1.93    3.26
   4  -1  11   -1.33    1.33
   4  -1  11   -2.02    2.71
   4   0 -11   -0.04    2.87
   4   0 -11   -1.05    1.37
  -4   0  11    1.55    2.88
  -4   0  11    0.23    2.74
   3   0 -11    3.36    1.51
   3   0 -11    0.49    1.73
   3   0 -11    2.29    2.43
  -3   0  11    2.68    2.34
  -3   0  11   -0.68    2.47
   2   0 -11   20.80    3.46
   2   0 -11   16.94    2.81
   2   0 -11   12.02    2.99
   2   0 -11   16.48    2.79
  -2   0  11   11.70    2.50
  -2   0  11   11.30    2.44
  -2   0  11   17.81    3.17
  -2   0  11    7.79    3.16
   1   0 -11    0.22    1.25
   1   0 -11    4.65    1.59
   1   0 -11    7.67    2.13
  -1   0  11    3.84    1.73
  -1   0  11    1.96    1.89
  -1   0  11    6.02    1.64
   0   0 -11   19.94    2.94
   0   0 -11   19.33    3.08
   0   0 -11   11.33    2.76
   0   0 -11   20.55    3.30
   0   0  11   14.90    2.35
   0   0  11   15.18    2.84
   0   0  11   15.98    2.50
   0   0  11   12.35    2.84
   0   0  11   19.25    3.00
  -1   0 -11   18.23    3.08
  -1   0 -11   20.62    3.38
  -1   0 -11   17.25    3.79
  -1   0 -11   13.43    2.85
   1   0  11   17.20    3.01
   1   0  11   13.13    3.01
   1   0  11   14.64    2.80
  -2   0 -11   11.42    2.55
  -2   0 -11   12.23    3.30
  -2   0 -11   14.88    2.92
  -2   0 -11   12.20    2.42
   2   0  11   14.66    2.95
   2   0  11   16.80    3.01
   2   0  11    9.93    2.47
  -3   0 -11   -3.02    2.15
   3   0  11   -3.57    2.01
   3   0  11    0.52    2.09
   3   0  11   -0.36    1.38
  -4   0 -11    6.77    3.56
   4   0  11    2.26    1.57
   4   0  11   -2.66    2.70
   4  -1 -11    0.48    2.84
   4  -1 -11    4.15    1.74
  -4   1  11    1.68    2.92
  -4   1  11   -2.25    2.61
   3  -1 -11    0.52    1.50
   3  -1 -11    0.33    2.14
   3  -1 -11    1.29    1.79
  -3   1  11   -0.10    2.06
  -3   1  11    0.75    2.43
   2  -1 -11   32.97    4.36
   2  -1 -11   22.14    4.43
   2  -1 -11   28.59    4.31
  -2   1  11   32.08    4.97
  -2   1  11   33.35    4.68
  -2   1  11   21.36    3.84
   1  -1 -11   -2.21    1.48
   1  -1 -11   -0.26    1.22
   1  -1 -11    1.07    1.43
  -1   1  11   -1.03    1.02
  -1   1  11    0.84    1.33
  -1   1  11   -0.33    1.46
  -1   1  11   -1.05    1.58
  -1   1  11    0.05    1.34
   0  -1 -11   42.67    5.86
   0  -1 -11   43.97    5.68
   0  -1 -11   44.77    6.03
   0   1  11   36.78    5.42
   0   1  11   33.99    5.65
   0   1  11   43.62    5.25
   0   1  11   39.76    5.00
   0   1  11   42.17    5.63
  -1  -1 -11    4.44    2.56
  -1  -1 -11    0.77    1.58
  -1  -1 -11    7.09    2.31
  -1  -1 -11    4.96    1.96
   1   1  11    4.16    1.71
   1   1  11    8.25    2.12
   1   1  11    7.04    1.26
   1   1  11    7.17    2.00
  -2  -1 -11   -2.33    2.31
  -2  -1 -11    2.18    1.83
  -2  -1 -11    1.67    1.72
  -2  -1 -11    3.78    1.77
  -2  -1 -11    2.03    2.26
  -2  -1 -11    3.16    2.65
   2   1  11    1.79    1.88
   2   1  11    2.73    1.64
   2   1  11    0.88    1.90
  -3  -1 -11    0.93    2.65
   3   1  11    1.03    2.22
   3   1  11    5.37    2.62
  -4  -1 -11    1.01    3.34
   4   1  11    6.04    3.12
   4   1  11    1.97    1.71
   4  -2 -11    0.08    2.78
   4  -2 -11   -2.68    1.53
  -4   2  11   -0.33    2.74
   3  -2 -11   -1.08    1.84
   3  -2 -11    1.21    2.60
   3  -2 -11    0.49    1.61
  -3   2  11    0.06    2.08
  -3   2  11   -0.67    2.02
   2  -2 -11   22.89    3.67
   2  -2 -11   13.37    3.63
   2  -2 -11   16.38    3.22
  -2   2  11   17.20    3.66
  -2   2  11   20.01    3.07
  -2   2  11   18.13    3.21
  -2   2  11   19.74    3.63
   1  -2 -11    1.87    2.16
   1  -2 -11   -0.38    1.32
   1  -2 -11   -1.89    1.38
  -1   2  11    0.08    1.59
  -1   2  11    2.87    1.49
  -1   2  11    1.25    1.42
  -1   2  11    3.36    1.55
  -1   2  11    1.27    1.80
   0  -2 -11   24.86    4.46
   0  -2 -11   20.87    4.22
   0  -2 -11   31.44    4.88
   0   2  11   33.57    4.42
   0   2  11   30.83    4.15
   0   2  11   33.04    4.34
   0   2  11   23.78    4.37
  -1  -2 -11    0.15    1.59
  -1  -2 -11    0.20    1.83
  -1  -2 -11    1.33    2.66
  -1  -2 -11   -0.51    1.71
  -1  -2 -11   -0.11    1.61
   1   2  11    0.08    1.22
   1   2  11    1.52    1.70
   1   2  11    2.30    1.62
   1   2  11    0.95    1.02
  -2  -2 -11    7.16    2.70
  -2  -2 -11    6.21    2.18
  -2  -2 -11   11.39    3.28
  -2  -2 -11    7.40    3.08
  -2  -2 -11    4.80    2.29
   2   2  11    5.36    2.34
   2   2  11    5.26    2.00
   2   2  11    7.66    2.33
  -3  -2 -11    2.91    3.81
  -3  -2 -11   11.14    3.82
   3   2  11    5.98    2.72
   3   2  11    7.72    2.16
   3   2  11    8.63    3.02
  -4  -2 -11   -0.32    3.82
   4   2  11   -0.74    2.89
   4  -3 -11   -3.02    2.66
   4  -3 -11   -1.77    1.72
  -4   3  11    4.91    3.01
   3  -3 -11    5.17    2.42
   3  -3 -11    3.07    1.88
   3  -3 -11    3.23    2.96
  -3   3  11    0.53    2.31
  -3   3  11    1.67    2.46
   2  -3 -11   11.72    2.72
   2  -3 -11    8.27    2.70
   2  -3 -11    9.70    3.06
  -2   3  11   10.91    2.47
  -2   3  11   13.16    2.60
  -2   3  11   12.51    2.66
  -2   3  11   12.39    2.92
   1  -3 -11   -0.89    1.84
   1  -3 -11    1.80    1.82
   1  -3 -11    0.74    1.64
  -1   3  11    2.14    1.68
  -1   3  11    2.22    1.85
  -1   3  11    1.26    1.61
  -1   3  11    2.57    2.05
   0  -3 -11   33.13    3.99
   0  -3 -11   15.39    3.97
   0  -3 -11   26.99    4.73
   0  -3 -11   21.58    4.35
   0   3  11   28.57    4.25
   0   3  11   25.71    4.17
   0   3  11   30.33    4.57
   0   3  11   27.67    4.04
  -1  -3 -11    6.41    2.47
  -1  -3 -11   11.46    2.86
  -1  -3 -11    8.57    2.57
  -1  -3 -11   10.21    3.42
  -1  -3 -11    5.32    2.83
   1   3  11   11.71    2.10
   1   3  11   10.16    2.68
   1   3  11    5.96    1.99
   1   3  11    9.38    2.49
  -2  -3 -11    3.46    3.17
  -2  -3 -11    7.08    2.45
  -2  -3 -11    5.71    2.36
  -2  -3 -11   11.80    4.40
  -2  -3 -11    4.24    3.05
   2   3  11    8.18    2.65
   2   3  11    5.38    2.06
   2   3  11    7.23    2.52
  -3  -3 -11   -0.65    3.59
  -3  -3 -11   -2.58    3.19
   3   3  11   -3.22    2.26
   3   3  11    3.06    2.74
   3   3  11    1.04    1.62
   4  -4 -11   -2.23    1.99
   4  -4 -11   -0.70    3.40
  -4   4  11   -5.24    2.49
   3  -4 -11    0.03    2.59
   3  -4 -11   -2.30    2.21
   3  -4 -11   -0.46    1.84
  -3   4  11   -4.72    2.09
   2  -4 -11    0.68    1.76
   2  -4 -11   -1.65    1.98
   2  -4 -11    3.25    2.94
   2  -4 -11    0.56    1.86
  -2   4  11   -2.32    1.52
  -2   4  11   -2.82    1.75
  -2   4  11    0.99    2.05
   1  -4 -11    6.46    2.44
   1  -4 -11    7.32    2.32
   1  -4 -11    6.57    2.85
  -1   4  11   10.97    2.51
  -1   4  11   11.89    2.85
  -1   4  11    6.15    2.12
  -1   4  11    4.62    2.12
   0  -4 -11   18.39    3.91
   0  -4 -11   16.22    3.60
   0  -4 -11   15.05    3.00
   0  -4 -11   14.23    3.32
   0   4  11   14.58    3.01
   0   4  11   16.32    3.54
   0   4  11   18.16    3.34
   0   4  11   19.19    3.35
  -1  -4 -11   -1.89    1.84
  -1  -4 -11    1.67    2.04
  -1  -4 -11    0.82    2.77
  -1  -4 -11    1.07    2.42
  -1  -4 -11   -1.68    2.72
   1   4  11    0.60    1.93
   1   4  11    0.77    1.81
   1   4  11    2.66    1.54
   1   4  11    0.28    1.58
  -2  -4 -11   -2.56    2.92
  -2  -4 -11    0.49    3.23
  -2  -4 -11   -1.24    2.12
   2   4  11    0.05    2.17
   2   4  11   -0.85    1.97
   2   4  11    3.78    1.89
  -3  -4 -11    2.60    3.77
  -3  -4 -11   -1.20    3.96
   3   4  11    2.76    2.77
   3   4  11    2.56    1.85
   3   4  11    0.39    2.90
   4  -5 -11    1.89    3.76
   4  -5 -11   -1.73    2.11
  -4   5  11    4.01    3.28
   3  -5 -11   -0.44    2.61
   3  -5 -11   -1.77    2.70
   3  -5 -11   -0.60    1.96
  -3   5  11    2.29    2.59
   2  -5 -11   -0.62    2.31
   2  -5 -11    4.38    2.53
   2  -5 -11   11.08    3.52
   2  -5 -11    2.63    2.07
  -2   5  11    3.82    2.30
  -2   5  11    1.32    1.96
  -2   5  11    5.36    2.56
   1  -5 -11   -1.96    1.92
   1  -5 -11    1.08    1.82
   1  -5 -11   -0.22    2.38
  -1   5  11   -0.72    2.20
  -1   5  11    2.29    1.87
  -1   5  11    4.23    2.25
  -1   5  11    1.73    1.68
   0  -5 -11    0.46    2.06
   0  -5 -11    5.11    2.98
   0  -5 -11    3.68    2.10
   0  -5 -11    2.30    2.31
   0   5  11    0.44    1.95
   0   5  11    4.51    2.07
   0   5  11    0.93    1.81
   0   5  11    3.31    2.31
  -1  -5 -11    3.37    3.39
  -1  -5 -11    3.35    2.94
  -1  -5 -11    0.14    2.38
  -1  -5 -11    2.38    2.24
   1   5  11    3.11    2.02
   1   5  11    4.41    2.02
   1   5  11    3.52    2.25
   1   5  11    3.61    2.15
  -2  -5 -11   12.77    5.12
  -2  -5 -11    7.86    4.29
  -2  -5 -11    5.97    3.07
  -2  -5 -11    5.65    3.99
   2   5  11    3.24    2.67
   2   5  11    9.30    2.92
   2   5  11    5.44    2.21
  -3  -5 -11    2.85    4.68
  -3  -5 -11   -2.11    3.93
   3   5  11   -1.05    1.78
   3   5  11    0.27    2.83
   3   5  11    0.18    3.04
   3  -6 -11   -2.85    3.46
   3  -6 -11    1.21    2.45
   3  -6 -11    1.26    2.96
  -3   6  11    3.61    2.81
   2  -6 -11    0.42    2.06
   2  -6 -11    1.09    2.82
   2  -6 -11    1.20    2.84
   2  -6 -11    5.06    3.49
  -2   6  11    1.37    2.36
  -2   6  11    1.91    2.40
   1  -6 -11    1.09    2.84
   1  -6 -11    2.44    2.80
   1  -6 -11    0.33    2.11
  -1   6  11   -2.23    2.14
  -1   6  11    2.16    1.78
  -1   6  11   -1.30    2.24
  -1   6  11   -1.82    1.80
   0  -6 -11    1.45    2.36
   0  -6 -11    4.03    3.15
   0  -6 -11    6.10    3.50
   0   6  11    1.43    1.91
   0   6  11   11.53    3.20
   0   6  11    2.83    2.36
   0   6  11    9.71    2.63
  -1  -6 -11    1.91    2.72
  -1  -6 -11    0.47    3.02
  -1  -6 -11    4.46    4.32
  -1  -6 -11   -2.60    2.23
   1   6  11   -1.79    2.00
   1   6  11   -0.53    1.62
   1   6  11    0.48    2.15
   1   6  11    0.73    2.04
  -2  -6 -11   -1.13    3.92
  -2  -6 -11   -1.69    2.82
  -2  -6 -11   -0.62    3.90
   2   6  11    1.82    2.62
   2   6  11    0.61    2.55
   2   6  11   -0.05    1.83
   3  -7 -11    2.57    4.27
   3  -7 -11    2.03    3.20
   3  -7 -11   -0.48    2.35
  -3   7  11   -1.32    2.57
   2  -7 -11   -0.97    2.94
   2  -7 -11    0.48    2.52
   2  -7 -11    1.34    3.03
  -2   7  11   -0.84    2.57
  -2   7  11   -2.00    2.32
   1  -7 -11    4.28    3.34
   1  -7 -11    4.57    3.24
   1  -7 -11   12.13    3.29
  -1   7  11    3.43    2.68
  -1   7  11    7.84    3.08
  -1   7  11    1.65    2.69
  -1   7  11    6.28    2.29
   0  -7 -11    7.27    3.10
   0  -7 -11    5.31    3.42
   0   7  11   10.75    2.90
   0   7  11    9.04    3.04
   0   7  11   10.53    3.50
   0   7  11    8.74    2.99
  -1  -7 -11    0.78    3.23
  -1  -7 -11   -5.13    4.14
  -1  -7 -11   -3.83    2.25
   1   7  11    1.35    1.92
   1   7  11    0.68    2.48
   1   7  11   -0.71    2.31
   1   7  11   -0.02    2.43
  -2  -7 -11   -3.83    3.27
  -2  -7 -11    2.90    4.80
  -2  -7 -11    4.48    4.84
   2   7  11    2.43    2.95
   2   7  11    4.51    2.39
   2   7  11    5.81    3.14
   2  -8 -11   -1.00    3.22
   2  -8 -11   -4.51    1.94
   2  -8 -11    3.13    3.90
  -2   8  11   -0.12    3.03
  -2   8  11    0.63    2.61
   1  -8 -11   -0.76    3.57
   1  -8 -11   -0.33    3.22
   1  -8 -11    1.39    2.56
  -1   8  11    1.34    2.98
  -1   8  11   -0.88    1.94
  -1   8  11    0.39    2.60
   0  -8 -11    0.43    2.51
   0  -8 -11    0.73    3.60
   0   8  11   -3.06    2.26
   0   8  11   -1.21    1.81
   0   8  11    1.62    2.89
   0   8  11   -4.10    2.67
  -1  -8 -11    4.50    4.28
  -1  -8 -11    1.45    2.94
  -1  -8 -11   -6.47    5.06
   1   8  11    2.75    3.06
   1   8  11    0.96    1.95
   1   8  11    5.16    3.22
   1   8  11    2.20    3.11
   1  -9 -11    0.24    2.62
   1  -9 -11   -0.52    3.64
  -1   9  11    0.35    2.25
  -1   9  11   -3.91    2.60
  -1   9  11    6.31    3.63
   0  -9 -11    0.32    4.24
   0  -9 -11    3.61    3.40
   0   9  11   -0.22    2.18
   0   9  11   -0.51    2.83
   0   9  11   -4.13    3.20
   0  12 -12    1.59    1.91
   0  12 -12   -3.36    2.17
   0 -12  12    1.70    2.77
   0 -12  12    1.44    4.58
   0 -12  12    7.91    3.77
  -1  12 -12    3.86    2.51
  -1  12 -12    0.07    2.93
  -1  12 -12    2.95    2.06
   1 -12  12    3.02    4.63
   1 -12  12   -2.69    2.50
   1 -12  12    1.53    3.35
   1  11 -12    1.47    1.93
   1  11 -12    3.09    2.46
  -1 -11  12    0.82    3.38
  -1 -11  12    4.13    4.44
  -1 -11  12    0.53    2.75
  -1 -11  12   -1.62    4.87
   0  11 -12   -0.05    1.84
   0  11 -12   -0.71    2.08
   0 -11  12    2.04    4.02
   0 -11  12   -0.42    2.95
   0 -11  12    4.25    3.08
   0 -11  12   -2.14    3.66
  -1  11 -12    0.90    2.30
  -1  11 -12   -2.42    2.65
  -1  11 -12    2.64    2.09
   1 -11  12    5.62    4.07
   1 -11  12    2.73    2.59
   1 -11  12    2.96    3.42
   1 -11  12   -1.06    4.52
  -2  11 -12    8.09    3.88
  -2  11 -12    1.74    2.29
   2 -11  12    1.42    4.24
   2 -11  12    1.87    2.60
   2 -11  12    4.80    3.67
   2  10 -12   -2.69    1.45
   2  10 -12   -0.20    2.39
  -2 -10  12    5.46    5.28
  -2 -10  12    1.36    4.44
  -2 -10  12    2.53    3.27
   1  10 -12    1.24    2.16
   1  10 -12    1.31    1.96
  -1 -10  12   -1.87    4.28
  -1 -10  12   -2.44    3.18
  -1 -10  12   -1.17    2.42
  -1 -10  12    3.01    3.22
   0  10 -12    6.79    2.55
   0  10 -12    4.61    2.10
   0 -10  12    6.85    3.75
   0 -10  12    2.23    2.92
   0 -10  12    8.22    3.13
   0 -10  12    2.62    3.63
  -1  10 -12    4.93    2.86
  -1  10 -12    1.13    2.18
  -1  10 -12    1.90    1.84
   1 -10  12   -0.54    2.25
   1 -10  12    5.71    3.16
   1 -10  12   -2.38    3.29
  -2  10 -12   -3.24    3.19
  -2  10 -12    2.25    2.39
   2 -10  12    1.90    2.58
   2 -10  12    0.23    3.64
   2 -10  12    2.21    3.34
  -3  10 -12   -0.04    4.25
   3 -10  12   -1.86    4.20
   3 -10  12    1.06    3.41
   3 -10  12    2.04    2.79
   3   9 -12   -5.34    2.40
   3   9 -12    0.13    1.94
  -3  -9  12   -6.05    4.93
  -3  -9  12   -2.75    4.10
   2   9 -12   -0.64    1.65
   2   9 -12    0.05    2.22
  -2  -9  12   -0.42    4.46
  -2  -9  12    3.29    3.03
  -2  -9  12    3.34    4.35
   1   9 -12   11.52    3.01
   1   9 -12   13.63    3.03
   1   9 -12   12.32    3.40
  -1  -9  12   11.55    3.61
  -1  -9  12   19.06    4.84
  -1  -9  12   13.21    4.75
  -1  -9  12   10.45    3.37
   0   9 -12    2.23    2.08
   0   9 -12   -0.84    1.44
   0  -9  12    3.63    3.22
   0  -9  12    0.95    2.58
   0  -9  12    5.80    3.88
   0  -9  12   -1.67    2.14
  -1   9 -12    0.94    1.91
  -1   9 -12   -0.88    1.54
   1  -9  12    1.18    2.76
   1  -9  12    0.50    2.17
   1  -9  12   -3.24    2.92
  -2   9 -12    3.90    2.40
  -2   9 -12    3.94    3.57
  -2   9 -12    1.90    3.32
   2  -9  12    4.01    2.70
   2  -9  12   11.37    4.01
   2  -9  12    7.12    3.55
  -3   9 -12    3.36    3.87
   3  -9  12   -0.13    3.25
   3  -9  12    1.05    4.04
   3  -9  12    1.84    2.56
   3   8 -12   -2.10    2.37
   3   8 -12    2.04    2.10
  -3  -8  12    1.83    4.61
  -3  -8  12    0.79    4.30
   2   8 -12   -0.87    1.50
   2   8 -12   -0.23    1.92
   2   8 -12    1.45    2.21
  -2  -8  12    4.24    3.79
  -2  -8  12   -2.20    2.61
  -2  -8  12   -5.49    3.54
   1   8 -12    0.83    2.02
   1   8 -12    4.00    1.94
   1   8 -12    3.44    2.26
  -1  -8  12    3.81    3.36
  -1  -8  12    2.50    2.68
  -1  -8  12    1.08    2.36
  -1  -8  12    0.88    3.40
   0   8 -12    3.10    1.93
   0   8 -12    0.90    1.62
   0  -8  12    1.30    2.10
   0  -8  12    3.55    2.45
   0  -8  12    3.71    3.54
   0  -8  12   -1.98    2.56
  -1   8 -12    3.40    2.06
  -1   8 -12    7.81    2.36
   1  -8  12    7.10    2.95
   1  -8  12    1.86    2.13
   1  -8  12    6.88    2.84
  -2   8 -12   -2.17    2.91
  -2   8 -12    0.69    1.97
  -2   8 -12   -0.09    1.87
   2  -8  12    1.17    2.66
   2  -8  12    2.77    2.29
   2  -8  12   -3.90    2.98
  -3   8 -12   -2.28    3.30
   3  -8  12   -2.48    1.93
   3  -8  12    0.95    3.01
   3  -8  12    3.63    3.48
   3   7 -12    5.95    2.79
   3   7 -12    5.65    2.30
  -3  -7  12    8.20    5.15
  -3  -7  12   12.68    4.60
   2   7 -12   -0.01    1.52
   2   7 -12    0.39    1.92
   2   7 -12   -0.99    1.80
  -2  -7  12   -1.60    3.33
  -2  -7  12   -1.60    3.29
  -2  -7  12   -3.56    3.62
  -2  -7  12    4.35    2.63
   1   7 -12    2.56    1.73
   1   7 -12    1.51    1.82
   1   7 -12    9.38    2.66
  -1  -7  12    9.33    2.88
  -1  -7  12    7.11    3.31
  -1  -7  12    5.87    2.45
  -1  -7  12    7.61    3.32
   0   7 -12   11.33    2.68
   0   7 -12   14.41    3.30
   0   7 -12    9.73    2.82
   0  -7  12   14.61    3.38
   0  -7  12   13.76    3.40
   0  -7  12   13.48    3.47
  -1   7 -12    4.18    1.97
  -1   7 -12    3.04    1.92
   1  -7  12    2.79    2.16
   1  -7  12    1.56    2.21
   1  -7  12   -2.45    2.34
  -2   7 -12   -2.21    1.54
  -2   7 -12    1.18    1.91
  -2   7 -12   -4.53    2.58
   2  -7  12    1.48    2.84
   2  -7  12   -1.02    1.74
   2  -7  12    0.53    2.45
  -3   7 -12    2.70    3.29
   3  -7  12    2.23    2.32
   3  -7  12   -3.35    2.75
   3  -7  12   -0.35    3.33
   4  -7  12   -0.18    2.39
   4   6 -12    2.24    2.08
  -4  -6  12   -8.84    4.32
  -4  -6  12    6.63    4.10
   3   6 -12   -0.76    1.58
   3   6 -12    0.65    2.30
   3   6 -12    3.39    2.29
  -3  -6  12    6.14    3.49
  -3  -6  12   -0.67    3.49
   2   6 -12   -0.33    1.41
   2   6 -12   -0.46    1.80
   2   6 -12   -3.66    1.67
  -2  -6  12   -0.13    2.79
  -2  -6  12   -1.34    2.16
  -2  -6  12   -2.52    2.76
  -2  -6  12    2.84    2.25
   1   6 -12   27.48    4.72
   1   6 -12   24.56    4.13
   1   6 -12   34.55    4.59
  -1  -6  12   24.20    4.63
  -1  -6  12   28.02    4.54
  -1  -6  12   24.96    5.18
  -1  -6  12   18.39    4.23
   0   6 -12    2.85    1.62
   0   6 -12   -0.69    1.55
   0   6 -12    0.35    1.36
   0  -6  12   -0.56    2.01
   0  -6  12    0.29    2.03
   0  -6  12   -2.78    1.82
  -1   6 -12    0.31    1.46
  -1   6 -12   -4.03    1.14
   1  -6  12   -0.26    2.10
   1  -6  12    0.39    2.22
   1  -6  12    0.27    1.72
  -2   6 -12    5.72    3.44
  -2   6 -12   15.54    3.03
  -2   6 -12   16.59    3.16
   2  -6  12   16.91    3.44
   2  -6  12   11.90    2.92
   2  -6  12   12.22    2.95
   2  -6  12    7.44    3.52
  -3   6 -12   -1.85    2.87
   3  -6  12    0.20    1.94
   3  -6  12    2.56    2.84
   3  -6  12    2.60    3.30
  -4   6 -12   -1.16    3.49
   4  -6  12    0.48    3.96
   4  -6  12    0.72    2.09
   4   5 -12    0.53    1.92
  -4  -5  12    6.50    5.11
   3   5 -12    5.80    2.51
   3   5 -12    1.24    2.20
   3   5 -12    3.69    1.86
  -3  -5  12    3.02    3.78
  -3  -5  12    8.18    3.20
   2   5 -12    1.75    1.46
   2   5 -12   -0.12    1.68
   2   5 -12    0.04    1.93
  -2  -5  12    5.34    2.58
  -2  -5  12    1.95    2.27
  -2  -5  12    4.11    2.25
  -2  -5  12    2.44    3.33
   1   5 -12   -1.35    1.21
   1   5 -12   -1.92    1.59
   1   5 -12   -0.07    1.50
  -1  -5  12   -1.50    1.72
  -1  -5  12    0.75    2.76
  -1  -5  12    2.67    1.94
  -1  -5  12    1.18    2.03
   0   5 -12    2.06    1.89
   0   5 -12    1.31    1.44
   0   5 -12   -0.94    1.24
   0  -5  12    0.06    1.93
   0  -5  12    1.54    1.35
   0  -5  12    1.05    1.69
   0  -5  12    0.54    1.64
  -1   5 -12   31.37    5.37
  -1   5 -12   29.00    4.46
  -1   5 -12   29.51    4.45
   1  -5  12   34.36    4.85
   1  -5  12   20.45    4.33
   1  -5  12   33.00    4.71
   1  -5  12   23.38    4.25
  -2   5 -12    3.85    2.86
  -2   5 -12    1.08    1.74
  -2   5 -12    0.92    1.61
  -2   5 -12    3.27    1.79
   2  -5  12    3.16    2.35
   2  -5  12    3.03    1.96
   2  -5  12    0.37    2.52
   2  -5  12    1.35    1.75
  -3   5 -12   -1.08    2.10
  -3   5 -12   -2.77    2.68
   3  -5  12    1.70    1.94
   3  -5  12   -2.62    2.21
   3  -5  12   -4.54    2.76
   3  -5  12    1.67    2.66
  -4   5 -12   -1.82    3.18
  -4   5 -12   -4.30    2.64
   4  -5  12   -4.73    3.42
   4  -5  12    1.89    2.19
   4   4 -12    2.05    1.80
   4   4 -12    4.47    2.97
  -4  -4  12    0.43    4.66
   3   4 -12   -0.04    2.02
   3   4 -12    2.92    1.63
   3   4 -12   -2.47    1.76
  -3  -4  12   -0.41    3.47
  -3  -4  12    3.99    2.45
   2   4 -12    0.30    1.57
   2   4 -12   -0.33    1.48
   2   4 -12   -2.16    1.04
  -2  -4  12   -1.56    2.48
  -2  -4  12    1.08    1.82
  -2  -4  12   -2.97    1.76
  -2  -4  12   -0.82    1.84
   1   4 -12   16.20    3.10
   1   4 -12   20.41    3.22
   1   4 -12   17.19    3.51
  -1  -4  12   23.22    3.68
  -1  -4  12   15.01    3.29
  -1  -4  12   13.08    4.13
   0   4 -12   -0.18    1.18
   0   4 -12    0.34    1.54
   0   4 -12    1.00    1.44
   0  -4  12    1.35    1.71
   0  -4  12    0.95    1.49
   0  -4  12   -1.99    1.50
  -1   4 -12    0.99    1.97
  -1   4 -12   -0.18    1.37
  -1   4 -12    1.00    1.46
  -1   4 -12    0.49    1.18
   1  -4  12    1.48    1.68
   1  -4  12   -1.19    1.36
   1  -4  12   -1.00    1.63
   1  -4  12   -2.24    1.51
  -2   4 -12    1.02    1.57
  -2   4 -12   -0.05    1.69
  -2   4 -12    1.22    1.68
  -2   4 -12   -0.99    2.43
   2  -4  12   -2.11    2.07
   2  -4  12    1.13    2.01
   2  -4  12    1.22    1.99
   2  -4  12    0.75    1.55
  -3   4 -12    3.59    2.55
  -3   4 -12    6.81    2.79
   3  -4  12   -0.91    1.66
   3  -4  12    7.19    2.72
   3  -4  12    6.10    3.28
   3  -4  12    4.50    2.71
  -4   4 -12    0.60    2.88
  -4   4 -12    3.00    3.21
   4  -4  12   -3.11    3.52
   4  -4  12   -1.89    1.78
   4   3 -12    0.64    2.75
   4   3 -12    2.39    1.85
  -4  -3  12   10.82    4.82
   3   3 -12   -0.61    2.33
   3   3 -12    1.04    1.46
   3   3 -12    3.84    1.96
  -3  -3  12    0.97    3.39
  -3  -3  12   -0.37    2.01
   2   3 -12    3.72    1.82
   2   3 -12    2.89    1.88
   2   3 -12    2.39    1.52
  -2  -3  12    1.76    2.81
  -2  -3  12    3.60    2.00
  -2  -3  12    0.36    1.74
  -2  -3  12    1.33    1.61
   1   3 -12   46.49    5.78
   1   3 -12   41.26    5.94
   1   3 -12   38.35    6.15
  -1  -3  12   39.01    5.85
  -1  -3  12   44.25    5.85
   0   3 -12   -0.96    1.07
   0   3 -12   -1.69    1.16
   0   3 -12    0.62    0.82
   0   3 -12    0.32    1.53
   0   3 -12   -0.33    0.82
   0  -3  12   -0.23    1.24
   0  -3  12   -0.40    1.42
   0  -3  12   -0.51    1.47
   0  -3  12    1.84    1.34
  -1   3 -12   22.93    3.59
  -1   3 -12   23.45    3.69
  -1   3 -12   18.12    4.13
  -1   3 -12   20.99    3.44
   1  -3  12   20.19    3.53
   1  -3  12   15.51    3.37
   1  -3  12   21.74    3.56
   1  -3  12   17.06    3.44
  -2   3 -12   -0.91    2.28
  -2   3 -12    2.98    1.78
  -2   3 -12    1.45    1.60
  -2   3 -12    0.59    1.90
   2  -3  12    4.64    2.20
   2  -3  12    0.97    1.54
   2  -3  12    2.69    2.30
   2  -3  12    1.34    2.01
  -3   3 -12   -1.18    2.20
  -3   3 -12    0.58    2.22
   3  -3  12    0.11    2.47
   3  -3  12    1.79    1.62
   3  -3  12   -0.09    2.18
   3  -3  12   -1.84    2.63
  -4   3 -12    3.06    3.17
   4  -3  12   -0.08    2.82
   4  -3  12   -2.65    1.51
   4  -3  12   -0.70    3.40
   4   2 -12    2.06    2.94
   4   2 -12    1.07    1.76
  -4  -2  12    2.75    4.04
   3   2 -12    0.30    1.36
   3   2 -12    0.64    2.39
   3   2 -12    0.73    1.76
  -3  -2  12    3.30    3.51
  -3  -2  12   -0.67    2.81
   2   2 -12   24.76    3.58
   2   2 -12   22.90    4.16
   2   2 -12   20.26    3.59
  -2  -2  12   20.82    3.63
  -2  -2  12   21.43    3.28
  -2  -2  12   11.64    4.43
  -2  -2  12   22.33    3.57
   1   2 -12    6.82    1.86
   1   2 -12    4.42    0.97
   1   2 -12    2.45    1.47
   1   2 -12    4.29    2.01
  -1  -2  12    5.28    1.81
  -1  -2  12    4.43    1.79
   0   2 -12   -0.98    1.10
   0   2 -12   -0.05    0.81
   0   2 -12    2.94    1.95
   0   2 -12   -1.25    1.24
   0   2 -12   -0.38    1.01
   0  -2  12   -2.06    1.11
   0  -2  12   -0.62    1.15
   0  -2  12    0.02    1.35
   0  -2  12    0.41    1.36
  -1   2 -12   50.79    6.81
  -1   2 -12   56.25    6.93
  -1   2 -12   52.56    6.86
  -1   2 -12   68.74    8.39
   1  -2  12   54.63    6.94
   1  -2  12   62.91    7.01
   1  -2  12   34.81    6.67
   1  -2  12   49.67    6.78
  -2   2 -12    0.17    1.40
  -2   2 -12    0.03    1.79
  -2   2 -12    0.25    1.61
  -2   2 -12   -0.29    2.16
   2  -2  12    2.32    1.96
   2  -2  12    1.59    1.93
   2  -2  12    2.22    1.61
   2  -2  12   -1.07    2.05
  -3   2 -12    1.41    2.56
  -3   2 -12    2.57    2.24
   3  -2  12   -1.31    1.41
   3  -2  12   -0.67    2.05
   3  -2  12    1.57    2.91
   3  -2  12    1.52    2.52
  -4   2 -12    2.40    2.99
   4  -2  12    3.83    3.58
   4  -2  12    0.78    1.66
   4  -2  12    1.07    2.64
   4   1 -12    0.69    2.78
   4   1 -12    2.69    1.73
  -4  -1  12    0.87    3.22
   3   1 -12    0.60    1.73
   3   1 -12    0.29    2.54
   3   1 -12   -0.41    1.33
  -3  -1  12   -1.50    2.48
   2   1 -12    8.68    2.75
   2   1 -12   13.25    2.32
   2   1 -12   10.47    2.41
  -2  -1  12    6.81    2.12
  -2  -1  12   -0.37    3.21
  -2  -1  12    8.92    1.73
  -2  -1  12    6.54    2.10
  -2  -1  12   10.90    2.57
   1   1 -12   46.68    7.70
   1   1 -12   61.14    7.54
   1   1 -12   65.51    7.48
  -1  -1  12   58.54    7.35
  -1  -1  12   47.27    7.87
  -1  -1  12   64.05    7.49
  -1  -1  12   57.24    6.85
  -1  -1  12   52.26    7.35
   0   1 -12   24.20    3.73
   0   1 -12   24.66    3.24
   0   1 -12   18.83    3.58
   0   1 -12   22.55    4.00
   0   1 -12   25.42    3.59
   0  -1  12   24.01    3.73
   0  -1  12   18.79    3.62
   0  -1  12   18.13    3.44
   0  -1  12   19.50    3.20
   0  -1  12   26.13    3.31
  -1   1 -12    4.86    1.74
  -1   1 -12    1.35    1.62
  -1   1 -12    2.22    1.77
  -1   1 -12   -2.14    1.76
   1  -1  12    2.38    1.73
   1  -1  12    1.59    1.43
   1  -1  12    4.33    1.89
  -2   1 -12   -1.21    1.34
  -2   1 -12   -1.02    1.75
  -2   1 -12   -0.42    1.61
  -2   1 -12    1.70    2.08
   2  -1  12   -0.67    1.45
   2  -1  12    0.85    1.86
   2  -1  12   -2.42    1.69
  -3   1 -12    7.85    3.14
   3  -1  12    7.70    2.21
   3  -1  12   11.32    3.10
   3  -1  12    5.21    2.50
  -4   1 -12   -0.25    3.05
   4  -1  12   -2.35    1.43
   4  -1  12   -3.34    2.58
   4  -1  12    0.25    2.97
   4   0 -12   -0.61    1.56
   4   0 -12    2.32    3.17
  -4   0  12    3.59    3.46
  -4   0  12    1.64    3.04
   3   0 -12    1.98    1.92
   3   0 -12    3.51    2.43
   3   0 -12    1.90    1.63
  -3   0  12    2.47    2.46
  -3   0  12    3.05    3.01
   2   0 -12    1.27    1.73
   2   0 -12   -2.21    1.23
   2   0 -12   -1.80    2.08
  -2   0  12    2.82    1.66
  -2   0  12    0.18    1.60
  -2   0  12   -0.86    1.39
  -2   0  12   -1.31    2.48
   1   0 -12    9.92    2.55
   1   0 -12   18.42    3.39
   1   0 -12   13.93    2.60
  -1   0  12   13.37    2.62
  -1   0  12   11.23    2.37
  -1   0  12    8.47    2.75
   0   0 -12    2.06    1.62
   0   0 -12   -0.05    1.98
   0   0 -12    0.74    1.38
   0   0 -12    0.15    1.36
   0   0  12    1.92    1.40
   0   0  12    0.51    1.58
   0   0  12   -0.10    0.84
   0   0  12    2.78    1.70
   0   0  12    2.22    1.12
  -1   0 -12   21.14    4.35
  -1   0 -12   21.04    3.72
  -1   0 -12   17.69    3.38
  -1   0 -12   16.11    3.39
   1   0  12   20.75    3.52
   1   0  12   20.57    3.47
   1   0  12   16.13    3.26
  -2   0 -12   -1.40    2.70
  -2   0 -12    2.33    1.92
  -2   0 -12    0.67    1.58
  -2   0 -12   -0.22    1.95
  -2   0 -12    2.37    1.61
   2   0  12    1.08    1.79
   2   0  12    0.68    1.78
  -3   0 -12    2.63    2.80
   3   0  12    0.14    1.99
   3   0  12   -1.29    1.43
   3   0  12   -4.97    1.96
  -4   0 -12    4.09    3.51
   4   0  12   -3.91    2.74
   4   0  12    2.85    1.73
   4  -1 -12    2.99    2.94
   4  -1 -12   -0.10    1.62
  -4   1  12    2.67    3.21
  -4   1  12   -1.22    3.10
   3  -1 -12    0.00    2.32
   3  -1 -12    3.54    1.73
   3  -1 -12   -0.06    1.77
  -3   1  12   -2.73    2.36
  -3   1  12    0.11    2.01
   2  -1 -12    9.72    2.35
   2  -1 -12    6.31    2.63
   2  -1 -12    9.92    2.50
  -2   1  12   11.50    2.69
  -2   1  12    6.65    2.06
  -2   1  12   11.37    3.34
   1  -1 -12    8.52    2.06
   1  -1 -12    2.60    2.29
   1  -1 -12    3.13    1.76
  -1   1  12    2.04    1.24
  -1   1  12    1.81    1.68
  -1   1  12    4.72    2.10
  -1   1  12    4.06    1.94
  -1   1  12    2.11    1.61
   0  -1 -12   11.14    2.70
   0  -1 -12    7.66    2.31
   0  -1 -12   12.83    3.06
   0  -1 -12    9.90    2.52
   0   1  12   10.46    1.77
   0   1  12   10.47    2.33
   0   1  12   13.43    2.76
   0   1  12   12.86    2.58
   0   1  12   14.00    2.25
  -1  -1 -12   32.55    4.98
  -1  -1 -12   56.94    6.67
  -1  -1 -12   30.80    5.03
  -1  -1 -12   34.59    5.38
   1   1  12   34.11    4.94
   1   1  12   27.92    4.83
   1   1  12   33.45    4.08
   1   1  12   24.31    4.57
  -2  -1 -12    3.94    3.14
  -2  -1 -12    0.25    1.88
  -2  -1 -12    2.77    2.48
  -2  -1 -12    0.55    1.68
   2   1  12    1.33    1.94
   2   1  12    2.55    1.96
   2   1  12    0.55    1.53
  -3  -1 -12    2.17    2.89
   3   1  12    2.11    2.61
   3   1  12    0.47    2.16
  -4  -1 -12   -3.94    3.41
   4   1  12    0.60    3.00
   4   1  12   -1.09    1.53
   4  -2 -12   -2.10    3.30
   4  -2 -12    0.65    1.84
  -4   2  12    2.48    3.05
   3  -2 -12    2.62    2.88
   3  -2 -12    1.17    1.78
   3  -2 -12    0.63    2.16
  -3   2  12   -0.05    2.23
  -3   2  12    0.95    2.22
   2  -2 -12    6.91    2.93
   2  -2 -12    2.88    2.05
   2  -2 -12    9.87    2.32
  -2   2  12    3.85    2.50
  -2   2  12    2.34    2.08
  -2   2  12    5.90    1.95
  -2   2  12    6.19    2.10
   1  -2 -12   11.17    2.70
   1  -2 -12    7.39    2.89
   1  -2 -12    8.24    2.28
  -1   2  12    4.77    1.99
  -1   2  12   10.24    2.70
  -1   2  12   10.68    2.57
  -1   2  12    6.02    2.10
   0  -2 -12   17.71    3.59
   0  -2 -12   10.54    2.70
   0  -2 -12   11.80    2.99
   0   2  12   14.44    2.56
   0   2  12   15.25    3.04
   0   2  12   17.88    3.03
   0   2  12   11.12    2.60
  -1  -2 -12    0.16    1.91
  -1  -2 -12   -1.50    2.68
  -1  -2 -12   -0.59    1.91
  -1  -2 -12    5.74    1.97
   1   2  12    4.42    2.04
   1   2  12    3.50    1.26
   1   2  12    0.15    1.48
   1   2  12    0.36    1.72
  -2  -2 -12    0.11    1.86
  -2  -2 -12   -3.20    2.70
  -2  -2 -12    0.92    2.44
  -2  -2 -12   -1.60    2.56
  -2  -2 -12    0.22    1.92
   2   2  12   -1.87    1.86
   2   2  12   -2.96    1.69
   2   2  12   -0.20    1.55
  -3  -2 -12    0.15    3.72
  -3  -2 -12    3.56    3.41
   3   2  12    1.02    2.45
   3   2  12    1.61    1.78
   3   2  12    2.64    2.59
   4  -3 -12   -0.83    3.28
   4  -3 -12    1.09    2.06
  -4   3  12    1.50    2.70
   3  -3 -12    4.02    2.17
   3  -3 -12   -1.66    2.31
   3  -3 -12    1.44    3.04
  -3   3  12    3.83    2.68
   2  -3 -12   11.51    2.72
   2  -3 -12    0.93    2.34
   2  -3 -12   10.79    3.48
  -2   3  12   11.74    2.60
  -2   3  12    7.36    2.54
  -2   3  12   13.27    2.57
  -2   3  12   11.00    2.89
   1  -3 -12    0.31    1.65
   1  -3 -12   -0.33    2.50
   1  -3 -12    3.46    2.04
  -1   3  12   -1.25    1.43
  -1   3  12    0.71    1.79
  -1   3  12    0.39    1.49
  -1   3  12   -3.02    1.79
   0  -3 -12   20.15    3.87
   0  -3 -12   18.19    4.15
   0  -3 -12   13.05    3.58
   0   3  12   21.49    3.98
   0   3  12   21.55    3.83
   0   3  12   25.75    3.64
   0   3  12   28.01    3.89
  -1  -3 -12    8.44    3.09
  -1  -3 -12   12.61    3.09
  -1  -3 -12    7.24    2.71
  -1  -3 -12   13.63    3.94
  -1  -3 -12    5.07    2.51
   1   3  12   10.32    2.84
   1   3  12    8.64    2.47
   1   3  12    7.90    2.56
   1   3  12   12.44    2.22
  -2  -3 -12    1.61    3.02
  -2  -3 -12   -0.74    1.95
  -2  -3 -12   -1.58    2.52
  -2  -3 -12    0.70    2.17
   2   3  12    4.07    2.34
   2   3  12    0.90    1.62
   2   3  12    5.23    2.59
  -3  -3 -12    0.55    3.38
  -3  -3 -12    6.53    4.26
   3   3  12    2.21    1.89
   3   3  12    2.75    2.78
   3   3  12   -3.51    2.60
   4  -4 -12    4.77    3.92
   4  -4 -12   -3.24    2.02
  -4   4  12   -0.04    2.78
   3  -4 -12    2.85    2.74
   3  -4 -12    0.85    2.05
   3  -4 -12    1.76    2.97
  -3   4  12   -0.24    2.36
   2  -4 -12    2.51    2.96
   2  -4 -12    1.91    2.29
   2  -4 -12    1.52    2.08
  -2   4  12   -1.67    1.94
  -2   4  12    1.91    1.85
  -2   4  12   -1.36    1.86
   1  -4 -12    3.34    2.78
   1  -4 -12    1.56    2.18
   1  -4 -12   -0.99    1.68
  -1   4  12    2.72    1.76
  -1   4  12    6.05    2.27
  -1   4  12    3.01    2.23
  -1   4  12    4.22    1.99
   0  -4 -12   15.87    3.08
   0  -4 -12   10.30    3.48
   0  -4 -12    7.38    2.76
   0  -4 -12    6.40    2.80
   0   4  12   12.19    2.90
   0   4  12   11.69    2.54
   0   4  12   13.50    3.25
   0   4  12    7.05    2.42
  -1  -4 -12   -2.05    2.04
  -1  -4 -12    1.19    2.11
  -1  -4 -12    4.84    3.19
  -1  -4 -12   -1.86    2.43
  -1  -4 -12    0.28    3.09
   1   4  12   -0.95    1.38
   1   4  12    1.31    1.97
   1   4  12    2.97    2.33
   1   4  12   -1.71    1.36
  -2  -4 -12    3.40    3.41
  -2  -4 -12   -0.28    3.13
  -2  -4 -12    2.53    2.73
  -2  -4 -12    1.20    2.59
   2   4  12    0.75    2.40
   2   4  12   -0.32    2.35
   2   4  12   -0.01    1.75
  -3  -4 -12   12.60    5.06
  -3  -4 -12   -2.56    3.47
   3   4  12    0.87    1.79
   3   4  12   -0.77    2.90
   3   4  12   -1.35    2.63
   3  -5 -12    3.51    2.50
   3  -5 -12   -1.17    2.91
   3  -5 -12    1.04    3.42
  -3   5  12    0.59    2.72
   2  -5 -12   -0.23    1.98
   2  -5 -12    3.93    3.26
   2  -5 -12    2.18    2.72
  -2   5  12    5.12    2.40
  -2   5  12    1.39    2.36
   1  -5 -12    1.61    1.98
   1  -5 -12    0.48    2.41
   1  -5 -12   -0.22    2.76
  -1   5  12   -0.76    1.65
  -1   5  12   -0.27    1.82
  -1   5  12   -0.64    2.28
  -1   5  12    1.75    2.30
   0  -5 -12    7.07    2.81
   0  -5 -12   14.63    3.85
   0  -5 -12    9.52    3.08
   0   5  12    5.23    2.20
   0   5  12    2.23    2.44
   0   5  12    1.64    2.29
   0   5  12    3.69    2.11
  -1  -5 -12   -1.10    2.17
  -1  -5 -12    3.48    3.67
  -1  -5 -12    2.93    2.70
  -1  -5 -12    0.01    2.80
   1   5  12    2.52    2.36
   1   5  12   -0.04    1.85
   1   5  12    3.13    2.20
   1   5  12    0.02    1.74
  -2  -5 -12    9.51    4.34
  -2  -5 -12   -0.15    2.83
  -2  -5 -12   -0.69    3.78
   2   5  12    3.42    2.04
   2   5  12    3.25    2.61
   2   5  12    4.26    2.79
  -3  -5 -12    4.57    5.14
  -3  -5 -12    2.46    4.50
   3   5  12   -1.01    2.83
   3   5  12   -1.50    3.00
   3   5  12    0.70    1.87
   3  -6 -12    2.67    3.50
   3  -6 -12    0.50    3.22
   3  -6 -12   -1.78    2.24
  -3   6  12   -0.09    2.69
   2  -6 -12    4.44    2.62
   2  -6 -12    5.27    3.71
   2  -6 -12    1.43    2.84
  -2   6  12    5.72    2.73
  -2   6  12   -1.26    2.31
   1  -6 -12    2.50    2.97
   1  -6 -12   -5.08    2.24
   1  -6 -12   -0.53    2.16
  -1   6  12    3.18    2.69
  -1   6  12    1.79    2.57
  -1   6  12    2.83    1.86
  -1   6  12   -1.13    1.91
   0  -6 -12    2.92    2.55
   0  -6 -12   16.86    4.21
   0  -6 -12    8.07    3.30
   0   6  12    4.25    2.32
   0   6  12    5.99    3.08
   0   6  12   10.88    3.11
   0   6  12    3.37    2.04
  -1  -6 -12    4.22    3.38
  -1  -6 -12    5.37    4.55
  -1  -6 -12    6.03    3.04
   1   6  12    6.57    2.73
   1   6  12    6.50    2.41
   1   6  12    2.70    2.64
   1   6  12    1.75    1.97
  -2  -6 -12   -0.28    4.20
  -2  -6 -12   -3.08    2.90
  -2  -6 -12    3.69    4.61
   2   6  12    1.44    2.09
   2   6  12   -0.44    2.67
   2   6  12    2.91    2.83
   3  -7 -12    1.59    4.03
  -3   7  12   -2.38    2.75
   2  -7 -12   -0.25    2.31
   2  -7 -12    0.80    3.01
   2  -7 -12    1.02    3.68
  -2   7  12   -0.95    2.50
  -2   7  12    1.40    2.82
   1  -7 -12    1.11    2.32
   1  -7 -12    1.71    3.23
   1  -7 -12    0.66    3.42
  -1   7  12    3.93    2.23
  -1   7  12   -1.65    2.68
  -1   7  12    0.46    2.25
  -1   7  12    2.12    2.99
   0  -7 -12    3.61    3.32
   0  -7 -12    1.49    2.64
   0   7  12    3.50    2.52
   0   7  12    6.08    2.42
   0   7  12    3.14    2.79
   0   7  12    4.73    2.83
  -1  -7 -12   -0.79    5.08
  -1  -7 -12    1.95    2.66
  -1  -7 -12   -0.02    3.54
   1   7  12    3.49    2.94
   1   7  12    1.64    2.28
   1   7  12    2.68    3.01
   1   7  12    3.08    2.55
  -2  -7 -12    0.66    5.37
  -2  -7 -12    4.59    4.09
   2   7  12   -0.47    2.87
   2   7  12    0.34    3.07
   2   7  12    0.26    1.94
   2  -8 -12   -8.28    2.84
   2  -8 -12    3.16    3.98
   2  -8 -12    3.24    2.66
  -2   8  12   -0.12    2.67
  -2   8  12    2.11    3.36
   1  -8 -12   -0.32    2.63
   1  -8 -12   -2.48    4.05
   1  -8 -12    0.27    3.47
  -1   8  12   -2.69    2.44
  -1   8  12   -1.37    3.01
  -1   8  12   -0.41    1.96
   0  -8 -12    3.11    2.97
   0  -8 -12    4.35    3.98
   0   8  12   -1.32    1.92
   0   8  12    2.62    3.06
   0   8  12   -1.05    3.10
   0   8  12   -2.96    2.43
  -1  -8 -12   -1.15    6.12
  -1  -8 -12    0.38    2.80
  -1  -8 -12   -3.33    3.75
   1   8  12    5.80    3.42
   1   8  12   -1.09    2.09
   1   8  12    5.45    3.35
   0  12 -13    1.14    1.98
   0  12 -13   -1.58    2.44
   0 -12  13    1.86    2.90
   0 -12  13    3.02    4.54
   0 -12  13    5.95    3.99
   1 -12  13   -0.25    3.47
   1 -12  13   -2.51    2.72
   1  11 -13    1.19    2.07
   1  11 -13    3.92    2.47
  -1 -11  13   -2.77    5.38
  -1 -11  13   -0.35    2.88
  -1 -11  13   -0.14    3.34
  -1 -11  13    5.90    4.64
   0  11 -13    1.75    1.91
   0  11 -13   -3.05    1.89
   0 -11  13   -1.88    2.87
   0 -11  13    7.98    4.67
   0 -11  13    2.05    2.89
   0 -11  13    2.32    4.14
  -1  11 -13    1.25    1.83
  -1  11 -13   -1.76    2.21
  -1  11 -13    8.07    3.27
   1 -11  13    0.17    4.65
   1 -11  13   -2.76    3.68
   1 -11  13   -1.20    3.22
   1 -11  13    4.85    3.22
  -2  11 -13   -1.69    2.19
  -2  11 -13    5.07    3.99
   2 -11  13    3.78    4.51
   2 -11  13   -1.85    3.46
   2 -11  13   -0.19    2.51
   2  10 -13   -0.36    2.33
   2  10 -13   -1.04    1.86
  -2 -10  13    0.61    4.84
  -2 -10  13    6.08    3.51
  -2 -10  13   -1.18    4.10
   1  10 -13   -0.54    2.20
   1  10 -13   -0.14    1.79
  -1 -10  13    2.47    3.16
  -1 -10  13   -1.96    3.97
  -1 -10  13    0.55    3.60
  -1 -10  13   -3.88    2.37
   0  10 -13    2.14    1.82
   0  10 -13    3.54    2.38
   0 -10  13    7.56    4.48
   0 -10  13    8.04    3.49
   0 -10  13    4.74    2.80
   0 -10  13    4.27    3.96
  -1  10 -13    1.78    3.02
  -1  10 -13    2.42    2.29
  -1  10 -13   -0.50    1.62
   1 -10  13    3.24    2.89
   1 -10  13   -0.36    3.44
   1 -10  13    2.95    3.24
  -2  10 -13   -5.70    3.12
  -2  10 -13   -0.38    2.20
   2 -10  13    3.37    2.74
   2 -10  13    4.95    3.61
   2 -10  13   -0.90    3.70
   2   9 -13    1.06    1.69
   2   9 -13    1.61    3.09
   2   9 -13   -0.74    2.17
  -2  -9  13   -5.21    3.96
  -2  -9  13    2.79    3.20
  -2  -9  13    0.09    4.13
   1   9 -13    1.90    1.84
   1   9 -13   -2.73    1.77
   1   9 -13    4.65    2.53
  -1  -9  13    3.43    3.41
  -1  -9  13    1.07    2.89
  -1  -9  13    6.06    4.20
  -1  -9  13    6.26    3.31
   0   9 -13    0.08    2.04
   0   9 -13    1.26    1.83
   0  -9  13    2.83    3.17
   0  -9  13   -3.16    2.42
   0  -9  13   -1.43    2.46
   0  -9  13    5.63    3.93
  -1   9 -13   -0.73    1.97
  -1   9 -13    0.49    1.91
   1  -9  13   -0.91    1.95
   1  -9  13    0.67    2.93
   1  -9  13    3.70    3.29
  -2   9 -13    1.37    2.21
  -2   9 -13    5.26    3.59
   2  -9  13   -0.61    3.06
   2  -9  13    2.55    2.38
   2  -9  13    4.48    3.91
  -3   9 -13    0.57    3.75
   3  -9  13   -2.11    3.15
   3  -9  13   -1.02    2.40
   3  -9  13   -3.65    3.27
   3   8 -13    0.11    2.60
   3   8 -13    1.79    1.96
  -3  -8  13   -0.51    4.18
  -3  -8  13   -1.32    4.20
   2   8 -13    4.62    2.51
   2   8 -13   10.71    3.13
   2   8 -13    2.19    1.90
  -2  -8  13   12.83    3.30
  -2  -8  13   -3.08    3.91
  -2  -8  13    7.59    4.24
   1   8 -13    2.69    1.81
   1   8 -13    2.42    2.43
   1   8 -13    0.64    2.09
  -1  -8  13    1.07    3.55
  -1  -8  13    2.39    3.15
  -1  -8  13    5.82    2.67
  -1  -8  13   -1.83    2.54
   0   8 -13   -1.08    1.46
   0   8 -13   -1.76    1.64
   0   8 -13    1.22    2.14
   0  -8  13    1.11    2.57
   0  -8  13    1.41    2.27
   0  -8  13   -0.03    2.47
  -1   8 -13   -0.05    1.91
  -1   8 -13    0.04    1.69
   1  -8  13   -1.89    2.38
   1  -8  13    3.09    2.93
   1  -8  13   -1.87    1.89
  -2   8 -13    0.56    3.22
  -2   8 -13    1.94    2.13
  -2   8 -13    1.41    2.07
   2  -8  13    1.30    2.88
   2  -8  13    2.04    2.15
   2  -8  13    1.22    3.42
  -3   8 -13   -1.79    3.57
   3  -8  13   -4.96    3.73
   3  -8  13    2.32    3.27
   3  -8  13    3.76    2.70
   3   7 -13    5.17    3.03
   3   7 -13    5.59    2.32
   3   7 -13    9.01    3.13
  -3  -7  13    4.71    4.40
  -3  -7  13    6.61    4.42
   2   7 -13   -0.94    1.58
   2   7 -13    0.96    2.16
   2   7 -13    1.38    2.13
  -2  -7  13   -2.94    3.20
  -2  -7  13    1.09    2.98
  -2  -7  13    4.28    2.61
   1   7 -13    1.53    2.19
   1   7 -13    0.54    1.37
   1   7 -13   -2.16    1.49
  -1  -7  13    1.33    3.00
  -1  -7  13   -0.11    2.31
  -1  -7  13   -0.85    2.97
  -1  -7  13   -1.92    2.18
   0   7 -13   17.42    3.29
   0   7 -13   22.86    3.65
   0   7 -13   20.71    4.09
   0  -7  13   17.89    3.99
   0  -7  13   14.80    3.53
   0  -7  13   12.60    3.46
  -1   7 -13    0.88    1.67
  -1   7 -13   -2.52    1.74
   1  -7  13    0.83    2.39
   1  -7  13    0.78    2.47
   1  -7  13    1.81    2.19
  -2   7 -13    0.08    1.82
  -2   7 -13   -0.90    2.94
  -2   7 -13   -1.17    1.73
   2  -7  13    0.83    2.13
   2  -7  13    1.97    3.18
   2  -7  13   -0.07    2.67
   2  -7  13   -2.75    2.22
  -3   7 -13    2.95    3.24
   3  -7  13    3.79    2.38
   3  -7  13    1.34    3.21
   3  -7  13    2.36    3.31
   3   6 -13   -1.49    2.21
   3   6 -13   -1.24    1.64
   3   6 -13   -0.03    2.09
  -3  -6  13   -2.58    3.45
  -3  -6  13   -4.28    2.59
   2   6 -13    1.46    2.10
   2   6 -13    0.03    1.53
   2   6 -13    2.10    2.12
  -2  -6  13    0.18    2.54
  -2  -6  13    4.56    3.12
  -2  -6  13   -1.14    2.24
  -2  -6  13    0.99    3.37
   1   6 -13   10.89    2.98
   1   6 -13   13.62    2.64
   1   6 -13   10.21    2.71
  -1  -6  13   12.25    3.26
  -1  -6  13    7.38    2.66
  -1  -6  13    4.31    3.39
  -1  -6  13   11.52    3.17
   0   6 -13    1.18    1.88
   0   6 -13    0.06    1.65
   0   6 -13    1.78    1.56
   0  -6  13   -2.05    2.12
   0  -6  13    5.03    2.39
   0  -6  13   -0.39    1.78
  -1   6 -13    3.62    1.94
  -1   6 -13    0.71    1.61
  -1   6 -13    0.28    2.29
   1  -6  13    0.21    2.17
   1  -6  13    0.76    1.82
   1  -6  13   -2.83    1.94
  -2   6 -13    3.35    3.25
  -2   6 -13    7.77    2.54
  -2   6 -13   14.00    2.78
   2  -6  13    7.15    2.76
   2  -6  13   12.04    3.47
   2  -6  13    9.03    3.07
   2  -6  13    6.60    2.54
  -3   6 -13   -0.69    3.11
   3  -6  13   -2.29    3.14
   3  -6  13   -0.92    2.00
   3  -6  13   -0.84    2.92
   4  -6  13    1.41    2.41
   4   5 -13    1.75    1.97
  -4  -5  13    0.98    5.29
   3   5 -13    2.14    2.35
   3   5 -13    3.20    2.43
   3   5 -13    1.85    1.70
  -3  -5  13    4.20    2.83
  -3  -5  13   -0.12    4.04
   2   5 -13   -1.58    1.78
   2   5 -13   -1.45    1.25
   2   5 -13   -1.71    1.61
  -2  -5  13    1.52    2.21
  -2  -5  13    0.94    2.36
  -2  -5  13   -0.96    2.11
  -2  -5  13    0.03    2.81
   1   5 -13    2.76    1.55
   1   5 -13   -0.69    1.90
   1   5 -13    1.58    1.70
  -1  -5  13    1.00    2.02
  -1  -5  13    3.58    3.14
  -1  -5  13   -0.66    2.04
  -1  -5  13    0.56    2.16
   0   5 -13    2.80    1.74
   0   5 -13    1.89    1.80
   0   5 -13    2.16    1.54
   0  -5  13    3.11    2.09
   0  -5  13    2.16    1.90
   0  -5  13    3.04    1.92
  -1   5 -13    9.42    2.31
  -1   5 -13   12.82    2.57
  -1   5 -13    5.55    2.88
   1  -5  13    4.36    2.30
   1  -5  13   10.92    2.84
   1  -5  13    8.34    2.60
   1  -5  13    2.43    2.46
  -2   5 -13    1.36    1.75
  -2   5 -13   -2.55    2.50
  -2   5 -13    0.19    1.79
  -2   5 -13    3.40    1.96
   2  -5  13    3.49    2.24
   2  -5  13    2.69    2.66
   2  -5  13    2.23    1.79
   2  -5  13    1.77    2.36
  -3   5 -13    0.57    2.25
  -3   5 -13   -4.20    2.68
   3  -5  13   -1.37    3.24
   3  -5  13   -0.12    1.85
   3  -5  13    0.95    2.60
   3  -5  13    2.35    3.08
  -4   5 -13    0.78    2.89
  -4   5 -13   -1.34    3.46
   4  -5  13    2.58    4.02
   4  -5  13   -0.13    2.05
   4   4 -13    1.46    2.00
   4   4 -13    1.07    2.76
  -4  -4  13   -1.67    3.95
   3   4 -13    8.05    2.29
   3   4 -13   11.47    3.30
   3   4 -13    8.81    2.69
  -3  -4  13    8.59    2.94
  -3  -4  13    3.05    3.98
   2   4 -13    0.45    1.73
   2   4 -13    0.30    1.66
   2   4 -13    1.90    1.42
  -2  -4  13   -0.23    1.91
  -2  -4  13   -5.80    2.45
  -2  -4  13    0.86    2.06
  -2  -4  13    3.01    1.97
   1   4 -13    5.06    1.91
   1   4 -13    3.91    1.66
   1   4 -13    5.87    2.27
  -1  -4  13    1.40    1.95
  -1  -4  13   -1.31    1.65
  -1  -4  13    4.00    2.04
   0   4 -13   17.71    2.81
   0   4 -13    7.72    2.91
   0   4 -13   15.40    2.91
   0  -4  13   13.29    2.57
   0  -4  13    7.31    2.58
   0  -4  13    9.73    3.00
   0  -4  13   14.03    2.75
  -1   4 -13   -1.87    1.32
  -1   4 -13   -1.20    1.43
  -1   4 -13    2.70    1.48
  -1   4 -13    3.87    2.44
   1  -4  13   -0.93    1.93
   1  -4  13    0.13    1.82
   1  -4  13   -1.48    1.43
   1  -4  13   -2.37    1.69
  -2   4 -13   -2.85    2.65
  -2   4 -13    3.04    2.03
  -2   4 -13    3.03    1.73
  -2   4 -13    2.61    1.89
   2  -4  13    0.00    2.14
   2  -4  13   -1.45    2.07
   2  -4  13    0.68    1.73
   2  -4  13    2.34    2.54
  -3   4 -13   -0.14    2.26
  -3   4 -13    0.25    2.53
   3  -4  13    0.05    2.57
   3  -4  13   -0.50    1.76
   3  -4  13   -0.09    2.59
   3  -4  13    0.30    3.11
  -4   4 -13    2.75    3.15
   4  -4  13    1.11    3.89
   4  -4  13    3.16    2.19
   4   3 -13    1.85    1.80
   4   3 -13    3.24    3.14
  -4  -3  13    4.28    4.69
   3   3 -13    3.76    1.73
   3   3 -13    0.30    2.12
   3   3 -13    1.59    2.09
  -3  -3  13    2.83    4.02
   2   3 -13   -0.30    1.91
   2   3 -13    1.36    1.67
   2   3 -13    0.38    1.38
  -2  -3  13   -0.74    2.70
  -2  -3  13    0.79    1.52
  -2  -3  13   -2.39    1.70
  -2  -3  13   -0.48    1.71
   1   3 -13   56.15    7.22
   1   3 -13   59.26    7.36
   1   3 -13   49.10    7.67
  -1  -3  13   56.23    7.42
  -1  -3  13   51.31    7.32
   0   3 -13    0.70    0.99
   0   3 -13   -0.27    1.44
   0   3 -13   -0.68    1.55
   0   3 -13   -0.53    1.20
   0   3 -13    1.15    0.97
   0  -3  13    2.29    1.87
   0  -3  13   -2.26    1.34
   0  -3  13   -0.81    1.24
   0  -3  13   -0.49    1.48
  -1   3 -13    0.38    1.47
  -1   3 -13    0.68    1.65
  -1   3 -13   -2.39    2.06
  -1   3 -13    1.33    1.43
   1  -3  13   -0.01    1.84
   1  -3  13    0.04    1.65
   1  -3  13    0.23    1.63
   1  -3  13    2.47    1.63
  -2   3 -13    8.12    2.41
  -2   3 -13   14.36    3.07
  -2   3 -13   10.71    3.17
  -2   3 -13   11.54    3.40
   2  -3  13   10.39    2.62
   2  -3  13   14.67    3.25
   2  -3  13   15.92    3.27
   2  -3  13   14.31    3.24
  -3   3 -13    1.15    2.37
  -3   3 -13    0.63    2.36
   3  -3  13   -3.02    2.77
   3  -3  13    2.08    1.83
   3  -3  13   -0.18    2.16
   3  -3  13    3.77    2.77
  -4   3 -13    4.53    3.32
   4  -3  13   -0.20    1.78
   4  -3  13    6.21    4.01
   4  -3  13    2.79    3.00
   4   2 -13   -3.32    2.80
   4   2 -13    0.92    1.71
  -4  -2  13    3.44    4.05
   3   2 -13    1.72    2.62
   3   2 -13    6.03    1.84
   3   2 -13    0.99    1.98
  -3  -2  13    1.26    3.39
   2   2 -13   -1.11    1.99
   2   2 -13    1.80    1.40
   2   2 -13    1.99    1.71
  -2  -2  13   -0.83    1.19
  -2  -2  13    1.35    1.72
  -2  -2  13   -0.10    1.73
  -2  -2  13   -1.05    2.72
   1   2 -13    1.94    1.70
   1   2 -13    3.00    1.57
   1   2 -13    3.12    0.94
   1   2 -13    0.59    1.72
  -1  -2  13    1.92    1.79
  -1  -2  13    1.16    1.53
   0   2 -13   25.14    3.95
   0   2 -13   28.74    3.59
   0   2 -13   27.51    4.23
   0   2 -13   26.90    4.52
   0   2 -13   32.37    3.95
   0  -2  13   24.83    4.40
   0  -2  13   23.91    3.61
   0  -2  13   20.43    3.92
   0  -2  13   18.12    3.80
  -1   2 -13   32.29    5.01
  -1   2 -13   30.97    4.94
  -1   2 -13   42.00    5.47
  -1   2 -13   35.58    5.81
   1  -2  13   36.02    5.25
   1  -2  13   21.71    4.69
   1  -2  13   38.01    5.27
   1  -2  13   39.84    5.09
  -2   2 -13   -0.83    2.31
  -2   2 -13   -1.11    1.86
  -2   2 -13    1.94    1.58
  -2   2 -13    1.15    1.76
   2  -2  13    0.03    1.92
   2  -2  13   -3.04    1.76
   2  -2  13   -3.95    1.87
   2  -2  13   -0.98    1.55
  -3   2 -13   -1.83    2.52
  -3   2 -13   -0.58    2.44
   3  -2  13    0.50    2.50
   3  -2  13    1.16    1.68
   3  -2  13    0.24    2.23
   3  -2  13    3.08    2.72
  -4   2 -13    4.91    3.48
   4  -2  13   -3.99    2.74
   4  -2  13    0.88    2.93
   4  -2  13    0.24    1.75
   4   1 -13    2.00    3.25
   4   1 -13   -0.76    1.67
  -4  -1  13    5.72    4.23
   3   1 -13    2.31    2.07
   3   1 -13    0.35    1.47
   3   1 -13    0.56    2.25
  -3  -1  13    2.11    3.60
   2   1 -13    0.91    1.64
   2   1 -13   -0.07    1.39
   2   1 -13    4.20    2.25
  -2  -1  13    0.76    1.65
  -2  -1  13   -1.63    1.63
  -2  -1  13    0.89    1.66
  -2  -1  13    1.69    2.81
   1   1 -13   -1.00    1.29
   1   1 -13    1.55    1.11
   1   1 -13    0.73    1.94
   1   1 -13   -0.35    1.55
  -1  -1  13    0.75    0.73
  -1  -1  13    0.80    1.48
  -1  -1  13    2.42    1.74
  -1  -1  13   -0.81    1.36
  -1  -1  13   -3.30    1.69
   0   1 -13    3.88    1.56
   0   1 -13    5.10    1.80
   0   1 -13    2.92    2.08
   0   1 -13   -0.12    1.55
   0   1 -13    2.59    1.14
   0  -1  13    1.82    1.63
   0  -1  13    0.81    1.13
   0  -1  13    1.35    1.30
   0  -1  13    4.01    1.94
   0  -1  13    0.85    1.68
  -1   1 -13   -1.42    1.49
  -1   1 -13   -0.91    1.76
  -1   1 -13    2.33    1.70
  -1   1 -13   -3.42    2.09
   1  -1  13    0.47    1.74
   1  -1  13    2.63    1.85
   1  -1  13    0.58    1.49
  -2   1 -13    4.66    2.48
  -2   1 -13    1.58    1.67
  -2   1 -13    5.50    2.13
  -2   1 -13    2.88    3.24
  -2   1 -13    1.18    2.21
   2  -1  13    1.95    2.09
   2  -1  13    2.65    1.87
   2  -1  13    3.58    2.30
  -3   1 -13    2.93    2.86
   3  -1  13    2.97    1.84
   3  -1  13    7.19    2.71
   3  -1  13    1.92    2.69
  -4   1 -13   -3.02    3.23
   4  -1  13    1.10    2.93
   4  -1  13   -0.35    3.50
   4  -1  13   -2.53    1.50
   4   0 -13    1.11    1.78
   4   0 -13    2.51    2.91
  -4   0  13    6.45    3.66
   3   0 -13    4.37    3.03
   3   0 -13    3.96    1.91
   3   0 -13    0.60    2.08
  -3   0  13    5.12    2.58
  -3   0  13    5.84    3.25
   2   0 -13    4.99    2.57
   2   0 -13    6.50    1.95
   2   0 -13    5.75    2.10
  -2   0  13    3.55    1.78
  -2   0  13    5.83    2.30
  -2   0  13    5.30    3.04
  -2   0  13    0.42    1.77
   1   0 -13   72.40    8.36
   1   0 -13   57.73    8.83
   1   0 -13   64.44    8.47
  -1   0  13   45.88    8.47
  -1   0  13   76.63    8.42
  -1   0  13   62.70    8.11
   0   0 -13   -2.38    1.74
   0   0 -13   -1.33    1.40
   0   0 -13    2.15    1.58
   0   0 -13    1.82    1.59
   0   0  13    0.52    1.05
   0   0  13    1.86    1.63
   0   0  13    0.51    0.89
   0   0  13   -1.09    1.52
   0   0  13    1.06    1.74
  -1   0 -13   15.14    3.08
  -1   0 -13    8.17    2.57
  -1   0 -13   11.99    2.88
  -1   0 -13    9.71    3.51
   1   0  13   13.05    2.74
   1   0  13   17.54    3.07
   1   0  13    8.72    2.73
  -2   0 -13    6.84    2.91
  -2   0 -13    4.19    2.06
  -2   0 -13    6.34    2.28
  -2   0 -13    6.14    3.58
  -2   0 -13    6.77    2.97
   2   0  13    9.02    2.50
   2   0  13   -1.35    1.97
  -3   0 -13   -2.13    2.66
   3   0  13    3.62    2.65
   3   0  13   -0.12    2.19
   3   0  13    2.15    1.79
  -4   0 -13    0.96    3.21
   4   0  13   -1.64    1.61
   4   0  13    4.87    3.14
   4  -1 -13    1.11    3.44
   4  -1 -13    0.53    1.76
  -4   1  13    5.02    3.34
  -4   1  13    3.46    3.09
   3  -1 -13    4.20    2.36
   3  -1 -13    0.99    2.84
   3  -1 -13    1.21    1.78
  -3   1  13    1.62    2.39
  -3   1  13    6.85    3.22
   2  -1 -13    5.18    1.96
   2  -1 -13   -0.01    2.14
   2  -1 -13    4.30    2.07
  -2   1  13   -1.12    2.54
  -2   1  13    0.06    1.51
  -2   1  13    1.31    1.82
   1  -1 -13    1.20    1.92
   1  -1 -13    2.04    1.72
   1  -1 -13    1.66    2.18
  -1   1  13    3.57    2.17
  -1   1  13    4.64    2.04
  -1   1  13    2.93    1.63
  -1   1  13    3.55    2.21
   0  -1 -13   -0.08    1.41
   0  -1 -13   -0.32    1.64
   0  -1 -13    1.54    2.37
   0  -1 -13    0.29    1.68
   0   1  13    2.15    1.81
   0   1  13    2.83    1.94
   0   1  13    0.95    1.55
   0   1  13   -0.25    1.06
  -1  -1 -13   30.46    4.87
  -1  -1 -13   30.28    5.09
  -1  -1 -13   29.79    5.64
  -1  -1 -13   27.60    4.80
   1   1  13   31.28    4.61
   1   1  13   26.97    3.69
   1   1  13   24.92    4.80
   1   1  13   31.48    4.72
  -2  -1 -13   -0.69    1.77
  -2  -1 -13   -3.96    2.77
  -2  -1 -13   -1.38    2.34
  -2  -1 -13    1.62    2.05
   2   1  13   -1.38    2.00
   2   1  13   -3.22    1.42
   2   1  13    0.01    1.95
  -3  -1 -13   -0.86    2.90
   3   1  13    0.25    2.74
   3   1  13    0.23    2.36
   4  -2 -13    4.53    3.43
   4  -2 -13   -1.84    1.87
  -4   2  13   -1.48    2.84
   3  -2 -13    0.55    2.84
   3  -2 -13   -1.25    2.20
   3  -2 -13    1.99    1.97
  -3   2  13    0.65    2.33
  -3   2  13   -1.85    2.04
   2  -2 -13    4.25    3.03
   2  -2 -13    2.94    2.20
   2  -2 -13    5.63    2.17
  -2   2  13    9.88    2.45
  -2   2  13    5.64    2.07
  -2   2  13    2.43    2.58
  -2   2  13    7.53    2.50
   1  -2 -13   13.79    4.06
   1  -2 -13   16.71    3.45
   1  -2 -13   14.34    3.38
  -1   2  13   19.39    3.95
  -1   2  13   28.37    3.82
  -1   2  13   15.41    3.34
  -1   2  13   21.18    3.45
   0  -2 -13    4.66    2.82
   0  -2 -13   -0.11    1.82
   0  -2 -13    2.84    2.19
   0  -2 -13    3.28    1.79
   0   2  13   -1.45    1.55
   0   2  13    3.39    1.54
   0   2  13    4.15    2.11
   0   2  13    2.35    2.02
  -1  -2 -13    8.66    3.64
  -1  -2 -13   -1.07    2.33
  -1  -2 -13    4.77    2.15
  -1  -2 -13    3.94    2.25
   1   2  13    7.59    1.59
   1   2  13    9.19    2.40
   1   2  13    6.41    2.37
   1   2  13    4.22    2.05
  -2  -2 -13    1.20    2.62
  -2  -2 -13   -1.42    1.78
  -2  -2 -13    0.39    2.02
  -2  -2 -13    1.76    3.17
   2   2  13    1.99    2.16
   2   2  13    0.28    1.72
   2   2  13    0.33    2.24
  -3  -2 -13    1.78    3.36
   3   2  13    2.99    2.64
   3   2  13    1.31    2.89
   3   2  13    3.16    2.13
   4  -3 -13    0.71    3.60
   4  -3 -13   -0.85    2.02
  -4   3  13    4.87    3.30
   3  -3 -13    0.58    2.60
   3  -3 -13    1.06    3.13
   3  -3 -13    1.79    1.97
  -3   3  13   -3.65    1.95
   2  -3 -13   -0.01    2.88
   2  -3 -13    1.27    2.05
   2  -3 -13    2.40    2.41
  -2   3  13    1.61    2.16
  -2   3  13    7.18    2.55
  -2   3  13    5.75    2.28
  -2   3  13    3.44    2.23
   1  -3 -13    6.84    2.45
   1  -3 -13    3.08    2.25
   1  -3 -13    6.63    3.04
  -1   3  13    2.44    1.98
  -1   3  13    6.21    2.12
  -1   3  13    6.09    2.41
  -1   3  13    2.37    2.25
   0  -3 -13   -2.22    1.51
   0  -3 -13    2.21    2.74
   0  -3 -13    0.94    2.11
   0   3  13    0.14    2.14
   0   3  13    1.27    1.43
   0   3  13    3.46    1.70
   0   3  13    2.62    2.00
  -1  -3 -13    6.66    2.81
  -1  -3 -13   12.06    2.96
  -1  -3 -13   11.84    3.73
  -1  -3 -13   10.16    3.19
  -1  -3 -13    8.72    3.96
   1   3  13   11.20    2.83
   1   3  13   12.24    2.30
   1   3  13    4.91    2.44
   1   3  13    6.55    2.32
  -2  -3 -13   -1.40    3.06
  -2  -3 -13   -0.84    2.31
  -2  -3 -13   -1.54    2.81
  -2  -3 -13    1.01    2.35
   2   3  13    0.34    2.24
   2   3  13   -0.64    1.63
   2   3  13   -0.65    2.29
  -3  -3 -13    0.33    4.21
  -3  -3 -13    2.30    3.73
   3   3  13   -0.26    1.91
   3   3  13   -4.48    2.43
   3   3  13   -2.64    2.79
   3  -4 -13   -2.35    2.77
   3  -4 -13   -1.07    2.65
   3  -4 -13    2.25    2.31
  -3   4  13    0.51    2.58
   2  -4 -13    1.06    2.17
   2  -4 -13    1.13    2.46
   2  -4 -13   -3.64    2.29
  -2   4  13    2.23    2.22
  -2   4  13    3.49    2.39
   1  -4 -13   -2.79    1.50
   1  -4 -13    1.19    2.27
   1  -4 -13    4.03    3.24
  -1   4  13   -2.08    2.08
  -1   4  13    1.58    1.77
  -1   4  13   -0.42    1.76
  -1   4  13    1.38    2.29
   0  -4 -13    3.07    2.40
   0  -4 -13    4.23    2.12
   0  -4 -13    4.02    3.20
   0   4  13   -0.39    2.09
   0   4  13    1.93    1.76
   0   4  13    1.68    2.28
   0   4  13    4.53    1.94
  -1  -4 -13    2.52    2.31
  -1  -4 -13    5.80    3.03
  -1  -4 -13    3.89    3.45
  -1  -4 -13   10.68    4.07
  -1  -4 -13   10.76    3.05
   1   4  13    6.88    2.15
   1   4  13    7.48    2.71
   1   4  13    4.15    2.65
   1   4  13    6.87    2.32
  -2  -4 -13    4.08    3.79
  -2  -4 -13    5.41    3.82
  -2  -4 -13    4.41    2.94
   2   4  13   -0.39    2.18
   2   4  13    2.09    1.81
   2   4  13    0.29    2.56
  -3  -4 -13   -0.80    4.41
  -3  -4 -13    0.06    3.98
   3   4  13   10.89    3.32
   3   4  13    1.46    3.22
   3   4  13    2.17    2.21
   3  -5 -13    0.33    2.29
   3  -5 -13    1.26    2.99
   3  -5 -13   -1.37    3.54
  -3   5  13   -0.48    2.49
   2  -5 -13    2.11    2.24
   2  -5 -13    3.45    2.89
   2  -5 -13   -0.16    2.90
  -2   5  13    1.85    2.36
  -2   5  13    3.40    2.62
   1  -5 -13    7.71    3.67
   1  -5 -13   11.20    3.31
   1  -5 -13    5.26    2.70
  -1   5  13    4.38    2.71
  -1   5  13    8.22    2.48
  -1   5  13    1.55    2.68
  -1   5  13    6.09    2.27
   0  -5 -13    2.55    2.58
   0  -5 -13   -3.13    3.06
   0  -5 -13   -0.82    2.07
   0   5  13    2.92    2.45
   0   5  13    1.98    1.96
   0   5  13    3.67    2.13
   0   5  13    4.23    2.73
  -1  -5 -13    1.56    3.70
  -1  -5 -13    0.35    2.40
  -1  -5 -13   -0.27    2.76
   1   5  13    1.40    1.70
   1   5  13    0.91    2.89
   1   5  13   -1.50    2.24
   1   5  13    2.92    2.63
  -2  -5 -13    0.72    3.89
  -2  -5 -13    4.92    3.33
  -2  -5 -13    4.47    4.25
   2   5  13   -2.88    2.47
   2   5  13   -0.32    1.85
   2   5  13   -2.10    2.51
   3  -6 -13    1.64    3.68
   3  -6 -13    1.00    2.54
   3  -6 -13    0.91    3.11
  -3   6  13   -0.01    2.65
   2  -6 -13    4.16    3.35
   2  -6 -13    0.83    3.78
   2  -6 -13    4.58    2.49
  -2   6  13    3.46    2.71
  -2   6  13    3.61    2.89
   1  -6 -13   -3.48    3.26
   1  -6 -13   -2.53    2.50
   1  -6 -13    3.38    2.46
  -1   6  13    2.18    2.71
  -1   6  13   -0.61    2.12
  -1   6  13   -1.25    1.63
  -1   6  13   -0.29    2.90
   0  -6 -13    5.66    2.73
   0  -6 -13    2.18    3.94
   0  -6 -13   -1.67    2.92
   0   6  13    4.33    2.89
   0   6  13    6.25    3.13
   0   6  13    8.50    2.49
   0   6  13   10.56    2.85
  -1  -6 -13    4.61    3.45
  -1  -6 -13    3.15    4.36
  -1  -6 -13    3.37    3.17
   1   6  13    6.90    2.38
   1   6  13    7.43    3.02
   1   6  13    4.01    3.07
  -2  -6 -13   -1.29    3.50
  -2  -6 -13    0.35    4.58
   2   6  13   -2.84    2.75
   2   6  13   -0.66    2.63
   2   6  13   -0.67    2.01
   2  -7 -13   -0.42    2.38
   2  -7 -13   -0.78    3.45
   2  -7 -13   -0.95    3.71
  -2   7  13   -0.30    2.79
  -2   7  13    1.17    2.73
   1  -7 -13   -5.48    1.92
   1  -7 -13    1.52    3.83
   1  -7 -13    0.72    3.34
  -1   7  13   -1.03    3.00
  -1   7  13   -0.40    2.96
  -1   7  13    0.87    1.96
  -1   7  13   -0.47    2.19
   0  -7 -13   -4.73    2.06
   0  -7 -13    1.72    3.23
   0   7  13   -2.85    1.90
   0   7  13   -0.12    2.29
   0   7  13    4.33    3.37
   0   7  13   -0.52    2.89
  -1  -7 -13    5.20    4.07
  -1  -7 -13    0.91    4.92
  -1  -7 -13    0.79    2.94
   1   7  13    4.39    2.54
   1   7  13   -2.26    2.74
   1   7  13   -2.92    2.86
   1  -8 -13   -4.03    3.39
   1  -8 -13   -2.24    2.66
  -1   8  13    1.38    2.63
  -1   8  13   -2.52    3.13
  -1   8  13    0.24    2.27
   0  -8 -13   -2.11    2.74
   0  -8 -13    9.01    4.44
   0   8  13    0.94    2.83
   0   8  13   -1.34    3.04
   0   8  13   -4.10    1.79
   0   8  13    2.61    3.49
   1  11 -14    0.27    2.46
   1  11 -14    1.68    2.20
  -1 -11  14    2.06    4.62
  -1 -11  14   -1.13    2.98
  -1 -11  14    2.47    3.63
   0  11 -14   -1.18    2.09
   0  11 -14    2.16    2.03
   0 -11  14    2.67    4.69
   0 -11  14    1.49    3.87
   0 -11  14   -3.42    2.52
   0 -11  14   -2.99    3.21
  -1  11 -14    1.13    1.92
  -1  11 -14    0.65    3.12
  -1  11 -14    0.79    2.37
   1 -11  14   -1.66    2.54
   1 -11  14   -2.35    3.06
   1 -11  14    4.55    3.90
   1 -11  14   -0.07    5.05
   2 -11  14    1.56    3.86
   2  10 -14    0.89    2.03
   2  10 -14    4.26    2.78
  -2 -10  14    3.23    3.45
  -2 -10  14    1.57    4.36
  -2 -10  14    1.63    5.41
   1  10 -14   -0.09    1.87
   1  10 -14   -0.81    2.25
  -1 -10  14   -3.02    2.60
  -1 -10  14   -0.07    4.41
  -1 -10  14    7.88    3.64
   0  10 -14    1.20    1.84
   0  10 -14    8.00    2.67
   0 -10  14    3.81    3.45
   0 -10  14    4.19    2.92
   0 -10  14   -2.29    3.46
   0 -10  14   -0.65    4.40
  -1  10 -14   -0.87    1.65
  -1  10 -14    2.11    2.34
  -1  10 -14    3.37    3.12
   1 -10  14   -4.16    3.27
   1 -10  14   -1.24    2.40
   1 -10  14   -1.64    3.01
  -2  10 -14    3.13    2.47
  -2  10 -14   -0.52    3.56
   2 -10  14    3.88    4.10
   2 -10  14    1.06    2.50
   2 -10  14   -7.71    3.06
   2   9 -14    0.87    2.48
   2   9 -14    1.25    2.46
   2   9 -14    1.59    1.81
  -2  -9  14    0.63    3.72
  -2  -9  14    1.34    3.15
  -2  -9  14   -4.70    4.01
   1   9 -14    3.31    2.41
   1   9 -14   -0.81    1.46
   1   9 -14    2.12    2.53
  -1  -9  14    3.75    3.13
  -1  -9  14   -3.15    5.26
  -1  -9  14    1.58    2.91
  -1  -9  14    0.93    3.56
   0   9 -14    4.01    2.41
   0   9 -14    1.30    1.94
   0  -9  14    3.64    3.84
   0  -9  14   -0.11    2.55
   0  -9  14   -2.29    2.60
   0  -9  14    2.02    3.01
  -1   9 -14   -1.99    1.80
  -1   9 -14    2.88    2.35
   1  -9  14   -4.42    2.77
   1  -9  14    1.94    3.09
   1  -9  14   -0.42    2.04
  -2   9 -14    0.23    2.23
  -2   9 -14   -0.51    3.44
   2  -9  14   -2.45    3.24
   2  -9  14    3.35    3.50
   2  -9  14   -0.38    2.30
  -3   9 -14   -0.95    3.76
   3  -9  14    0.77    3.73
   3  -9  14   -1.66    4.24
   3  -9  14    0.92    2.58
   3   8 -14    1.03    2.79
   3   8 -14   -0.87    1.89
  -3  -8  14    2.88    4.93
  -3  -8  14   -3.30    4.59
   2   8 -14    9.96    3.09
   2   8 -14    7.80    2.52
   2   8 -14    5.05    2.78
  -2  -8  14   12.13    4.43
  -2  -8  14   -8.45    3.32
  -2  -8  14   11.31    3.44
   1   8 -14    0.17    2.01
   1   8 -14   -1.27    1.37
   1   8 -14   -0.78    2.47
  -1  -8  14   -0.49    2.45
  -1  -8  14    0.99    3.60
  -1  -8  14   -1.23    2.58
  -1  -8  14    2.66    3.64
   0   8 -14   -0.93    1.95
   0   8 -14   -2.02    2.07
   0   8 -14   -0.61    1.56
   0  -8  14    2.87    2.81
   0  -8  14   -1.49    2.24
   0  -8  14    0.05    2.54
  -1   8 -14    0.20    2.07
  -1   8 -14    7.44    2.38
   1  -8  14    2.19    2.31
   1  -8  14    7.72    3.40
   1  -8  14    3.69    3.04
  -2   8 -14   -1.09    3.01
  -2   8 -14    1.58    3.41
  -2   8 -14    3.77    2.35
   2  -8  14    0.02    2.15
   2  -8  14    1.73    3.58
   2  -8  14   -3.85    2.83
  -3   8 -14    1.55    3.80
   3  -8  14    4.81    3.60
   3  -8  14    3.17    4.15
   3  -8  14    3.89    2.63
   3   7 -14    0.50    2.68
   3   7 -14   -0.48    2.52
   3   7 -14    3.58    2.11
  -3  -7  14   10.26    4.51
  -3  -7  14    3.81    4.59
   2   7 -14    1.89    1.91
   2   7 -14   -0.05    2.29
   2   7 -14    0.68    2.18
  -2  -7  14    0.64    3.61
  -2  -7  14   -2.41    3.30
  -2  -7  14    3.19    2.67
   1   7 -14    0.48    1.42
   1   7 -14    1.17    2.22
   1   7 -14    2.50    2.03
  -1  -7  14    1.28    3.12
  -1  -7  14   -0.31    2.49
  -1  -7  14   -4.89    2.81
  -1  -7  14   -0.52    2.29
   0   7 -14   14.22    3.03
   0   7 -14   13.99    2.88
   0   7 -14   15.59    3.69
   0  -7  14    9.56    3.15
   0  -7  14   18.80    3.95
   0  -7  14    6.37    3.05
  -1   7 -14    0.84    1.75
  -1   7 -14   -0.80    1.85
   1  -7  14   -1.54    2.38
   1  -7  14   -1.92    1.82
   1  -7  14   -0.86    2.56
  -2   7 -14    3.93    3.30
  -2   7 -14    1.29    2.03
  -2   7 -14    0.98    1.97
   2  -7  14    2.82    2.23
   2  -7  14   -0.07    2.93
   2  -7  14    2.01    2.64
   2  -7  14    4.79    3.15
  -3   7 -14    2.80    3.82
   3  -7  14   -0.54    3.22
   3  -7  14   -2.23    2.04
   3  -7  14   -4.68    3.46
   3   6 -14    0.09    1.76
   3   6 -14    1.10    2.62
   3   6 -14    0.99    2.58
  -3  -6  14    4.73    3.47
  -3  -6  14   -6.03    4.13
   2   6 -14    1.96    2.29
   2   6 -14    3.79    1.84
   2   6 -14    4.27    2.45
  -2  -6  14    1.34    3.08
  -2  -6  14   -3.27    2.63
  -2  -6  14   -2.29    2.32
   1   6 -14    3.08    2.42
   1   6 -14    1.10    1.84
   1   6 -14    4.38    1.99
  -1  -6  14    6.21    3.25
  -1  -6  14    0.78    2.60
  -1  -6  14    2.35    2.26
  -1  -6  14    3.68    2.74
   0   6 -14    4.58    2.29
   0   6 -14    5.13    2.05
   0   6 -14    3.39    1.94
   0  -6  14    3.03    2.23
   0  -6  14    4.50    2.54
   0  -6  14    6.25    2.57
  -1   6 -14   -0.67    1.70
  -1   6 -14   -1.73    2.16
  -1   6 -14   -0.08    1.59
   1  -6  14   -3.72    2.12
   1  -6  14   -3.14    2.18
   1  -6  14   -0.69    1.85
  -2   6 -14    7.91    2.47
  -2   6 -14    3.21    3.49
  -2   6 -14    6.22    2.45
   2  -6  14    6.46    3.15
   2  -6  14    5.09    2.53
   2  -6  14   10.91    3.04
   2  -6  14    8.00    3.23
  -3   6 -14   -0.38    3.28
   3  -6  14   -0.81    3.29
   3  -6  14   -0.34    3.06
   3  -6  14    1.41    2.21
   4   5 -14   -1.83    3.37
   3   5 -14    0.97    1.74
   3   5 -14   -3.90    2.06
   3   5 -14   -0.10    2.23
  -3  -5  14   -0.24    3.76
   2   5 -14    7.92    2.49
   2   5 -14    7.09    2.79
   2   5 -14    7.04    2.20
  -2  -5  14    7.94    2.74
  -2  -5  14    3.62    2.69
  -2  -5  14    7.41    3.08
  -2  -5  14    7.48    3.97
   1   5 -14    0.29    2.01
   1   5 -14   -0.04    1.47
   1   5 -14   -1.15    1.57
  -1  -5  14    2.10    2.35
  -1  -5  14   -2.06    1.68
  -1  -5  14    2.41    3.20
  -1  -5  14    1.83    2.44
   0   5 -14    0.54    1.77
   0   5 -14    4.62    2.38
   0   5 -14    4.03    1.96
   0  -5  14    4.15    2.00
   0  -5  14    1.64    2.25
   0  -5  14    1.64    2.14
  -1   5 -14    0.65    1.34
  -1   5 -14    3.72    1.98
  -1   5 -14   -0.76    1.46
  -1   5 -14   -2.32    2.08
   1  -5  14   -0.63    2.00
   1  -5  14   -1.91    2.07
   1  -5  14   -1.00    1.53
   1  -5  14   -2.48    1.89
  -2   5 -14    1.26    1.86
  -2   5 -14    2.89    1.99
  -2   5 -14   -3.51    2.69
  -2   5 -14    2.29    1.91
   2  -5  14    4.92    2.48
   2  -5  14    1.92    2.79
   2  -5  14    1.23    1.96
   2  -5  14    5.92    2.83
  -3   5 -14    0.52    2.46
  -3   5 -14   -2.47    2.96
   3  -5  14   -2.27    3.19
   3  -5  14   -2.07    2.90
   3  -5  14    2.78    3.00
   3  -5  14   -0.40    1.95
   4  -5  14   -0.53    2.12
   4   4 -14    0.90    2.90
   4   4 -14    1.88    1.88
  -4  -4  14    8.66    5.88
   3   4 -14    5.48    2.64
   3   4 -14    8.89    2.32
   3   4 -14    7.19    3.02
  -3  -4  14    2.57    4.29
   2   4 -14    2.23    2.02
   2   4 -14    0.24    1.50
   2   4 -14    2.88    1.99
  -2  -4  14   -0.81    1.85
  -2  -4  14   -4.67    2.68
  -2  -4  14    0.54    2.07
  -2  -4  14    0.15    2.19
   1   4 -14    3.33    2.31
   1   4 -14    0.22    1.27
   1   4 -14   -1.90    1.42
  -1  -4  14   -1.26    1.76
  -1  -4  14    1.42    2.09
   0   4 -14   52.11    6.45
   0   4 -14   57.20    7.47
   0   4 -14   45.45    6.66
   0   4 -14   47.25    5.76
   0  -4  14   42.32    6.57
   0  -4  14   37.81    6.81
   0  -4  14   36.96    6.47
   0  -4  14   49.67    6.25
  -1   4 -14   -0.15    2.16
  -1   4 -14   -0.76    1.25
  -1   4 -14   -0.06    1.48
  -1   4 -14    2.13    1.76
   1  -4  14   -1.41    1.81
   1  -4  14   -0.05    1.79
   1  -4  14   -1.52    1.75
   1  -4  14   -0.01    1.44
  -2   4 -14    1.13    1.92
  -2   4 -14   -0.81    1.58
  -2   4 -14    1.00    2.77
  -2   4 -14   -1.49    1.59
   2  -4  14   -0.66    2.21
   2  -4  14    1.68    2.43
   2  -4  14    0.44    2.60
   2  -4  14    1.08    1.97
  -3   4 -14    1.64    2.88
  -3   4 -14    1.04    2.48
   3  -4  14    1.78    2.89
   3  -4  14    5.03    3.53
   3  -4  14   -1.65    1.68
   3  -4  14   -1.41    2.49
  -4   4 -14   -0.43    3.02
   4  -4  14    2.61    2.23
   4   3 -14    1.75    3.24
   4   3 -14    1.25    1.81
  -4  -3  14   -2.25    4.73
   3   3 -14   -1.00    2.05
   3   3 -14    2.09    2.80
   3   3 -14    0.42    1.56
  -3  -3  14    2.48    3.80
   2   3 -14    3.77    1.85
   2   3 -14    2.47    2.24
   2   3 -14    1.62    1.89
  -2  -3  14    0.63    3.30
  -2  -3  14    3.80    2.26
  -2  -3  14    4.04    1.82
  -2  -3  14    0.08    1.98
   1   3 -14   19.58    4.42
   1   3 -14   22.78    4.22
   1   3 -14   31.16    4.45
  -1  -3  14   30.33    4.50
  -1  -3  14   24.68    4.24
   0   3 -14    3.33    2.21
   0   3 -14    4.43    1.92
   0   3 -14    4.48    1.99
   0   3 -14    3.96    1.33
   0  -3  14    5.64    2.16
   0  -3  14    1.25    1.62
   0  -3  14    1.72    2.04
   0  -3  14    2.06    1.78
  -1   3 -14    4.97    2.55
  -1   3 -14    3.80    1.98
  -1   3 -14    3.70    1.93
  -1   3 -14    2.08    1.58
   1  -3  14    4.02    1.94
   1  -3  14    3.96    2.13
   1  -3  14    1.39    2.04
   1  -3  14    3.95    2.07
  -2   3 -14   18.36    3.68
  -2   3 -14   16.56    3.55
  -2   3 -14   20.73    4.47
  -2   3 -14   23.33    4.40
   2  -3  14   22.10    4.19
   2  -3  14   28.82    4.47
   2  -3  14   23.29    4.20
   2  -3  14   14.79    3.55
  -3   3 -14   -1.87    2.31
  -3   3 -14    6.43    2.95
   3  -3  14   -1.85    2.65
   3  -3  14   -1.60    2.68
   3  -3  14    2.18    1.90
   3  -3  14   -6.62    2.51
  -4   3 -14    2.75    3.36
   4  -3  14    0.97    3.30
   4  -3  14   -1.25    1.71
   4  -3  14   -2.92    3.28
   4   2 -14    1.11    1.95
   4   2 -14    3.41    3.33
  -4  -2  14    6.28    4.81
   3   2 -14    1.80    1.83
   3   2 -14    3.59    2.73
   3   2 -14    2.53    2.31
  -3  -2  14    2.06    3.75
   2   2 -14    4.90    1.88
   2   2 -14    3.23    2.11
   2   2 -14    3.18    1.90
  -2  -2  14    0.58    3.26
  -2  -2  14    4.23    2.05
  -2  -2  14   -0.23    1.87
   1   2 -14    5.04    2.42
   1   2 -14    1.04    1.79
   1   2 -14    3.20    1.72
   1   2 -14    4.85    1.20
  -1  -2  14    5.18    2.13
  -1  -2  14    3.56    2.19
   0   2 -14    4.70    2.58
   0   2 -14   16.17    2.49
   0   2 -14    8.88    2.52
   0   2 -14   11.60    2.59
   0  -2  14   10.10    2.72
   0  -2  14   13.53    2.76
   0  -2  14    9.81    2.23
   0  -2  14    8.20    2.58
  -1   2 -14   10.65    2.66
  -1   2 -14   14.40    3.04
  -1   2 -14   11.32    2.80
  -1   2 -14   14.18    4.04
   1  -2  14   12.39    2.92
   1  -2  14    9.72    2.93
   1  -2  14   14.50    3.02
   1  -2  14   19.52    3.05
  -2   2 -14    0.30    1.71
  -2   2 -14    3.50    3.40
  -2   2 -14    3.25    2.45
  -2   2 -14   -0.01    2.51
  -2   2 -14   -0.61    1.80
   2  -2  14    1.99    2.17
   2  -2  14    0.52    1.70
   2  -2  14    5.02    2.65
   2  -2  14    3.23    2.48
  -3   2 -14    1.62    2.56
   3  -2  14   -1.53    2.45
   3  -2  14   -4.44    2.95
   3  -2  14   -3.73    2.62
   3  -2  14    0.56    1.78
  -4   2 -14    3.37    3.43
   4  -2  14   -0.36    3.09
   4  -2  14   -0.67    1.83
   4   1 -14   -6.43    2.96
   4   1 -14   -0.64    1.75
  -4  -1  14    1.21    3.58
   3   1 -14    5.53    3.09
   3   1 -14    3.76    1.97
   3   1 -14    2.82    2.37
  -3  -1  14    4.03    3.64
   2   1 -14    1.77    1.61
   2   1 -14    2.76    1.94
   2   1 -14    1.29    2.19
  -2  -1  14    3.35    2.23
  -2  -1  14    1.31    2.91
  -2  -1  14    0.25    1.75
  -2  -1  14    3.62    1.90
   1   1 -14    1.90    1.54
   1   1 -14    0.03    1.64
   1   1 -14    2.48    1.28
   1   1 -14   -0.60    1.99
  -1  -1  14   -0.31    1.78
  -1  -1  14   -2.41    1.91
  -1  -1  14    1.02    1.71
  -1  -1  14    1.49    1.69
   0   1 -14   42.89    5.79
   0   1 -14   37.34    5.98
   0   1 -14   42.37    5.47
   0   1 -14   31.18    5.33
   0  -1  14   29.80    5.35
   0  -1  14   37.86    5.77
   0  -1  14   39.92    5.63
   0  -1  14   39.65    5.00
  -1   1 -14   -2.95    2.38
  -1   1 -14    1.11    1.59
  -1   1 -14   -1.19    1.80
  -1   1 -14    1.17    1.76
   1  -1  14    1.47    2.00
   1  -1  14   -0.71    1.77
   1  -1  14   -1.22    1.47
  -2   1 -14   -0.07    1.97
  -2   1 -14   -2.97    3.03
  -2   1 -14   -1.05    2.14
  -2   1 -14    0.47    1.71
  -2   1 -14    0.78    2.12
   2  -1  14   -0.05    2.11
   2  -1  14    0.48    1.61
   2  -1  14    3.82    2.35
  -3   1 -14   -2.30    2.61
   3  -1  14    0.32    2.35
   3  -1  14   -2.44    3.06
   3  -1  14    4.09    2.90
   3  -1  14   -0.51    1.74
   4  -1  14   -1.46    2.78
   4  -1  14   -0.61    1.72
   4   0 -14    1.71    3.46
   4   0 -14    1.07    1.98
  -4   0  14    6.40    4.09
   3   0 -14    5.46    2.60
   3   0 -14   -1.94    2.44
   3   0 -14    4.02    2.00
  -3   0  14    1.54    3.39
  -3   0  14    5.79    2.75
   2   0 -14   -1.32    2.41
   2   0 -14    0.73    1.63
   2   0 -14    0.42    1.93
  -2   0  14    1.72    2.03
  -2   0  14    0.08    1.74
  -2   0  14   -1.02    2.66
  -2   0  14   -1.24    1.65
   1   0 -14   12.05    2.78
   1   0 -14   15.95    3.08
   1   0 -14    6.63    2.91
  -1   0  14    9.53    3.06
  -1   0  14   12.04    2.81
  -1   0  14   14.76    2.95
  -1   0  14   14.44    2.72
   0   0 -14   -3.05    1.38
   0   0 -14   -0.91    1.55
   0   0 -14    3.29    2.67
   0   0 -14    1.74    1.79
   0   0  14   -0.46    1.11
   0   0  14    0.83    1.88
   0   0  14    3.03    1.90
  -1   0 -14    4.80    2.06
  -1   0 -14    0.37    1.74
  -1   0 -14    0.62    1.84
  -1   0 -14   -1.10    2.56
   1   0  14    3.72    2.08
   1   0  14    6.86    2.40
  -2   0 -14   10.70    3.40
  -2   0 -14   -4.66    3.20
  -2   0 -14    9.14    2.57
  -2   0 -14    8.06    2.66
   2   0  14    8.53    2.93
   2   0  14   11.08    2.93
  -3   0 -14    1.92    3.07
   3   0  14   -3.95    2.49
   3   0  14   -1.67    2.61
   3   0  14    1.24    1.92
   4  -1 -14    0.21    1.93
   4  -1 -14    1.48    3.46
  -4   1  14   -0.94    3.24
   3  -1 -14    4.33    3.03
   3  -1 -14    1.50    2.40
   3  -1 -14    6.11    2.22
  -3   1  14    4.29    2.70
  -3   1  14    3.15    2.97
   2  -1 -14    1.06    2.73
   2  -1 -14    3.12    2.19
   2  -1 -14    1.49    1.74
  -2   1  14    0.54    1.81
  -2   1  14    1.82    1.90
  -2   1  14   -0.70    2.85
  -2   1  14    0.75    1.68
   1  -1 -14    6.42    2.28
   1  -1 -14    3.63    2.80
   1  -1 -14    3.55    1.78
  -1   1  14    2.61    1.70
  -1   1  14    4.11    2.29
  -1   1  14    3.72    2.00
  -1   1  14   -0.25    2.02
   0  -1 -14    5.80    2.98
   0  -1 -14    5.13    2.27
   0  -1 -14    8.74    2.55
   0  -1 -14    7.63    2.32
   0   1  14    3.43    2.27
   0   1  14    2.90    2.03
   0   1  14    4.42    2.17
   0   1  14    9.90    2.00
  -1  -1 -14   32.59    5.38
  -1  -1 -14   14.11    3.36
  -1  -1 -14   21.23    4.16
  -1  -1 -14   11.41    3.33
   1   1  14   27.41    3.89
   1   1  14   17.21    3.59
   1   1  14   13.15    3.25
  -2  -1 -14   -0.21    1.99
  -2  -1 -14    4.77    3.81
  -2  -1 -14   -0.15    2.59
  -2  -1 -14   -2.61    1.88
   2   1  14   -0.79    1.70
   2   1  14    2.89    2.30
   2   1  14   -3.86    2.13
  -3  -1 -14    0.17    2.87
   3   1  14   -0.84    2.95
   3   1  14    1.92    2.54
   4  -2 -14    4.19    3.94
   4  -2 -14    0.49    2.03
  -4   2  14   -4.27    2.89
   3  -2 -14    1.09    2.00
   3  -2 -14   -1.31    2.58
   3  -2 -14   -2.25    2.46
  -3   2  14   -2.19    4.31
  -3   2  14    0.30    2.30
   2  -2 -14   -1.59    2.17
   2  -2 -14   -3.85    2.33
   2  -2 -14   -2.93    1.54
  -2   2  14   -0.05    2.12
  -2   2  14   -1.91    2.46
  -2   2  14    0.39    1.94
  -2   2  14   -0.05    1.86
   1  -2 -14   15.60    3.23
   1  -2 -14   11.53    3.13
   1  -2 -14   11.83    3.54
  -1   2  14   12.53    2.87
  -1   2  14    8.98    2.76
  -1   2  14   11.55    3.35
  -1   2  14   24.14    3.60
   0  -2 -14    6.78    3.06
   0  -2 -14   -0.36    1.95
   0  -2 -14   -0.96    1.75
   0  -2 -14    2.41    2.31
   0   2  14    3.07    2.08
   0   2  14    1.44    1.82
   0   2  14    1.23    2.23
   0   2  14    1.64    1.62
  -1  -2 -14    2.23    3.43
  -1  -2 -14    2.84    2.56
  -1  -2 -14    2.02    2.11
  -1  -2 -14    2.90    2.36
   1   2  14    1.59    2.13
   1   2  14    2.29    1.72
   1   2  14    2.95    2.40
  -2  -2 -14    8.59    3.34
  -2  -2 -14   -1.10    2.11
  -2  -2 -14    0.71    3.44
  -2  -2 -14    5.34    2.63
   2   2  14    1.25    2.41
   2   2  14    5.02    2.20
   2   2  14    0.92    2.22
  -3  -2 -14   -3.31    2.90
   3   2  14    2.85    2.23
   3   2  14   -0.53    2.52
   3   2  14    1.11    2.97
   3  -3 -14   -0.34    3.39
   3  -3 -14    3.17    2.96
   3  -3 -14    2.59    2.38
  -3   3  14    1.70    2.57
   2  -3 -14   -2.50    2.23
   2  -3 -14   -3.94    2.81
   2  -3 -14    0.13    1.91
  -2   3  14   -0.02    3.81
  -2   3  14   -0.08    2.31
  -2   3  14   -1.85    1.94
   1  -3 -14    6.34    2.31
   1  -3 -14    1.55    2.33
   1  -3 -14    9.51    3.38
  -1   3  14    1.80    2.60
  -1   3  14    6.79    2.49
  -1   3  14    2.94    1.96
  -1   3  14    8.68    2.41
   0  -3 -14   -1.60    2.04
   0  -3 -14    2.03    1.94
   0  -3 -14    0.27    2.87
   0   3  14   -4.20    1.90
   0   3  14   -0.10    2.14
   0   3  14    0.07    1.73
   0   3  14    0.35    1.56
  -1  -3 -14    6.18    2.84
  -1  -3 -14    9.40    4.26
  -1  -3 -14    2.68    2.23
  -1  -3 -14    9.94    3.48
   1   3  14    3.14    2.40
   1   3  14    7.99    2.37
   1   3  14    4.64    2.57
  -2  -3 -14   -0.75    3.41
  -2  -3 -14    1.33    2.99
  -2  -3 -14   -2.46    2.31
   2   3  14   -0.88    2.25
   2   3  14    0.14    2.51
   2   3  14    3.45    2.10
  -3  -3 -14   -0.54    3.74
   3   3  14   -1.31    3.22
   3   3  14    0.26    2.03
   3   3  14    3.70    2.83
   3  -4 -14   -5.91    2.65
   3  -4 -14    1.18    2.45
   3  -4 -14    3.79    3.21
  -3   4  14   -1.14    2.53
   2  -4 -14    3.63    2.34
   2  -4 -14    1.76    3.06
   2  -4 -14    0.93    2.59
  -2   4  14    0.85    2.45
  -2   4  14   -0.89    2.07
   1  -4 -14    5.63    2.68
   1  -4 -14    2.76    2.67
   1  -4 -14    6.84    3.66
  -1   4  14   -0.45    2.35
  -1   4  14   -0.68    2.44
  -1   4  14    0.98    1.73
  -1   4  14    1.53    1.97
   0  -4 -14    5.17    2.48
   0  -4 -14    2.26    2.54
   0  -4 -14    1.07    3.37
   0   4  14    0.55    2.53
   0   4  14    3.42    1.93
   0   4  14    1.90    2.37
   0   4  14    3.05    1.78
  -1  -4 -14   17.25    6.10
  -1  -4 -14    8.76    3.33
  -1  -4 -14    5.32    2.88
  -1  -4 -14    4.99    3.53
   1   4  14   12.19    3.18
   1   4  14    6.90    2.49
   1   4  14   12.26    3.35
  -2  -4 -14   -1.70    2.76
  -2  -4 -14   -2.87    3.44
  -2  -4 -14    3.77    3.96
   2   4  14    1.71    2.02
   2   4  14   -1.59    2.52
   2   4  14   -0.64    2.43
   3  -5 -14    5.87    4.22
   3  -5 -14   -1.32    3.17
   3  -5 -14    0.98    2.43
  -3   5  14   -1.22    2.72
   2  -5 -14    0.60    2.42
   2  -5 -14    3.02    3.67
   2  -5 -14    1.77    2.87
  -2   5  14   -2.88    2.09
  -2   5  14    0.55    2.62
   1  -5 -14    0.82    3.64
   1  -5 -14    6.97    3.20
   1  -5 -14   -0.50    2.27
  -1   5  14    5.02    2.12
  -1   5  14   10.17    3.54
  -1   5  14    6.98    2.92
  -1   5  14    2.70    2.34
   0  -5 -14    0.05    3.52
   0  -5 -14    1.59    2.76
   0  -5 -14    0.79    2.16
   0   5  14   -0.81    1.83
   0   5  14    0.40    2.53
   0   5  14    2.60    1.84
   0   5  14   -1.61    2.59
  -1  -5 -14    0.96    2.85
  -1  -5 -14    1.70    3.78
  -1  -5 -14    2.17    2.48
   1   5  14   -0.38    2.50
   1   5  14    0.81    2.60
   1   5  14    1.55    2.06
  -2  -5 -14    3.13    3.54
  -2  -5 -14    0.64    4.23
   2   5  14    0.49    2.83
   2   5  14    0.69    2.75
   2   5  14    3.87    2.31
   2  -6 -14    0.04    2.16
   2  -6 -14   -2.22    3.65
   2  -6 -14   -0.25    3.05
  -2   6  14   -1.71    2.36
  -2   6  14    2.28    2.98
   1  -6 -14    3.48    4.20
   1  -6 -14    3.06    3.08
   1  -6 -14   -2.67    1.97
  -1   6  14    0.77    2.20
  -1   6  14    3.57    3.17
  -1   6  14    0.39    2.68
  -1   6  14   -1.25    1.93
   0  -6 -14   -1.37    3.02
   0  -6 -14    3.51    2.54
   0   6  14    2.53    3.19
   0   6  14    0.69    1.84
   0   6  14    1.64    2.33
   0   6  14   -0.19    2.68
  -1  -6 -14    2.59    2.63
  -1  -6 -14   -2.14    3.24
  -1  -6 -14   -2.65    4.39
   1   6  14    5.57    3.19
   1   6  14    1.25    2.24
   1   6  14    4.95    3.13
   2   6  14    1.09    3.08
   2  -7 -14   -1.25    2.20
   2  -7 -14   -1.38    3.83
   2  -7 -14   -1.12    3.43
  -2   7  14    3.42    3.05
  -2   7  14   -8.10    3.05
   1  -7 -14    5.27    3.72
   1  -7 -14    1.53    4.72
   1  -7 -14   -1.35    2.41
  -1   7  14    2.39    2.57
  -1   7  14   -2.36    1.94
  -1   7  14    3.11    3.28
  -1   7  14    6.04    4.37
   0  -7 -14   -1.51    2.81
   0  -7 -14    1.55    3.53
   0   7  14    0.60    2.35
   0   7  14   -3.47    3.15
   0   7  14   -2.95    2.97
   0   7  14   -2.13    2.27
  -1  -7 -14   -3.38    2.90
  -1  -7 -14   -6.33    3.58
  -1  -7 -14   -5.43    4.86
   1   7  14   -0.41    3.15
   1   7  14    1.11    2.25
   1   7  14   -4.37    2.78
  -1 -11  15   -1.59    3.53
  -1 -11  15    0.60    4.24
  -1 -11  15   -1.48    2.94
   0  11 -15    0.52    2.21
   0  11 -15    0.24    2.64
   0 -11  15    7.87    5.39
   0 -11  15    7.66    3.94
   0 -11  15    4.80    4.48
   0 -11  15    0.42    3.45
  -1  11 -15    1.32    2.46
  -1  11 -15   -0.36    3.03
  -1  11 -15    4.72    2.52
   1 -11  15    0.53    2.72
   1 -11  15    0.19    3.51
   1 -11  15    1.00    5.38
   1 -11  15    1.57    4.08
   1  10 -15    2.38    2.72
   1  10 -15    2.91    2.29
  -1 -10  15   -0.70    3.85
  -1 -10  15    0.85    3.31
  -1 -10  15    2.65    3.12
   0  10 -15    1.48    2.36
   0  10 -15   -0.22    1.83
   0 -10  15   -1.53    2.56
   0 -10  15   -3.04    3.63
   0 -10  15   -1.41    3.21
   0 -10  15   -7.36    4.15
  -1  10 -15   -1.08    2.14
  -1  10 -15    0.40    2.04
   1 -10  15    0.03    3.53
   1 -10  15    3.69    3.41
   1 -10  15    0.30    2.41
  -2  10 -15   -2.59    2.15
  -2  10 -15   -0.77    3.61
   2 -10  15    9.73    4.22
   2 -10  15    2.09    3.90
   2 -10  15    1.88    2.89
   2   9 -15   -0.15    1.67
   2   9 -15   -0.35    2.75
   2   9 -15   -0.27    2.47
  -2  -9  15   -0.92    4.48
  -2  -9  15   -1.32    4.00
  -2  -9  15    2.54    3.20
   1   9 -15    4.07    2.13
   1   9 -15    3.68    2.95
   1   9 -15    2.67    2.64
  -1  -9  15    9.16    4.15
  -1  -9  15   12.55    3.76
  -1  -9  15   -2.09    2.63
   0   9 -15   -0.51    2.23
   0   9 -15    1.96    2.06
   0  -9  15    1.19    2.96
   0  -9  15    4.05    2.89
   0  -9  15    2.63    3.43
   0  -9  15    1.73    3.83
  -1   9 -15   -0.76    2.22
  -1   9 -15    0.85    1.95
   1  -9  15   -2.99    2.25
   1  -9  15    2.64    3.24
   1  -9  15    1.37    3.17
  -2   9 -15    0.95    2.33
  -2   9 -15   -0.19    3.71
   2  -9  15    2.46    3.51
   2  -9  15   -1.58    4.01
   2  -9  15    2.26    2.74
   2   8 -15    5.12    3.01
   2   8 -15    5.96    2.93
   2   8 -15    4.21    2.30
  -2  -8  15    9.03    4.09
  -2  -8  15   -7.57    3.73
  -2  -8  15    7.72    3.20
   1   8 -15   -0.11    2.16
   1   8 -15    0.75    2.60
   1   8 -15    0.42    1.73
  -1  -8  15   -2.64    2.62
  -1  -8  15    3.96    3.90
  -1  -8  15    0.70    2.43
   0   8 -15    2.59    2.74
   0   8 -15    0.85    1.65
   0   8 -15   -1.65    1.94
   0  -8  15    0.33    2.47
   0  -8  15   -2.52    2.03
   0  -8  15    0.02    2.79
  -1   8 -15    3.15    1.99
  -1   8 -15    2.86    2.33
   1  -8  15    3.63    3.04
   1  -8  15   11.83    3.56
   1  -8  15    3.16    3.18
  -2   8 -15    4.02    3.55
  -2   8 -15   -3.80    1.83
   2  -8  15    1.82    3.27
   2  -8  15   -0.61    3.06
   2  -8  15    0.97    2.50
  -3   8 -15   -2.07    4.08
   3  -8  15   -0.16    2.49
   3  -8  15    0.07    3.93
   3  -8  15    8.58    3.89
   3   7 -15    0.43    1.91
   3   7 -15    2.69    3.05
   3   7 -15    0.38    2.70
  -3  -7  15    0.53    4.20
   2   7 -15   -0.23    1.75
   2   7 -15    1.18    2.44
   2   7 -15   -0.43    2.16
  -2  -7  15    0.30    2.58
  -2  -7  15   -3.03    3.32
  -2  -7  15    0.38    3.64
   1   7 -15   -2.31    1.77
   1   7 -15    0.73    1.72
   1   7 -15    0.73    2.06
  -1  -7  15    1.57    2.30
  -1  -7  15    2.25    2.85
  -1  -7  15    6.50    3.90
   0   7 -15    3.23    1.96
   0   7 -15    5.72    2.37
   0   7 -15    6.13    2.97
   0  -7  15   -0.48    2.42
   0  -7  15   -0.24    2.15
   0  -7  15    3.88    2.83
  -1   7 -15    1.47    2.14
  -1   7 -15    0.84    1.72
   1  -7  15    2.34    2.74
   1  -7  15    1.57    2.38
   1  -7  15    4.44    2.98
  -2   7 -15   -1.24    3.34
  -2   7 -15    4.09    2.38
  -2   7 -15    0.36    2.17
   2  -7  15   -2.34    2.84
   2  -7  15   -1.89    2.85
   2  -7  15    3.48    2.87
   2  -7  15   -1.60    2.15
  -3   7 -15    2.69    3.72
   3  -7  15   -1.07    3.50
   3  -7  15    4.47    4.22
   3  -7  15    0.90    2.45
   3   6 -15   -2.13    1.62
   3   6 -15    3.99    2.67
   3   6 -15   -1.03    2.56
  -3  -6  15   -5.19    3.62
   2   6 -15   -0.44    1.66
   2   6 -15   -0.21    1.97
   2   6 -15    0.17    2.20
  -2  -6  15   -2.27    3.45
  -2  -6  15   -1.27    2.46
  -2  -6  15   -1.82    2.91
   1   6 -15    1.21    2.37
   1   6 -15    1.72    1.58
   1   6 -15    0.32    1.83
  -1  -6  15    2.80    3.05
  -1  -6  15   -0.23    2.42
  -1  -6  15    2.71    2.57
   0   6 -15    3.90    2.59
   0   6 -15    0.75    1.85
   0   6 -15    4.84    2.04
   0  -6  15    4.30    2.66
   0  -6  15    2.52    2.27
   0  -6  15    3.79    2.46
  -1   6 -15    0.64    1.83
  -1   6 -15    2.74    2.02
  -1   6 -15   -2.05    2.44
   1  -6  15    1.30    2.52
   1  -6  15   -0.57    2.36
   1  -6  15   -0.92    1.80
   1  -6  15   -3.28    2.37
  -2   6 -15    1.02    2.10
  -2   6 -15    1.46    2.20
  -2   6 -15   -3.88    3.13
   2  -6  15    1.50    2.75
   2  -6  15    2.15    2.21
   2  -6  15    5.07    2.96
   2  -6  15    2.54    2.72
  -3   6 -15   -0.36    3.32
   3  -6  15    2.54    3.34
   3  -6  15    1.99    2.56
   3  -6  15   -1.79    3.56
   3   5 -15   -0.35    2.37
   3   5 -15   -0.18    2.38
   3   5 -15    3.25    2.09
  -3  -5  15   -0.71    4.14
   2   5 -15   10.65    3.45
   2   5 -15   11.98    3.05
   2   5 -15   14.29    3.01
  -2  -5  15   16.47    3.84
  -2  -5  15   10.20    3.28
  -2  -5  15   14.92    4.96
   1   5 -15    0.68    2.15
   1   5 -15    1.73    1.60
   1   5 -15   -0.23    1.73
  -1  -5  15   -2.02    1.95
  -1  -5  15    3.76    3.06
  -1  -5  15    1.64    2.51
   0   5 -15   -0.24    1.64
   0   5 -15   -1.48    1.52
   0   5 -15   -0.30    1.95
   0  -5  15   -2.12    1.74
   0  -5  15    0.56    2.23
   0  -5  15   -3.95    1.79
  -1   5 -15    9.83    3.31
  -1   5 -15    6.27    2.01
  -1   5 -15    4.33    2.37
  -1   5 -15   10.72    2.65
   1  -5  15    6.70    2.51
   1  -5  15    9.63    2.86
   1  -5  15    9.38    2.91
   1  -5  15    9.08    2.89
  -2   5 -15    0.34    1.90
  -2   5 -15   -1.35    1.67
  -2   5 -15   -6.57    2.93
  -2   5 -15   -1.82    1.63
   2  -5  15   -2.79    2.39
   2  -5  15   -1.08    1.89
   2  -5  15   -1.51    2.49
   2  -5  15   -2.38    2.63
  -3   5 -15    3.20    3.38
  -3   5 -15   -2.69    2.24
   3  -5  15   -2.46    2.99
   3  -5  15   -2.67    3.01
   3  -5  15   -4.82    3.26
   3  -5  15   -3.89    1.74
   3   4 -15    5.42    2.07
   3   4 -15    4.70    2.82
   3   4 -15   -2.40    2.36
  -3  -4  15    2.37    4.02
   2   4 -15    1.17    1.66
   2   4 -15    1.06    2.23
   2   4 -15    0.71    2.04
  -2  -4  15   -1.93    2.18
  -2  -4  15   -2.30    3.27
  -2  -4  15   -3.39    2.61
   1   4 -15    0.09    2.00
   1   4 -15   -0.72    1.70
   1   4 -15   -1.06    1.24
  -1  -4  15   -2.30    1.70
  -1  -4  15    0.00    2.26
   0   4 -15   36.79    6.01
   0   4 -15   30.23    5.09
   0   4 -15   33.55    4.34
   0   4 -15   50.88    5.88
   0  -4  15   33.62    5.37
   0  -4  15   26.08    5.40
   0  -4  15   26.40    4.71
   0  -4  15   34.86    5.43
  -1   4 -15    1.34    2.37
  -1   4 -15    2.27    1.84
  -1   4 -15    2.38    1.70
  -1   4 -15    4.30    2.09
   1  -4  15    1.79    2.29
   1  -4  15    2.31    2.11
   1  -4  15    1.12    2.14
   1  -4  15    4.72    2.24
  -2   4 -15   -1.59    1.96
  -2   4 -15    0.66    3.10
  -2   4 -15   -0.48    1.95
  -2   4 -15    0.04    1.83
   2  -4  15   -0.31    2.34
   2  -4  15   -1.27    2.43
   2  -4  15   -3.74    2.35
   2  -4  15    2.12    1.93
  -3   4 -15    1.07    3.25
  -3   4 -15    2.84    2.73
   3  -4  15    1.77    3.01
   3  -4  15   -0.15    3.33
   3  -4  15    1.49    2.05
   3  -4  15    1.91    3.05
   4   3 -15    0.08    1.89
   4   3 -15    1.43    3.29
  -4  -3  15    0.24    4.83
   3   3 -15    0.37    2.58
   3   3 -15    0.47    1.73
   3   3 -15    0.98    2.23
  -3  -3  15   -4.53    3.23
   2   3 -15    3.06    2.58
   2   3 -15    7.42    2.21
   2   3 -15    2.89    2.23
  -2  -3  15    6.54    4.09
  -2  -3  15    4.54    2.43
  -2  -3  15    4.61    2.49
   1   3 -15   -0.16    2.22
   1   3 -15    1.44    1.49
   1   3 -15   -2.26    1.51
  -1  -3  15    4.11    2.26
  -1  -3  15    1.47    1.81
   0   3 -15    0.96    1.64
   0   3 -15    0.66    1.12
   0   3 -15    3.81    2.55
   0   3 -15    1.40    1.80
   0  -3  15    1.09    2.11
   0  -3  15    1.34    1.92
   0  -3  15   -1.05    1.93
   0  -3  15   -2.28    1.32
  -1   3 -15   13.03    2.94
  -1   3 -15   14.11    2.92
  -1   3 -15   11.80    2.72
  -1   3 -15   10.33    3.63
   1  -3  15   11.66    3.00
   1  -3  15   15.40    3.25
   1  -3  15   11.64    3.20
   1  -3  15    7.48    2.56
  -2   3 -15    9.08    2.78
  -2   3 -15   12.24    3.72
  -2   3 -15    8.56    3.03
  -2   3 -15    9.36    2.58
   2  -3  15    7.89    3.02
   2  -3  15    9.35    3.02
   2  -3  15    2.00    2.22
   2  -3  15    7.53    3.00
  -3   3 -15   -1.57    2.26
   3  -3  15    3.78    3.50
   3  -3  15    2.34    2.69
   3  -3  15    5.30    3.20
   3  -3  15    0.50    1.85
   4   2 -15   -0.38    1.96
   4   2 -15    0.23    3.39
  -4  -2  15    1.79    4.89
   3   2 -15   -0.97    1.59
   3   2 -15   -2.48    2.39
   3   2 -15   -1.40    2.12
  -3  -2  15   -4.72    3.55
   2   2 -15    5.75    2.33
   2   2 -15    6.31    2.14
   2   2 -15    9.78    2.91
  -2  -2  15    3.49    2.24
  -2  -2  15    4.33    2.21
  -2  -2  15   -1.07    3.39
   1   2 -15    0.38    1.42
   1   2 -15    2.16    1.91
   1   2 -15    4.39    2.28
  -1  -2  15    2.38    1.88
  -1  -2  15    2.72    2.22
   0   2 -15    1.98    1.68
   0   2 -15    4.83    2.08
   0   2 -15    3.80    2.64
   0   2 -15    3.89    1.98
   0  -2  15    5.19    2.09
   0  -2  15    1.98    2.07
   0  -2  15    3.15    1.66
   0  -2  15    5.20    2.31
  -1   2 -15    0.47    2.75
  -1   2 -15   -0.91    1.64
  -1   2 -15    2.25    1.88
  -1   2 -15    0.94    1.89
   1  -2  15    0.49    1.66
   1  -2  15    2.08    1.90
   1  -2  15    1.79    2.20
   1  -2  15   -4.36    1.75
  -2   2 -15    6.15    2.45
  -2   2 -15    0.35    1.83
  -2   2 -15    3.19    2.59
  -2   2 -15    1.43    2.68
  -2   2 -15    2.43    3.42
   2  -2  15    3.44    2.65
   2  -2  15   -1.09    2.48
   2  -2  15    0.11    1.73
   2  -2  15    6.86    2.90
  -3   2 -15   -2.69    2.41
   3  -2  15   -1.82    2.71
   3  -2  15   -4.13    2.97
   3  -2  15   -0.33    1.94
   3  -2  15    3.75    3.10
   4   1 -15    0.98    1.91
   4   1 -15   -1.12    3.29
  -4  -1  15    6.65    4.52
   3   1 -15    4.45    2.56
   3   1 -15    8.51    3.58
   3   1 -15    1.05    1.83
  -3  -1  15    9.56    4.36
   2   1 -15    1.47    1.76
   2   1 -15    1.11    1.96
   2   1 -15   -1.36    2.16
  -2  -1  15   -4.85    3.37
  -2  -1  15    2.46    2.03
  -2  -1  15    2.93    2.26
  -2  -1  15    0.84    1.86
   1   1 -15    2.87    1.70
   1   1 -15   -0.07    2.14
   1   1 -15   -1.54    1.73
   1   1 -15    4.81    1.57
  -1  -1  15    3.67    1.94
  -1  -1  15    6.15    2.27
  -1  -1  15    1.02    2.42
   0   1 -15   33.39    4.92
   0   1 -15   36.65    4.64
   0   1 -15   21.25    4.26
   0   1 -15   29.02    5.16
   0  -1  15   31.09    4.08
   0  -1  15   25.40    4.72
   0  -1  15   19.84    4.20
   0  -1  15   33.57    4.82
  -1   1 -15    0.26    1.79
  -1   1 -15    2.18    2.77
  -1   1 -15    4.69    1.94
  -1   1 -15   -1.62    1.88
   1  -1  15   -0.40    2.01
   1  -1  15    0.33    1.87
   1  -1  15   -1.29    1.80
   1  -1  15   -1.27    1.59
  -2   1 -15   -3.96    1.71
  -2   1 -15   -1.16    3.30
  -2   1 -15    0.54    1.88
  -2   1 -15   -0.60    2.33
   2  -1  15   -2.59    2.13
   2  -1  15    0.69    1.85
   2  -1  15   -2.39    2.31
  -3   1 -15    5.43    3.32
   3  -1  15   -0.21    1.85
   3  -1  15   -3.11    3.21
   3  -1  15   -1.50    2.89
   3  -1  15    1.81    2.99
   4   0 -15    1.06    3.60
   4   0 -15   -0.63    2.00
  -4   0  15    4.20    4.11
   3   0 -15   -1.67    3.09
   3   0 -15   -1.93    2.29
   3   0 -15   -2.16    1.62
  -3   0  15   -2.98    2.24
  -3   0  15    2.66    3.58
   2   0 -15   -1.96    1.84
   2   0 -15   -0.27    1.74
   2   0 -15    2.68    2.61
  -2   0  15   -3.59    2.94
  -2   0  15    0.71    1.86
  -2   0  15    2.07    2.13
  -2   0  15    1.04    2.17
   1   0 -15   16.41    3.43
   1   0 -15   12.56    3.47
   1   0 -15   17.12    2.88
   1   0 -15   11.71    2.98
  -1   0  15   10.28    2.63
  -1   0  15   13.00    3.03
  -1   0  15    6.26    3.17
  -1   0  15   15.55    3.17
   0   0 -15   -2.53    1.36
   0   0 -15   -0.51    1.61
   0   0 -15    0.38    1.93
   0   0 -15    1.23    2.66
   0   0  15    1.27    1.35
   0   0  15   -2.17    1.72
   0   0  15    0.60    2.06
  -1   0 -15   -0.17    1.75
  -1   0 -15    1.75    2.15
  -1   0 -15    0.29    3.08
  -1   0 -15   -0.21    1.81
   1   0  15   -0.14    2.00
   1   0  15    1.33    2.05
  -2   0 -15   14.75    3.33
  -2   0 -15   12.93    4.04
  -2   0 -15   10.66    3.30
  -2   0 -15    9.67    4.91
   2   0  15   13.63    3.48
   2   0  15   26.13    4.17
  -3   0 -15    1.83    3.17
   3   0  15    0.35    1.82
   3   0  15    0.25    2.58
   3   0  15    1.84    3.11
   4  -1 -15   -1.98    3.13
   3  -1 -15    2.67    3.28
   3  -1 -15    1.30    2.02
   3  -1 -15    0.36    2.59
  -3   1  15    4.25    3.29
  -3   1  15    5.43    3.04
   2  -1 -15    0.85    2.16
   2  -1 -15    1.05    1.87
   2  -1 -15    1.75    2.80
  -2   1  15    0.39    2.80
  -2   1  15   -0.73    1.84
  -2   1  15   -1.31    1.81
  -2   1  15    0.23    3.01
   1  -1 -15    2.10    2.50
   1  -1 -15    2.17    1.96
   1  -1 -15    4.72    2.21
  -1   1  15    4.55    2.59
  -1   1  15   -0.63    1.86
  -1   1  15    2.49    2.40
  -1   1  15    0.73    1.70
   0  -1 -15   12.36    3.10
   0  -1 -15   14.01    3.11
   0  -1 -15    3.79    2.96
   0  -1 -15    4.53    2.64
   0   1  15   11.42    2.89
   0   1  15   18.20    3.29
   0   1  15    9.85    2.25
   0   1  15   11.91    3.18
  -1  -1 -15    3.84    2.03
  -1  -1 -15   -0.06    3.03
  -1  -1 -15    3.21    2.32
  -1  -1 -15   -2.09    2.13
   1   1  15    1.20    1.85
   1   1  15   -1.12    2.11
   1   1  15    4.12    2.20
  -2  -1 -15    0.80    2.89
  -2  -1 -15    5.33    4.17
  -2  -1 -15    1.24    2.26
  -2  -1 -15   -2.32    2.00
   2   1  15   -2.60    2.16
   2   1  15    0.78    2.30
   2   1  15   -0.70    1.69
  -3  -1 -15   -2.07    3.31
   3   1  15   -2.20    2.79
   3   1  15    1.87    2.70
   3  -2 -15    0.68    2.80
   3  -2 -15    3.57    2.37
   3  -2 -15   -1.35    3.40
  -3   2  15    1.68    2.51
   2  -2 -15    0.86    2.81
   2  -2 -15   -0.28    1.91
   2  -2 -15    1.96    2.43
  -2   2  15   -0.65    2.97
  -2   2  15   -0.13    2.01
  -2   2  15   -1.08    1.88
   1  -2 -15    3.05    2.31
   1  -2 -15    3.24    2.07
   1  -2 -15   -0.38    2.93
  -1   2  15    3.17    2.44
  -1   2  15   -1.46    1.66
  -1   2  15    4.19    2.70
  -1   2  15    2.01    1.95
   0  -2 -15    7.70    2.49
   0  -2 -15    4.41    3.24
   0  -2 -15    3.44    2.58
   0  -2 -15    3.65    2.57
   0   2  15    4.63    2.17
   0   2  15    2.75    2.45
   0   2  15    7.19    2.64
   0   2  15    4.94    1.89
  -1  -2 -15    1.53    3.50
  -1  -2 -15   -0.33    2.47
  -1  -2 -15    0.09    1.98
  -1  -2 -15   -3.91    1.91
   1   2  15    0.26    1.67
   1   2  15    0.14    2.28
   1   2  15   -0.47    2.28
  -2  -2 -15    6.09    3.29
  -2  -2 -15   -3.10    2.18
   2   2  15   -3.04    2.31
   2   2  15    2.69    2.40
   2   2  15    0.41    1.80
  -3  -2 -15   -2.04    3.38
   3   2  15   -1.52    3.12
   3   2  15    2.79    2.96
   3  -3 -15   -1.44    3.03
   3  -3 -15   -1.46    2.82
   3  -3 -15   -2.19    2.06
  -3   3  15    1.70    2.52
   2  -3 -15    0.82    2.55
   2  -3 -15    2.07    2.05
   2  -3 -15   -2.63    2.83
  -2   3  15   -2.56    1.91
  -2   3  15   -0.30    2.43
   1  -3 -15    5.75    2.65
   1  -3 -15    5.18    2.88
   1  -3 -15    3.27    3.40
  -1   3  15    9.43    2.91
  -1   3  15    4.34    2.08
  -1   3  15    4.26    2.28
  -1   3  15    7.84    3.13
   0  -3 -15    0.53    2.31
   0  -3 -15    0.49    2.71
   0  -3 -15    0.45    2.14
   0  -3 -15    7.83    3.66
   0   3  15    1.33    2.34
   0   3  15   -2.54    1.41
   0   3  15    2.78    2.10
   0   3  15   -0.18    2.29
  -1  -3 -15   -1.89    3.55
  -1  -3 -15   -0.88    2.15
  -1  -3 -15    1.96    2.93
  -1  -3 -15   -0.72    2.38
   1   3  15   -2.53    2.33
   1   3  15   -0.55    1.67
   1   3  15   -1.73    2.15
  -2  -3 -15    1.02    2.80
  -2  -3 -15    9.94    4.01
   2   3  15   11.86    3.24
   2   3  15    7.31    3.22
   2   3  15    3.59    2.24
   3   3  15   -3.33    2.99
   3  -4 -15   -2.37    3.58
   3  -4 -15    0.20    2.34
   3  -4 -15    1.12    3.27
  -3   4  15   -0.54    2.45
   2  -4 -15   -1.71    3.11
   2  -4 -15   -0.65    2.66
   2  -4 -15   -2.65    1.91
  -2   4  15    0.65    2.71
  -2   4  15   -0.80    2.11
   1  -4 -15    0.37    3.49
   1  -4 -15    1.02    2.09
   1  -4 -15    1.17    2.62
  -1   4  15    3.52    2.27
  -1   4  15   -0.03    1.84
  -1   4  15    0.11    2.79
  -1   4  15    2.72    2.59
   0  -4 -15    5.61    2.97
   0  -4 -15    3.13    3.89
   0  -4 -15    3.66    2.48
   0   4  15    3.25    2.12
   0   4  15    0.82    2.64
   0   4  15    0.91    1.91
   0   4  15    5.70    2.97
  -1  -4 -15    1.37    3.38
  -1  -4 -15    2.46    3.00
  -1  -4 -15   -0.01    2.31
   1   4  15    7.26    2.29
   1   4  15    3.64    2.77
   1   4  15    7.18    3.17
  -2  -4 -15    2.13    3.27
  -2  -4 -15   -0.21    4.00
   2   4  15    1.81    2.86
   2   4  15   -1.93    2.64
   2   4  15   -1.40    1.77
   3  -5 -15    3.87    3.96
   2  -5 -15    5.55    3.30
   2  -5 -15   -0.55    1.94
   2  -5 -15    4.65    4.32
  -2   5  15    1.97    2.65
  -2   5  15    2.61    2.97
   1  -5 -15    1.94    2.24
   1  -5 -15   -1.03    2.82
   1  -5 -15    6.40    4.19
  -1   5  15    2.51    2.26
  -1   5  15   -3.14    1.80
  -1   5  15   -4.35    2.67
  -1   5  15    3.63    2.80
   0  -5 -15    1.91    2.89
   0  -5 -15   -2.87    2.08
   0  -5 -15    3.12    4.12
   0   5  15    1.90    2.72
   0   5  15    0.77    2.36
   0   5  15    1.40    2.02
   0   5  15   -0.44    3.06
  -1  -5 -15    9.38    4.49
  -1  -5 -15   -0.03    2.59
  -1  -5 -15    0.81    3.13
   1   5  15    1.46    3.00
   1   5  15    0.60    2.73
   1   5  15   -0.24    1.98
  -2  -5 -15   -1.96    3.46
  -2  -5 -15    9.66    5.22
   2   5  15    0.89    2.07
   2   5  15    5.02    3.19
   2   5  15    0.89    3.19
   2  -6 -15   -0.12    4.01
   2  -6 -15   -1.39    3.42
   2  -6 -15    2.86    2.79
  -2   6  15   -6.29    2.92
  -2   6  15    2.40    2.84
   1  -6 -15   -0.67    2.12
   1  -6 -15   -0.39    3.01
   1  -6 -15    0.41    4.35
  -1   6  15    5.53    3.44
  -1   6  15    0.63    2.46
  -1   6  15    0.21    2.01
  -1   6  15   -4.77    2.84
   0  -6 -15    0.56    2.80
   0  -6 -15    0.59    3.19
   0   6  15   -0.48    3.30
   0   6  15   -0.59    2.03
   0   6  15   -1.80    2.86
  -1  -6 -15    0.57    3.08
  -1  -6 -15    3.13    3.79
  -1  -6 -15    0.14    4.65
   1   6  15    0.31    2.26
   1   6  15    2.97    3.33
   1   6  15    0.12    3.05
   1  -7 -15    1.06    2.75
   1  -7 -15    4.61    7.70
   1  -7 -15   -1.37    3.45
  -1   7  15    3.80    2.61
  -1   7  15   -1.90    3.17
  -1   7  15    4.64    2.99
  -1   7  15   -0.73    3.57
   0  -7 -15    0.41    3.76
   0   7  15   -6.28    3.25
   0   7  15    1.02    2.09
   0   7  15   -4.08    3.41
   0  11 -16   -1.36    1.89
   0  11 -16   -1.16    2.69
   0 -11  16    9.25    5.59
   0 -11  16    1.49    3.87
   0 -11  16   -6.26    2.45
   1 -11  16   -1.60    6.12
   1 -11  16    0.95    4.03
   1  10 -16   -0.86    1.65
   1  10 -16   -1.00    2.41
   1  10 -16    3.96    3.02
  -1 -10  16   -3.46    3.00
  -1 -10  16   -0.04    3.44
  -1 -10  16    4.90    4.77
   0  10 -16   -1.22    2.23
   0  10 -16    3.27    2.28
   0 -10  16    1.59    3.53
   0 -10  16    1.25    2.86
   0 -10  16    2.21    4.70
   0 -10  16   -2.04    5.01
  -1  10 -16    2.13    2.38
  -1  10 -16    0.55    2.46
   1 -10  16   -0.43    2.93
   1 -10  16    0.18    3.66
   1 -10  16    6.47    3.93
   2 -10  16    2.08    3.97
   2 -10  16    2.92    3.09
   2   9 -16   -1.46    1.97
   2   9 -16    0.60    3.05
   2   9 -16   -1.41    2.77
  -2  -9  16    0.87    3.29
  -2  -9  16    3.81    5.10
  -2  -9  16    3.72    4.66
   1   9 -16    4.15    3.04
   1   9 -16    2.20    2.65
   1   9 -16    3.61    2.37
  -1  -9  16    8.43    3.67
  -1  -9  16    3.09    3.03
  -1  -9  16    3.76    3.98
   0   9 -16   -0.59    2.25
   0   9 -16    0.66    1.83
   0  -9  16    3.76    3.45
   0  -9  16   -0.60    2.47
   0  -9  16    3.27    3.32
   0  -9  16   -6.32    4.00
  -1   9 -16    6.76    2.61
  -1   9 -16   -0.56    1.84
   1  -9  16    0.36    2.53
   1  -9  16   -1.82    3.16
   1  -9  16    5.62    3.60
  -2   9 -16    3.38    4.06
  -2   9 -16    2.48    2.46
   2  -9  16   -2.08    3.57
   2  -9  16    0.31    4.18
   2  -9  16   -0.83    2.53
   2   8 -16    6.66    2.96
   2   8 -16    0.38    1.89
   2   8 -16    4.98    2.99
  -2  -8  16   -1.87    4.17
  -2  -8  16   -3.57    4.01
  -2  -8  16    1.26    3.05
   1   8 -16    1.84    1.69
   1   8 -16   -2.34    2.04
   1   8 -16    0.22    2.27
  -1  -8  16    1.52    4.05
  -1  -8  16   -0.97    2.74
  -1  -8  16    0.52    2.83
   0   8 -16   -0.53    1.80
   0   8 -16   -1.53    1.96
   0   8 -16    1.04    2.84
   0  -8  16    2.40    2.93
   0  -8  16    1.55    2.95
   0  -8  16    1.06    2.74
  -1   8 -16    1.26    2.15
  -1   8 -16    4.72    2.50
   1  -8  16    5.16    3.22
   1  -8  16    3.83    3.18
   1  -8  16   -0.52    2.26
  -2   8 -16    1.71    2.38
  -2   8 -16   -2.12    3.64
   2  -8  16   -0.76    3.18
   2  -8  16    0.16    2.34
   2  -8  16    3.38    3.62
   3   7 -16    2.40    3.24
   3   7 -16    4.95    3.13
   3   7 -16    2.24    2.16
  -3  -7  16    2.49    4.59
   2   7 -16   -0.34    1.68
   2   7 -16   -0.24    2.46
   2   7 -16    1.19    2.36
  -2  -7  16   -0.25    3.66
  -2  -7  16    0.12    2.75
  -2  -7  16    5.45    4.18
   1   7 -16    4.95    3.03
   1   7 -16   -0.99    1.95
   1   7 -16    0.45    1.69
  -1  -7  16   -0.09    3.71
  -1  -7  16   -0.63    2.90
  -1  -7  16    3.83    3.27
   0   7 -16    1.13    2.46
   0   7 -16    2.83    2.00
   0   7 -16   -1.68    1.85
   0  -7  16    3.12    2.95
   0  -7  16    6.08    3.12
   0  -7  16    2.91    2.51
  -1   7 -16    3.31    2.29
  -1   7 -16   -2.41    1.64
   1  -7  16   -0.62    2.55
   1  -7  16    3.61    2.40
   1  -7  16    5.42    3.42
  -2   7 -16   -0.42    2.11
  -2   7 -16    3.44    3.67
   2  -7  16    1.76    3.08
   2  -7  16    1.63    3.30
   2  -7  16    2.06    2.97
   2  -7  16   -2.06    2.24
  -3   7 -16   -0.41    3.79
   3  -7  16    0.60    2.44
   3  -7  16    0.89    3.72
   3  -7  16   -1.82    3.96
   3   6 -16    0.06    2.79
   3   6 -16    1.59    3.01
   3   6 -16   -1.68    1.63
  -3  -6  16   -3.70    4.29
   2   6 -16   -0.18    2.43
   2   6 -16   -4.43    2.09
   2   6 -16    0.95    1.71
  -2  -6  16    0.20    3.21
  -2  -6  16    4.41    2.82
  -2  -6  16    0.56    3.34
   1   6 -16   10.66    3.60
   1   6 -16    8.65    2.63
   1   6 -16    8.84    2.81
  -1  -6  16    8.48    3.17
  -1  -6  16   14.77    3.68
  -1  -6  16   12.15    4.28
   0   6 -16    2.61    2.44
   0   6 -16    2.39    1.72
   0   6 -16    0.71    1.94
   0  -6  16    5.41    2.42
   0  -6  16   -3.67    2.45
   0  -6  16    2.39    2.27
  -1   6 -16   -0.87    1.77
  -1   6 -16   -0.71    2.62
  -1   6 -16   -2.50    1.46
   1  -6  16    0.03    2.54
   1  -6  16   -1.14    2.05
   1  -6  16   -3.01    2.71
   1  -6  16    2.59    2.68
  -2   6 -16    3.83    4.07
  -2   6 -16    0.15    2.33
  -2   6 -16   -1.42    2.01
   2  -6  16    1.56    3.05
   2  -6  16   -1.56    2.81
   2  -6  16    1.71    2.30
   2  -6  16    0.26    2.86
  -3   6 -16    6.60    4.29
   3  -6  16   -4.90    3.49
   3  -6  16   -4.03    3.32
   3  -6  16    2.17    2.65
   3   5 -16    0.63    2.68
   3   5 -16    0.03    2.66
   3   5 -16   -0.38    1.88
  -3  -5  16   -3.73    3.83
   2   5 -16    9.47    2.96
   2   5 -16   11.56    3.26
   2   5 -16    5.01    2.38
  -2  -5  16    5.91    3.00
  -2  -5  16   12.17    4.98
   1   5 -16   -1.37    1.77
   1   5 -16    0.84    1.56
   1   5 -16   -2.48    2.31
  -1  -5  16    3.65    3.42
  -1  -5  16   -1.68    2.12
  -1  -5  16   -0.07    2.50
   0   5 -16   -1.24    1.94
   0   5 -16   -2.38    1.73
   0   5 -16    0.22    1.56
   0  -5  16   -1.63    2.03
   0  -5  16   -0.08    2.25
   0  -5  16   -1.14    1.89
  -1   5 -16   18.58    3.58
  -1   5 -16   12.31    3.75
  -1   5 -16   16.72    3.13
  -1   5 -16   16.85    3.30
   1  -5  16   15.71    3.78
   1  -5  16    9.30    3.29
   1  -5  16   12.09    3.55
   1  -5  16   16.50    3.73
  -2   5 -16   -5.59    3.08
  -2   5 -16   -0.90    1.92
  -2   5 -16    1.75    2.16
  -2   5 -16    0.33    2.07
   2  -5  16   -0.07    1.84
   2  -5  16    0.97    2.71
   2  -5  16   -1.46    2.62
   2  -5  16   -0.25    2.82
  -3   5 -16    4.18    3.80
  -3   5 -16   -3.41    2.45
   3  -5  16   -1.62    2.08
   3  -5  16   -0.56    3.04
   3  -5  16   -0.91    3.34
   3  -5  16    2.56    3.45
   3   4 -16    0.29    2.79
   3   4 -16   -0.07    2.54
   3   4 -16    2.35    2.02
  -3  -4  16   -4.24    4.27
   2   4 -16    0.68    2.09
   2   4 -16    1.11    1.70
   2   4 -16    1.95    2.59
  -2  -4  16    2.83    2.53
  -2  -4  16    3.08    3.83
   1   4 -16    2.89    2.10
   1   4 -16    0.19    2.40
   1   4 -16    2.80    2.00
  -1  -4  16    1.10    2.05
  -1  -4  16   -1.52    2.36
   0   4 -16   11.11    2.84
   0   4 -16   15.67    3.49
   0   4 -16    8.34    2.40
   0  -4  16    9.84    3.09
   0  -4  16   13.88    2.62
   0  -4  16    9.75    3.41
   0  -4  16    5.62    2.44
  -1   4 -16    7.71    2.23
  -1   4 -16    2.17    2.87
  -1   4 -16    3.07    2.10
  -1   4 -16    2.46    2.13
   1  -4  16    4.50    2.47
   1  -4  16   -1.04    2.22
   1  -4  16    1.79    1.97
   1  -4  16    4.18    2.72
  -2   4 -16   -1.86    3.14
  -2   4 -16    5.72    2.41
  -2   4 -16    3.88    2.49
  -2   4 -16    4.27    2.41
   2  -4  16    2.47    2.20
   2  -4  16    5.08    3.03
   2  -4  16    7.34    3.11
   2  -4  16    5.80    2.89
  -3   4 -16    2.27    5.75
  -3   4 -16    6.27    3.12
   3  -4  16    8.18    4.10
   3  -4  16    2.46    3.30
   3  -4  16    0.64    2.05
   3  -4  16    3.67    3.52
   3   3 -16   -1.55    1.67
   3   3 -16    1.98    2.61
   3   3 -16   -3.27    2.16
  -3  -3  16    7.26    4.46
   2   3 -16    1.25    2.86
   2   3 -16   -1.76    1.90
   2   3 -16    3.17    1.84
  -2  -3  16   10.17    4.75
  -2  -3  16   -1.07    2.16
   1   3 -16    2.42    1.88
   1   3 -16    5.02    2.15
   1   3 -16    4.96    2.89
  -1  -3  16    8.43    2.70
  -1  -3  16    3.02    2.36
   0   3 -16   -0.74    1.73
   0   3 -16    1.55    2.26
   0   3 -16    3.19    1.40
   0   3 -16    4.03    2.01
   0  -3  16   -2.51    1.58
   0  -3  16   -3.02    1.52
   0  -3  16   -1.00    2.07
   0  -3  16    0.04    2.23
  -1   3 -16    2.55    1.95
  -1   3 -16    0.88    2.92
  -1   3 -16    1.99    1.82
  -1   3 -16    2.63    2.07
   1  -3  16   -2.08    1.69
   1  -3  16    0.65    2.22
   1  -3  16    2.51    2.27
   1  -3  16    2.56    2.33
  -2   3 -16    8.72    3.74
  -2   3 -16    2.21    2.41
  -2   3 -16    1.12    2.13
  -2   3 -16    5.60    2.61
   2  -3  16    4.53    2.75
   2  -3  16    3.51    2.98
   2  -3  16    3.46    2.84
   2  -3  16    3.66    2.35
  -3   3 -16    2.86    2.78
   3  -3  16    4.72    3.78
   3  -3  16   -3.39    2.76
   3  -3  16    3.49    2.34
   3  -3  16   -2.08    3.13
   3   2 -16   -0.11    2.43
   3   2 -16    0.71    1.90
   3   2 -16   -1.64    2.34
  -3  -2  16   -1.70    3.87
   2   2 -16   10.31    2.61
   2   2 -16    6.24    3.24
   2   2 -16   14.01    3.13
  -2  -2  16   11.63    5.12
  -2  -2  16    9.42    2.90
   1   2 -16    4.09    2.61
   1   2 -16    1.05    1.59
   1   2 -16    0.59    1.87
  -1  -2  16   -0.38    2.10
  -1  -2  16    3.23    2.09
   0   2 -16    0.25    1.60
   0   2 -16    8.06    3.00
   0   2 -16    0.43    1.94
   0   2 -16    2.98    1.82
   0  -2  16    0.48    2.23
   0  -2  16    2.62    1.68
   0  -2  16   -0.57    1.65
   0  -2  16    4.24    2.30
  -1   2 -16   15.55    3.43
  -1   2 -16   21.76    3.77
  -1   2 -16   15.42    3.44
  -1   2 -16   23.22    5.03
   1  -2  16   13.13    3.43
   1  -2  16    8.22    3.05
   1  -2  16   22.27    3.83
   1  -2  16   18.74    3.41
  -2   2 -16   -6.19    2.53
  -2   2 -16    0.55    1.98
  -2   2 -16   -2.44    3.52
  -2   2 -16   -2.19    2.06
  -2   2 -16   -1.98    2.10
   2  -2  16   -4.50    2.34
   2  -2  16    1.56    2.63
   2  -2  16   -1.18    1.70
   2  -2  16    2.41    2.62
  -3   2 -16   -0.73    2.77
   3  -2  16   -2.98    3.19
   3  -2  16    4.26    3.37
   3  -2  16    0.56    3.21
   3  -2  16    0.20    1.96
   3   1 -16    2.69    2.72
   3   1 -16    4.55    3.56
   3   1 -16   -0.44    1.84
  -3  -1  16    1.65    3.63
   2   1 -16    0.17    1.67
   2   1 -16   -4.53    1.91
   2   1 -16   -1.98    2.08
  -2  -1  16   -0.39    2.06
  -2  -1  16   -1.88    3.25
   1   1 -16    1.09    1.96
   1   1 -16    1.72    2.36
   1   1 -16   -0.90    1.59
   1   1 -16    3.08    2.43
  -1  -1  16    3.08    2.19
  -1  -1  16    4.08    2.33
  -1  -1  16    1.36    2.28
   0   1 -16   17.14    3.43
   0   1 -16   21.70    3.53
   0   1 -16   12.82    3.95
   0   1 -16   10.53    3.29
   0  -1  16   18.44    2.97
   0  -1  16   17.90    3.68
   0  -1  16   18.70    3.34
   0  -1  16   14.18    3.60
  -1   1 -16    1.58    2.07
  -1   1 -16   -2.21    2.02
  -1   1 -16   -0.53    1.63
  -1   1 -16   -0.99    2.74
   1  -1  16   -1.48    1.68
   1  -1  16    4.20    2.39
   1  -1  16    2.68    2.25
   1  -1  16    3.63    2.51
  -2   1 -16   -1.92    3.75
  -2   1 -16   -2.48    1.90
  -2   1 -16   -1.32    2.39
  -2   1 -16   -1.08    2.10
   2  -1  16   -1.64    2.35
   2  -1  16   -1.00    2.32
   2  -1  16   -2.47    1.62
   2  -1  16   -2.49    2.63
  -3   1 -16    1.86    3.16
   3  -1  16   -0.50    2.82
   3  -1  16    3.52    3.67
   3  -1  16    3.20    2.98
   3  -1  16    4.17    2.29
   3   0 -16   -0.05    2.64
   3   0 -16    2.32    3.34
   3   0 -16   -0.61    1.84
  -3   0  16    2.09    2.75
  -3   0  16    6.67    3.98
   2   0 -16    6.17    2.81
   2   0 -16    1.26    2.68
   2   0 -16    6.05    2.35
  -2   0  16    2.57    2.22
  -2   0  16    5.91    2.53
  -2   0  16    6.65    3.92
   1   0 -16    0.30    1.77
   1   0 -16   -0.14    2.34
   1   0 -16   -3.27    1.40
   1   0 -16    0.21    2.04
  -1   0  16    1.90    2.56
  -1   0  16   -1.42    1.67
  -1   0  16    0.54    2.08
  -1   0  16   -1.09    1.74
   0   0 -16   -1.06    1.95
   0   0 -16   -0.53    1.86
   0   0 -16    2.67    1.85
   0   0 -16   -0.61    2.81
   0   0  16   -3.11    1.80
   0   0  16    0.41    2.39
  -1   0 -16    2.39    2.43
  -1   0 -16    1.28    3.38
  -1   0 -16    0.52    2.29
  -1   0 -16    2.40    2.13
   1   0  16   -0.54    2.19
   1   0  16    4.04    2.58
  -2   0 -16    3.44    4.12
  -2   0 -16    6.01    2.63
  -2   0 -16   11.00    3.61
  -2   0 -16    9.00    3.26
   2   0  16    2.76    2.30
   2   0  16   10.52    3.33
   2   0  16    7.40    3.17
  -3   0 -16   -1.72    3.12
   3   0  16    3.18    3.43
   3   0  16    4.39    2.21
   3   0  16    2.19    2.94
   3  -1 -16   -2.10    1.89
   3  -1 -16   -0.83    2.96
   3  -1 -16    1.61    2.96
  -3   1  16    0.85    3.17
  -3   1  16   -0.48    2.57
   2  -1 -16    7.24    3.59
   2  -1 -16    5.58    2.45
   2  -1 -16   -0.13    2.40
  -2   1  16   -0.42    3.24
  -2   1  16    4.41    2.25
  -2   1  16    3.94    2.37
   1  -1 -16    1.00    2.81
   1  -1 -16    0.59    2.04
   1  -1 -16   -1.03    2.15
  -1   1  16    0.99    1.70
  -1   1  16    1.55    2.45
  -1   1  16   -0.06    2.49
   0  -1 -16   12.17    3.86
   0  -1 -16   10.01    2.68
   0  -1 -16    1.14    2.37
   0  -1 -16    0.87    1.78
   0   1  16    5.19    2.19
   0   1  16    1.46    2.07
   0   1  16   12.41    3.16
  -1  -1 -16    2.05    2.44
  -1  -1 -16    1.32    2.25
  -1  -1 -16   -2.24    1.96
  -1  -1 -16    1.38    3.75
   1   1  16    4.76    2.65
   1   1  16    0.69    2.30
   1   1  16    2.67    1.86
  -2  -1 -16   -3.98    2.14
  -2  -1 -16   -0.59    4.26
  -2  -1 -16   -1.96    2.91
   2   1  16    0.34    2.57
   2   1  16    1.51    2.75
  -3  -1 -16    2.61    3.41
   3   1  16    1.74    3.21
   3   1  16   -1.51    1.80
   3   1  16    1.53    3.16
   3  -2 -16    1.48    2.46
   3  -2 -16   -0.79    2.78
   3  -2 -16   -0.13    3.25
  -3   2  16    2.70    2.64
   2  -2 -16   -2.09    1.81
   2  -2 -16    0.20    3.51
   2  -2 -16    1.24    2.63
  -2   2  16    4.94    3.36
  -2   2  16    3.98    2.31
  -2   2  16    2.03    2.24
   1  -2 -16   -1.55    2.34
   1  -2 -16   -0.52    1.84
   1  -2 -16   -3.28    2.48
  -1   2  16    0.36    2.13
  -1   2  16    0.86    2.75
  -1   2  16    1.39    2.66
  -1   2  16    1.13    1.94
   0  -2 -16    7.86    3.04
   0  -2 -16    6.02    2.67
   0  -2 -16   10.36    3.27
   0  -2 -16    8.90    4.09
   0   2  16   13.57    3.22
   0   2  16    8.70    2.70
   0   2  16    5.57    2.83
  -1  -2 -16    0.74    2.06
  -1  -2 -16    1.28    2.51
  -1  -2 -16   -0.80    2.59
  -1  -2 -16    8.14    4.32
   1   2  16    0.01    2.37
   1   2  16   -2.39    1.67
   1   2  16    1.62    2.59
  -2  -2 -16   -4.67    2.75
  -2  -2 -16    0.52    2.74
   2   2  16   -0.16    2.34
   2   2  16    0.74    2.00
   2   2  16   -1.14    2.62
   3  -3 -16    1.69    2.44
   3  -3 -16   -3.24    3.92
   3  -3 -16    4.84    3.41
  -3   3  16    2.58    2.80
   2  -3 -16   -0.31    3.19
   2  -3 -16    4.06    2.47
   2  -3 -16    2.93    2.98
  -2   3  16    7.18    2.75
  -2   3  16    1.38    2.29
   1  -3 -16    0.17    2.10
   1  -3 -16    2.42    3.70
   1  -3 -16    0.91    2.57
  -1   3  16   -1.15    2.02
  -1   3  16    1.47    2.61
  -1   3  16    2.45    2.95
  -1   3  16    0.53    2.02
   0  -3 -16    2.36    2.88
   0  -3 -16    0.56    2.02
   0  -3 -16   -3.58    2.12
   0  -3 -16    6.44    3.98
   0   3  16    0.24    1.77
   0   3  16    1.61    2.75
   0   3  16    0.22    2.54
  -1  -3 -16   -0.47    2.40
  -1  -3 -16    8.98    4.74
  -1  -3 -16   -1.84    2.53
  -1  -3 -16    0.16    3.00
   1   3  16    3.81    2.74
   1   3  16   -3.25    2.49
   1   3  16    3.01    2.06
  -2  -3 -16    5.38    3.90
  -2  -3 -16   -1.78    2.63
   2   3  16    4.21    2.25
   2   3  16    7.56    3.11
   2   3  16    3.58    3.21
   3  -4 -16   -1.82    4.28
   2  -4 -16    5.29    4.18
   2  -4 -16   -4.05    1.93
   2  -4 -16   -0.21    2.94
  -2   4  16   -0.41    2.27
  -2   4  16   -1.09    2.87
   1  -4 -16   -0.88    3.85
   1  -4 -16   -0.10    2.73
   1  -4 -16    0.48    2.31
  -1   4  16   -0.07    3.18
  -1   4  16   -1.56    1.78
  -1   4  16    2.62    2.88
  -1   4  16    5.88    2.45
   0  -4 -16    4.64    2.99
   0  -4 -16    6.04    4.20
   0  -4 -16    1.51    3.45
   0  -4 -16    1.17    2.36
   0   4  16    0.33    1.90
   0   4  16    3.37    3.11
   0   4  16    3.54    2.84
  -1  -4 -16    0.93    3.20
  -1  -4 -16   -5.10    2.22
  -1  -4 -16   -1.63    3.60
   1   4  16    2.21    2.08
   1   4  16    2.24    2.88
   1   4  16   -1.10    2.78
  -2  -4 -16   -1.90    3.18
  -2  -4 -16    7.06    4.56
   2   4  16    1.41    2.08
   2   4  16    0.05    2.80
   2   4  16    0.11    2.79
   2  -5 -16   -1.73    3.24
   2  -5 -16    4.13    4.00
   2  -5 -16   -0.56    2.48
  -2   5  16   -0.16    2.47
  -2   5  16    3.09    3.23
   1  -5 -16   -2.70    2.96
   1  -5 -16   -0.68    2.53
   1  -5 -16   -1.61    3.97
  -1   5  16    2.95    2.10
  -1   5  16   -0.34    3.04
  -1   5  16   -0.18    3.01
  -1   5  16    0.39    2.26
   0  -5 -16   -1.24    4.50
   0  -5 -16   -1.15    3.06
   0  -5 -16    0.55    4.19
   0  -5 -16    0.67    2.37
   0   5  16   -0.43    3.13
   0   5  16    1.08    2.04
   0   5  16   -3.69    2.89
  -1  -5 -16    7.22    4.46
  -1  -5 -16   -1.52    3.36
  -1  -5 -16   -0.64    2.54
   1   5  16    0.34    2.11
   1   5  16    0.27    2.93
   1   5  16    1.63    3.12
   1  -6 -16   -2.43    2.44
   1  -6 -16   -1.43    3.37
   1  -6 -16    6.23    5.05
  -1   6  16    1.57    3.67
  -1   6  16    0.77    2.24
  -1   6  16   -0.54    3.21
  -1   6  16    2.89    2.57
   0  -6 -16   -5.96    4.28
   0  -6 -16   -1.04    2.45
   0  -6 -16    2.18    3.75
   0   6  16    2.01    2.15
   0   6  16   -4.47    3.04
   0   6  16   -0.88    3.39
   1  10 -17   -1.08    2.50
   1  10 -17    0.30    3.06
   1  10 -17    0.76    2.25
  -1 -10  17   -1.58    3.41
  -1 -10  17    2.21    3.76
  -1 -10  17    3.66    4.92
   0  10 -17   -3.35    2.31
   0  10 -17   -2.33    1.85
   0 -10  17   -2.55    2.93
   0 -10  17    7.38    4.01
   0 -10  17    4.51    4.74
  -1  10 -17    3.07    2.75
  -1  10 -17   -0.66    1.98
   1 -10  17   -0.61    2.59
   1 -10  17    6.50    4.13
   1 -10  17    3.41    4.08
   2   9 -17    3.26    3.56
   1   9 -17    9.06    3.66
   1   9 -17    2.07    2.02
   1   9 -17    2.18    2.69
  -1  -9  17    0.47    3.42
  -1  -9  17    9.16    3.85
  -1  -9  17    0.81    3.94
   0   9 -17    4.80    3.08
   0   9 -17    0.25    1.96
   0   9 -17    1.28    2.51
   0  -9  17    3.07    3.09
   0  -9  17    0.07    4.13
   0  -9  17   -1.05    3.46
  -1   9 -17    0.75    1.92
  -1   9 -17   -1.29    2.41
   1  -9  17   -4.92    2.38
   1  -9  17    4.33    3.72
   1  -9  17   -0.71    3.61
  -2   9 -17    3.68    4.57
  -2   9 -17   -1.09    2.37
   2  -9  17   -3.19    3.85
   2  -9  17   -6.20    3.76
   2  -9  17   -0.58    2.87
   2   8 -17    3.27    3.19
   2   8 -17    0.68    1.91
   2   8 -17    5.24    2.93
  -2  -8  17   -2.05    4.54
  -2  -8  17    3.29    3.37
  -2  -8  17    1.48    5.13
   1   8 -17    3.26    3.11
   1   8 -17    0.20    2.32
   1   8 -17   -0.83    1.77
  -1  -8  17    2.09    3.28
  -1  -8  17    2.98    2.91
  -1  -8  17    3.55    3.99
   0   8 -17    4.00    2.71
   0   8 -17    1.25    1.77
   0   8 -17   -0.32    2.17
   0  -8  17    1.57    2.77
   0  -8  17   -2.27    2.90
  -1   8 -17   -0.06    2.07
  -1   8 -17   -0.45    2.26
   1  -8  17    3.97    3.24
   1  -8  17   -0.74    3.22
   1  -8  17    0.77    2.31
  -2   8 -17   -2.46    3.76
  -2   8 -17   -0.73    2.32
   2  -8  17   -0.31    3.77
   2  -8  17   -0.60    2.21
   2  -8  17    1.28    3.39
   2   7 -17    0.91    1.94
   2   7 -17   -2.89    2.46
   2   7 -17   -2.22    2.41
  -2  -7  17    4.87    3.96
  -2  -7  17    7.38    3.44
   1   7 -17    1.52    2.52
   1   7 -17    0.80    1.79
   1   7 -17    0.38    2.20
  -1  -7  17    0.05    2.60
  -1  -7  17   -2.89    3.07
  -1  -7  17    0.02    3.03
   0   7 -17    1.71    2.20
   0   7 -17   -1.60    2.41
   0   7 -17    0.30    1.90
   0  -7  17   -1.37    2.49
   0  -7  17    5.33    3.37
  -1   7 -17    4.37    3.02
  -1   7 -17    0.24    2.05
  -1   7 -17    1.80    2.32
   1  -7  17    0.62    3.15
   1  -7  17   -2.10    2.76
   1  -7  17   -0.56    2.30
  -2   7 -17   -7.23    3.21
  -2   7 -17    0.79    2.41
   2  -7  17   -2.37    2.33
   2  -7  17    2.34    3.47
   2  -7  17    2.63    3.70
   2  -7  17   -2.06    3.31
   3   6 -17    0.52    2.98
   3   6 -17    1.04    3.01
   3   6 -17   -0.86    1.84
  -3  -6  17    1.66    4.66
   2   6 -17   -1.90    2.31
   2   6 -17   -0.09    2.29
   2   6 -17    0.41    1.94
  -2  -6  17    2.45    2.92
  -2  -6  17    1.38    3.85
   1   6 -17   11.71    3.83
   1   6 -17   13.18    3.19
   1   6 -17   14.52    3.49
  -1  -6  17   11.96    4.50
  -1  -6  17   13.46    3.87
  -1  -6  17   12.06    3.51
   0   6 -17   -0.30    2.14
   0   6 -17    0.64    1.79
   0   6 -17   -0.70    2.10
   0  -6  17   -0.52    2.74
   0  -6  17   -0.52    2.46
  -1   6 -17    0.87    2.51
  -1   6 -17    0.79    2.05
  -1   6 -17    0.93    2.05
   1  -6  17   -1.97    3.01
   1  -6  17    4.35    2.87
   1  -6  17   -2.09    2.92
   1  -6  17    0.04    2.10
  -2   6 -17    0.01    3.71
  -2   6 -17   -0.37    2.19
   2  -6  17    2.10    2.72
   2  -6  17    5.44    3.34
   2  -6  17   -4.06    2.93
   2  -6  17    2.58    3.29
  -3   6 -17   -8.29    3.67
   3  -6  17   -0.07    2.68
   3  -6  17    0.75    4.08
   3  -6  17    0.48    3.91
   3   5 -17   -0.06    1.95
   3   5 -17   -1.55    2.45
   3   5 -17   -3.46    2.49
  -3  -5  17    2.33    4.54
   2   5 -17    4.31    2.57
   2   5 -17   -0.92    1.86
   2   5 -17    4.31    2.68
  -2  -5  17   -4.87    3.59
  -2  -5  17    4.45    2.86
   1   5 -17    4.84    2.75
   1   5 -17    4.99    2.43
   1   5 -17    3.35    2.07
  -1  -5  17    9.61    4.34
  -1  -5  17    2.58    2.48
  -1  -5  17    3.58    2.84
   0   5 -17   -0.28    1.46
   0   5 -17   -1.99    2.08
   0   5 -17   -0.90    1.79
   0  -5  17   -1.23    1.89
   0  -5  17    3.99    2.87
  -1   5 -17   19.82    3.64
  -1   5 -17    9.55    3.01
  -1   5 -17   11.58    3.80
   1  -5  17    4.88    2.69
   1  -5  17    8.67    3.22
   1  -5  17   11.31    3.35
   1  -5  17   10.91    3.79
  -2   5 -17   -5.93    3.24
  -2   5 -17    3.42    2.35
  -2   5 -17    5.32    2.61
   2  -5  17   -1.87    2.92
   2  -5  17   -0.23    2.88
   2  -5  17    5.63    2.89
   2  -5  17    2.60    2.96
  -3   5 -17    6.11    4.10
  -3   5 -17    4.53    3.18
   3  -5  17    4.42    3.32
   3  -5  17   -2.34    3.41
   3  -5  17    0.04    3.65
   3  -5  17    3.57    2.67
   3   4 -17    1.05    2.75
   3   4 -17    0.98    1.98
   3   4 -17   -0.77    2.89
  -3  -4  17   -2.29    4.08
   2   4 -17    5.46    3.06
   2   4 -17    2.62    1.93
   2   4 -17    0.24    2.25
  -2  -4  17    2.30    2.56
  -2  -4  17   -0.88    4.16
   1   4 -17   -0.53    1.45
   1   4 -17    0.59    2.10
   1   4 -17    1.36    2.63
  -1  -4  17    2.76    2.45
  -1  -4  17   -0.79    2.62
   0   4 -17   -0.42    1.53
   0   4 -17    3.74    2.29
   0   4 -17   -3.18    1.94
   0  -4  17    1.98    1.96
   0  -4  17   -0.41    2.31
   0  -4  17    2.60    2.64
  -1   4 -17    0.60    1.73
  -1   4 -17    1.80    1.95
  -1   4 -17    0.70    2.91
  -1   4 -17    0.93    1.86
   1  -4  17   -1.39    1.86
   1  -4  17   -3.91    2.04
   1  -4  17   -0.43    2.21
   1  -4  17    0.66    2.82
  -2   4 -17   -1.29    2.61
  -2   4 -17    0.08    2.22
  -2   4 -17    1.27    2.30
  -2   4 -17   -5.26    3.28
   2  -4  17    5.24    3.09
   2  -4  17    5.39    3.12
   2  -4  17    0.75    2.75
   2  -4  17    2.56    2.47
  -3   4 -17    3.46    3.06
   3  -4  17    2.66    3.53
   3  -4  17    1.05    2.17
   3  -4  17   -0.33    3.70
   3  -4  17    2.57    3.57
   3   3 -17   -3.78    2.49
   3   3 -17   -1.08    1.95
   3   3 -17   -0.26    3.10
  -3  -3  17   -0.64    3.94
   2   3 -17   -0.41    2.25
   2   3 -17   -0.54    2.34
   2   3 -17   -2.69    1.55
  -2  -3  17   -0.02    2.43
  -2  -3  17   -1.39    3.76
   1   3 -17   12.37    2.99
   1   3 -17   10.57    3.12
   1   3 -17    6.87    3.30
  -1  -3  17   12.81    3.37
  -1  -3  17   10.66    3.03
   0   3 -17    4.19    3.05
   0   3 -17    2.03    2.20
   0   3 -17    1.48    1.79
   0  -3  17   -0.16    2.35
   0  -3  17   -1.40    1.76
   0  -3  17    1.82    2.24
  -1   3 -17    0.16    1.98
  -1   3 -17    2.57    2.05
  -1   3 -17    0.33    3.09
  -1   3 -17   -0.32    1.79
   1  -3  17    6.04    2.85
   1  -3  17    3.99    2.47
   1  -3  17    0.28    2.00
   1  -3  17   -0.55    2.36
  -2   3 -17    1.69    2.54
  -2   3 -17    0.97    2.66
  -2   3 -17    3.35    3.44
  -2   3 -17    3.70    3.64
  -2   3 -17    1.26    2.22
   2  -3  17   -0.14    2.82
   2  -3  17    1.75    2.21
   2  -3  17    0.01    2.63
   2  -3  17    4.48    2.70
  -3   3 -17   -0.78    2.79
   3  -3  17   -0.89    3.42
   3  -3  17    5.73    3.79
   3  -3  17    1.07    3.51
   3  -3  17   -0.93    1.92
   3   2 -17    3.59    2.28
   3   2 -17    2.65    2.91
   3   2 -17   -0.83    2.66
  -3  -2  17    1.98    4.18
   2   2 -17    5.51    3.42
   2   2 -17    9.90    2.76
   2   2 -17    5.06    2.63
  -2  -2  17    6.68    2.85
  -2  -2  17    1.17    3.88
   1   2 -17   -0.13    2.06
   1   2 -17    2.09    1.90
   1   2 -17   -1.56    2.23
  -1  -2  17    0.67    2.33
  -1  -2  17    0.36    1.90
   0   2 -17    1.90    1.73
   0   2 -17   -3.80    1.63
   0   2 -17    1.07    2.70
   0   2 -17   -1.40    1.62
   0  -2  17    0.92    2.16
   0  -2  17   -1.82    2.11
   0  -2  17    1.51    1.97
  -1   2 -17    5.43    2.41
  -1   2 -17    1.90    2.27
  -1   2 -17    9.52    3.72
  -1   2 -17    4.12    2.58
   1  -2  17    4.15    2.24
   1  -2  17    8.26    2.51
   1  -2  17    7.58    2.88
   1  -2  17   10.15    3.14
  -2   2 -17   -0.95    2.10
  -2   2 -17    0.64    2.67
  -2   2 -17   -3.84    3.25
  -2   2 -17    7.30    4.51
   2  -2  17    0.48    1.89
   2  -2  17   -4.12    2.08
   2  -2  17    2.22    2.64
   2  -2  17   -1.12    2.58
  -3   2 -17   -1.31    2.94
   3  -2  17    0.46    2.21
   3  -2  17    4.37    3.20
   3  -2  17    2.10    3.53
   3  -2  17    0.23    3.46
   3   1 -17   -0.95    1.91
   3   1 -17    0.22    2.73
   3   1 -17    0.50    3.39
  -3  -1  17    0.66    3.30
   2   1 -17   -0.49    2.32
   2   1 -17    3.51    2.74
   2   1 -17    0.71    1.81
  -2  -1  17   -3.31    3.69
  -2  -1  17   -0.66    2.13
   1   1 -17    0.87    2.80
   1   1 -17    4.70    2.49
   1   1 -17   -1.26    1.65
  -1  -1  17    2.41    2.70
  -1  -1  17    3.82    2.54
  -1  -1  17    1.58    2.00
   0   1 -17   14.10    2.93
   0   1 -17   11.34    3.78
   0   1 -17    7.52    2.45
   0   1 -17    8.21    2.93
   0  -1  17   11.14    3.03
   0  -1  17    4.93    2.22
   0  -1  17    7.68    2.83
  -1   1 -17   -1.30    2.29
  -1   1 -17    1.28    1.96
  -1   1 -17    3.51    2.42
  -1   1 -17    1.29    3.55
   1  -1  17    3.08    2.30
   1  -1  17    0.99    2.10
   1  -1  17    3.60    2.53
   1  -1  17    1.62    2.66
  -2   1 -17    0.07    2.77
  -2   1 -17   -0.03    4.37
  -2   1 -17    0.75    2.32
   2  -1  17   -0.90    2.64
   2  -1  17   -2.65    2.71
   2  -1  17   -0.85    1.94
   2  -1  17   -0.90    2.53
  -3   1 -17   -1.04    3.18
   3  -1  17    5.95    3.91
   3  -1  17    4.15    2.38
   3  -1  17    1.54    3.79
   3  -1  17    4.86    3.49
   3   0 -17   -0.64    2.93
   3   0 -17    0.71    2.05
   3   0 -17   -3.83    2.60
  -3   0  17    6.90    4.04
  -3   0  17    4.88    3.11
   2   0 -17    2.30    2.08
   2   0 -17    3.41    3.29
   2   0 -17   -0.56    2.26
  -2   0  17    4.54    4.13
  -2   0  17   -0.91    2.16
  -2   0  17   -5.11    1.91
   1   0 -17    2.71    2.45
   1   0 -17   -0.35    2.43
   1   0 -17    0.13    1.81
  -1   0  17    1.32    2.02
  -1   0  17    5.16    2.57
  -1   0  17    2.24    2.82
  -1   0  17   -1.01    1.72
   0   0 -17    1.23    2.03
   0   0 -17    1.55    2.33
   0   0 -17   -0.73    3.20
   0   0 -17   -3.04    1.89
   0   0  17   -0.08    2.21
   0   0  17   -1.80    1.64
   0   0  17   -0.89    2.30
  -1   0 -17    0.07    2.45
  -1   0 -17    4.89    4.10
  -1   0 -17    0.65    2.35
  -1   0 -17   -0.40    1.93
   1   0  17    1.00    2.39
   1   0  17    2.71    2.65
   1   0  17    0.94    1.95
  -2   0 -17    5.76    4.72
  -2   0 -17   -2.62    2.11
  -2   0 -17   -0.48    2.85
   2   0  17    0.81    2.86
   2   0  17    1.27    2.06
   2   0  17   -2.16    2.68
  -3   0 -17    2.09    3.72
   3   0  17    1.89    3.32
   3   0  17    1.44    3.34
   3   0  17   -0.51    2.10
   3  -1 -17    0.90    2.32
   3  -1 -17   -3.14    3.42
   3  -1 -17   -2.11    2.80
  -3   1  17   -0.85    2.70
   2  -1 -17    4.43    2.35
   2  -1 -17    6.24    3.47
   2  -1 -17    6.41    3.21
  -2   1  17    6.75    2.58
  -2   1  17    1.34    2.36
  -2   1  17    4.00    3.91
   1  -1 -17   -1.84    2.13
   1  -1 -17    0.97    2.32
   1  -1 -17    1.49    1.90
   1  -1 -17   -0.33    3.14
  -1   1  17   -0.09    1.76
  -1   1  17   -2.74    2.65
  -1   1  17   -0.89    2.48
   0  -1 -17   -0.43    3.38
   0  -1 -17    2.20    2.46
   0  -1 -17   -0.66    1.84
   0  -1 -17   -2.90    2.03
   0   1  17   -0.91    2.48
   0   1  17    2.07    2.38
  -1  -1 -17   -1.13    3.87
  -1  -1 -17    1.74    2.69
  -1  -1 -17    7.47    3.04
  -1  -1 -17    3.99    2.34
   1   1  17    2.80    2.82
   1   1  17    2.44    2.65
  -2  -1 -17   -1.44    3.05
  -2  -1 -17   -1.37    2.52
  -2  -1 -17    3.49    5.50
   2   1  17   -1.32    2.57
   2   1  17   -1.73    2.86
   3  -2 -17   -2.02    2.24
   3  -2 -17    0.44    3.99
   3  -2 -17   -4.68    2.96
  -3   2  17    0.37    2.61
   2  -2 -17   -2.25    3.02
   2  -2 -17   -1.09    2.11
   2  -2 -17   -2.77    2.37
  -2   2  17   -0.44    2.32
  -2   2  17    3.11    2.41
   1  -2 -17    3.27    3.74
   1  -2 -17    1.75    2.25
   1  -2 -17    1.64    2.50
  -1   2  17   -0.99    2.07
  -1   2  17    5.77    2.33
  -1   2  17    1.61    3.05
  -1   2  17   -2.09    2.61
   0  -2 -17    6.14    3.11
   0  -2 -17    4.90    2.65
   0  -2 -17    8.82    4.48
   0  -2 -17    3.80    3.05
   0   2  17    5.34    2.80
   0   2  17    3.59    2.97
   0   2  17    5.28    2.47
  -1  -2 -17    1.16    2.71
  -1  -2 -17   -5.34    2.61
  -1  -2 -17    3.91    2.51
  -1  -2 -17   -0.26    4.05
   1   2  17    3.21    2.80
   1   2  17    3.08    2.16
   1   2  17   -1.18    2.32
  -2  -2 -17    1.25    2.90
  -2  -2 -17   -2.56    3.13
   2   2  17    0.15    2.09
   2   2  17   -2.33    2.53
   2   2  17    1.02    2.93
   3  -3 -17   -3.91    3.53
   2  -3 -17   -1.01    2.11
   2  -3 -17    1.27    2.72
   2  -3 -17    3.15    4.13
  -2   3  17   -2.16    2.49
  -2   3  17    2.17    2.48
   1  -3 -17   -2.81    3.10
   1  -3 -17    0.68    2.07
   1  -3 -17   -1.81    2.57
  -1   3  17   -3.61    1.99
  -1   3  17    2.38    2.96
  -1   3  17    0.24    2.64
  -1   3  17   -0.24    2.14
   0  -3 -17    0.25    3.99
   0  -3 -17    2.60    3.21
   0  -3 -17   -0.90    2.71
   0  -3 -17   -0.22    1.98
   0   3  17    0.83    1.90
   0   3  17    0.14    2.73
   0   3  17   -1.09    2.70
  -1  -3 -17   -0.61    3.47
  -1  -3 -17    0.37    2.56
  -1  -3 -17    0.81    7.36
  -1  -3 -17    3.18    3.16
   1   3  17    4.88    3.11
   1   3  17    2.64    3.01
   1   3  17    2.17    2.39
  -2  -3 -17    1.47    3.82
  -2  -3 -17   -2.49    3.11
   2   3  17   -1.19    2.98
   2   3  17   -6.01    2.68
   2   3  17    2.65    2.29
   2  -4 -17    8.57    4.85
   2  -4 -17    4.13    2.65
   2  -4 -17   -0.01    3.27
  -2   4  17    3.14    2.81
  -2   4  17   -2.62    3.01
   1  -4 -17   -0.30    2.32
   1  -4 -17    3.17    3.71
   1  -4 -17   -0.86    2.86
  -1   4  17   -6.33    2.69
  -1   4  17    2.35    2.19
  -1   4  17   -3.08    2.94
  -1   4  17    0.92    2.48
   0  -4 -17   -0.38    2.16
   0  -4 -17    0.76    3.13
   0  -4 -17    7.93    4.85
   0  -4 -17    0.35    3.43
   0   4  17   -1.24    2.93
   0   4  17    6.73    3.31
   0   4  17    1.86    2.04
  -1  -4 -17    3.20    4.10
  -1  -4 -17   -2.46    3.21
  -1  -4 -17    3.51    2.94
   1   4  17   -0.06    3.05
   1   4  17    0.25    3.06
   1   4  17    0.50    2.31
   1  -5 -17   -2.33    3.04
   1  -5 -17    0.96    4.54
   1  -5 -17    1.57    2.39
  -1   5  17   -0.92    3.50
  -1   5  17   -4.76    3.09
  -1   5  17    2.52    2.55
   0  -5 -17   -0.86    2.83
   0  -5 -17   -2.86    3.69
   0  -5 -17   -0.37    2.79
   0   5  17    4.61    2.47
   0   5  17    4.20    3.41
   0   5  17    7.28    3.81
   1   5  17    3.38    3.64
   0  10 -18   -2.39    3.40
   0  10 -18   -1.25    1.90
   0 -10  18    5.32    6.08
   0 -10  18    4.47    3.35
   0 -10  18    5.74    4.00
   1   9 -18    6.71    3.69
   1   9 -18   -0.37    1.86
   1   9 -18   -1.50    2.55
  -1  -9  18   -0.13    3.60
  -1  -9  18   -1.05    3.04
  -1  -9  18    3.34    4.84
   0   9 -18    0.70    2.77
   0   9 -18   -2.02    2.48
   0   9 -18   -1.71    1.98
   0  -9  18   -0.35    3.10
   0  -9  18   -0.01    4.91
   0  -9  18    3.16    3.93
  -1   9 -18    4.64    2.95
  -1   9 -18   -1.92    1.87
   1  -9  18    0.31    4.10
   1  -9  18    3.01    3.44
   1  -9  18    1.42    3.56
   2   8 -18    2.08    2.91
   2   8 -18   -0.19    1.86
   2   8 -18    3.75    3.16
  -2  -8  18   -6.58    3.82
  -2  -8  18   -1.56    3.62
   1   8 -18    0.33    2.06
   1   8 -18   -0.34    2.40
   1   8 -18    0.35    2.98
  -1  -8  18    4.01    3.65
  -1  -8  18   -0.50    4.29
  -1  -8  18   -0.63    3.23
   0   8 -18   -0.53    1.86
   0   8 -18   -2.26    2.04
   0   8 -18   -1.90    2.61
   0  -8  18    2.85    3.47
   0  -8  18    0.32    2.77
  -1   8 -18   -0.09    2.55
  -1   8 -18    2.58    2.21
   1  -8  18   -1.11    3.42
   1  -8  18   -0.19    3.08
   1  -8  18    2.67    2.74
  -2   8 -18   -0.96    2.36
  -2   8 -18    1.01    4.35
   2  -8  18   -1.16    3.66
   2  -8  18   -1.31    2.36
   2  -8  18    4.74    3.98
   2   7 -18    1.05    2.05
   2   7 -18   -0.67    2.73
   2   7 -18    3.63    3.31
  -2  -7  18   -2.33    3.25
  -2  -7  18    3.76    4.41
   1   7 -18    1.95    3.05
   1   7 -18    0.10    1.73
   1   7 -18   -2.76    2.27
  -1  -7  18    2.24    3.27
  -1  -7  18    2.24    2.72
  -1  -7  18    8.35    4.31
   0   7 -18    1.79    2.36
   0   7 -18    4.88    2.53
   0   7 -18    9.14    3.23
   0  -7  18    8.28    3.70
   0  -7  18    4.42    3.08
  -1   7 -18   -1.75    2.01
  -1   7 -18    0.26    2.27
  -1   7 -18   -4.20    2.15
   1  -7  18    0.86    2.70
   1  -7  18   -1.57    3.33
   1  -7  18   -2.39    2.90
  -2   7 -18   -3.26    3.87
  -2   7 -18    0.93    2.45
   2  -7  18   -0.40    2.81
   2  -7  18    2.77    3.63
   2  -7  18   -0.95    3.41
   2   6 -18    2.53    2.69
   2   6 -18    0.71    2.07
   2   6 -18   -2.25    2.86
  -2  -6  18   -3.14    4.03
  -2  -6  18   -0.48    3.00
   1   6 -18    5.63    2.76
   1   6 -18    9.78    2.61
   1   6 -18    8.62    3.36
  -1  -6  18    8.70    4.27
  -1  -6  18    0.82    2.95
  -1  -6  18   11.49    3.83
   0   6 -18    2.00    2.10
   0   6 -18    1.08    2.32
   0   6 -18    1.06    2.51
   0  -6  18    7.08    3.56
   0  -6  18    0.77    2.54
  -1   6 -18    0.42    1.88
  -1   6 -18    2.41    2.83
  -1   6 -18   -1.79    2.28
   1  -6  18    2.43    2.74
   1  -6  18    2.93    3.20
   1  -6  18   -2.35    2.80
   1  -6  18   -0.83    2.43
  -2   6 -18   -1.21    2.25
  -2   6 -18   -2.96    4.03
   2  -6  18   -0.28    3.02
   2  -6  18   -3.46    2.16
   2  -6  18    1.20    3.42
   2  -6  18   -0.42    2.99
   3   5 -18    0.15    3.10
   3   5 -18   -6.03    2.41
   3   5 -18    0.35    2.11
  -3  -5  18    2.88    4.78
   2   5 -18   -3.32    2.16
   2   5 -18   -0.44    2.38
   2   5 -18    0.66    1.93
  -2  -5  18   -3.84    4.31
  -2  -5  18   -4.41    2.66
   1   5 -18    2.27    3.05
   1   5 -18    1.63    2.37
   1   5 -18    3.26    2.03
  -1  -5  18    3.24    2.85
  -1  -5  18    0.95    2.91
  -1  -5  18    4.45    3.84
   0   5 -18   -0.25    1.65
   0   5 -18   -0.79    2.07
   0   5 -18    0.46    2.72
   0  -5  18    3.18    2.58
   0  -5  18    1.13    2.93
  -1   5 -18   -2.90    2.15
  -1   5 -18    1.16    1.87
  -1   5 -18    0.44    2.96
   1  -5  18    5.80    3.40
   1  -5  18    2.15    2.45
   1  -5  18    5.57    2.93
   1  -5  18   -0.59    2.66
  -2   5 -18  -15.51    3.49
  -2   5 -18    0.60    2.52
  -2   5 -18   -0.74    2.19
   2  -5  18   -2.20    1.97
   2  -5  18    0.43    2.96
   2  -5  18    0.02    2.84
   2  -5  18    0.68    3.10
   3  -5  18   -1.25    2.17
   3  -5  18    5.03    3.92
   3   4 -18    0.51    2.93
   3   4 -18    2.69    3.26
   3   4 -18    4.33    2.42
  -3  -4  18    1.21    4.59
   2   4 -18    0.96    3.06
   2   4 -18   -0.92    2.27
   2   4 -18   -2.49    1.51
  -2  -4  18    1.35    2.67
  -2  -4  18   -1.06    3.83
   1   4 -18   -0.66    1.63
   1   4 -18    5.18    2.50
   1   4 -18    0.12    2.90
  -1  -4  18   -1.19    2.25
  -1  -4  18    0.50    2.81
   0   4 -18    2.66    1.91
   0   4 -18    0.90    2.80
   0   4 -18    5.06    2.56
   0  -4  18   -1.19    2.78
   0  -4  18    1.44    2.14
   0  -4  18    2.82    2.61
  -1   4 -18    3.07    2.30
  -1   4 -18   -1.54    1.75
  -1   4 -18   -0.53    3.14
   1  -4  18    0.24    2.31
   1  -4  18   -2.90    2.74
   1  -4  18    3.25    2.17
   1  -4  18    2.34    2.70
  -2   4 -18   -0.30    2.38
  -2   4 -18    0.26    4.04
  -2   4 -18    1.88    2.50
   2  -4  18    5.31    3.30
   2  -4  18    6.74    3.13
   2  -4  18    0.35    2.50
   2  -4  18    2.34    2.99
  -3   4 -18    1.13    3.01
   3  -4  18   -1.34    3.59
   3  -4  18   -0.90    2.07
   3  -4  18   -2.09    3.42
   3   3 -18    1.11    2.14
   3   3 -18   -3.43    2.51
   3   3 -18   -3.80    2.90
  -3  -3  18   -2.67    4.92
   2   3 -18    1.44    2.44
   2   3 -18   -1.12    2.79
   2   3 -18    2.97    2.15
  -2  -3  18    6.99    4.85
  -2  -3  18   -2.33    2.39
   1   3 -18    9.99    2.64
   1   3 -18    5.51    3.39
   1   3 -18    9.30    3.09
  -1  -3  18   12.82    3.53
  -1  -3  18    9.05    3.28
   0   3 -18    1.32    2.29
   0   3 -18    0.12    1.57
   0   3 -18    0.74    2.86
   0  -3  18   -3.10    1.61
   0  -3  18    4.43    2.67
   0  -3  18    1.12    2.74
  -1   3 -18    0.69    2.04
  -1   3 -18   -0.49    2.03
  -1   3 -18   -1.91    2.57
  -1   3 -18    0.19    2.17
   1  -3  18    0.48    2.58
   1  -3  18    3.16    2.74
   1  -3  18    1.17    1.99
   1  -3  18   -1.02    2.03
  -2   3 -18   -1.26    2.29
  -2   3 -18    3.08    4.25
  -2   3 -18   -2.77    2.40
   2  -3  18    2.04    2.22
   2  -3  18    3.73    3.01
   2  -3  18    1.80    3.21
   2  -3  18    0.90    2.72
  -3   3 -18    5.43    3.33
   3  -3  18    1.20    2.29
   3  -3  18    0.46    3.47
   3  -3  18   -1.62    3.53
   3   2 -18    0.06    2.72
   3   2 -18    0.97    2.15
   3   2 -18    4.50    3.54
  -3  -2  18   -2.75    4.31
   2   2 -18    0.56    2.42
   2   2 -18    8.20    3.41
   2   2 -18    4.53    2.38
  -2  -2  18   -0.64    3.92
  -2  -2  18   -0.37    2.39
   1   2 -18    3.26    3.08
   1   2 -18    1.24    2.38
   1   2 -18    0.52    1.71
  -1  -2  18    1.07    2.12
  -1  -2  18    4.91    2.92
   0   2 -18    0.43    1.80
   0   2 -18    3.09    3.22
   0   2 -18   -2.72    2.03
   0  -2  18    1.92    2.48
   0  -2  18    0.24    2.01
   0  -2  18   -3.44    2.07
  -1   2 -18    6.40    2.98
  -1   2 -18    5.97    2.96
  -1   2 -18    8.13    2.69
  -1   2 -18   16.65    5.04
   1  -2  18   11.59    3.27
   1  -2  18   16.43    3.19
   1  -2  18    8.57    3.21
   1  -2  18   10.10    2.97
  -2   2 -18   -1.15    2.13
  -2   2 -18    0.18    2.73
  -2   2 -18   -2.30    3.85
   2  -2  18    0.96    2.84
   2  -2  18    0.67    2.32
   2  -2  18    0.39    3.09
   2  -2  18    6.84    3.31
   3  -2  18    4.87    3.72
   3  -2  18    0.02    2.10
   3  -2  18    1.18    3.56
   3   1 -18   -0.19    2.11
   3   1 -18    0.85    3.01
   3   1 -18   -1.22    3.33
  -3  -1  18    4.07    4.71
   2   1 -18    1.68    2.82
   2   1 -18   -0.56    1.75
   2   1 -18   -0.13    2.45
  -2  -1  18    1.37    2.42
  -2  -1  18   -4.49    3.76
   1   1 -18    1.60    2.09
   1   1 -18   -0.02    2.17
   1   1 -18    7.13    3.69
  -1  -1  18    3.10    2.90
  -1  -1  18   -1.31    2.53
  -1  -1  18   -0.17    1.93
   0   1 -18    0.98    1.82
   0   1 -18    2.16    2.48
   0   1 -18   -0.01    3.14
   0   1 -18   -0.75    2.49
   0  -1  18   -2.90    2.18
   0  -1  18    1.68    2.44
   0  -1  18    1.87    1.91
  -1   1 -18    0.00    2.51
  -1   1 -18   -0.13    1.94
  -1   1 -18    2.98    4.04
  -1   1 -18    2.78    2.57
   1  -1  18   -1.22    2.13
   1  -1  18   -0.26    2.06
   1  -1  18    4.23    2.58
   1  -1  18    0.14    2.63
  -2   1 -18    1.22    2.46
  -2   1 -18    2.77    2.92
  -2   1 -18   -1.63    4.46
   2  -1  18   -2.26    2.71
   2  -1  18   -2.79    2.94
   2  -1  18   -0.42    2.00
   2  -1  18   -0.87    2.99
   3   0 -18    2.96    2.36
   3   0 -18    1.86    3.35
   3   0 -18   -2.14    2.81
  -3   0  18    3.61    4.16
   2   0 -18    1.97    2.63
   2   0 -18   -2.95    2.96
   2   0 -18    1.86    2.27
  -2   0  18   -4.06    3.88
  -2   0  18   -4.61    2.19
  -2   0  18    1.43    2.53
   1   0 -18    5.83    2.91
   1   0 -18    6.85    2.56
   1   0 -18    6.49    3.79
  -1   0  18    7.18    2.58
  -1   0  18   10.39    3.96
  -1   0  18    5.29    3.30
  -1   0  18    7.24    2.84
   0   0 -18   -1.99    2.04
   0   0 -18    1.72    2.49
   0   0 -18   -0.63    1.75
   0   0 -18   -2.31    3.15
   0   0  18    1.15    1.70
   0   0  18   -1.83    2.21
   0   0  18   -2.79    2.69
  -1   0 -18   -1.70    2.62
  -1   0 -18    1.89    3.89
  -1   0 -18   -0.13    2.48
  -1   0 -18   -1.76    1.86
   1   0  18    1.42    2.76
   1   0  18   -0.57    2.83
   1   0  18   -1.52    1.82
  -2   0 -18    0.82    5.03
  -2   0 -18    0.73    2.53
  -2   0 -18    1.48    3.35
   2   0  18    4.83    3.24
   2   0  18    3.39    2.99
   2   0  18   -1.30    1.92
   3  -1 -18   -4.63    2.80
   3  -1 -18    4.54    3.73
   3  -1 -18    1.87    2.64
  -3   1  18   -0.66    2.85
   2  -1 -18    5.83    2.72
   2  -1 -18   -2.32    2.64
   2  -1 -18    8.01    4.20
  -2   1  18    1.92    2.71
  -2   1  18    1.63    4.20
  -2   1  18    2.07    2.49
   1  -1 -18    1.94    2.26
   1  -1 -18    5.08    2.88
   1  -1 -18    1.92    3.53
  -1   1  18   -2.14    2.75
  -1   1  18   -1.78    2.42
   0  -1 -18    2.26    2.73
   0  -1 -18   -1.02    2.64
   0  -1 -18    4.39    4.05
   0  -1 -18    0.24    2.40
   0   1  18    1.48    2.54
   0   1  18    0.42    2.77
  -1  -1 -18    3.25    2.93
  -1  -1 -18    5.14    3.06
  -1  -1 -18    5.93    2.88
  -1  -1 -18    6.19    5.04
   1   1  18    7.00    3.19
   1   1  18    6.96    3.32
  -2  -1 -18   -1.63    3.35
  -2  -1 -18   -1.46    2.73
   2   1  18    2.89    3.04
   2   1  18    2.50    3.10
   2  -2 -18    5.73    4.50
   2  -2 -18    2.36    3.04
   2  -2 -18    2.55    2.29
  -2   2  18    3.73    2.70
  -2   2  18   -2.21    2.20
   1  -2 -18   -0.93    3.96
   1  -2 -18   -0.15    2.29
   1  -2 -18   -1.04    2.79
   1  -2 -18    5.02    3.65
  -1   2  18    2.95    3.13
  -1   2  18    1.72    3.17
   0  -2 -18    1.53    2.77
   0  -2 -18    7.31    4.50
   0  -2 -18   -2.89    2.16
   0  -2 -18    8.48    3.40
   0   2  18    1.15    2.95
   0   2  18    4.61    3.03
   0   2  18    2.51    2.46
  -1  -2 -18    6.45    5.09
  -1  -2 -18    3.99    3.31
  -1  -2 -18   -3.02    2.67
  -1  -2 -18   -0.33    2.20
   1   2  18    2.14    3.17
   1   2  18   -1.23    2.60
   1   2  18   -0.84    2.15
  -2  -2 -18   -3.23    2.88
  -2  -2 -18   -6.35    3.12
   2   2  18    0.96    2.84
   2   2  18    1.23    3.24
   2  -3 -18    0.09    3.19
   2  -3 -18    1.25    2.42
   2  -3 -18   -1.37    3.75
  -2   3  18   -2.21    2.66
  -2   3  18   -1.11    2.45
   1  -3 -18    4.94    3.33
   1  -3 -18   -1.00    1.97
   1  -3 -18   -0.12    4.20
  -1   3  18    2.64    2.57
  -1   3  18    0.82    3.20
  -1   3  18    4.50    3.14
   0  -3 -18   -4.94    2.56
   0  -3 -18    0.37    4.40
   0  -3 -18    1.83    2.40
   0  -3 -18   -1.15    3.20
   0   3  18    4.72    3.01
   0   3  18   -3.57    2.99
   0   3  18   -3.76    1.89
  -1  -3 -18    0.80    3.24
  -1  -3 -18    0.55    2.64
  -1  -3 -18   -0.27    3.52
   1   3  18    1.09    2.33
   1   3  18    2.19    2.97
   1   3  18   -2.20    2.86
   1  -4 -18    0.66    2.42
   1  -4 -18    1.52    3.25
   1  -4 -18    1.11    4.34
  -1   4  18   -1.43    3.20
  -1   4  18    5.26    2.74
  -1   4  18   -0.90    3.21
   0  -4 -18    1.25    2.70
   0  -4 -18    0.51    3.22
   0  -4 -18  -12.16    5.02
   0  -4 -18   -4.16    3.50
   0   4  18    8.45    3.42
   0   4  18    1.79    3.21
   0   4  18    0.11    2.26
  -1  -4 -18    4.39    3.98
  -1  -4 -18   -0.02    3.86
   1   4  18    0.09    3.26
   1   4  18    4.05    3.49
   0   9 -19    0.25    3.34
   0   9 -19   -2.09    2.77
   0   9 -19   -0.62    2.03
   0  -9  19   -0.90    3.90
   0  -9  19    0.98    3.63
   0  -9  19    0.23    5.11
  -1   9 -19   -0.05    2.11
  -1   9 -19   -2.84    2.47
   1  -9  19   -3.18    3.19
   1  -9  19    1.49    3.85
   1   8 -19    2.80    2.71
   1   8 -19   -0.31    2.98
   1   8 -19   -0.88    1.95
  -1  -8  19    1.10    3.35
  -1  -8  19    3.89    3.95
  -1  -8  19   -1.20    3.88
   0   8 -19   -0.53    2.03
   0   8 -19    1.72    2.97
   0   8 -19    1.13    2.66
   0  -8  19   -1.10    2.89
   0  -8  19   -2.15    3.30
  -1   8 -19   -2.16    2.37
  -1   8 -19    0.57    2.35
   1  -8  19   -1.65    2.52
   1  -8  19   -0.69    3.86
   2   7 -19    1.26    2.99
   2   7 -19    1.00    2.79
   2   7 -19   -1.52    1.93
  -2  -7  19    3.25    4.41
  -2  -7  19    1.87    4.08
   1   7 -19    3.20    3.38
   1   7 -19   -2.30    2.61
   1   7 -19   -0.67    1.73
  -1  -7  19    6.56    4.04
  -1  -7  19   -4.25    3.06
  -1  -7  19   -0.53    2.96
   0   7 -19    3.70    2.39
   0   7 -19    4.84    2.86
   0   7 -19   -3.30    2.28
   0  -7  19    4.32    3.81
   0  -7  19    2.52    2.88
  -1   7 -19    3.21    2.97
  -1   7 -19   -0.62    2.37
  -1   7 -19   -0.55    1.86
   1  -7  19   -4.31    3.26
   1  -7  19   -1.50    2.69
  -2   7 -19   -1.70    4.24
  -2   7 -19    2.56    2.80
   2  -7  19    6.76    3.88
   2  -7  19   -2.56    3.72
   2  -7  19    0.94    2.76
   2   6 -19   -1.18    2.55
   2   6 -19   -0.88    2.96
   2   6 -19    0.24    1.94
  -2  -6  19   -4.05    3.69
  -2  -6  19   -4.83    3.18
   1   6 -19   -2.41    2.25
   1   6 -19    0.38    2.97
   1   6 -19    1.85    2.08
  -1  -6  19   -0.56    3.17
  -1  -6  19   -0.37    2.70
  -1  -6  19    3.29    3.76
   0   6 -19   -0.09    2.88
   0   6 -19   -0.69    2.29
   0   6 -19    1.49    1.95
   0  -6  19    2.79    3.41
   0  -6  19    2.07    2.61
  -1   6 -19   -1.71    3.09
  -1   6 -19    0.05    2.48
  -1   6 -19   -2.09    2.04
   1  -6  19   -0.45    2.36
   1  -6  19    2.22    3.27
  -2   6 -19   -1.38    2.47
  -2   6 -19   -1.22    4.49
   2  -6  19    2.74    3.09
   2  -6  19   -1.13    3.43
   2  -6  19    3.57    3.63
   2  -6  19    2.17    3.66
   2   5 -19    0.84    2.81
   2   5 -19    0.94    1.85
   2   5 -19    2.86    2.71
  -2  -5  19    1.17    4.17
  -2  -5  19   -0.23    3.05
   1   5 -19    1.86    2.12
   1   5 -19    2.06    2.53
   1   5 -19    1.46    3.04
  -1  -5  19    3.91    3.18
  -1  -5  19    0.65    4.16
  -1  -5  19   -2.10    2.25
   0   5 -19   -1.25    2.86
   0   5 -19    2.38    2.43
   0   5 -19    0.76    2.03
   0  -5  19    4.29    2.97
   0  -5  19   -1.68    2.33
  -1   5 -19   -1.53    1.78
  -1   5 -19   -0.96    3.26
  -1   5 -19   -2.97    2.27
   1  -5  19   -3.82    2.65
   1  -5  19   -0.67    2.37
   1  -5  19    3.55    3.35
  -2   5 -19  -12.93    3.65
  -2   5 -19    0.88    2.42
   2  -5  19   -1.59    2.04
   2  -5  19   -2.88    3.18
   2  -5  19    1.42    3.59
   2  -5  19    3.00    3.48
   2   4 -19    1.19    2.82
   2   4 -19   -3.63    1.58
   2   4 -19   -2.91    2.24
  -2  -4  19   -0.97    4.51
  -2  -4  19   -1.11    2.79
   1   4 -19    6.06    3.42
   1   4 -19    1.03    1.75
   1   4 -19   -0.14    2.34
  -1  -4  19    7.67    3.56
  -1  -4  19   -0.85    2.39
   0   4 -19    5.05    3.42
   0   4 -19    3.15    2.20
   0   4 -19    4.22    2.67
   0  -4  19    3.52    3.39
   0  -4  19   11.30    3.48
   0  -4  19    3.65    2.31
  -1   4 -19   -0.79    2.27
  -1   4 -19   -3.26    1.78
  -1   4 -19    1.31    3.35
   1  -4  19    0.76    2.01
   1  -4  19   -0.40    2.59
   1  -4  19   -2.09    2.93
  -2   4 -19    4.16    2.96
  -2   4 -19   -1.89    2.44
  -2   4 -19   -1.91    5.70
   2  -4  19    2.52    3.01
   2  -4  19   -0.56    2.99
   2  -4  19   -5.36    2.79
   2  -4  19   -0.43    2.54
   3   3 -19    0.49    3.35
   2   3 -19   -0.47    2.60
   2   3 -19   -1.57    1.77
   2   3 -19   -2.31    2.59
  -2  -3  19   -0.36    2.82
  -2  -3  19   -3.81    4.29
   1   3 -19   -1.08    2.76
   1   3 -19    4.06    2.08
   1   3 -19    4.02    2.67
  -1  -3  19    0.73    2.36
  -1  -3  19    2.48    3.06
   0   3 -19    3.14    2.28
   0   3 -19    1.90    2.96
   0   3 -19   -1.97    2.28
   0  -3  19   -2.64    2.03
   0  -3  19    2.51    3.06
   0  -3  19   -0.99    2.46
  -1   3 -19    0.96    2.06
  -1   3 -19    0.68    3.42
  -1   3 -19    3.20    2.66
   1  -3  19    0.15    2.02
   1  -3  19    2.43    3.05
   1  -3  19   -3.55    2.50
  -2   3 -19    3.34    4.55
  -2   3 -19   -0.01    2.52
  -2   3 -19    1.96    3.00
   2  -3  19    0.95    2.98
   2  -3  19    0.68    2.40
   2  -3  19    4.19    3.17
   2  -3  19    6.78    3.57
   3   2 -19    0.01    3.46
   2   2 -19   -0.03    2.70
   2   2 -19    0.19    1.79
   2   2 -19   -4.04    2.23
  -2  -2  19    3.27    2.82
  -2  -2  19   -0.31    4.65
   1   2 -19    2.66    2.02
   1   2 -19    1.86    2.56
   1   2 -19   -1.93    2.60
  -1  -2  19    0.16    2.69
  -1  -2  19    1.11    2.27
   0   2 -19   -1.04    2.32
   0   2 -19   -1.88    1.64
   0   2 -19   -1.84    3.20
   0  -2  19    0.90    1.94
   0  -2  19   -1.22    2.63
   0  -2  19    0.65    2.40
  -1   2 -19    5.64    2.80
  -1   2 -19   -0.46    2.64
  -1   2 -19    1.47    2.39
  -1   2 -19    3.72    3.58
   1  -2  19    2.64    2.91
   1  -2  19    2.83    2.80
   1  -2  19    1.44    2.32
  -2   2 -19    4.61    5.03
  -2   2 -19   -1.56    2.30
  -2   2 -19    2.55    3.09
   2  -2  19   -0.58    3.03
   2  -2  19   -0.90    2.98
   2  -2  19   -1.55    2.05
   2  -2  19   -1.23    3.31
   3   1 -19    3.07    3.70
   2   1 -19    0.98    3.07
   2   1 -19   -1.00    1.97
   2   1 -19    1.05    2.84
  -2  -1  19    2.08    2.67
  -2  -1  19   -1.70    4.38
   1   1 -19    0.10    2.50
   1   1 -19   -2.75    2.64
   1   1 -19    0.48    2.08
  -1  -1  19   -1.38    1.88
  -1  -1  19   -0.05    2.65
   0   1 -19    1.24    2.00
   0   1 -19    4.01    3.80
   0   1 -19    2.26    2.63
   0  -1  19   -1.86    2.49
   0  -1  19    0.89    2.67
   0  -1  19   -0.41    1.84
  -1   1 -19    0.92    2.13
  -1   1 -19    0.84    3.55
  -1   1 -19    0.81    2.58
  -1   1 -19   -0.14    2.70
   1  -1  19   -1.73    3.07
   1  -1  19    3.78    2.70
   1  -1  19   -3.13    1.81
  -2   1 -19    0.78    2.71
  -2   1 -19   -1.23    5.19
  -2   1 -19    2.50    3.18
   2  -1  19   -1.30    3.10
   2  -1  19   -0.42    2.97
   2  -1  19    0.19    3.10
   2  -1  19   -0.75    2.16
   2   0 -19    1.67    2.15
   2   0 -19   -2.71    3.17
   2   0 -19    5.85    3.22
  -2   0  19   -3.28    2.49
  -2   0  19   -2.68    4.12
  -2   0  19    0.34    2.82
   1   0 -19    9.58    4.40
   1   0 -19    3.13    2.47
   1   0 -19    6.80    3.07
  -1   0  19    4.89    3.09
  -1   0  19    7.49    3.38
  -1   0  19    3.59    2.38
   0   0 -19    5.21    4.15
   0   0 -19   -1.71    2.32
   0   0 -19   -1.94    2.11
   0   0  19    2.06    2.33
   0   0  19   -1.77    2.70
   0   0  19   -0.96    2.60
  -1   0 -19   -0.72    2.43
  -1   0 -19   -1.57    2.79
  -1   0 -19   -1.06    2.59
  -1   0 -19    7.58    4.81
   1   0  19   -0.63    3.15
   1   0  19    1.98    2.08
   1   0  19    3.34    2.75
  -2   0 -19   -4.08    2.80
  -2   0 -19   -3.73    2.54
  -2   0 -19    4.38    5.80
   2   0  19   -5.12    2.92
   2   0  19   -0.31    2.16
   2   0  19   -3.75    3.21
   2   0  19    0.90    3.08
   2  -1 -19    9.00    4.50
   2  -1 -19   -0.54    2.96
   2  -1 -19    1.64    2.28
  -2   1  19    2.12    5.11
  -2   1  19    5.01    3.06
  -2   1  19   -1.62    2.63
   1  -1 -19   -1.48    3.66
   1  -1 -19   -1.40    2.03
   1  -1 -19    1.48    2.66
  -1   1  19    0.81    2.25
  -1   1  19    1.21    3.28
  -1   1  19   -0.80    2.79
   0  -1 -19   -1.95    2.72
   0  -1 -19   -0.24    2.02
   0  -1 -19    1.16    2.81
   0  -1 -19   -5.71    3.73
   0   1  19   -0.27    3.21
   0   1  19    1.77    2.95
  -1  -1 -19   -0.50    2.94
  -1  -1 -19    2.24    2.69
  -1  -1 -19   -1.16    3.14
  -1  -1 -19    5.83    5.27
   1   1  19   -1.57    3.06
   1   1  19   -3.94    2.52
  -2  -1 -19   -1.88    3.08
   2   1  19    2.30    2.44
   2   1  19    0.45    3.10
   2   1  19    1.23    3.46
   2  -2 -19   -0.56    2.24
   2  -2 -19   -0.13    3.99
   2  -2 -19   -1.23    3.21
  -2   2  19    0.36    2.65
  -2   2  19   -3.54    2.73
   1  -2 -19   -4.63    3.29
   1  -2 -19   -1.69    3.06
   1  -2 -19   -1.32    2.47
  -1   2  19   -0.50    3.34
  -1   2  19   -1.89    3.26
   0  -2 -19    1.21    2.96
   0  -2 -19    0.45    2.58
   0  -2 -19    3.33    4.57
   0  -2 -19    4.08    3.46
   0   2  19   -1.47    2.23
   0   2  19    4.95    3.17
   0   2  19    2.41    3.15
  -1  -2 -19   -0.99    2.96
  -1  -2 -19   -0.59    2.64
  -1  -2 -19    2.62    3.46
  -1  -2 -19    1.34    6.20
   1   2  19    0.79    2.94
   1   2  19   -3.72    2.02
   1   2  19   -0.21    3.22
   1  -3 -19   -1.29    2.10
   1  -3 -19    1.58    4.52
   1  -3 -19    2.08    3.31
  -1   3  19    4.29    2.98
  -1   3  19   -1.62    3.19
  -1   3  19   -3.67    3.08
   0  -3 -19    0.04    3.22
   0  -3 -19    6.05    3.87
   0  -3 -19    1.41    4.64
   0  -3 -19   -3.12    2.21
   0   3  19   -2.83    3.01
   0   3  19   -3.71    2.02
   0   3  19    2.42    3.23
   1   3  19   -2.82    3.24
   1   3  19   -1.28    3.13
   1   8 -20    0.38    3.45
  -1  -8  20   -0.55    3.76
  -1  -8  20    4.72    4.11
  -1  -8  20   -0.68    4.71
   0   8 -20    0.50    3.00
   0   8 -20    4.35    2.60
   0   8 -20    5.39    3.38
   0  -8  20    8.75    4.52
   0  -8  20    0.02    3.13
  -1   8 -20   -1.42    2.10
  -1   8 -20    1.54    3.00
   1  -8  20    2.15    3.47
   1  -8  20    1.91    3.96
   1   7 -20   -2.31    2.64
   1   7 -20    1.71    2.21
   1   7 -20   -0.44    2.87
  -1  -7  20    3.75    4.02
  -1  -7  20   -3.93    3.03
  -1  -7  20    5.45    4.24
   0   7 -20    1.77    2.24
   0   7 -20   -1.38    2.56
   0   7 -20    9.53    3.80
   0  -7  20    1.09    3.74
   0  -7  20   -0.44    2.99
  -1   7 -20   -3.22    3.11
  -1   7 -20    0.06    2.51
  -1   7 -20    0.03    2.71
   1  -7  20    1.52    3.96
   1  -7  20    2.78    3.11
   2   6 -20    1.84    2.19
   2   6 -20    5.83    3.48
   2   6 -20   -3.17    2.88
  -2  -6  20   -2.34    4.07
  -2  -6  20   -3.53    4.51
   1   6 -20   -4.50    1.49
   1   6 -20    0.71    2.98
   1   6 -20   -2.61    2.55
  -1  -6  20    1.37    3.90
  -1  -6  20   -0.97    2.86
  -1  -6  20   -2.74    3.16
   0   6 -20   -2.30    2.41
   0   6 -20    1.05    2.04
   0   6 -20    2.95    3.16
   0  -6  20    6.54    3.75
   0  -6  20   -0.08    2.32
  -1   6 -20   -2.75    2.60
  -1   6 -20    1.94    2.31
  -1   6 -20    2.03    3.58
   1  -6  20   -1.58    3.26
   1  -6  20   -0.44    2.34
   2  -6  20   -0.53    3.80
   2  -6  20    5.07    3.94
   2  -6  20   -2.33    2.49
   2   5 -20    2.45    3.16
   2   5 -20    5.28    3.00
   2   5 -20    2.25    2.20
  -2  -5  20   -1.34    4.00
  -2  -5  20    4.58    3.63
   1   5 -20   -3.03    1.72
   1   5 -20   -3.07    2.29
   1   5 -20    0.63    2.78
  -1  -5  20   -0.96    2.75
  -1  -5  20    0.59    4.42
  -1  -5  20   -1.00    3.29
   0   5 -20   -0.57    2.14
   0   5 -20    0.71    2.73
   0   5 -20    0.67    2.34
   0  -5  20   -1.37    2.57
   0  -5  20   -2.06    3.11
  -1   5 -20    1.16    2.25
  -1   5 -20    3.06    3.86
  -1   5 -20    2.56    2.67
   1  -5  20    1.30    3.50
   1  -5  20   -1.68    2.45
   1  -5  20   -0.13    3.21
  -2   5 -20    0.09    2.55
  -2   5 -20   -1.53    4.89
   2  -5  20    6.32    3.95
   2  -5  20   -1.34    3.46
   2  -5  20   -0.61    2.22
   2  -5  20    9.23    3.97
   2   4 -20   -3.14    2.61
   2   4 -20   -2.27    2.53
   2   4 -20    2.77    2.17
  -2  -4  20    2.21    5.06
  -2  -4  20    1.59    3.30
   1   4 -20    1.57    1.90
   1   4 -20    5.14    3.65
   1   4 -20    0.07    2.55
  -1  -4  20    6.50    3.50
  -1  -4  20    3.81    3.05
   0   4 -20   -0.57    1.83
   0   4 -20    1.51    3.00
   0   4 -20   -1.35    2.37
   0  -4  20    4.41    3.04
   0  -4  20   -0.68    2.18
  -1   4 -20   -1.55    2.16
  -1   4 -20   -0.28    2.44
  -1   4 -20   -0.50    3.25
   1  -4  20    0.70    2.45
   1  -4  20    1.69    3.22
   1  -4  20   -3.63    3.05
  -2   4 -20    1.70    2.92
   2  -4  20    4.96    3.63
   2  -4  20    2.18    2.55
   2  -4  20   -2.46    2.94
   2  -4  20   -2.10    3.42
   2   3 -20    0.77    2.78
   2   3 -20   -3.82    1.73
   2   3 -20    6.33    3.86
  -2  -3  20    2.58    4.92
  -2  -3  20   -0.92    3.17
   1   3 -20    0.82    2.03
   1   3 -20    1.50    2.70
   1   3 -20    4.61    3.48
  -1  -3  20   -1.81    2.81
  -1  -3  20   -4.53    1.95
   0   3 -20    5.51    2.56
   0   3 -20    2.69    2.63
   0   3 -20    1.33    3.34
   0  -3  20   -2.46    1.87
   0  -3  20    1.79    2.94
   0  -3  20    1.96    3.26
  -1   3 -20   -1.29    2.64
  -1   3 -20    2.07    4.20
  -1   3 -20   -0.37    2.29
   1  -3  20   -1.18    2.83
   1  -3  20   -3.37    2.77
   1  -3  20   -0.64    2.00
  -2   3 -20    4.72    4.96
  -2   3 -20   -0.14    2.85
   2  -3  20    1.63    3.49
   2  -3  20   -0.61    2.15
   2  -3  20    4.73    3.32
   2  -3  20    1.62    3.45
   2   2 -20   -0.53    2.16
   2   2 -20    0.05    2.64
   2   2 -20   -2.64    3.12
  -2  -2  20    1.16    3.04
  -2  -2  20   -4.63    3.91
   1   2 -20   -1.41    2.31
   1   2 -20   -4.32    2.92
   1   2 -20    4.49    2.53
  -1  -2  20   -1.14    2.15
  -1  -2  20   -0.79    2.80
   0   2 -20   -1.16    1.94
   0   2 -20    3.28    2.78
   0   2 -20   -2.41    3.38
   0  -2  20    1.33    2.94
   0  -2  20    1.84    2.16
   0  -2  20    0.75    2.65
  -1   2 -20    0.30    2.65
  -1   2 -20    1.53    4.36
  -1   2 -20   -2.09    2.19
   1  -2  20   -3.91    1.93
   1  -2  20   -2.18    2.53
   1  -2  20   -1.60    2.90
  -2   2 -20    6.20    3.57
  -2   2 -20   -2.69    2.60
  -2   2 -20    9.23    5.46
   2  -2  20    0.14    3.29
   2  -2  20   -0.77    1.95
   2  -2  20   -1.30    3.27
   2  -2  20    0.86    3.19
   2   1 -20   -2.38    2.12
   2   1 -20   -0.37    2.88
   2   1 -20    3.39    3.49
  -2  -1  20   -0.47    2.85
  -2  -1  20    3.55    4.66
   1   1 -20   -2.38    2.53
   1   1 -20   -1.78    1.91
   1   1 -20   -0.63    3.65
  -1  -1  20   -1.10    2.06
  -1  -1  20   -1.91    2.77
   0   1 -20    1.05    2.12
   0   1 -20    6.42    3.09
   0   1 -20    1.82    3.57
   0  -1  20    1.15    2.07
   0  -1  20    3.60    3.12
   0  -1  20   -0.51    2.71
  -1   1 -20    5.93    4.44
  -1   1 -20   -2.33    2.74
  -1   1 -20   -0.72    2.17
   1  -1  20   -0.43    2.81
   1  -1  20   -0.09    3.43
   1  -1  20   -1.39    2.06
  -2   1 -20    0.77    2.80
  -2   1 -20   -5.11    5.06
   2  -1  20   -2.07    3.54
   2  -1  20    1.18    2.31
   2  -1  20   -3.49    2.96
   2   0 -20   -3.59    3.61
   2   0 -20   -4.38    2.73
   2   0 -20    0.71    2.26
  -2   0  20   -5.45    4.39
  -2   0  20   -0.38    2.91
   1   0 -20    7.12    4.42
   1   0 -20    2.45    3.06
   1   0 -20    3.70    2.48
  -1   0  20    3.92    2.98
  -1   0  20    3.08    2.72
  -1   0  20    3.11    3.49
   0   0 -20   -2.28    2.61
   0   0 -20   -1.19    2.15
   0   0 -20   -1.61    3.87
   0   0  20    3.56    3.06
   0   0  20    2.47    2.26
   0   0  20    3.81    3.52
  -1   0 -20    5.15    4.99
  -1   0 -20   -0.90    3.32
  -1   0 -20   -0.54    2.30
  -1   0 -20    0.42    2.87
   1   0  20    3.63    2.88
   1   0  20    0.89    2.45
   1   0  20    2.41    3.51
   2  -1 -20   -0.17    2.35
   2  -1 -20    6.42    4.41
  -2   1  20   -0.35    3.49
   1  -1 -20    0.97    2.31
   1  -1 -20   -1.88    2.80
   1  -1 -20    3.17    4.47
  -1   1  20   -1.46    2.23
  -1   1  20   -0.04    3.39
  -1   1  20   -4.27    2.77
   0  -1 -20   10.78    5.06
   0  -1 -20   -0.81    2.91
   0  -1 -20    0.50    2.71
   0   1  20    2.69    2.32
   0   1  20   -0.38    2.86
   0   1  20    0.47    3.67
  -1  -1 -20    5.18    3.44
  -1  -1 -20    7.88    5.49
  -1  -1 -20    0.66    3.39
  -1  -1 -20   -1.67    2.23
   1   1  20    7.53    3.37
   1   1  20   -1.37    2.06
   1   1  20    1.57    3.51
   1  -2 -20   -1.83    2.23
   1  -2 -20   -3.06    3.12
   1  -2 -20    5.08    4.94
  -1   2  20   -1.76    3.40
  -1   2  20   -4.25    3.31
   0  -2 -20   -0.12    3.30
   0  -2 -20   -1.86    2.48
   0  -2 -20   11.33    5.76
   0   2  20    1.18    3.14
   0   2  20    4.02    3.60
   1   7 -21   -0.37    3.32
   0   7 -21   -0.49    3.05
   0   7 -21   -1.23    1.94
   0   7 -21    2.13    3.63
   0  -7  21    5.49    4.23
   0  -7  21   -3.63    2.41
   1   6 -21    3.85    2.60
   1   6 -21    1.79    3.68
   1   6 -21   -2.54    2.62
  -1  -6  21    2.11    3.12
  -1  -6  21    2.20    3.78
  -1  -6  21    0.87    4.42
   0   6 -21   -0.74    2.80
   0   6 -21    2.56    3.04
   0   6 -21   -0.02    2.20
   0  -6  21    2.55    3.89
   0  -6  21   -2.15    2.76
  -1   6 -21    1.23    2.94
  -1   6 -21    4.17    3.73
  -1   6 -21    0.22    2.15
   1  -6  21    0.65    3.55
   1  -6  21   -0.50    2.73
   1   5 -21   -1.74    2.76
   1   5 -21    3.67    3.37
   1   5 -21   -0.51    1.93
  -1  -5  21   -3.89    2.58
  -1  -5  21    1.45    4.34
  -1  -5  21   -2.92    3.43
   0   5 -21    3.22    2.73
   0   5 -21    1.53    3.46
   0   5 -21    3.78    2.93
   0  -5  21    2.52    3.11
   0  -5  21    0.81    3.53
  -1   5 -21    3.39    3.03
  -1   5 -21   -3.26    3.03
  -1   5 -21   -2.95    1.77
   1  -5  21    3.48    3.79
   1  -5  21    4.66    3.46
   1  -5  21   -1.80    2.63
   2   4 -21    0.29    3.50
   1   4 -21   -1.57    3.29
   1   4 -21    1.37    2.98
   1   4 -21    0.62    2.04
  -1  -4  21    0.22    3.42
  -1  -4  21   -2.36    2.67
   0   4 -21   -4.23    1.99
   0   4 -21    0.07    2.67
   0   4 -21    0.39    3.65
   0  -4  21    4.49    3.04
   0  -4  21    5.72    3.51
  -1   4 -21   -2.19    2.57
  -1   4 -21   -1.83    1.90
  -1   4 -21    6.91    4.63
   1  -4  21    1.74    2.67
   1  -4  21   -4.76    2.81
   1  -4  21    3.32    3.47
   2   3 -21    0.86    3.50
  -2  -3  21    7.86    4.56
  -2  -3  21    2.02    5.56
   1   3 -21   -5.62    2.32
   1   3 -21   -1.36    1.81
   1   3 -21    4.25    3.90
  -1  -3  21   -1.39    3.15
  -1  -3  21   -0.36    2.69
   0   3 -21   -1.73    2.49
   0   3 -21    1.31    3.37
   0   3 -21    0.25    2.55
   0  -3  21   -0.84    3.01
   0  -3  21    1.68    2.52
   0  -3  21   10.83    3.93
  -1   3 -21    0.71    2.27
  -1   3 -21    2.04    4.50
  -1   3 -21   -1.55    2.78
   1  -3  21    0.93    3.46
   1  -3  21   -1.22    2.93
   1  -3  21   -1.67    2.17
   2   2 -21   -0.18    3.58
  -2  -2  21    2.72    5.13
  -2  -2  21    4.15    4.83
   1   2 -21    1.84    3.86
   1   2 -21    0.32    2.82
   1   2 -21    0.42    2.12
  -1  -2  21    1.21    2.71
  -1  -2  21   -3.02    3.05
   0   2 -21    3.33    4.20
   0   2 -21    0.81    2.37
   0   2 -21   -0.99    2.65
   0  -2  21   -1.37    3.07
   0  -2  21    0.44    3.06
   0  -2  21   -2.92    1.89
  -1   2 -21    0.73    2.56
  -1   2 -21   -4.21    2.63
  -1   2 -21   -3.13    4.01
   1  -2  21   -1.64    2.97
   1  -2  21    0.39    3.30
   1  -2  21   -3.51    2.19
   2   1 -21    3.98    4.88
   1   1 -21   -0.32    4.18
   1   1 -21   -2.58    2.67
   1   1 -21   -2.42    2.24
  -1  -1  21    4.20    3.28
  -1  -1  21   -1.67    2.21
   0   1 -21   -1.71    4.16
   0   1 -21    4.06    2.67
   0   1 -21    3.17    3.03
   0  -1  21    2.82    3.18
   0  -1  21    3.02    2.62
   0  -1  21    5.54    3.27
  -1   1 -21   -2.07    2.98
  -1   1 -21   -1.05    2.29
  -1   1 -21   -1.66    4.57
   1  -1  21   -5.27    2.88
   1  -1  21   -0.55    2.83
   1  -1  21    1.44    2.30
   1   0 -21   -8.27    3.63
   1   0 -21   -2.88    2.19
   1   0 -21    0.28    3.16
  -1   0  21   -1.27    2.41
  -1   0  21    2.78    3.55
  -1   0  21   -2.60    3.02
   0   0 -21    3.04    2.58
   0   0 -21   -2.86    2.75
   0   0 -21    2.31    4.97
   0   0  21   -4.40    2.74
   0   0  21    1.03    3.04
   0   0  21    1.34    2.31
  -1   0 -21   14.15    6.36
  -1   0 -21    3.15    3.39
   1   0  21   -1.50    3.54
   1   0  21    0.60    2.97
   1   0  21    3.68    2.48
   1  -1 -21    4.91    4.99
  -1   1  21   -4.03    2.94
  -1   1  21   -2.18    2.43
  -1   1  21   -2.45    3.31
   0  -1 -21   -1.72    3.33
   0  -1 -21    0.60    2.74
   0  -1 -21    2.19    5.03
   0   1  21   -3.57    2.38
   0   1  21   -4.03    2.70
   0   1  21   -1.11    3.68
   0   5 -22   -3.60    1.88
   0   5 -22   -4.42    2.71
   0   5 -22    1.75    3.64
   0  -5  22   -3.30    2.56
   0  -5  22   -4.03    3.40
   1   4 -22    1.25    3.12
   1   4 -22    1.16    3.68
  -1  -4  22    6.52    4.93
  -1  -4  22   -5.60    2.80
  -1  -4  22   -1.09    3.44
   0   4 -22    2.07    3.93
   0   4 -22   -1.95    1.89
   0   4 -22   -0.37    2.99
   0  -4  22   -0.14    2.46
   0  -4  22   -1.41    3.28
   1   3 -22    1.45    2.98
   1   3 -22    4.61    3.85
   1   3 -22    0.45    2.27
  -1  -3  22   -1.80    3.22
  -1  -3  22   -1.57    2.62
   0   3 -22   -4.01    2.65
   0   3 -22   -1.71    3.20
   0   3 -22    1.30    2.38
   0  -3  22    0.85    3.69
   0  -3  22   -2.30    2.37
   0  -3  22   -3.17    3.29
   1   2 -22    1.28    3.23
   1   2 -22    1.13    4.04
  -1  -2  22   -0.66    3.28
  -1  -2  22   -0.79    2.95
   0   2 -22    7.84    4.67
   0   2 -22   -0.77    3.14
   0   2 -22   -0.56    2.36
   0  -2  22    0.02    3.30
   0  -2  22   -1.00    2.37
   0  -2  22    2.33    3.48
   0   1 -22   -1.42    4.47
   0  -1  22    7.08    3.83
   0  -1  22    8.94    4.24
   0  -1  22    0.24    2.71
   0   0   0    0.00    0.00
;
_shelx_hkl_checksum              25774
loop_
_space_group_symop_operation_xyz
'x, y, z'
'-x, -y, -z'
loop_
_atom_site_label
_atom_site_type_symbol
_atom_site_fract_x
_atom_site_fract_y
_atom_site_fract_z
_atom_site_U_iso_or_equiv
_atom_site_adp_type
_atom_site_occupancy
_atom_site_site_symmetry_order
_atom_site_calc_flag
_atom_site_refinement_flags_posn
_atom_site_refinement_flags_adp
_atom_site_refinement_flags_occupancy
_atom_site_disorder_assembly
_atom_site_disorder_group
C1 C 0.739(2) 0.2346(9) 0.6609(5) 0.046(2) Uani 1 1 d . U . . .
C2 C 0.760(2) 0.1464(10) 0.5819(5) 0.054(2) Uani 1 1 d . U . . .
H2 H 0.672033 0.051765 0.569261 0.065 Uiso 1 1 calc R U . . .
C3 C 0.911(2) 0.2001(11) 0.5238(6) 0.062(3) Uani 1 1 d . U . . .
H3 H 0.918304 0.141343 0.471148 0.074 Uiso 1 1 calc R U . . .
C4 C 1.053(2) 0.3393(11) 0.5402(6) 0.063(3) Uani 1 1 d . U . . .
H4 H 1.155697 0.372284 0.498973 0.076 Uiso 1 1 calc R U . . .
C5 C 1.042(2) 0.4283(11) 0.6170(5) 0.057(2) Uani 1 1 d . U . . .
H5 H 1.139074 0.521673 0.628646 0.068 Uiso 1 1 calc R U . . .
C6 C 0.883(2) 0.3770(10) 0.6778(5) 0.048(2) Uani 1 1 d . U . . .
C7 C 0.863(2) 0.4651(9) 0.7591(5) 0.044(2) Uani 1 1 d . U . . .
C8 C 0.707(2) 0.4097(9) 0.8175(5) 0.042(2) Uani 1 1 d . U . . .
C9 C 0.566(2) 0.2687(10) 0.8000(5) 0.045(2) Uani 1 1 d . U . . .
C10 C 0.580(2) 0.1806(10) 0.7230(5) 0.045(2) Uani 1 1 d . U . . .
C11 C 0.641(3) -0.0549(11) 0.7232(7) 0.083(4) Uani 1 1 d D U . . .
H11A H 0.868491 -0.033489 0.709404 0.099 Uiso 1 1 calc R U . . .
H11B H 0.642348 -0.045747 0.781947 0.099 Uiso 1 1 calc R U . . .
C12 C 0.523(5) -0.1966(16) 0.6801(11) 0.182(8) Uani 1 1 d D U . . .
H12A H 0.664681 -0.261317 0.694863 0.273 Uiso 1 1 calc R U . . .
H12B H 0.299498 -0.218232 0.694454 0.273 Uiso 1 1 calc R U . . .
H12C H 0.525279 -0.205994 0.622028 0.273 Uiso 1 1 calc R U . . .
C13 C 0.933(2) 0.6553(10) 0.8618(6) 0.052(2) Uani 1 1 d . . . . .
N1 N 0.9913(18) 0.6069(8) 0.7860(4) 0.0490(19) Uani 1 1 d . . . . .
O1 O 0.4348(15) 0.0441(6) 0.7025(4) 0.0563(17) Uani 1 1 d . . . . .
S1 S 0.7186(6) 0.5381(3) 0.90980(14) 0.0527(6) Uani 1 1 d . . . . .
Br1 Br 0.3569(3) 0.20359(11) 0.88424(6) 0.0614(4) Uani 1 1 d . . . . .
Br2 Br 1.0669(3) 0.83966(11) 0.92116(6) 0.0695(4) Uani 1 1 d . . . . .
loop_
_atom_site_aniso_label
_atom_site_aniso_U_11
_atom_site_aniso_U_22
_atom_site_aniso_U_33
_atom_site_aniso_U_23
_atom_site_aniso_U_13
_atom_site_aniso_U_12
C1 0.047(5) 0.045(5) 0.044(5) 0.008(4) -0.005(4) 0.012(4)
C2 0.067(6) 0.044(5) 0.045(5) 0.002(4) -0.008(5) 0.009(5)
C3 0.074(7) 0.065(6) 0.044(5) 0.004(5) 0.002(5) 0.021(5)
C4 0.078(7) 0.079(7) 0.039(5) 0.020(5) 0.020(5) 0.022(6)
C5 0.067(6) 0.060(6) 0.043(5) 0.014(5) 0.004(5) 0.007(5)
C6 0.053(5) 0.054(5) 0.040(5) 0.013(4) -0.004(4) 0.014(4)
C7 0.050(5) 0.051(5) 0.034(5) 0.013(4) 0.002(4) 0.011(4)
C8 0.044(5) 0.042(5) 0.035(5) 0.004(4) -0.006(4) 0.001(4)
C9 0.046(5) 0.058(6) 0.035(5) 0.019(4) -0.005(4) 0.000(4)
C10 0.041(5) 0.047(5) 0.047(5) 0.010(4) -0.007(4) 0.005(4)
C11 0.084(8) 0.063(7) 0.097(9) 0.011(6) -0.025(7) 0.022(6)
C12 0.216(18) 0.133(12) 0.169(17) 0.007(12) -0.022(14) -0.028(14)
C13 0.059(6) 0.051(6) 0.045(6) 0.008(5) -0.005(5) 0.010(5)
N1 0.062(5) 0.046(5) 0.039(4) 0.013(4) -0.003(4) 0.003(4)
O1 0.061(4) 0.047(4) 0.056(4) 0.006(3) -0.012(3) 0.001(3)
S1 0.0637(16) 0.0560(15) 0.0359(13) 0.0086(11) 0.0014(11) 0.0033(12)
Br1 0.0676(7) 0.0650(7) 0.0520(6) 0.0189(5) 0.0038(5) -0.0023(5)
Br2 0.0856(9) 0.0535(7) 0.0601(7) 0.0022(5) -0.0017(6) -0.0047(6)
loop_
_atom_type_symbol
_atom_type_description
_atom_type_scat_dispersion_real
_atom_type_scat_dispersion_imag
_atom_type_scat_source
C C 0.0033 0.0016 'International Tables Vol C Tables 4.2.6.8 and 6.1.1.4'
H H 0.0000 0.0000 'International Tables Vol C Tables 4.2.6.8 and 6.1.1.4'
N N 0.0061 0.0033 'International Tables Vol C Tables 4.2.6.8 and 6.1.1.4'
O O 0.0106 0.0060 'International Tables Vol C Tables 4.2.6.8 and 6.1.1.4'
S S 0.1246 0.1234 'International Tables Vol C Tables 4.2.6.8 and 6.1.1.4'
Br Br -0.2901 2.4595 'International Tables Vol C Tables 4.2.6.8 and 6.1.1.4'
loop_
_geom_angle_atom_site_label_1
_geom_angle_atom_site_label_2
_geom_angle_atom_site_label_3
_geom_angle
_geom_angle_site_symmetry_1
_geom_angle_site_symmetry_3
_geom_angle_publ_flag
C2 C1 C6 118.2(9) . . ?
C2 C1 C10 120.6(9) . . ?
C6 C1 C10 121.2(8) . . ?
C3 C2 C1 119.6(9) . . ?
C2 C3 C4 122.3(9) . . ?
C5 C4 C3 119.9(9) . . ?
C4 C5 C6 119.1(10) . . ?
C5 C6 C1 120.8(8) . . ?
C5 C6 C7 121.6(9) . . ?
C1 C6 C7 117.6(8) . . ?
C8 C7 N1 115.2(7) . . ?
C8 C7 C6 119.7(8) . . ?
N1 C7 C6 125.1(8) . . ?
C7 C8 C9 122.0(8) . . ?
C7 C8 S1 110.2(6) . . ?
C9 C8 S1 127.8(7) . . ?
C10 C9 C8 120.1(8) . . ?
C10 C9 Br1 121.2(7) . . ?
C8 C9 Br1 118.7(6) . . ?
O1 C10 C9 121.9(8) . . ?
O1 C10 C1 118.6(8) . . ?
C9 C10 C1 119.4(8) . . ?
C12 C11 O1 110.7(11) . . ?
N1 C13 S1 117.1(7) . . ?
N1 C13 Br2 123.3(7) . . ?
S1 C13 Br2 119.6(5) . . ?
C13 N1 C7 109.7(8) . . ?
C10 O1 C11 113.5(7) . . ?
C8 S1 C13 87.8(4) . . ?
loop_
_geom_bond_atom_site_label_1
_geom_bond_atom_site_label_2
_geom_bond_distance
_geom_bond_site_symmetry_2
_geom_bond_publ_flag
C1 C2 1.401(11) . ?
C1 C6 1.416(12) . ?
C1 C10 1.428(12) . ?
C2 C3 1.356(13) . ?
C3 C4 1.384(13) . ?
C4 C5 1.370(12) . ?
C5 C6 1.397(12) . ?
C6 C7 1.430(11) . ?
C7 C8 1.381(11) . ?
C7 N1 1.390(10) . ?
C8 C9 1.398(11) . ?
C8 S1 1.729(8) . ?
C9 C10 1.370(11) . ?
C9 Br1 1.889(8) . ?
C10 O1 1.364(10) . ?
C11 C12 1.423(13) . ?
C11 O1 1.431(11) . ?
C13 N1 1.282(10) . ?
C13 S1 1.746(10) . ?
C13 Br2 1.849(9) . ?
loop_
_geom_hbond_atom_site_label_D
_geom_hbond_atom_site_label_H
_geom_hbond_atom_site_label_A
_geom_hbond_distance_DH
_geom_hbond_distance_HA
_geom_hbond_distance_DA
_geom_hbond_angle_DHA
_geom_hbond_site_symmetry_A
_geom_hbond_publ_flag
C11 H11B Br1 0.97 2.96 3.508(11) 117.3 . yes
C12 H12A N1 0.96 2.63 3.55(2) 160.0 1_545 yes
C11 H11B Br1 0.97 2.96 3.508(11) 117.3 . yes
C12 H12A N1 0.96 2.63 3.55(2) 160.0 1_545 yes
loop_
_geom_torsion_atom_site_label_1
_geom_torsion_atom_site_label_2
_geom_torsion_atom_site_label_3
_geom_torsion_atom_site_label_4
_geom_torsion
_geom_torsion_site_symmetry_1
_geom_torsion_site_symmetry_2
_geom_torsion_site_symmetry_3
_geom_torsion_site_symmetry_4
_geom_torsion_publ_flag
C6 C1 C2 C3 -1.4(13) . . . . ?
C10 C1 C2 C3 179.7(9) . . . . ?
C1 C2 C3 C4 1.6(15) . . . . ?
C2 C3 C4 C5 -0.6(15) . . . . ?
C3 C4 C5 C6 -0.6(15) . . . . ?
C4 C5 C6 C1 0.8(14) . . . . ?
C4 C5 C6 C7 -179.8(8) . . . . ?
C2 C1 C6 C5 0.3(13) . . . . ?
C10 C1 C6 C5 179.1(8) . . . . ?
C2 C1 C6 C7 -179.2(8) . . . . ?
C10 C1 C6 C7 -0.4(12) . . . . ?
C5 C6 C7 C8 -179.4(8) . . . . ?
C1 C6 C7 C8 0.0(12) . . . . ?
C5 C6 C7 N1 0.6(14) . . . . ?
C1 C6 C7 N1 -179.9(8) . . . . ?
N1 C7 C8 C9 -179.8(8) . . . . ?
C6 C7 C8 C9 0.2(13) . . . . ?
N1 C7 C8 S1 -0.1(10) . . . . ?
C6 C7 C8 S1 179.9(6) . . . . ?
C7 C8 C9 C10 -0.1(13) . . . . ?
S1 C8 C9 C10 -179.7(7) . . . . ?
C7 C8 C9 Br1 -179.9(6) . . . . ?
S1 C8 C9 Br1 0.4(11) . . . . ?
C8 C9 C10 O1 -177.3(8) . . . . ?
Br1 C9 C10 O1 2.5(12) . . . . ?
C8 C9 C10 C1 -0.3(13) . . . . ?
Br1 C9 C10 C1 179.5(6) . . . . ?
C2 C1 C10 O1 -3.5(13) . . . . ?
C6 C1 C10 O1 177.7(7) . . . . ?
C2 C1 C10 C9 179.3(8) . . . . ?
C6 C1 C10 C9 0.5(13) . . . . ?
S1 C13 N1 C7 -0.1(10) . . . . ?
Br2 C13 N1 C7 179.3(6) . . . . ?
C8 C7 N1 C13 0.1(11) . . . . ?
C6 C7 N1 C13 -179.9(8) . . . . ?
C9 C10 O1 C11 -85.3(11) . . . . ?
C1 C10 O1 C11 97.6(10) . . . . ?
C12 C11 O1 C10 -163.0(12) . . . . ?
C7 C8 S1 C13 0.1(7) . . . . ?
C9 C8 S1 C13 179.8(8) . . . . ?
N1 C13 S1 C8 0.0(8) . . . . ?
Br2 C13 S1 C8 -179.4(6) . . . . ?
