#------------------------------------------------------------------------------
#$Date: 2021-03-19 10:36:57 +0200 (Fri, 19 Mar 2021) $
#$Revision: 263168 $
#$URL: file:///home/coder/svn-repositories/cod/cif/1/56/11/1561144.cif $
#------------------------------------------------------------------------------
#
# This file is available in the Crystallography Open Database (COD),
# http://www.crystallography.net/
#
# All data on this site have been placed in the public domain by the
# contributors.
#
data_1561144
loop_
_publ_author_name
'M\;aczka, Miros\/law'
'Janczak, Jan'
'Hermanowicz, Krzysztof'
'Pikul, Adam'
'Hanuza, Jerzy'
_publ_section_title
;
 Magnetic, optical and phonon properties of novel
 heterometallic&#x00A0;formates [NH3CH2CH2OH][MIIIMII(HCOO)6] (MIII = Fe,
 Cr; MII = Mn, Ni, Co)
;
_journal_name_full               'Journal of Solid State Chemistry'
_journal_page_first              7
_journal_page_last               15
_journal_paper_doi               10.1016/j.jssc.2017.12.017
_journal_volume                  260
_journal_year                    2018
_chemical_formula_moiety         'C6 H6 Cr Mn O12, C2 H8 N O'
_chemical_formula_sum            'C8 H14 Cr Mn N O13'
_chemical_formula_weight         439.14
_space_group_crystal_system      trigonal
_space_group_IT_number           163
_space_group_name_Hall           '-P 3 2c'
_space_group_name_H-M_alt        'P -3 1 c'
_atom_sites_solution_hydrogens   geom
_atom_sites_solution_primary     direct
_atom_sites_solution_secondary   difmap
_cell_angle_alpha                90
_cell_angle_beta                 90
_cell_angle_gamma                120
_cell_formula_units_Z            2
_cell_length_a                   8.2876(5)
_cell_length_b                   8.2876(5)
_cell_length_c                   14.1138(8)
_cell_measurement_reflns_used    2788
_cell_measurement_temperature    295(2)
_cell_measurement_theta_max      29.1400
_cell_measurement_theta_min      2.8940
_cell_volume                     839.52(9)
_computing_cell_refinement
;
CrysAlis Red 1.171.38.41 (Rigaku Oxford Diffraction, 2015)
;
_computing_data_collection
;
CrysAlis CCD 1.171.38.41 (Rigaku Oxford Diffraction, 2015)
;
_computing_data_reduction
;
CrysAlis Red 1.171.38.41 (Rigaku Oxford Diffraction, 2015)
;
_computing_molecular_graphics
;
Brandenburg & Putz (2006). Diamond 3.0. Crystal and Molecular
Structure Visualisation, University of Bonn, Germany
;
_computing_publication_material  'SHELXL-2014/7 (Sheldrick, 2014)'
_computing_structure_refinement  'SHELXL-2014/7 (Sheldrick, 2014)'
_computing_structure_solution    'SHELXT (Sheldrick, 2014)'
_diffrn_ambient_temperature      295(2)
_diffrn_detector_area_resol_mean 10.6249
_diffrn_measured_fraction_theta_full 0.994
_diffrn_measured_fraction_theta_max 0.937
_diffrn_measurement_device_type  'KUMA KM-4 with CCD detector'
_diffrn_measurement_method       \w-scan
_diffrn_radiation_type           MoK\a
_diffrn_radiation_wavelength     0.71073
_diffrn_reflns_av_R_equivalents  0.0296
_diffrn_reflns_av_unetI/netI     0.0216
_diffrn_reflns_Laue_measured_fraction_full 0.994
_diffrn_reflns_Laue_measured_fraction_max 0.937
_diffrn_reflns_limit_h_max       11
_diffrn_reflns_limit_h_min       -10
_diffrn_reflns_limit_k_max       11
_diffrn_reflns_limit_k_min       -11
_diffrn_reflns_limit_l_max       17
_diffrn_reflns_limit_l_min       -17
_diffrn_reflns_number            5951
_diffrn_reflns_point_group_measured_fraction_full 0.994
_diffrn_reflns_point_group_measured_fraction_max 0.937
_diffrn_reflns_theta_full        27.500
_diffrn_reflns_theta_max         29.398
_diffrn_reflns_theta_min         2.838
_diffrn_source                   'fine-focus sealed X-ray tube'
_exptl_absorpt_coefficient_mu    1.463
_exptl_absorpt_correction_T_max  1.00000
_exptl_absorpt_correction_T_min  0.95445
_exptl_absorpt_correction_type   multi-scan
_exptl_absorpt_process_details
;
CrysAlisPro 1.171.38.43 (Rigaku Oxford Diffraction, 2015)
Empirical absorption correction using spherical harmonics,
 implemented in SCALE3 ABSPACK scaling algorithm.
;
_exptl_crystal_colour            violet
_exptl_crystal_density_diffrn    1.737
_exptl_crystal_description       parallelepiped
_exptl_crystal_F_000             444
_exptl_crystal_size_max          0.180
_exptl_crystal_size_mid          0.170
_exptl_crystal_size_min          0.150
_refine_diff_density_max         0.391
_refine_diff_density_min         -0.515
_refine_diff_density_rms         0.065
_refine_ls_extinction_coef       .
_refine_ls_extinction_method     none
_refine_ls_goodness_of_fit_ref   1.001
_refine_ls_hydrogen_treatment    constr
_refine_ls_matrix_type           full
_refine_ls_number_parameters     52
_refine_ls_number_reflns         738
_refine_ls_number_restraints     1
_refine_ls_restrained_S_all      1.001
_refine_ls_R_factor_all          0.0436
_refine_ls_R_factor_gt           0.0327
_refine_ls_shift/su_max          0.000
_refine_ls_shift/su_mean         0.000
_refine_ls_structure_factor_coef Fsqd
_refine_ls_weighting_details
'w=1/[\s^2^(Fo^2^)+(0.0342P)^2^+1.1677P] where P=(Fo^2^+2Fc^2^)/3'
_refine_ls_weighting_scheme      calc
_refine_ls_wR_factor_gt          0.0745
_refine_ls_wR_factor_ref         0.0811
_reflns_Friedel_coverage         0.000
_reflns_Friedel_fraction_full    .
_reflns_Friedel_fraction_max     .
_reflns_number_gt                614
_reflns_number_total             738
_reflns_threshold_expression     'I > 2\s(I)'
_cod_data_source_file            crmnrt.cif
_cod_data_source_block           crmnrt
_cod_original_cell_volume        839.52(11)
_cod_database_code               1561144
_shelx_space_group_comment
;
The symmetry employed for this shelxl refinement is uniquely defined
by the following loop, which should always be used as a source of
symmetry information in preference to the above space-group names.
They are only intended as comments.
;
_shelx_estimated_absorpt_t_min   0.779
_shelx_estimated_absorpt_t_max   0.810
_exptl_absorpt_special_details
;
Empirical correction (ABSPACK) includes:
- Absorption correction using spherical harmonics
- Frame scaling
;
_shelx_res_file
;

    crmnrt.res created by SHELXL-2014/7

TITL crmnrt_a.res in P-31c
CELL 0.71073 8.2876 8.2876 14.1138 90 90 120
ZERR 2 0.0005 0.0005 0.0008 0 0 0
LATT 1
SYMM -Y,+X-Y,+Z
SYMM +Y-X,-X,+Z
SYMM -Y,-X,0.5-Z
SYMM +Y-X,+Y,0.5-Z
SYMM +X,+X-Y,0.5-Z
SFAC C H N O Cr Mn
UNIT 16 28 2 26 2 2
TEMP 22
L.S. 4
PLAN  20
BOND $H
fmap 2
acta 55
SIZE 0.18 0.17 0.15
WGHT    0.034200    1.167700
FVAR       1.01737
CR1   6    0.000000    0.000000    0.500000    10.16667    0.01901    0.01901 =
         0.02022    0.00000    0.00000    0.00951
MN1   5    0.333333    0.666667    0.750000    10.16667    0.01596    0.01596 =
         0.02114    0.00000    0.00000    0.00798
O1    4    0.200842    0.192177    0.579545    11.00000    0.03184    0.02823 =
         0.04032   -0.01449   -0.01162    0.01552
O2    4    0.333766    0.447251    0.665842    11.00000    0.04153    0.03997 =
         0.05898   -0.02752   -0.01734    0.02304
C1    1    0.206764    0.331384    0.616986    11.00000    0.03194    0.03309 =
         0.04238   -0.01203   -0.00841    0.01732
AFIX  43
H1    2    0.105488    0.348572    0.606824    11.00000   -1.20000
AFIX   0
dfix 1.5 0.005 c2 c3
N1    3    0.461637    0.730819    0.250000    10.16667    0.03516    0.03906 =
         0.07930    0.01954    0.00000    0.01758
O3    4    0.220001    0.649496    0.433288    10.16667    0.11671    0.04427 =
         0.04054   -0.02325   -0.02594    0.05612
C2    1    0.333333    0.666667    0.409937    10.16667    0.06388    0.06388 =
         0.07660    0.00000    0.00000    0.03194
C3    1    0.333333    0.666667    0.303496    10.16667    0.13564    0.13564 =
         0.09797    0.00000    0.00000    0.06782
hklf 4

REM  crmnrt_a.res in P-31c
REM R1 =  0.0327 for     614 Fo > 4sig(Fo)  and  0.0436 for all     738 data
REM     52 parameters refined using      1 restraints

END

WGHT      0.0296      0.8920

REM Highest difference peak  0.391,  deepest hole -0.515,  1-sigma level  0.065
Q1    1   0.1858  0.6186  0.4594  11.00000  0.05    0.27
Q2    1   0.3364  0.7138  0.4435  11.00000  0.05    0.24
Q3    1   0.1381  0.0419  0.4795  11.00000  0.05    0.23
Q4    1   0.2530  0.6598  0.3975  11.00000  0.05    0.22
Q5    1   0.1528  0.1900  0.6179  11.00000  0.05    0.20
Q6    1  -0.1368 -0.1052  0.4813  11.00000  0.05    0.19
Q7    1   0.0835  0.2895  0.6499  11.00000  0.05    0.19
Q8    1   0.5493  0.8854  0.2384  11.00000  0.05    0.19
Q9    1   0.3333  0.6667  0.2500  10.16667  0.05    0.18
Q10   1   0.2411  0.2772  0.5576  11.00000  0.05    0.16
Q11   1   0.4610  0.7794  0.2099  11.00000  0.05    0.16
Q12   1   0.1817  0.2123  0.5483  11.00000  0.05    0.15
Q13   1   0.0608  0.0546  0.6401  11.00000  0.05    0.15
Q14   1   0.0788  0.0514  0.4423  11.00000  0.05    0.15
Q15   1   0.3095  0.5100  0.6279  11.00000  0.05    0.14
Q16   1  -0.0033  0.2191  0.6793  11.00000  0.05    0.13
Q17   1   0.5149  0.7079  0.2341  11.00000  0.05    0.13
Q18   1   0.2179  0.1539  0.6446  11.00000  0.05    0.12
Q19   1   0.4681  0.5868  0.7166  11.00000  0.05    0.12
Q20   1   0.3771  0.4373  0.5899  11.00000  0.05    0.12
;
_shelx_res_checksum              15886
_shelx_hkl_file
;
   0   0 -10   10.88    4.30
   0   0  -9   -0.69    2.61
   0   0  -8 1121.13   20.25
   0   0  -8 1121.15   25.46
   0   0  -7   -0.35    2.25
   0   0  -7   -0.95    3.20
   0   0  -6 1157.28   27.33
   0   0  -6 1158.02   33.23
   0   0  -5    1.19    3.39
   0   0  -5    0.73    2.28
   0   0  -4 1496.10   24.36
   0   0  -4 1486.37   19.97
   0   0  -3   -0.50    2.35
   0   0  -3    2.59    1.95
   0   0  -2   77.27    5.11
   0   0   2   77.26    3.51
   0   0   3    1.00    1.88
   0   0   3   -1.20    4.31
   0   0   3    0.61    2.49
   0   0   4 1439.69   23.76
   0   0   4 1439.18   19.91
   0   0   4 1440.90   32.10
   0   0   5   -1.08    5.82
   0   0   5    0.94    2.05
   0   0   5   -1.10    3.07
   0   0   6 1157.55   34.17
   0   0   6 1158.38   32.38
   0   0   6 1157.58   33.13
   0   0   7    3.30    2.88
   0   0   7   -2.52    5.37
   0   0   7   -0.77    2.37
   0   0   8 1124.60   21.80
   0   0   8 1124.39   20.54
   0   0   9    0.76    2.31
   0   0   9    1.35    6.33
   0   0   9    1.29    3.22
   0   0  10   14.17    4.14
   0   0  10   14.49    4.47
   0   0  10   14.51    7.90
   0   0  11    3.22    3.99
   0   0  11   -3.83    7.60
   0   0  11   -0.76    2.94
   0   0  12 4005.97   61.58
   0   0  12 4018.30   58.00
   0   0  12 4019.47   58.75
   0   0  13   -3.81    7.17
   0   0  13    0.59    4.85
   0   0  13    5.82    2.85
   0   0  14   12.96    9.16
   0   0  15   -4.30    7.92
   0   0  16  607.57   45.62
   0   0  17   -5.55    9.63
  -1   1 -14  760.86   28.34
   1  -1 -13  262.10   19.49
  -1   1 -13  286.97   17.38
  -1   1 -12  199.93   14.50
   0   1 -12  208.40   15.38
   1   0 -12  188.39   17.39
   1  -1 -12  182.60   15.71
  -1   0 -12  185.09   10.18
   1  -1 -11  297.01   19.05
  -1   1 -11  292.78   17.13
   0   1 -11  326.44   19.11
   1   0 -11  283.86   20.38
  -1   0 -11  277.96   12.58
   0   1 -10 2111.15   46.04
   1   0 -10 2038.88   51.79
   1  -1 -10 1965.33   46.10
  -1   1 -10 1994.73   42.55
  -1   0 -10 2031.77   33.33
   1  -1  -9  886.11   29.44
  -1   1  -9  864.55   27.22
   0  -1  -9  922.81   24.39
   1   0  -9  889.58   32.85
   0   1  -9  870.98   28.70
  -1   0  -9  882.44   21.53
  -1   0  -8  110.54    7.58
   0   1  -8  116.44   10.52
   0  -1  -8  127.88    8.67
  -1   1  -8   97.82    9.16
   1   0  -8  121.32   11.76
   1  -1  -8  123.09   10.89
  -1   1  -7  290.64   14.64
   0  -1  -7  296.32   11.96
  -1   1  -7  299.16   20.10
  -1   0  -7  289.94   19.62
   0   1  -7  284.27   15.05
   1   0  -7  267.32   16.53
   1  -1  -7  299.53   15.48
  -1   0  -7  306.24   12.02
   1  -1  -6  274.98   13.94
  -1   0  -6  273.45   10.76
   0  -1  -6  276.61   10.48
  -1   1  -6  290.83   18.14
  -1   1  -6  263.08   13.45
   0   1  -6  268.75   14.17
  -1   0  -6  257.10   17.99
   1   0  -6  259.06   15.48
  -1   0  -5   93.28    9.75
   0   1  -5   90.35   13.60
   0  -1  -5   99.11    8.99
  -1   0  -5   98.26   14.70
   1   0  -5   94.62   14.24
  -1   1  -5   93.94   12.16
   0   1  -5   90.44   14.37
  -1   1  -5   96.21   15.05
   1  -1  -5   94.41   12.05
   0   1  -4    5.14    4.55
  -1   1  -4    2.17    4.74
  -1   0  -4    6.52    4.95
  -1   1  -4   -0.99    3.45
   1   0  -4    6.24    4.26
   0  -1  -4    4.59    1.88
   1  -1  -4    5.55    3.29
  -1   0  -4    3.87    2.79
   0   1  -4   -1.73    3.51
  -1   1  -3  793.10   25.74
  -1   0  -3  750.95   28.63
   1  -1  -3  751.76   24.64
  -1   1  -3  751.24   28.45
   1   0  -3  750.97   27.50
   0   1  -3  750.94   26.36
  -1   0  -3  751.12   20.86
   1   0  -210904.55   67.18
   1  -1  -210870.62   61.50
  -1   1  -210838.30   67.29
   0  -1  -210841.45   54.16
  -1   1  -210922.76   63.78
  -1   0  -210817.95   66.69
  -1   1  -210807.10   51.93
   0   1  -210758.81   65.59
   0  -1  -1 2825.97   21.69
   0   1  -1 2822.18   27.01
   1  -1  -1 2824.91   26.45
  -1   1  -1 2820.41   26.35
  -1   0   0 1871.15   11.99
  -1   0   1 3114.53   23.32
  -1   1   1 3114.06   23.34
   0  -1   210945.63   65.88
   0   1   210954.58   54.37
   1  -1   210949.00   68.08
  -1   0   210936.21   67.26
  -1   1   210934.11   61.63
   1  -1   210939.99   64.01
   0  -1   210937.43   67.63
   1   0   210940.38   67.23
   0   1   210937.43   57.97
   0  -1   210935.24   58.16
   0   1   3  790.73   20.26
  -1   1   3  792.99   24.76
   1  -1   3  791.83   28.45
   1  -1   3  787.56   25.46
   0  -1   3  790.79   26.54
   1  -1   3  789.40   18.88
  -1   0   3  789.82   27.62
   0  -1   3  789.51   27.43
   0   1   3  793.59   26.66
   1   0   3  792.14   28.92
  -1   0   3  793.55   24.54
   0  -1   3  793.93   25.84
   0  -1   4    0.98    3.45
   0   1   4    4.34    1.99
   0   1   4    2.99    2.26
   0   1   4    5.58    5.18
   1  -1   4   -0.02    2.27
   1   0   4   -5.16    5.35
  -1   1   4    1.16    3.24
  -1   0   4   12.00    3.62
   1  -1   4   -5.74    5.87
  -1   0   4   -2.70    3.55
   1  -1   4    6.81    3.74
   0  -1   4    3.87    3.48
   0  -1   4    3.09    5.15
   1  -1   5   98.29    8.58
   1   0   5   96.15    8.69
  -1   0   5   95.69   14.13
   1   0   5   96.18   15.36
   1  -1   5   96.07   12.10
   1  -1   5   96.73   12.29
  -1   1   5   96.04    8.75
   0  -1   5   97.15   13.13
   0   1   5   93.05    8.76
   0   1   5   99.60   15.61
   0  -1   5   99.30   13.86
  -1   1   5   94.46   13.16
   1  -1   5   96.59   15.78
   0   1   5   92.05    9.00
  -1   0   5   99.91   11.71
   0  -1   5   96.65   15.90
   0   1   6  284.19   10.31
   1   0   6  287.04   18.51
   1  -1   6  262.15   13.40
  -1   1   6  281.63   14.26
   0  -1   6  264.34   14.10
   0  -1   6  266.31   15.43
  -1   1   6  269.96    9.25
  -1   0   6  280.95   13.26
   0  -1   6  265.32   17.12
  -1   0   6  269.75   15.41
   0   1   6  268.22   17.37
   1  -1   6  273.31   13.90
   0   1   6  267.39   10.05
   1  -1   6  283.22   18.52
   1   0   6  271.33   10.20
   1  -1   7  283.45   15.03
   0   1   7  277.00   19.21
   0  -1   7  287.71   15.27
  -1   1   7  285.68    9.86
  -1   1   7  294.98   15.34
  -1   0   7  288.74   16.84
   1  -1   7  303.84   20.47
   1  -1   7  290.34   14.79
   0  -1   7  291.62   16.97
   1   0   7  301.45   20.45
   0   1   7  233.30   10.58
   1   0   7  237.36   10.75
  -1   0   7  285.92   13.97
   0  -1   7  275.45   18.97
   0   1   7  283.71   10.76
   0   1   8  123.03    7.25
   0  -1   8  130.39   10.98
  -1   0   8  120.54    9.59
   1   0   8  130.58   15.24
   1   0   8  122.48    8.31
   1  -1   8  140.95   15.21
   0   1   8  144.59   15.33
   0  -1   8  129.25   12.17
  -1   1   8  129.60   11.00
   0   1   8  105.69    8.02
   1  -1   8  122.66   10.13
   0  -1   8  141.69   15.16
  -1   0   8  131.76   12.24
  -1   1   8  120.53    6.79
   1  -1   8  130.15   10.91
   0   1   9  909.77   39.06
   1   0   9  858.62   23.53
   1   0   9  957.24   40.30
  -1   1   9  867.54   38.36
  -1   1   9  855.76   18.15
   0   1   9  861.03   19.45
   1  -1   9  882.11   27.53
  -1   0   9  856.75   38.24
   1  -1   9  850.84   28.82
   0  -1   9  904.49   32.84
  -1   1   9  886.04   29.51
  -1   0   9  869.29   25.99
   0  -1   9  853.20   37.87
   1  -1   9  921.39   39.52
  -1   0   9  863.28   31.99
   0  -1   9  842.71   28.39
   0   1   9  875.18   23.89
   0  -1  10 2053.55   62.07
  -1   0  10 1952.43   40.45
  -1   0  10 1975.17   50.90
   1  -1  10 1962.63   45.71
   1   0  10 2011.79   61.87
  -1   1  10 1940.33   45.63
   1  -1  10 1944.92   25.60
   0   1  10 1816.00   36.24
   0  -1  10 1974.63   44.49
   1  -1  10 1958.38   60.96
   0   1  10 1999.70   60.91
  -1   0  10 2003.24   61.58
  -1   1  10 1910.05   27.56
   0  -1  10 2018.52   51.10
   1  -1  10 2016.11   42.69
   0   1  10 1930.65   29.18
  -1   1  10 1959.53   61.09
   1   0  10 1979.45   37.57
  -1   1  11  327.59   26.73
   0  -1  11  293.84   17.89
   1   0  11  294.84   15.45
  -1   0  11  279.53   24.86
   1  -1  11  280.70   25.31
  -1   1  11  284.70   18.87
   0   1  11  278.18   11.06
   0   1  11  269.11   24.43
   0  -1  11  306.89   25.93
   1  -1  11  269.56   17.99
  -1   1  11  283.93   10.52
   1  -1  11  281.98    9.29
  -1   0  11  268.21   15.70
   0   1  11  263.84   14.92
   1   0  11  280.63   25.58
  -1   0  11  281.05   20.52
   0  -1  11  279.28   20.23
   1  -1  11  276.41   16.63
  -1   1  12  170.16   20.70
   0   1  12  189.82    8.67
   1  -1  12  204.83   14.62
   1   0  12  177.24   12.76
   0  -1  12  170.96   14.41
  -1   0  12  192.23   13.52
  -1   1  12  195.25    8.26
   1  -1  12  194.32   22.71
  -1   1  12  186.00   15.93
   1  -1  12  181.47   15.66
   0   1  12  175.29   21.43
   0  -1  12  183.84   21.90
   0  -1  12  203.17   18.39
  -1   0  12  181.37   17.11
   0   1  12  172.94   12.78
   1   0  12  168.13   20.98
  -1   0  12  209.42   22.79
  -1   1  13  301.94   20.70
  -1   0  13  286.79   28.18
   1  -1  13  283.27   27.78
   1  -1  13  270.64   19.49
   0  -1  13  280.72   27.84
  -1   1  13  293.42   28.26
   1   0  13  322.28   29.56
   0   1  13  302.11   29.09
   1  -1  13  267.80   16.96
  -1   0  13  294.35   16.66
   1   0  13  289.70   17.07
   0   1  13  304.57   17.62
   0  -1  13  296.63   18.82
   1  -1  14  773.90   47.44
  -1   0  14  773.37   47.21
   0   1  14  736.46   46.07
  -1   1  14  779.01   47.28
   1   0  14  693.98   44.98
   0  -1  14  646.56   42.97
  -1   0  15  137.55   21.68
  -1   1  15  145.45   22.33
   0  -1  15  136.85   22.00
   1   0  15  129.00   21.28
   1  -1  15  161.39   22.92
   0   1  15  163.13   24.13
  -1   1  16   79.24   19.08
  -1   0  16   55.92   17.42
   1  -1  16   61.68   17.10
   1   0  16   51.83   15.61
   0  -1  16   57.41   17.03
   0   1  16   43.97   13.62
  -1   0  17   56.53   15.82
   0  -1  17   29.82   11.28
  -1   1  17   46.74   14.87
   1   0  17   33.70   13.70
   0   1  17   29.67   12.61
   1  -1  17   40.96   13.66
   1  -2 -14   -3.42    3.86
  -2   1 -14   -1.67    3.36
   1  -2 -13    3.44    4.46
  -2   1 -13   -1.10    3.90
  -2   1 -12 1429.20   38.32
   1  -2 -12 1373.17   38.01
   1  -2 -11    0.54    3.86
  -2   1 -11   -2.85    4.66
   1   1 -11   -2.48    6.14
   1   1 -10  272.11   21.33
  -2   1 -10  263.61   16.21
   1  -2 -10  258.01   15.45
   1   1  -9   -0.17    5.43
  -2   1  -9   -2.66    4.08
   1  -2  -9    3.00    4.08
  -2   1  -8 2160.39   43.20
  -2   1  -8 2203.25   59.14
   1   1  -8 2165.10   48.06
   1   1  -8 2108.92   52.77
   1  -2  -8 2141.46   39.86
   1  -2  -7    4.67    3.45
   1   1  -7   -1.58    5.04
   1   1  -7   -2.20    3.89
  -2   1  -7    2.37    5.55
  -2   1  -7    5.42    3.78
   1  -2  -6   82.12   10.36
  -2   1  -6   84.30   11.44
   1   1  -6   85.32   13.48
   1   1  -6   81.56   12.78
  -2   1  -6   83.94   14.56
  -2   1  -5   -0.67    1.45
   1   1  -5   -1.87    4.85
  -2   1  -5   -0.06    5.12
   1   1  -5    3.37    4.97
  -2   1  -5    0.86    3.78
   1  -2  -5    2.49    2.94
   1  -2  -4 9476.46   70.26
  -2   1  -4 9469.62   80.15
   1   1  -4 9475.25   91.58
  -2   1  -4 9416.52   93.25
   1   1  -4 9485.88   86.66
   1   1  -3    1.74    4.75
  -2   1  -3   -0.86    4.00
   1  -2  -3    7.40    4.04
  -2   1  -3    3.21    5.02
   1  -2  -3    4.08    2.61
   1   1  -3    0.81    5.61
  -2   1  -2 5131.30   56.15
   1  -2  -2 5001.43   45.18
   1   1  -2 4926.12   57.69
   1   1  -2 5085.44   58.47
   1  -2  -1    5.53    3.70
   1   1  -1    0.28    4.57
  -2   1  -1    8.02    4.19
   1  -2  -1    5.52    4.93
   1   1   0 7971.58   60.91
  -2   1   0 7717.87   65.19
   1  -2   0 7849.88   65.00
   1  -2   0 8015.60   68.02
   1   1   1    1.40    3.02
   1  -2   1   -0.34    4.32
  -2   1   1    2.38    4.29
   1  -2   1    4.17    4.53
  -2   1   2 5521.61   63.56
   1  -2   2 5521.03   59.80
   1   1   2 5521.64   39.42
   1  -2   2 5521.17   63.99
   1  -2   3    1.25    3.75
   1  -2   3    4.64    4.82
   1  -2   3    1.89    4.23
  -2   1   3   -0.41    4.61
   1   1   3   -1.04    4.38
   1  -2   4 9441.41   81.03
   1   1   4 9463.52   79.12
  -2   1   4 9465.13   81.69
   1  -2   4 9465.13   78.89
   1   1   5    2.93    4.83
   1  -2   5    1.97    4.75
  -2   1   5    1.74    3.68
   1  -2   5    4.24    4.11
   1   1   6  225.21   19.50
   1  -2   6  223.87   19.00
  -2   1   6  228.87   18.86
   1  -2   6  227.57   17.88
   1  -2   6  226.66   20.15
   1   1   7    8.24    6.41
   1  -2   7   -1.14    3.92
   1  -2   7    6.11    6.05
   1  -2   7    0.40    4.04
  -2   1   7   -2.32    4.01
  -2   1   7   -2.57    2.60
  -2   1   8 2611.67   41.25
   1   1   8 2611.88   60.08
   1  -2   8 2610.17   52.44
   1  -2   8 2618.79   50.78
  -2   1   8 2618.41   53.63
   1  -2   8 2618.83   60.14
  -2   1   9   -0.32    2.62
   1  -2   9   -2.25    3.96
   1  -2   9   10.98    8.32
   1   1   9    1.97    7.24
  -2   1   9    1.14    4.45
   1   1   9    1.83    1.22
   1  -2   9   -1.71    4.42
   1  -2  10  248.38   19.13
   1  -2  10  249.56   18.15
   1   1  10  274.20   23.67
   1  -2  10  251.44   22.69
   1   1  10  238.66    8.52
  -2   1  10  246.25   19.11
  -2   1  10  244.59   14.14
  -2   1  11    0.62    3.34
   1   1  11   -1.26    1.54
   1  -2  11   -2.71    4.86
   1  -2  11    4.55    5.81
   1   1  11    3.47    8.31
   1  -2  11    0.16    8.05
  -2   1  11   -0.92    5.17
   1  -2  12 1301.69   46.20
   1  -2  12 1361.79   56.97
   1  -2  12 1457.93   33.00
   1  -2  12 1374.29   43.83
   1   1  12 1419.47   58.18
   1   1  12 1386.68   23.55
  -2   1  12 1471.14   34.28
  -2   1  12 1349.55   47.34
  -2   1  12 1465.13   59.63
   1  -2  13  -13.25    8.00
   1   1  13   -0.30    6.78
   1  -2  13    2.02    4.94
  -2   1  13   -4.26    7.02
   1  -2  13   -3.67    2.85
   1  -2  14   90.67   17.63
   1   1  14  115.87   19.70
  -2   1  14   77.11   16.32
   1  -2  15    9.05   10.46
  -2   1  15    3.09    6.89
   1   1  15   12.04    9.25
  -2   1  16  414.41   38.12
   1   1  16  444.73   39.42
   1  -2  16  388.39   37.24
  -2   1  17    6.88    7.58
   1  -2  17   15.04   12.09
   1   1  17   -1.31   11.01
   2  -1 -16  436.42   30.77
   2  -1 -15  -12.35    7.80
  -1   2 -15   -2.53    5.04
  -1   2 -14   88.73   13.19
   2  -1 -14   78.22   13.24
   2  -1 -13    0.10    6.14
  -1   2 -13   -1.19    4.85
  -1   2 -12 1432.45   44.88
   2  -1 -12 1484.79   49.29
   2  -1 -11   -3.37    5.19
  -1   2 -11    9.02    6.59
  -1   2 -10  282.65   18.93
   2  -1 -10  213.11   17.80
  -1   2  -9    4.12    4.57
   2  -1  -9    2.26    5.20
  -1   2  -8 2384.67   51.37
   2  -1  -8 2352.53   53.34
  -1  -1  -8 2323.65   23.87
   2  -1  -7    1.13    4.99
  -1   2  -7   -1.53    5.02
  -1  -1  -7    2.37    1.57
  -1   2  -6  227.53   20.13
  -1  -1  -6  232.37   10.39
   2  -1  -6  230.23   19.21
  -1   2  -6  232.14   18.29
  -1  -1  -6  233.80   19.53
  -1  -1  -5    4.70    4.09
   2  -1  -5    3.49    4.89
  -1   2  -5   -3.05    4.85
  -1   2  -5    0.84    3.78
  -1  -1  -5   -0.31    1.83
  -1   2  -4 9472.82   77.75
  -1   2  -4 9471.38   80.90
  -1  -1  -4 9443.87   78.40
   2  -1  -4 9475.92   81.23
  -1   2  -3   -3.60    4.66
  -1  -1  -3    0.69    3.67
   2  -1  -3    5.58    5.27
  -1   2  -3    3.50    3.44
   2  -1  -2 6007.52   63.10
  -1  -1  -2 5953.88   52.06
  -1   2  -2 5907.67   62.86
  -1  -1  -2 6017.99   39.03
  -1   2  -2 5966.70   52.28
  -1   2  -1    5.44    3.83
  -1  -1  -1    2.55    2.66
   2  -1  -1    6.78    5.35
  -1   2  -1    6.49    4.44
   2  -1   0 5217.78   66.75
  -1  -1   0 5215.38   66.22
  -1   2   0 5216.15   68.33
  -1  -1   0 5213.41   60.93
  -1   2   0 5217.15   65.29
  -1  -1   1    0.81    3.90
   2  -1   1   -0.75    4.31
  -1  -1   1   -0.94    4.14
  -1   2   1    1.46    3.96
  -1   2   1   -3.41    3.93
  -1   2   2 5135.25   55.50
   2  -1   2 5133.11   50.73
  -1  -1   2 5138.08   58.49
  -1  -1   2 5139.68   58.06
  -1   2   2 5134.35   45.89
  -1   2   3   -2.96    4.09
  -1   2   3    2.61    2.80
  -1  -1   3   -0.42    4.07
  -1  -1   3    1.17    3.35
  -1   2   4 9433.20   51.41
  -1  -1   4 9446.49   86.41
  -1  -1   4 9498.16   91.08
  -1  -1   5    1.55    4.04
  -1  -1   5   -3.15    4.52
  -1   2   5    1.54    3.61
   2  -1   5    0.52    6.02
  -1   2   5    0.98    1.32
  -1  -1   6   82.85   12.01
  -1   2   6   81.33    9.97
   2  -1   6   82.05   12.73
   2  -1   6   89.88   16.08
  -1  -1   6   89.54   13.54
  -1   2   7   -0.92    2.83
   2  -1   7    0.44    3.04
  -1  -1   7   -4.47    4.34
  -1  -1   7    6.77    4.37
   2  -1   7   -0.08    6.42
  -1  -1   8 2124.45   52.66
  -1  -1   8 2052.86   46.88
   2  -1   8 2132.99   42.84
   2  -1   8 2173.70   59.38
   2  -1   9    2.96    2.60
  -1  -1   9    0.26    5.78
  -1  -1   9   -1.75    4.51
  -1  -1   9    9.59    5.57
  -1   2   9   -3.45    6.89
  -1   2   9   -2.90    2.81
   2  -1   9    5.99    5.87
  -1  -1  10  264.92   20.01
  -1   2  10  264.06   15.48
   2  -1  10  264.03   15.28
  -1  -1  10  275.87   18.40
   2  -1  10  267.71   24.85
  -1   2  10  270.87   24.16
  -1  -1  10  277.26   24.39
  -1  -1  11   -4.59    4.98
  -1   2  11   -5.58    8.50
  -1   2  11   -2.24    4.14
   2  -1  11   -4.04    4.61
  -1  -1  11   -5.87    9.67
   2  -1  11    7.22    8.58
  -1   2  11   -2.78    3.52
  -1   2  12 1463.23   58.45
  -1   2  12 1364.20   35.35
   2  -1  12 1365.18   59.10
  -1   2  12 1362.30   37.94
  -1  -1  12 1365.94   58.13
   2  -1  12 1366.94   36.83
  -1  -1  12 1363.20   42.07
  -1  -1  13   -0.95    5.16
   2  -1  13   -8.15   10.82
  -1  -1  13    7.66    6.77
  -1   2  13   15.71    9.40
  -1  -1  14    9.75    9.78
  -1   2  14    6.82    6.81
   2  -1  14    6.77    7.54
  -1   2  15   -3.38    7.49
   2  -1  15    7.22    9.08
  -1  -1  15    8.16   10.31
  -1   2  16  523.39   42.54
   2  -1  16  522.53   43.42
  -1  -1  16  475.68   41.13
   2  -1  17  -10.73   11.40
  -1  -1  17  -23.81   11.98
  -1   2  17   11.32   10.38
   2  -2 -15    6.78    8.01
   2   0 -15   15.44    9.03
   2  -2 -14  466.69   27.82
   0   2 -14  528.84   29.93
  -2   2 -14  549.98   28.52
   2   0 -14  439.94   30.82
   0   2 -13  137.83   15.60
   2  -2 -13  131.66   14.70
   2   0 -13  135.41   16.87
  -2   2 -13  107.28   13.11
  -2   0 -13  113.75    8.49
  -2   2 -12  165.00   15.38
   2   0 -12  158.23   17.58
   2  -2 -12  126.72   14.70
   0   2 -12  152.47   15.84
  -2   0 -12  122.59    9.24
  -2   2 -11  630.24   28.95
   2   0 -11  621.77   33.01
   0   2 -11  639.36   30.67
  -2   0 -11  587.80   20.11
   2  -2 -11  547.89   27.22
   2  -2 -10  618.41   28.33
  -2   2 -10  657.80   28.64
   0   2 -10  643.97   30.13
   2   0 -10  598.03   31.28
  -2   0 -10  628.91   20.94
   0  -2 -10  634.25   17.08
   0  -2  -9  401.36   12.88
  -2   2  -9  402.12   21.91
   2  -2  -9  380.21   21.49
  -2   0  -9  417.91   16.99
   0   2  -9  385.09   22.37
   2   0  -9  371.57   23.88
  -2   0  -8   85.47   12.19
  -2   0  -8   80.69    7.84
   2  -2  -8   99.13   10.72
  -2   2  -8   88.38   10.50
  -2   2  -8   91.55   12.80
   0   2  -8   93.67   11.45
   0  -2  -8   96.36    6.20
   2   0  -8   96.61   12.42
  -2   0  -7  224.22   12.46
   2  -2  -7  208.76   14.95
  -2   2  -7  242.15   18.82
  -2   0  -7  229.25   18.27
   0  -2  -7  236.43    8.88
   0   2  -7  245.87   17.14
  -2   2  -7  254.65   16.78
   2   0  -7  239.05   17.69
   0   2  -6 5261.12   74.86
  -2   2  -6 5253.73   80.35
   2  -2  -6 5311.89   69.36
  -2   0  -6 5143.05   58.15
   0  -2  -6 5244.07   40.02
  -2   0  -6 5141.57   79.53
  -2   2  -6 5382.57   72.16
   2   0  -6 5255.70   77.66
   0   2  -5 2383.86   46.07
   2  -2  -5 2388.81   43.21
  -2   0  -5 2380.31   48.39
   2   0  -5 2380.44   47.82
   0  -2  -5 2380.08   25.51
  -2   2  -5 2388.17   48.63
  -2   0  -5 2383.57   37.12
  -2   2  -5 2381.68   45.04
   0  -2  -4 1213.45   18.97
  -2   2  -4 1216.79   32.34
  -2   2  -4 1208.71   24.21
   2  -2  -4 1214.43   30.01
  -2   2  -4 1205.47   30.77
   0   2  -4 1215.89   32.38
   0  -2  -4 1213.47   26.41
   0  -2  -4 1218.33   18.88
   2   0  -4 1206.87   32.78
  -2   0  -4 1211.40   32.07
  -2   2  -3 4398.17   59.73
   0   2  -3 4540.91   61.56
   2  -2  -3 4394.11   56.95
  -2   2  -3 4399.07   59.00
  -2   2  -3 4497.94   50.29
  -2   0  -3 4290.24   59.48
  -2   0  -3 4368.63   39.95
   2   0  -3 4460.69   61.16
   0  -2  -3 4480.58   52.69
   0  -2  -3 4475.88   42.12
  -2   2  -2 2177.92   35.75
   2   0  -2 2183.14   40.83
  -2   0  -2 2200.09   30.32
   0   2  -2 2161.60   40.71
  -2   2  -2 2274.46   41.23
   2  -2  -2 2258.23   39.68
   0  -2  -2 2175.80   32.33
   0  -2  -2 2164.45   37.09
  -2   2  -1  671.76   23.05
   0  -2  -1  676.93   19.81
  -2   0  -1  672.16   19.19
   2   0  -1  674.22   22.46
   0   2  -1  676.79   22.07
   2  -2  -1  675.51   23.19
   0  -2   0  555.55   22.04
   0   2   0  556.15   22.33
   2  -2   0  558.54   23.03
   2   0   0  552.58   21.71
  -2   0   0  551.01   21.22
  -2   2   0  551.12   22.98
  -2   2   1  677.88   21.83
   0  -2   1  672.55   22.79
   0   2   1  678.26   20.31
   2   0   1  677.12   19.51
  -2   0   1  674.13   22.33
   2  -2   1  675.42   22.93
   0  -2   2 2255.09   41.06
   0  -2   2 2239.02   41.12
   2  -2   2 2158.75   39.81
   2   0   2 2205.86   30.44
  -2   2   2 2168.25   39.03
  -2   2   2 2221.75   35.62
   0   2   2 2214.75   32.45
   0  -2   2 2207.60   27.15
  -2   0   2 2243.32   40.59
   0   2   2 2203.14   27.02
  -2   2   3 4457.91   57.20
  -2   2   3 4538.00   49.60
   0   2   3 4469.80   42.52
   2  -2   3 4489.35   59.36
   0  -2   3 4460.16   60.82
   0   2   3 4477.85   47.97
   2   0   3 4464.81   40.20
   0  -2   3 4375.70   47.63
   0  -2   3 4428.29   61.00
  -2   0   3 4509.13   61.35
  -2   2   4 1244.71   30.43
   0  -2   4 1252.00   32.38
   0  -2   4 1246.55   27.80
   2  -2   4 1240.04   31.22
  -2   0   4 1245.26   32.93
   0   2   4 1251.20   27.92
  -2   2   4 1246.40   24.18
   2   0   4 1252.29   18.72
   0  -2   4 1252.83   33.41
   0  -2   5 2383.12   46.18
   2  -2   5 2388.17   44.22
  -2   2   5 2382.63   43.22
   2   0   5 2386.67   25.00
   2   0   5 2382.59   48.56
  -2   0   5 2386.85   46.98
   0  -2   5 2380.85   43.31
   0   2   5 2385.30   43.83
   0  -2   5 2382.85   47.70
  -2   0   5 2381.81   43.09
   2  -2   5 2387.78   49.69
   0  -2   6 5285.31   74.29
   0  -2   6 5229.97   77.23
  -2   0   6 5251.91   78.29
   2   0   6 5290.23   81.77
  -2   0   6 5241.56   68.71
   0   2   6 5312.77   74.86
   2  -2   6 5296.14   82.48
   2   0   6 5240.81   39.19
   2  -2   6 5214.41   71.36
  -2   2   6 5270.78   69.77
   0  -2   6 5207.23   73.80
  -2   2   7  225.85   15.31
   0  -2   7  218.56   16.99
   0  -2   7  230.06   16.77
  -2   0   7  237.41   17.83
   2   0   7  235.85    8.74
   2  -2   7  265.41   20.32
   0   2   7  230.68   17.27
   2   0   7  237.98   19.04
   2  -2   7  220.43   15.45
   0  -2   7  211.96   16.62
  -2   0   7  241.69   15.52
  -2   2   8   85.81    6.43
  -2   0   8   85.28   11.19
   0   2   8   99.53   13.29
   2  -2   8   96.36   14.24
   0  -2   8   95.81   11.52
   0  -2   8   90.87   10.74
  -2   2   8   81.36   10.18
   2   0   8   86.86    5.69
   2   0   8  104.96   14.90
   2  -2   8   92.13   10.94
  -2   0   8   91.47   10.17
   0  -2   8   66.10   11.17
   2  -2   8   85.65   10.15
   0  -2   9  405.97   23.28
  -2   0   9  345.42   19.53
   2  -2   9  378.39   21.10
   2  -2   9  416.45   27.96
  -2   2   9  357.80   20.55
   0  -2   9  398.43   24.49
   0   2   9  359.35   25.02
   0  -2   9  383.82   25.72
  -2   2   9  385.95   13.20
   2  -2   9  388.26   21.63
   2   0   9  409.35   28.13
  -2   0   9  379.95   24.26
   2   0   9  371.98   12.20
   0  -2  10  636.70   34.91
   2  -2  10  632.50   28.03
   2  -2  10  605.72   27.71
  -2   0  10  622.11   26.69
   0  -2  10  629.47   29.75
  -2   2  10  657.61   28.70
   0   2  10  644.73   35.34
  -2   0  10  637.63   32.21
  -2   2  10  617.23   15.86
   0  -2  10  706.62   34.22
   2   0  10  679.79   37.45
   2   0  10  616.81   16.58
   2  -2  10  670.70   36.96
   0   2  11  591.94   35.82
   2   0  11  615.82   37.81
   2   0  11  579.14   16.89
   0  -2  11  594.75   36.20
  -2   2  11  560.42   13.64
   0  -2  11  568.70   28.91
   2  -2  11  546.77   27.22
   0   2  11  589.65   17.50
   2  -2  11  557.38   27.29
  -2   0  11  560.41   25.99
  -2   2  11  565.89   13.58
  -2   2  11  583.26   28.25
   2  -2  11  563.58   36.20
  -2   2  12  134.42   18.88
   0   2  12  146.70   19.50
   2  -2  12  127.86   13.74
   0  -2  12  183.91   21.88
   0   2  12  131.64    8.64
   2  -2  12  145.62   14.96
   2  -2  12  120.13   17.80
  -2   0  12  144.75   13.82
  -2   2  12  119.87   13.47
   2   0  12  148.28    8.89
  -2   0  12  122.10   17.72
   2   0  12  131.20   19.11
   0  -2  12  151.91   16.12
  -2   2  13  130.89   19.95
   0  -2  13  129.61   15.23
   2  -2  13  128.86   14.10
   2   0  13  116.84   19.25
  -2   0  13  130.60   19.46
   2  -2  13  133.78   19.87
   0   2  13  108.17   17.51
   2  -2  13  116.42   13.92
   0  -2  13  139.50   19.77
  -2   2  13  114.75   13.49
  -2   0  14  516.71   39.38
  -2   2  14  476.37   38.06
   0   2  14  523.97   39.03
   2   0  14  459.59   37.55
   2  -2  14  481.00   38.09
   0  -2  14  502.63   38.32
  -2   0  15  -11.95   11.19
   0   2  15   16.06   11.13
   2   0  15   14.59   10.51
   2  -2  15    1.89    7.29
   0  -2  15    0.18    8.88
  -2   2  15   20.56   12.36
   2  -2  16    1.30    8.17
  -2   2  16    0.34    8.01
  -2   0  16   21.39    8.90
   2   0  16    0.48    7.28
   0  -2  16   -5.26   11.59
   0   2  16   22.36   11.69
  -2   2  17   82.71   19.13
   2  -2  17   88.55   22.03
   2   0  17   83.89   19.22
  -2   0  17   71.31   18.27
   0  -2  17  116.50   22.16
   0   2  17   88.12   19.22
   2  -3 -14  160.27   15.63
  -3   2 -14  163.56   16.04
   2   1 -13   91.52   16.10
   1  -3 -13   66.87    8.23
   2  -3 -13   70.45   10.43
  -3   1 -13   86.13   10.73
  -3   2 -13   66.90   10.59
  -3   2 -12   26.42    7.16
   2  -3 -12   39.63    8.57
  -3   1 -12   39.07    7.20
   2   1 -12   51.96   12.47
   1  -3 -12   23.57    5.44
  -3   2 -11    5.96    5.29
   1  -3 -11    6.86    3.89
   2  -3 -11   12.26    6.26
   2   1 -11    5.62    7.61
  -3   1 -11   18.98    5.85
   2   1 -10 1290.19   49.49
  -3   2 -10 1249.59   40.95
   2  -3 -10 1247.65   37.92
  -3   1 -10 1305.41   38.15
   1   2 -10 1246.83   44.66
   1  -3 -10 1294.68   31.52
  -3   2  -9  186.73   15.93
  -3   1  -9  184.94   14.82
   2   1  -9  168.89   17.82
   2  -3  -9  186.59   14.75
   1   2  -9  188.23   17.38
   1  -3  -9  184.71   11.91
   1   2  -8 2505.84   63.95
  -3   2  -8 2381.51   54.07
  -3   1  -8 2424.86   50.71
   2   1  -8 2448.65   62.84
   1   2  -8 2499.46   59.50
   1  -3  -8 2406.90   41.55
   2  -3  -8 2360.66   49.60
  -3   1  -7  547.87   29.73
   2  -3  -7  554.87   23.49
  -3   1  -7  533.46   11.98
   2   1  -7  560.02   29.28
  -3   1  -7  567.23   24.17
   1  -3  -7  583.40   20.07
   1   2  -7  549.58   28.76
  -3   2  -7  555.66   25.68
  -3   2  -7  510.83   28.78
   1   2  -7  542.39   27.12
   1   2  -6 4525.14   75.20
   1  -3  -6 4487.34   38.24
  -3   1  -6 4620.11   67.21
   1  -3  -6 4526.37   55.28
  -3   1  -6 4495.06   80.19
  -3   2  -6 4459.57   49.46
   1   2  -6 4624.03   79.59
   2  -3  -6 4382.48   64.18
  -3   2  -6 4560.17   70.63
  -3   2  -6 4545.97   80.70
   2   1  -6 4558.20   78.86
  -3   1  -5 1824.66   48.59
   1  -3  -5 1828.29   34.87
  -3   2  -5 1831.39   44.27
   2  -3  -5 1881.47   41.15
   1  -3  -5 1787.85   27.88
   2   1  -5 1858.67   48.11
   1   2  -5 1843.22   46.81
  -3   2  -5 1777.73   32.72
  -3   1  -5 1892.11   42.27
   1   2  -5 1848.88   48.48
  -3   2  -5 1898.06   49.79
   1   2  -4 1221.58   37.01
  -3   1  -4 1181.16   37.65
  -3   2  -4 1179.57   37.32
   2   1  -4 1249.13   37.80
   2  -3  -4 1179.02   32.15
   1  -3  -4 1181.82   24.98
  -3   2  -4 1237.10   35.55
  -3   1  -4 1251.78   34.21
   1   2  -4 1209.05   37.29
   1  -3  -4 1204.40   28.80
   2  -3  -3 4958.56   58.84
   1   2  -3 4957.73   73.99
  -3   2  -3 4955.54   72.05
   1   2  -3 4953.89   74.74
   2  -3  -3 4959.66   67.45
   1  -3  -3 4958.59   56.23
   2   1  -3 4951.39   75.18
  -3   2  -2   81.11    7.63
   1   2  -2   81.25    8.57
   2  -3  -2   81.65    5.81
   1  -3  -2   81.74    6.06
   1  -3  -2   81.60    8.11
   2  -3  -2   81.62    6.86
   2   1  -2   81.72    8.54
  -3   1  -2   81.44    6.81
   1   2  -2   81.90    7.99
   1   2  -1 1228.76   34.38
   2   1  -1 1228.11   32.62
   1  -3  -1 1225.65   34.52
   1  -3  -1 1221.18   30.84
   1   2  -1 1225.59   33.90
   2  -3  -1 1227.57   32.55
  -3   2  -1 1226.15   35.13
  -3   1  -1 1220.59   32.19
   2  -3   0    4.11    3.90
  -3   2   0   -2.89    4.28
  -3   1   0   13.22    5.74
   1   2   0   -1.09    5.11
  -3   2   0    6.39    5.53
   1  -3   0   -3.97    5.35
   2   1   0    2.81    4.61
   1  -3   0   -3.95    4.03
   2   1   1  445.79   16.85
  -3   2   1  452.99   20.61
   1  -3   1  499.71   21.78
   1  -3   1  464.37   20.71
   2  -3   1  488.24   21.17
  -3   1   1  446.76   20.02
   1  -3   2 3148.92   54.72
   1  -3   2 3052.84   53.13
  -3   2   2 3147.50   54.76
   2  -3   2 3135.14   54.68
   2   1   2 3171.37   40.49
  -3   1   2 3157.61   54.64
   2  -3   2 3111.33   51.62
  -3   1   3   85.04   10.24
   1  -3   3  114.68   11.40
   2   1   3   93.27    6.67
  -3   2   3   94.33   10.50
   1  -3   3   95.52    8.31
   2  -3   3  102.98   10.90
   2  -3   3   79.47    9.25
   1   2   3   94.91    8.43
   2  -3   4 5465.59   76.64
  -3   1   4 5458.49   78.07
  -3   2   4 5609.78   77.29
   1   2   4 5368.63   64.19
   2  -3   4 5315.69   67.68
   1  -3   4 5310.38   76.89
   1  -3   4 5389.57   64.22
   2   1   4 5357.41   39.47
   1   2   5  687.40   25.71
   2   1   5  699.20   28.25
  -3   1   5  695.11   29.25
   2  -3   5  686.83   28.42
  -3   2   5  719.74   28.84
   1  -3   5  671.68   25.47
   1  -3   5  724.34   29.35
   2  -3   5  698.31   27.97
   2  -3   5  631.32   23.72
  -3   2   6 5318.51   80.60
   2  -3   6 5405.12   82.62
   2  -3   6 5257.70   80.65
  -3   1   6 5478.47   84.20
   1  -3   6 5221.43   81.59
   1  -3   6 5275.15   77.27
   1   2   6 5316.16   77.51
   2  -3   6 5192.59   67.11
   1  -3   6 5268.40   82.90
   2   1   6 5392.83   82.59
   2   1   7 2459.89   59.87
   1  -3   7 2451.94   56.64
   1   2   7 2312.67   55.06
   1  -3   7 2357.33   56.44
   2  -3   7 2353.18   55.54
   2  -3   7 2388.34   58.55
   2  -3   7 2358.01   45.36
  -3   2   7 2378.58   55.94
   1  -3   7 2400.87   58.00
  -3   1   7 2411.44   58.61
   2  -3   8   12.82   10.65
   2   1   8   12.15   10.54
   1  -3   8   12.99    8.78
  -3   1   8   12.04    6.86
   1  -3   8   12.30    7.67
   1  -3   8   12.08    6.73
   2  -3   8   12.87    5.34
   1   2   8   12.96    8.61
  -3   1   8   12.52    7.18
   2  -3   8   12.69    8.07
  -3   2   8   12.02    7.15
   2  -3   8   12.30    7.41
  -3   2   9 1224.19   32.78
   1  -3   9 1252.61   45.23
   1   2   9 1268.71   46.47
   2  -3   9 1281.14   33.46
   2  -3   9 1274.33   43.73
  -3   1   9 1195.56   36.83
  -3   2   9 1302.41   44.10
   2  -3   9 1278.14   48.45
   1  -3   9 1233.96   46.11
   2  -3   9 1275.05   43.69
   2   1   9 1255.99   48.00
  -3   1   9 1204.76   44.58
   1  -3   9 1225.36   43.65
  -3   2  10  401.82   25.82
   1  -3  10  360.23   27.04
   2  -3  10  344.43   27.42
   2  -3  10  370.80   18.35
   1   2  10  392.35   27.99
  -3   2  10  375.02   18.21
   1  -3  10  404.50   26.05
  -3   1  10  364.55   20.84
   2  -3  10  370.49   24.65
   2  -3  10  335.17   23.89
   2   1  10  446.73   30.84
   2  -3  11  101.47   16.71
   1  -3  11  107.98   16.52
   2  -3  11  115.29   10.32
   1   2  11   85.04   15.35
  -3   2  11  123.16   10.61
  -3   1  11  110.69   12.22
   2   1  11  112.99   17.72
   2  -3  11  129.97   15.33
  -3   2  12    1.79    2.72
   2   1  12    3.31    7.85
   2  -3  12    1.92    7.80
  -3   1  12    9.58    4.45
   2  -3  12    4.72    3.38
   1   2  12   -2.35    8.06
   1  -3  12    0.55    7.89
   1  -3  13   52.73   13.43
   2  -3  13   71.23   15.71
   1   2  13   57.03   14.47
   2   1  13   75.43   17.05
   1  -3  13   56.77    9.30
  -3   1  14  219.27   26.99
   1  -3  14  222.01   26.04
   2   1  14  231.77   27.52
   2  -3  14  258.58   28.94
  -3   2  14  252.70   28.09
   1   2  14  216.21   26.18
   1  -3  15   54.35   14.95
   2   1  15   81.23   17.33
  -3   1  15   77.75   17.09
   1   2  15   80.06   17.39
  -3   2  15   83.97   17.55
   2  -3  15   96.09   19.74
  -3   2  16  193.57   27.49
   2  -3  16  147.27   23.69
   1  -3  16  164.84   25.08
   2   1  16  147.61   23.67
   1   2  16  171.22   26.36
  -3   1  16  210.82   28.26
   2  -3  17   46.38   18.63
   2   1  17   51.47   17.98
   1   2  17   32.81   14.18
   1  -3  17   -2.14   11.01
  -4   2 -14  190.29   18.17
   2  -4 -13    3.69    4.10
  -4   2 -13    9.04    6.37
   2  -4 -12  353.61   20.73
  -4   2 -12  346.67   23.89
  -4   2 -11    9.06    7.19
   2  -4 -11   -4.08    5.22
   2   2 -11   -3.31    8.97
   2  -4 -10  704.52   28.31
   2   2 -10  683.23   38.86
  -4   2 -10  730.37   33.60
   2  -4  -9   -1.39    4.25
  -4   2  -9   -3.25    5.34
   2   2  -9   -1.79    6.90
  -4   2  -8 4911.53   83.30
   2   2  -8 4806.82   95.38
  -4   2  -8 4833.73   50.73
   2  -4  -8 4787.85   71.99
  -4   2  -7   -1.00    2.94
  -4   2  -7   -4.84    7.25
   2  -4  -7   -2.04    4.76
   2   2  -7    5.40    5.74
  -4   2  -6   -1.24    4.66
  -4   2  -6   -0.52    6.15
   2   2  -6    5.51    6.23
   2  -4  -6    2.29    4.01
  -4   2  -5   -3.22    7.18
   2  -4  -5    0.41    3.29
  -4   2  -5    1.95    5.83
   2  -4  -5    2.36    4.23
   2   2  -5   -1.62    6.28
   2  -4  -4 1881.98   44.48
   2   2  -4 1823.50   50.39
  -4   2  -4 1798.63   47.79
   2  -4  -4 1823.76   38.72
   2  -4  -3    6.04    4.02
   2   2  -3   -0.98    5.65
  -4   2  -3   -2.43    5.28
   2  -4  -2 2542.90   49.30
  -4   2  -2 2454.04   54.82
   2   2  -2 2523.94   54.07
   2   2  -1   -1.36    4.86
   2  -4  -1    4.68    4.52
  -4   2  -1   -1.86    4.75
   2   2   0 2751.95   51.09
   2  -4   0 2766.90   57.29
   2  -4   0 2890.19   55.93
  -4   2   0 2860.80   56.61
   2   2   1   -2.52    3.87
  -4   2   1    1.62    4.05
   2  -4   1    2.63    5.57
   2  -4   1    1.16    5.29
   2   2   2 2271.29   40.75
   2  -4   2 2266.26   53.02
  -4   2   2 2280.24   53.24
   2  -4   2 2388.44   52.85
   2  -4   3   -3.40    4.60
   2  -4   3   -0.76    5.09
  -4   2   3    6.26    6.75
  -4   2   4 4007.85   74.35
   2  -4   4 4075.48   74.60
   2  -4   4 3970.88   69.17
   2  -4   5    4.02    6.26
   2  -4   5   -1.47    4.70
  -4   2   5   -4.21    5.02
   2  -4   6   46.12   10.18
   2  -4   6   47.73    9.05
   2   2   6   37.66    9.23
   2  -4   6   51.49   10.14
  -4   2   6   24.79    7.81
  -4   2   7   10.19    6.71
   2  -4   7   -2.15    6.39
   2  -4   7    2.64    5.88
   2   2   7    1.76    6.93
   2  -4   7    2.08    4.73
   2  -4   8 4001.50   80.96
   2  -4   8 3926.67   70.58
   2   2   8 3961.69   81.13
   2  -4   9   10.59    7.21
   2  -4   9    2.48    8.72
   2   2   9   13.69    9.70
  -4   2  10   80.06   10.91
   2  -4  10   92.33   15.86
   2  -4  10   72.91   10.86
   2   2  10   91.28   15.80
   2   2  11    4.44    6.56
   2  -4  11   -4.88    7.98
   2  -4  11   -0.99    4.32
  -4   2  11    2.89    4.20
   2   2  12  157.03   20.95
   2  -4  12  147.99   14.63
   2  -4  12  143.20   20.11
   2  -4  13    8.81   10.63
   2   2  13    4.49    8.38
   2  -4  13   -0.73    4.76
   2  -4  14   21.82   11.38
   2   2  14   24.74   12.71
   2   2  15    4.80   10.23
   2  -4  15    7.12   11.12
   2   2  16  925.06   58.43
  -4   2  16  867.94   57.76
   2  -4  16  852.31   56.34
   3  -1 -17   15.13    7.95
   3  -2 -16  181.92   20.91
   3  -1 -16  177.26   21.79
  -2   3 -15   86.65   13.76
   3  -1 -15   73.06   14.69
   3  -2 -15   77.14   13.69
  -1   3 -15   68.62   12.65
   3  -1 -14  235.04   24.19
   3  -2 -14  213.24   21.03
  -2   3 -14  230.57   21.29
  -1   3 -14  249.79   22.48
   3  -2 -13   31.62    9.51
   3  -1 -13   57.34   12.41
  -2   3 -13   70.17   12.48
  -1   3 -13   54.93   11.44
  -1   3 -12    4.61    6.27
  -2   3 -12    7.34    7.23
   3  -2 -12    4.57    5.70
   3  -1 -12    1.81    7.46
  -2   3 -11   90.10   13.26
   3  -1 -11   82.62   13.40
   3  -2 -11  107.26   14.66
  -2  -1 -11   98.74    6.42
  -1   3 -11  122.93   15.16
  -2   3 -10  374.05   24.50
  -2  -1 -10  374.63   13.78
   3  -1 -10  365.05   25.67
   3  -2 -10  377.98   24.94
  -1   3 -10  395.39   25.70
  -2  -1  -9 1272.48   26.73
   3  -1  -9 1241.27   45.21
   3  -2  -9 1256.09   43.28
  -2   3  -9 1296.97   42.21
  -1   3  -9 1243.96   45.47
   3  -2  -8   12.03    8.67
  -2   3  -8   12.91    8.53
   3  -1  -8   12.56    8.80
  -2  -1  -8   12.50    5.22
  -2  -1  -8   12.06    8.48
  -1  -2  -8   12.18    2.55
  -2   3  -8   12.68    9.74
  -1   3  -8   12.04    9.11
  -1   3  -7 2419.30   57.22
  -2  -1  -7 2316.77   29.48
   3  -2  -7 2375.24   55.68
  -2  -1  -7 2307.01   57.37
  -2   3  -7 2446.18   58.78
  -2   3  -7 2373.92   55.68
  -2  -1  -7 2374.52   38.86
  -1  -2  -7 2302.44   29.39
   3  -1  -7 2353.00   57.39
  -1  -2  -6 5359.60   58.62
  -1   3  -6 5448.12   82.80
  -2   3  -6 5383.48   81.45
  -2  -1  -6 5414.41   81.67
  -2   3  -6 5437.97   81.33
   3  -2  -6 5389.84   80.99
   3  -1  -6 5250.37   83.04
  -1  -2  -6 5319.28   49.74
  -1  -2  -5  700.99   19.31
  -2  -1  -5  719.38   28.02
  -2   3  -5  743.50   28.24
  -2   3  -5  717.49   29.36
   3  -2  -5  676.64   28.22
   3  -1  -5  705.85   29.45
  -1  -2  -5  680.62   25.20
  -1  -2  -5  671.07   21.43
  -1   3  -5  708.31   25.60
  -1   3  -5  708.04   29.36
   3  -1  -4 5435.19   77.67
  -1   3  -4 5297.26   63.36
   3  -2  -4 5306.90   75.69
  -2  -1  -4 5372.32   70.55
  -2   3  -4 5303.25   70.40
  -2  -1  -4 5301.80   39.31
  -1  -2  -4 5333.44   39.89
  -2   3  -4 5443.85   77.27
  -1  -2  -4 5314.16   56.31
  -1   3  -4 5488.73   77.86
  -1  -2  -4 5274.28   63.13
   3  -2  -3   98.28   11.09
  -2  -1  -3   87.86    8.96
  -2  -1  -3   85.45    6.37
  -1  -2  -3   92.15    6.43
  -1  -2  -3   92.33    8.05
  -2   3  -3   91.41   11.00
  -1   3  -3  113.19   11.70
  -1  -2  -3   97.05    8.69
  -1   3  -3   99.45    8.00
  -2   3  -3  105.07    9.83
   3  -1  -3   91.05   11.12
  -2   3  -2 3214.65   52.55
  -1   3  -2 3097.26   36.90
   3  -2  -2 3141.22   54.91
  -2   3  -2 3181.35   55.34
  -1  -2  -2 3118.90   40.31
  -1  -2  -2 3015.71   36.85
  -2  -1  -2 3094.62   39.86
  -1   3  -2 3115.39   54.48
  -1  -2  -2 3200.40   47.92
   3  -1  -2 3177.20   55.32
  -1   3  -1  457.16   12.31
   3  -2  -1  429.47   20.49
   3  -1  -1  457.21   20.58
  -1  -2  -1  462.32   19.30
  -2   3  -1  461.24   20.43
  -1  -2  -1  451.39   12.53
  -2   3  -1  472.10   21.13
  -1   3  -1  472.09   20.72
  -1  -2  -1  463.70   17.20
  -2  -1  -1  472.09   17.18
  -2   3   0   -4.11    4.86
   3  -1   0    3.67    4.21
  -1   3   0    2.12    4.44
  -1  -2   0    3.79    3.39
  -2  -1   0   -0.18    3.32
  -1  -2   0    2.78    4.14
  -2   3   0   -0.55    4.21
   3  -2   0    5.25    4.56
  -2   3   1 1224.99   35.42
   3  -1   1 1220.67   32.21
  -2  -1   1 1221.48   32.98
  -1  -2   1 1222.17   35.24
  -2   3   1 1228.33   31.94
   3  -2   1 1225.37   33.82
  -1   3   1 1228.82   32.07
  -1  -2   1 1227.46   33.40
   3  -2   2   88.02    7.21
  -2  -1   2   88.96    6.74
  -1   3   2   88.34    7.28
  -2   3   2   88.61    7.41
   3  -1   2   88.04    5.58
  -1  -2   2   88.36    6.50
  -1  -2   2   88.63    6.35
  -2  -1   2   88.75    7.68
  -2   3   2   88.05    6.04
  -1   3   2   88.80    5.51
  -1   3   3 4951.53   68.89
  -2   3   3 4954.97   70.98
  -1  -2   3 4952.31   73.75
  -1   3   3 4956.15   56.31
  -1  -2   3 4952.61   73.02
  -2  -1   3 4957.29   73.77
   3  -1   3 4953.10   59.71
  -2   3   3 4951.46   59.13
  -2  -1   3 4952.75   73.41
  -1   3   4 1215.54   33.30
   3  -1   4 1238.41   28.65
  -1  -2   4 1182.47   36.27
  -2  -1   4 1157.03   36.24
  -2  -1   4 1199.92   35.82
  -1   3   4 1222.10   25.50
  -1  -2   4 1248.56   37.56
  -2   3   4 1153.58   26.70
   3  -1   5 1865.64   34.90
  -1  -2   5 1920.17   47.24
  -2   3   5 1821.72   32.09
  -1  -2   5 1841.14   47.93
  -2  -1   5 1900.82   48.72
  -2  -1   5 1835.04   45.91
  -1   3   5 1868.10   41.71
  -1   3   5 1886.66   28.71
  -2  -1   6 4567.19   74.21
  -1   3   6 4591.31   65.82
  -2  -1   6 4558.47   78.64
   3  -2   6 4493.37   70.90
  -1  -2   6 4663.14   79.71
  -2   3   6 4486.03   65.08
  -1  -2   6 4532.15   75.26
  -2   3   6 4573.82   47.19
   3  -1   6 4538.01   54.63
  -1   3   6 4526.29   38.79
  -1  -2   7  548.74   27.27
  -2   3   7  546.72   23.36
  -2  -1   7  543.11   26.62
  -2  -1   7  533.78   28.33
  -2   3   7  589.59   15.81
  -1  -2   7  544.71   28.72
   3  -1   7  567.47   19.72
   3  -2   7  551.01   25.64
  -1   3   7  561.34   23.56
  -1  -2   8 2457.22   62.97
  -1  -2   8 2457.40   60.31
  -2   3   8 2443.83   50.49
   3  -1   8 2569.40   67.90
   3  -2   8 2499.62   55.27
  -2   3   8 2356.89   27.70
  -1  -2   8 2398.63   58.34
  -1   3   8 2431.45   49.21
  -2  -1   8 2368.06   56.72
  -1   3   8 2432.89   60.17
  -2  -1   8 2567.38   63.62
   3  -2   8 2530.66   67.41
  -2  -1   9  198.27   17.27
  -1  -2   9  181.85   16.91
  -2   3   9  165.24   13.78
  -1  -2   9  180.58   18.08
   3  -2   9  171.02   19.44
   3  -1   9  164.86   11.40
  -1   3   9  207.51   15.13
  -1   3   9  182.53   18.53
   3  -1   9  177.23   20.06
   3  -1  10 1236.90   52.54
  -2  -1  10 1262.46   43.35
  -2   3  10 1248.71   38.35
  -1  -2  10 1311.74   45.65
   3  -2  10 1180.67   37.11
   3  -2  10 1286.48   53.67
  -1   3  10 1281.70   49.66
  -1  -2  10 1261.80   49.08
   3  -1  10 1209.15   30.12
  -1   3  10 1264.74   36.23
   3  -1  11    9.01    7.81
  -2   3  11   12.71    5.72
  -1   3  11    1.89    7.48
  -1  -2  11    9.22    7.41
  -1   3  11   14.95    4.99
  -1  -2  11   14.62    7.49
  -2  -1  11    7.23    5.90
   3  -1  11    6.45    3.17
   3  -2  11    3.72    3.73
   3  -2  11   19.88   10.84
  -1  -2  12   54.83   13.98
  -2   3  12   34.67    7.66
   3  -2  12   33.68    8.49
   3  -2  12   38.72   13.55
  -1   3  12   42.58    7.13
  -2   3  12   43.55    8.12
  -2   3  12   49.89   12.47
  -2  -1  12   15.26    9.32
  -1   3  12   50.71   12.13
  -2  -1  12   43.83    8.97
   3  -1  12   49.43    7.02
   3  -1  12   42.01   11.82
   3  -1  13  108.82   19.71
   3  -2  13  135.91   21.12
  -1  -2  13   97.44   17.00
  -2   3  13   84.01   16.30
  -1   3  13   69.01   15.39
  -2  -1  13   85.97   15.69
   3  -1  14  168.27   24.49
  -1  -2  14  199.20   25.08
  -2  -1  14  183.52   24.80
   3  -2  14  147.62   22.17
  -1   3  14  173.49   23.42
  -2   3  14  162.85   23.06
   3  -2  15  300.45   33.22
  -1   3  15  314.05   32.72
   3  -1  15  385.10   37.19
  -2  -1  15  328.26   33.32
  -1  -2  15  284.95   30.91
  -2   3  15  319.57   32.18
  -1   3  16   20.13   11.59
  -1  -2  16   -4.80    8.84
  -2  -1  16  -12.41   10.97
  -2   3  16  -11.04   10.58
   3  -1  16   -7.95    8.41
   3  -2  16   -4.51    8.41
  -1  -2  17  118.75   21.33
  -2   3  17   88.97   20.00
  -1   3  17  132.39   23.23
  -2  -1  17  120.00   22.74
   3   0 -16  477.57   36.84
  -3   3 -15    8.02    6.86
   3  -3 -15   -6.31    6.37
   0   3 -15   -7.17    7.36
   3   0 -15    7.57    6.82
   0   3 -14   -7.35    7.53
   3   0 -14   -0.15    7.65
  -3   3 -14    4.32    6.57
  -3   0 -13    1.07    2.72
   3   0 -13    8.51    8.96
   3  -3 -13   -2.55    5.31
   0   3 -13    4.35    6.73
  -3   3 -13   -1.52    5.47
  -3   3 -12  925.56   40.02
   3   0 -12  963.58   46.29
  -3   0 -12  956.78   29.42
   3  -3 -12  934.54   39.66
   0   3 -12  917.08   42.37
  -3   0 -11    2.55    3.35
   3  -3 -11    2.21    5.37
   0   3 -11   -2.67    6.97
   3   0 -11    9.43    7.73
  -3   3 -11   -1.13    5.61
  -3   0 -10    0.66    3.46
   3   0 -10    9.71    9.02
  -3   3 -10   10.82    6.87
   0   3 -10    4.36    5.80
   3  -3 -10   -6.04    6.12
  -3   0  -9   50.30    7.69
   0   3  -9   49.01   11.55
   3  -3  -9   40.46    9.66
   3   0  -9   45.49   11.39
  -3   3  -9   60.45   11.04
   0   3  -8 2096.11   57.66
   3  -3  -8 1948.69   51.46
   0  -3  -8 1963.63   25.64
  -3   3  -8 1933.36   53.17
  -3   0  -8 2053.06   44.20
   3   0  -8 2052.95   58.79
   0  -3  -7    3.16    2.26
   3  -3  -7   -1.83    5.16
   3   0  -7   -3.67    5.71
  -3   3  -7    3.04    5.47
  -3   0  -7    4.07    3.86
   0   3  -7    3.26    7.30
  -3   3  -7    6.26    6.48
  -3   0  -7   14.14    7.80
  -3   3  -6   36.46    8.00
   0   3  -6   27.24    7.68
   3   0  -6   40.92    9.83
   0  -3  -6   46.25    4.95
   0  -3  -6   35.80    4.32
  -3   0  -6   33.59    8.73
   3  -3  -6   40.32    8.67
  -3   3  -6   34.89    8.07
  -3   3  -5   13.98    6.62
   3  -3  -5   13.09    5.96
   3   0  -5   10.75    5.40
   0  -3  -5   19.27    5.49
  -3   3  -5   22.40    5.27
  -3   3  -5   14.44    6.05
   0   3  -5   22.33    7.22
  -3   0  -5   11.11    5.06
   0  -3  -5   15.39    3.67
   3  -3  -4 5242.03   76.29
  -3   0  -4 5173.06   77.92
  -3   3  -4 5251.58   78.73
  -3   3  -4 5216.21   67.50
  -3   0  -4 5140.60   54.07
   0   3  -4 5299.31   81.32
   3   0  -4 5214.04   80.42
   0  -3  -4 5190.66   57.63
   0  -3  -4 5303.74   70.43
  -3   3  -4 5356.98   79.54
   3   0  -3  100.48   11.88
  -3   0  -3   97.18    8.31
   3  -3  -3  100.59   11.45
   0  -3  -3   94.43   10.47
   0   3  -3  101.42   12.73
  -3   3  -3   89.81   10.91
  -3   3  -3   77.69    8.75
   0  -3  -3   77.06    8.02
  -3   3  -2   73.23   10.51
   3   0  -2   74.31    9.94
   0  -3  -2   69.93    9.55
   0   3  -2   68.63    9.57
  -3   0  -2   66.03    7.49
  -3   3  -2   51.51    7.93
   3  -3  -2   64.88    9.55
   0  -3  -2   68.88    7.75
  -3   0  -1    0.98    3.78
   0  -3  -1   -1.66    3.71
   3  -3  -1   -3.17    5.01
  -3   3  -1   -5.99    6.79
   0   3  -1    3.44    5.86
   3   0  -1   -3.17    4.28
   0  -3   0 3687.48   58.59
   3  -3   0 3695.35   61.69
  -3   3   0 3660.22   60.07
  -3   0   0 3640.28   56.02
   0   3   0 3705.95   59.01
   3  -3   0 3734.92   60.32
   3   0   0 3712.94   56.44
  -3   3   1    3.20    4.57
  -3   0   1   -3.56    4.44
   3  -3   1    5.14    3.52
   0  -3   1   -0.48    4.44
   3   0   1   -2.31    4.15
   0   3   1    3.86    4.15
   0  -3   2   61.31    4.75
   3   0   2   53.03    6.67
   3  -3   2   78.23    9.76
  -3   0   2   67.64    9.55
   0   3   2   59.26    4.61
   0   3   2   56.70    7.33
   0  -3   2   61.09    8.88
   0  -3   2   70.18    9.81
  -3   3   2   72.14    8.82
  -3   3   3   97.97   10.04
   0   3   3   88.95    7.18
   3  -3   3   96.83   11.43
   0  -3   3   91.53    7.20
   0  -3   3   92.30   11.27
  -3   0   3  104.37   11.76
   0  -3   3   96.53   11.25
  -3   3   3   94.07   11.02
   0   3   3   91.35    8.80
   3   0   3   92.71    8.08
   0  -3   4 5314.06   80.58
  -3   3   4 5413.72   77.75
   0  -3   4 5164.79   59.68
   3  -3   4 5346.30   79.54
  -3   0   4 5403.14   81.85
   0   3   4 5349.02   60.24
   3   0   4 5177.17   54.37
  -3   3   4 5272.15   66.32
   0   3   4 5167.98   57.66
   0  -3   4 5369.70   81.57
   3   0   5   18.60    3.74
   3  -3   5   23.41    7.12
  -3   3   5   20.80    5.49
   0   3   5   21.17    6.29
   0  -3   5   16.93    5.08
   0  -3   5   11.78    5.08
  -3   0   5   29.94    7.67
  -3   3   5   15.87    5.25
   0  -3   5   24.27    7.53
   3   0   6   44.33    4.74
   0  -3   6   28.01    7.04
   3  -3   6   35.32    7.69
  -3   3   6   46.36    8.65
  -3   0   6   56.87    9.97
   0  -3   6   29.10    7.21
   0  -3   6   48.26    8.86
   0   3   6   43.41    7.94
  -3   3   6   38.78    6.35
  -3   0   6   47.66    8.80
   3   0   7    2.80    1.86
  -3   0   7   -0.45    4.43
   3  -3   7    3.66    4.00
  -3   3   7   -0.79    3.73
   0  -3   7    2.97    6.28
  -3   0   7    3.60    5.32
   0   3   7   -1.19    5.10
   0  -3   7    5.20    5.71
  -3   3   7    2.64    4.71
   0  -3   7    7.34    6.15
   3   0   8 2008.43   24.95
  -3   0   8 2020.79   52.42
   0  -3   8 2031.34   56.54
  -3   3   8 2099.32   53.24
   0   3   8 2053.77   54.88
   3  -3   8 2027.52   54.32
   0  -3   8 2056.22   54.95
   3   0   8 1913.63   24.62
  -3   3   8 1989.28   38.06
   3  -3   8 2044.38   60.97
   3  -3   9   52.48   10.41
  -3   3   9   36.70    5.70
   0   3   9   53.97   10.87
   0  -3   9   44.61   10.79
   3   0   9   43.94    3.38
   0  -3   9   41.88    9.61
   3   0   9   44.53    3.38
  -3   0   9   61.01   10.49
   3   0   9   58.52   13.74
   3  -3   9   49.23   12.33
  -3   3   9   61.02   10.41
   0   3  10    0.04    6.28
   0  -3  10   -0.87    7.17
  -3   3  10    5.69    3.18
   3  -3  10    9.93    4.65
  -3   3  10    2.77    2.66
  -3   0  10    5.85    5.77
   3  -3  10   -4.10    5.36
  -3   3  10    3.49    5.58
   3  -3  10   10.44    9.29
   0   3  11    4.32    6.93
  -3   3  11    2.78    2.21
   3  -3  11   -1.42    5.07
   0  -3  11    2.53    6.32
  -3   3  11   -0.43    2.30
   3  -3  11    8.37    8.68
  -3   0  11   -2.27    6.58
   3   0  11   10.79    9.34
   3  -3  11   -0.34    4.39
  -3   3  11    2.13    4.64
   3  -3  12  942.58   49.91
   3   0  12  829.83   47.08
   0   3  12  939.71   47.05
  -3   0  12  866.20   37.37
  -3   3  12  865.05   18.14
   0  -3  12  808.18   44.01
   3  -3  13   14.16    8.39
   0   3  13   11.19    9.83
   0  -3  13   16.03   11.00
   3   0  13   13.71   11.62
   0   3  14  -11.71    9.70
  -3   3  14    5.99    7.54
   0  -3  14    0.17    8.06
  -3   0  14    2.79    7.00
   3   0  14   -8.27    9.99
   3  -3  14   -0.36    8.32
  -3   3  15    4.19   11.55
   0   3  15   21.09   11.51
   0  -3  15   -1.88    8.01
  -3   0  15    4.52    8.08
   3   0  15  -12.58   11.14
   3  -3  15   16.35   11.50
   3   0  16  483.13   42.77
   3  -3  16  559.55   46.22
   0   3  16  478.25   41.19
   0  -3  16  511.32   42.60
  -3   3  16  500.27   43.12
  -3   0  16  451.83   40.55
   0  -3  17    1.02   12.94
   0   3  17    1.16   10.39
   3   1 -15  164.36   23.71
   3   1 -14  209.81   25.02
   3  -4 -14  228.04   19.87
  -4   3 -14  221.55   21.18
   3   1 -13  442.22   35.10
  -4   3 -13  427.68   29.00
  -4   1 -13  517.28   26.94
   3  -4 -13  464.06   28.04
   3  -4 -12   63.87   11.48
  -4   1 -12   46.44    9.19
  -4   3 -12   41.90   10.64
   1  -4 -12   52.10    6.42
   3   1 -12   48.59   13.48
   1  -4 -11   80.56    7.59
   3  -4 -11   97.01   12.97
   3   1 -11  103.73   16.38
  -4   1 -11  107.50   12.99
   1   3 -11  100.23   15.54
  -4   3 -11  145.87   17.43
  -4   1 -10 1217.92   40.90
   3  -4 -10 1238.53   43.05
  -4   3 -10 1283.93   47.05
   1  -4 -10 1227.64   30.17
   1   3 -10 1283.92   50.41
   3   1 -10 1187.50   51.25
  -4   3  -9   57.54   11.18
  -4   1  -9   46.18    9.11
   1  -4  -9   52.80    7.39
   3  -4  -9   51.81   10.46
   3   1  -9   52.56   12.22
   1   3  -9   32.91   10.20
   3  -4  -8  663.48   30.39
   1  -4  -8  710.02   23.63
  -4   3  -8  676.83   33.26
   3   1  -8  698.12   37.23
  -4   1  -8  708.75   30.75
   1   3  -8  698.98   35.57
   3   1  -7  763.27   37.48
   1  -4  -7  739.13   24.65
  -4   1  -7  802.29   32.45
   1   3  -7  726.38   35.51
  -4   3  -7  723.79   25.12
  -4   3  -7  733.28   33.53
   1  -4  -7  724.33   18.97
   3  -4  -7  766.91   32.19
  -4   1  -6 1112.28   43.54
  -4   3  -6 1095.58   43.13
  -4   1  -6 1175.57   38.79
   1  -4  -6 1149.22   31.13
   1   3  -6 1123.08   42.68
  -4   3  -6 1138.61   32.36
   3   1  -6 1101.06   43.27
  -4   3  -6 1184.52   41.82
   1  -4  -6 1140.76   26.83
   3  -4  -6 1206.18   39.36
  -4   3  -5  701.52   26.03
  -4   3  -5  802.25   35.93
  -4   1  -5  740.25   30.85
  -4   1  -5  783.62   35.37
   3  -4  -5  707.26   29.94
   1   3  -5  728.82   33.70
   1  -4  -5  733.27   23.14
   3   1  -5  784.32   35.14
   1  -4  -5  669.96   24.61
  -4   3  -5  717.38   32.25
   1  -4  -4  113.41   12.91
   3   1  -4  108.86   14.06
  -4   3  -4  115.74   14.18
   1   3  -4  114.83   13.82
   1  -4  -4  114.47    9.98
  -4   1  -4  145.15   15.49
  -4   3  -4  129.49   14.18
   3  -4  -4  106.63   12.46
  -4   1  -3  538.82   23.65
   3  -4  -3  536.26   28.34
   1   3  -3  534.38   28.89
   3   1  -3  538.52   28.93
   1  -4  -3  539.69   23.95
  -4   3  -3  532.00   29.62
   3  -4  -3  535.76   25.01
   1  -4  -3  536.89   28.45
   3  -4  -2 1751.09   46.34
  -4   1  -2 1843.03   42.65
   1   3  -2 1758.38   47.94
   1  -4  -2 1841.99   47.51
  -4   3  -2 1788.11   48.00
   3   1  -2 1811.24   46.82
   1  -4  -2 1768.08   41.76
   3  -4  -2 1801.98   43.78
   1   3  -1 1796.87   46.91
   1  -4  -1 1798.16   47.49
  -4   1  -1 1799.25   43.57
   3   1  -1 1777.63   44.75
  -4   3  -1 1885.55   48.48
   3  -4  -1 1795.55   44.89
   1  -4  -1 1841.36   44.41
   3  -4   0  124.03   12.73
   1  -4   0  151.75   13.69
  -4   1   0  127.70   12.57
   1  -4   0  134.21   14.16
   1   3   0  129.21   13.34
   3   1   0  142.24   12.83
  -4   3   0  160.13   14.83
  -4   3   1 1336.10   40.20
   1  -4   1 1433.95   42.51
  -4   1   1 1362.19   40.29
   3  -4   1 1337.14   40.75
   3   1   1 1313.33   34.49
   1  -4   1 1355.87   40.36
   1   3   1 1357.59   38.73
   3  -4   2 3676.58   68.76
  -4   3   2 3673.17   68.70
  -4   1   2 3659.32   68.10
   1  -4   2 3561.35   67.71
   3   1   2 3602.82   53.82
   1  -4   2 3602.36   67.97
  -4   3   2 3600.93   64.94
   3   1   3  374.10   16.29
  -4   3   3  358.09   20.73
  -4   1   3  366.95   22.35
  -4   3   3  381.66   22.92
   3  -4   3  388.90   23.07
   1  -4   3  367.82   22.61
   1  -4   4 1236.37   42.27
  -4   3   4 1183.14   40.56
  -4   1   4 1250.01   42.27
   3  -4   4 1255.28   42.32
   3   1   4 1230.61   26.80
   1   3   4 1261.17   30.86
   1  -4   4 1185.99   30.20
   3  -4   5  172.48   16.59
   1  -4   5  160.78   12.81
   1  -4   5  155.25   15.99
   1  -4   5  174.47   17.02
   3   1   5  148.31    8.49
   1   3   5  177.93   13.29
  -4   3   5  157.29   15.66
  -4   1   5  171.98   16.99
  -4   1   6 2112.54   58.92
   1   3   6 2132.50   48.93
   1  -4   6 2081.08   48.46
  -4   3   6 2174.72   57.45
   1  -4   6 2065.64   57.93
   3   1   6 2029.57   25.15
   1  -4   6 2041.67   58.05
   3  -4   6 2131.42   57.69
   1   3   7  606.60   28.67
   1  -4   7  528.82   26.63
  -4   3   7  562.62   30.47
   3  -4   7  593.08   31.82
   1   3   8   40.17    9.27
   1  -4   8   23.03    8.52
  -4   1   8   43.04    9.52
  -4   1   9  913.93   37.59
   1   3   9  986.51   41.52
   1  -4   9 1027.85   42.40
   1   3  10  257.69   22.97
  -4   1  10  209.42   18.80
   1  -4  10  218.31   21.75
   3  -4  10  217.52   23.05
   3   1  10  242.53   24.56
   1   3  11  233.15   23.46
  -4   1  11  201.36   18.49
   1  -4  11  194.58   21.38
  -4   3  11  207.12   15.04
   3   1  11  232.77   25.07
   3  -4  11  236.38   25.67
  -4   3  12    3.99    3.80
   1   3  12   -1.40    8.41
   1  -4  12   -4.35    6.90
   3   1  12  -11.83    9.32
   1  -4  13   28.81    7.62
   1   3  13   16.67    8.97
   3   1  13   21.46    9.33
   1  -4  13   27.60   10.41
   3  -4  13   19.77   10.07
   3   1  14  615.80   44.96
   3  -4  14  611.01   45.04
   1   3  14  561.20   41.21
   1  -4  14  554.10   41.09
   1  -4  15  130.15   21.50
   1   3  15  140.93   23.66
   3   1  15  101.02   21.20
   3  -4  15  129.29   21.50
  -4   3  16  218.21   29.70
   1  -4  16  143.07   24.01
  -4   1  16  186.32   27.59
   1   3  16  142.77   23.47
   3   1  16  188.49   28.25
   3  -4  16  187.05   27.90
   1  -4  17  112.83   20.44
   1   3  17   99.81   20.76
  -5   3 -14  190.77   21.00
  -5   2 -13   54.63   11.44
   3  -5 -13   26.00    7.71
   3   2 -13   52.77   14.70
  -5   3 -12    4.68    5.99
   2  -5 -12   -1.73    4.56
  -5   2 -12    1.65    6.02
   3   2 -12   -0.65    9.19
   3  -5 -12   -1.67    5.10
   3   2 -11  292.63   28.87
  -5   2 -11  314.41   24.29
  -5   3 -11  281.87   24.26
   3  -5 -11  305.26   22.20
   2  -5 -11  293.93   18.70
   3  -5 -10  501.06   27.93
   2  -5 -10  554.52   25.70
  -5   3 -10  610.24   34.36
  -5   2 -10  593.82   32.72
   3   2 -10  505.00   36.10
   2  -5  -9  593.20   26.85
  -5   2  -9  590.23   19.01
  -5   2  -9  603.60   32.70
   3  -5  -9  549.47   28.86
  -5   3  -9  575.45   33.20
   3   2  -9  616.03   38.54
  -5   3  -8  303.60   17.07
   3  -5  -8  258.06   20.12
   3   2  -8  263.30   24.77
  -5   2  -8  325.99   24.10
  -5   3  -8  290.18   23.38
   2  -5  -8  301.95   19.29
   2   3  -8  319.22   27.58
   3  -5  -7  509.95   27.47
  -5   3  -7  524.45   23.26
   2   3  -7  523.60   33.65
   2  -5  -7  496.01   24.74
   3   2  -7  526.47   33.68
  -5   2  -7  495.24   28.95
   2  -5  -7  532.87   20.79
  -5   3  -7  522.41   30.56
   3   2  -6 1953.05   61.58
  -5   2  -6 1880.45   55.59
   2  -5  -6 1841.68   47.88
   3  -5  -6 1813.67   50.97
   2  -5  -6 1836.22   41.46
  -5   3  -6 1959.58   58.35
   2   3  -6 1825.31   59.65
   2  -5  -5  388.66   22.77
   3  -5  -5  354.91   23.00
  -5   2  -5  389.62   25.20
   2  -5  -5  373.61   19.67
   2   3  -5  362.49   26.20
   3   2  -5  377.80   26.98
  -5   3  -5  406.13   26.68
   3  -5  -5  392.88   20.92
  -5   2  -4  306.00   22.54
   3  -5  -4  288.00   21.02
   3   2  -4  296.98   23.11
   2  -5  -4  301.64   18.60
  -5   3  -4  292.45   22.55
   3  -5  -4  311.82   19.20
   2   3  -4  341.65   24.77
   2  -5  -3  246.86   17.39
   2   3  -3  290.03   21.94
   3   2  -3  266.62   20.96
  -5   3  -3  234.22   19.76
   3  -5  -3  251.51   17.98
   3  -5  -3  239.99   19.36
  -5   2  -2  419.74   24.02
   3  -5  -2  400.42   22.92
   2  -5  -2  411.06   25.52
  -5   3  -2  380.75   24.81
   2  -5  -2  418.39   22.97
   3   2  -2  409.42   24.28
   2   3  -2  417.83   25.42
   2  -5  -1  236.79   22.32
  -5   2  -1  237.07   19.74
   3  -5  -1  237.15   20.09
   2  -5  -1  232.21   19.34
   3   2  -1  239.58   20.22
  -5   3  -1  231.93   21.79
   2   3  -1  239.16   20.86
   2  -5   0   94.00   12.96
   3  -5   0   99.98   12.74
   3   2   0   83.93   11.04
  -5   3   0   76.79   11.75
  -5   3   0   81.70   11.84
   2  -5   0   89.57   11.92
  -5   2   0   97.48   12.67
  -5   3   1  291.65   21.32
   3  -5   1  305.54   21.54
   2  -5   1  273.71   20.41
   3   2   1  273.26   17.64
   2  -5   1  306.97   22.25
  -5   2   1  331.06   22.41
  -5   3   2 2001.29   56.19
  -5   2   2 2035.34   56.01
   2  -5   2 1916.88   54.84
   3  -5   2 1938.89   55.16
   2  -5   2 1900.36   54.63
   3   2   2 1938.29   43.95
   2  -5   3  926.33   38.43
  -5   3   3  923.76   38.83
  -5   2   3  938.54   39.35
   3  -5   3  927.67   39.09
   2  -5   3  952.51   39.37
   3   2   3  938.44   28.95
   3   2   4  153.80   11.16
   2  -5   4  137.97   15.73
   3  -5   4  175.10   17.10
   3  -5   5 1269.88   44.04
   2  -5   5 1306.39   45.68
   2  -5   6 1801.28   54.41
   3  -5   6 1796.05   52.38
   2  -5   7  432.62   27.04
   3  -5   7  416.47   25.73
   2  -5   8  155.43   17.15
   2   3   8  176.47   18.30
   3  -5   8  131.92   15.21
   2  -5   8  152.31   16.99
   2  -5   9  110.72   14.91
   2  -5   9   87.43   14.53
   2   3   9  122.52   17.00
   3  -5   9  106.29   14.13
   2  -5  10  307.83   25.77
   2   3  10  313.36   26.06
   2  -5  10  302.24   23.33
   3  -5  10  335.20   23.02
   2  -5  11   55.50   11.32
   2  -5  11   40.41   11.77
   2   3  12  123.70   19.35
   2  -5  12   71.58   14.72
   2  -5  12  107.96   14.41
   2   3  13  131.93   20.49
   2  -5  13   83.33   16.63
   2  -5  13  150.65   17.23
   3   2  13  154.26   22.94
   3  -5  13  160.36   23.20
   2   3  14  323.55   31.85
   2  -5  14  364.12   33.87
   3  -5  14  335.04   33.50
   3   2  14  385.64   36.14
   2  -5  15   97.77   19.55
   2   3  15  130.95   23.06
   3   2  15   86.70   20.29
   3  -5  15  125.39   23.01
   2   3  16    3.45    9.64
   3   2  16   28.62   14.51
   3  -5  16    1.09    9.34
   2  -5  16   32.79   16.20
  -6   3 -13   -4.76    6.07
  -6   3 -12  144.23   18.62
   3  -6 -12  102.13   13.21
  -6   3 -11    4.95    7.01
   3  -6 -11    1.29    5.71
   3  -6 -10  509.04   29.05
  -6   3 -10  540.00   35.00
   3   3 -10  519.26   38.79
   3  -6  -9    0.82    6.23
  -6   3  -9    1.51    6.48
   3   3  -9    5.48    9.40
   3  -6  -8 1869.25   54.94
  -6   3  -8 1891.84   46.62
   3   3  -8 1919.10   69.30
  -6   3  -8 1909.27   63.59
  -6   3  -7    4.12    8.37
   3   3  -7    6.09    8.09
   3  -6  -7    1.76    4.90
   3  -6  -6  241.42   17.75
   3  -6  -6  283.05   22.09
  -6   3  -6  321.00   26.26
   3   3  -6  287.40   25.69
  -6   3  -5   -1.19    7.19
   3  -6  -5    5.16    5.84
   3  -6  -5    9.83    7.66
   3   3  -5   -7.60    7.74
   3   3  -4 3365.86   81.46
   3  -6  -4 3444.96   70.07
   3  -6  -4 3255.03   73.88
  -6   3  -4 3526.80   82.80
   3  -6  -3   -0.85    5.68
  -6   3  -3    0.59    6.79
   3   3  -3    3.02    7.64
   3  -6  -2  566.04   30.39
   3   3  -2  595.56   32.28
  -6   3  -2  534.43   32.58
   3  -6  -1    8.91    7.05
  -6   3  -1   -0.04    7.40
   3   3  -1    2.01    5.88
   3   3   0  173.90   17.00
   3   3   1    7.24    6.10
   3  -6   2  627.12   34.83
   3  -6   3   -5.60    7.59
   3  -6   4 3801.15   84.23
   3  -6   5   -0.66    5.90
   3  -6   6  161.53   18.39
   3  -6   7   -0.85    6.18
   3  -6   8  926.43   42.37
   3  -6   9   -6.57    5.75
   3  -6  10  715.85   37.76
   3  -6  11    1.27    6.10
   3  -6  12  822.30   40.64
   4  -2 -17    9.07    6.82
   4  -2 -16  832.26   48.06
   4  -2 -15    0.25    6.64
  -2   4 -15    3.87    7.78
   4  -2 -14   28.48   11.65
  -2   4 -14   19.01    9.22
   4  -2 -13    7.01    7.15
  -2   4 -13    2.42    6.98
   4  -2 -12  118.46   17.46
  -2   4 -12  141.78   18.51
   4  -2 -11   -6.64    7.37
  -2   4 -11   -7.43    6.62
  -2  -2 -10   84.56    6.48
   4  -2 -10   76.99   13.82
  -2  -2 -10   78.46    6.30
  -2   4 -10   75.20   13.05
  -2  -2  -9   -0.92    2.66
   4  -2  -9   -3.94    6.21
  -2   4  -9    1.54    6.39
  -2  -2  -9    0.55    2.45
   4  -2  -8 3957.24   82.47
  -2  -2  -8 3951.36   52.36
  -2   4  -8 3918.27   82.00
  -2  -2  -8 3969.58   51.29
  -2  -2  -8 3887.18   78.86
  -2   4  -8 3887.66   78.64
  -2  -2  -7   -0.48    2.97
   4  -2  -7    0.60    6.84
  -2  -2  -7    0.22    3.53
  -2  -2  -7    5.81    5.40
  -2   4  -7   -0.79    4.91
  -2   4  -7   11.32    7.51
  -2  -2  -6   14.05    5.79
   4  -2  -6   19.66    8.13
  -2  -2  -6   25.80    5.79
  -2  -2  -5    2.71    2.14
   4  -2  -5   -0.98    6.43
  -2  -2  -5    3.24    3.77
  -2  -2  -5   -0.20    3.12
  -2   4  -5    0.37    3.72
  -2   4  -5    5.78    6.29
  -2  -2  -4 3925.82   43.19
  -2   4  -4 3940.32   73.82
  -2  -2  -4 3772.21   59.09
   4  -2  -4 3853.74   73.09
  -2  -2  -4 3991.12   60.97
  -2   4  -4 3925.93   60.11
  -2   4  -3    7.23    3.75
  -2   4  -3    2.62    5.45
  -2  -2  -3   -2.52    2.69
   4  -2  -3   -3.46    5.34
  -2  -2  -3    1.34    3.60
  -2  -2  -3   -3.53    4.01
  -2  -2  -2 2244.46   39.69
  -2   4  -2 2228.95   39.36
   4  -2  -2 2340.51   53.75
  -2  -2  -2 2317.88   48.87
  -2  -2  -2 2267.22   40.38
  -2   4  -2 2276.80   53.03
   4  -2  -1    6.05    5.99
  -2  -2  -1    2.73    4.83
  -2  -2  -1   -1.35    3.11
  -2   4  -1   -5.21    5.07
  -2   4   0 3145.84   55.84
  -2  -2   0 3145.31   51.73
   4  -2   0 3146.43   56.21
  -2   4   0 3146.84   58.36
  -2  -2   0 3146.72   57.18
  -2   4   1   -1.71    5.72
  -2  -2   1    3.24    4.57
  -2   4   1   10.04    5.31
  -2  -2   1    0.69    4.64
   4  -2   1    3.17    6.42
   4  -2   2 2536.30   52.11
  -2   4   2 2539.83   56.12
  -2  -2   2 2540.98   54.03
  -2   4   2 2540.07   49.49
  -2  -2   2 2540.41   55.78
  -2   4   3   -4.80    4.03
  -2  -2   3    7.13    5.80
  -2   4   3    3.50    5.15
  -2  -2   3   -4.26    5.19
   4  -2   3    1.49    5.07
  -2   4   4 1860.62   39.28
   4  -2   4 1910.54   44.18
  -2  -2   4 1876.62   50.96
  -2   4   4 1914.17   48.63
  -2  -2   4 1924.70   51.69
  -2  -2   5   -1.47    4.50
  -2  -2   5   -4.89    6.22
  -2   4   5   -7.35    5.59
   4  -2   5    3.68    4.31
  -2   4   5    2.65    3.46
   4  -2   6   -1.36    4.27
  -2   4   6    5.14    5.19
  -2  -2   6    7.77    6.95
  -2  -2   6    6.94    6.37
  -2   4   6    4.31    3.61
  -2   4   7   -3.59    5.42
  -2  -2   7   -6.73    5.83
  -2   4   7   -0.38    2.49
   4  -2   7   -1.27    4.62
  -2   4   8 4807.82   81.23
   4  -2   8 4870.41   72.14
  -2   4   8 4690.39   44.43
  -2  -2   8 4768.21   89.89
  -2   4   9    3.01    5.11
  -2   4  10  720.73   32.43
  -2   4  11    3.77    6.46
  -2  -2  11   -4.43    7.62
   4  -2  11   -0.34    3.54
  -2   4  11   -4.08    8.08
  -2  -2  12  286.75   27.00
  -2   4  12  333.40   22.71
  -2   4  12  326.32   28.85
  -2   4  13    0.31    8.18
  -2  -2  13  -10.16   10.46
  -2   4  14  213.48   25.79
  -2  -2  14  201.32   25.21
  -2   4  15   -6.14   10.56
  -2  -2  15  -10.91   11.19
  -2   4  16  456.54   40.69
  -2  -2  16  448.18   40.12
   4  -1 -17  109.52   19.23
   4  -1 -16  112.45   19.70
   4  -3 -16  174.31   21.95
  -1   4 -16  166.07   20.98
   4  -1 -15  103.24   18.20
   4  -3 -15  115.14   17.36
  -3   4 -15  144.50   19.16
  -1   4 -15  117.08   18.45
   4  -1 -14  533.90   38.15
  -1   4 -14  632.97   39.49
  -3   4 -14  605.34   37.33
   4  -3 -14  600.55   37.49
   4  -1 -13    9.98    8.48
   4  -3 -13   31.12    9.70
  -1   4 -13    8.92    6.85
  -3   4 -13   20.69    8.55
  -3  -1 -12    0.66    2.59
   4  -3 -12    3.35    7.78
  -3   4 -12   -4.21    6.18
   4  -1 -12   11.39    9.75
  -1   4 -12   -9.51    9.20
   4  -3 -11  208.10   20.40
   4  -1 -11  190.00   21.48
  -1   4 -11  224.38   22.25
  -3   4 -11  211.45   20.92
  -3  -1 -11  220.62   13.67
   4  -3 -10  252.55   22.06
  -3  -1 -10  260.97   15.80
  -1   4 -10  258.66   23.67
  -3   4 -10  248.52   22.24
   4  -1 -10  254.66   23.41
   4  -1  -9 1021.94   45.36
  -1  -3  -9  927.26   16.20
   4  -3  -9  987.32   41.96
  -3   4  -9  898.46   40.93
  -3  -1  -9 1000.61   30.91
  -1   4  -9 1033.52   44.24
   4  -3  -8   36.75   10.47
   4  -1  -8   29.99    9.57
  -1   4  -8   35.55    9.60
  -1  -3  -8   22.01    3.94
  -3   4  -8   36.00    9.37
   4  -3  -7  547.07   29.92
  -3  -1  -7  568.23   30.61
  -1   4  -7  560.27   31.29
  -1  -3  -7  561.94   19.07
  -3   4  -7  563.82   30.06
  -3   4  -7  600.59   32.20
  -1  -3  -7  521.77   23.04
   4  -1  -7  562.14   31.64
  -3   4  -6 2100.39   57.41
  -1  -3  -6 2051.16   38.38
  -1  -3  -6 2055.19   26.19
  -3  -1  -6 2153.96   55.57
  -3   4  -6 2131.48   55.19
  -1  -3  -6 1966.86   45.28
  -1   4  -6 2041.62   57.24
   4  -1  -6 1952.43   56.42
  -1  -3  -6 2048.65   25.93
   4  -3  -6 1959.45   55.03
  -1  -3  -5  156.82   13.30
   4  -3  -5  162.23   16.01
  -3  -1  -5  172.95   15.88
  -3   4  -5  144.25   14.13
  -3  -1  -5  143.21    8.40
  -1  -3  -5  164.27   11.93
   4  -1  -5  166.33   16.96
  -1   4  -5  157.16   16.12
  -3   4  -5  165.34   16.81
  -1  -3  -5  151.15    8.62
   4  -1  -4 1258.69   42.62
  -3  -1  -4 1216.43   37.81
  -3   4  -4 1196.33   37.89
   4  -3  -4 1172.20   40.66
  -1   4  -4 1232.04   42.19
  -1  -3  -4 1175.66   32.46
  -3   4  -4 1245.84   42.41
  -1  -3  -4 1176.73   26.74
  -3  -1  -4 1220.49   26.76
   4  -3  -3  387.86   23.17
  -3   4  -3  315.76   19.70
  -3  -1  -3  381.00   16.56
  -1  -3  -3  385.35   16.68
  -1  -3  -3  363.51   18.93
  -1  -3  -3  353.76   14.42
  -1   4  -3  403.19   23.87
  -3   4  -3  418.94   24.36
  -1   4  -3  343.83   14.08
   4  -1  -3  362.97   22.65
  -3  -1  -3  387.21   20.78
  -3   4  -3  363.16   20.18
  -1  -3  -2 3565.70   60.11
  -1   4  -2 3651.29   68.63
  -1   4  -2 3609.61   38.05
  -3   4  -2 3638.78   65.68
   4  -3  -2 3630.71   68.47
   4  -1  -2 3570.16   67.29
  -3  -1  -2 3516.80   53.43
  -1  -3  -2 3614.97   38.19
  -1  -3  -2 3533.34   53.40
  -3   4  -2 3643.68   68.66
  -3   4  -1 1381.57   41.10
   4  -3  -1 1325.56   41.18
  -3   4  -1 1374.67   41.29
  -1  -3  -1 1294.22   19.09
   4  -1  -1 1384.30   40.85
  -1  -3  -1 1376.59   38.93
  -1   4  -1 1361.37   40.69
  -1  -3  -1 1326.07   34.81
  -3  -1  -1 1299.43   34.46
  -1   4  -1 1306.43   18.68
  -1  -3   0  131.69    5.58
  -3  -1   0  145.19   12.67
  -1  -3   0  165.85   14.45
  -3   4   0  131.40   13.21
  -3   4   0  151.28   14.45
  -1  -3   0  142.20   12.48
   4  -1   0  143.63   13.53
  -1   4   0  109.80   12.27
   4  -3   0  155.09   14.85
   4  -3   1 1825.79   47.26
   4  -1   1 1807.07   43.57
  -3  -1   1 1790.36   44.36
  -3   4   1 1823.52   47.49
  -1  -3   1 1838.30   47.26
  -1   4   1 1826.41   43.98
  -3   4   1 1857.44   45.23
  -1  -3   1 1791.20   44.59
   4  -3   2 1855.12   47.18
  -1   4   2 1762.07   41.54
  -3   4   2 1898.23   48.98
   4  -1   2 1800.44   42.47
  -3   4   2 1808.77   43.89
  -3  -1   2 1738.87   45.90
  -1  -3   2 1803.75   46.77
  -1  -3   2 1797.40   48.44
   4  -1   3  541.92   23.39
  -3   4   3  541.49   28.78
   4  -3   3  541.07   27.97
  -1  -3   3  541.49   28.46
  -3  -1   3  541.84   28.61
  -3  -1   3  541.40   28.03
  -1   4   3  541.44   23.92
  -3   4   3  541.84   25.14
  -1  -3   3  541.27   28.80
  -1   4   4  112.72   10.19
  -3  -1   4  123.46   13.41
   4  -1   4  119.66   10.98
  -1  -3   4  119.85   13.78
  -3   4   4  117.62   11.32
  -3  -1   4  126.08   14.00
  -1  -3   4  102.95   12.63
  -3  -1   5  767.72   34.55
  -1  -3   5  736.29   33.80
  -3  -1   5  759.53   33.49
  -1   4   5  700.14   23.21
   4  -1   5  757.78   25.48
  -1  -3   5  719.36   33.22
  -3   4   5  743.13   25.79
  -1   4   5  725.44   25.78
  -3  -1   6 1181.72   44.28
  -1  -3   6 1164.59   43.57
  -1  -3   6 1128.62   35.32
   4  -1   6 1123.78   30.45
  -1   4   6 1141.57   27.23
  -3  -1   6 1147.72   41.91
  -1  -3   6 1169.10   43.89
  -3   4   6 1128.70   31.03
  -1   4   6 1187.37   36.22
   4  -1   7  786.72   24.81
  -1   4   7  750.95   19.55
  -3  -1   7  750.49   35.07
  -1   4   7  736.59   31.12
  -3   4   7  735.92   24.10
  -1  -3   7  721.20   30.81
   4  -1   8  694.07   23.04
  -3  -1   8  701.64   34.55
  -1  -3   8  693.92   32.48
  -3   4   8  736.36   22.96
  -1   4   8  703.63   32.85
  -3   4   9   49.43    5.90
  -1   4   9   71.01   11.77
  -1  -3   9   42.79   10.47
   4  -1   9   45.95    6.62
  -1  -3  10 1267.87   49.40
   4  -1  10 1261.00   29.77
  -3   4  10 1228.59   23.94
  -1   4  10 1302.11   50.02
  -1  -3  11  130.36   17.97
   4  -1  11  101.47    8.64
  -1   4  11  114.31   16.95
   4  -1  11  115.23    9.01
  -3   4  11  115.20   13.96
  -1   4  12   30.48   10.51
  -1  -3  12   54.34   12.28
  -1   4  13  506.68   36.99
  -3   4  13  455.74   36.61
  -1  -3  13  460.57   35.63
  -3  -1  14  202.07   25.79
  -1   4  14  207.64   25.60
  -1  -3  14  199.34   25.03
  -3   4  14  233.92   27.70
  -3   4  15  187.85   26.36
  -1   4  15  188.48   25.03
  -1  -3  15  169.09   24.05
  -3  -1  15  147.94   23.69
  -3   4  16   12.92   11.54
  -3  -1  16   -1.56    9.61
  -1   4  16    1.54    9.89
  -1  -3  16   -0.07    9.84
  -1   4  17    2.99   11.46
  -1  -3  17   14.10   11.33
   4   0 -17   54.07   15.43
   4   0 -16   57.54   17.16
   4  -4 -15   38.37   10.18
   0   4 -15   36.24   10.84
   4   0 -15   32.73   10.47
  -4   4 -15   57.91   13.33
   4   0 -14  726.61   46.64
  -4   4 -14  704.31   40.51
   0   4 -14  708.77   43.40
   4  -4 -14  707.94   39.57
  -4   4 -13  265.95   24.85
   0   4 -13  289.91   27.18
   4  -4 -13  259.78   23.71
   4   0 -13  233.34   26.26
   4  -4 -12  170.82   19.24
  -4   0 -12  151.92   14.48
   4   0 -12  175.04   22.24
   0   4 -12  147.96   19.35
  -4   4 -12  177.44   20.38
   4   0 -11  732.02   42.58
   0   4 -11  755.35   41.42
  -4   4 -11  694.73   38.49
  -4   0 -11  794.90   31.79
   4  -4 -11  718.63   37.18
  -4   4 -10  665.04   36.78
   0   4 -10  665.77   38.00
   4  -4 -10  606.83   33.57
  -4   0 -10  648.25   29.16
   4   0 -10  629.85   38.32
   4  -4  -9  201.95   19.51
   0   4  -9  199.56   21.29
   4   0  -9  186.87   20.98
  -4   4  -9  218.28   21.26
  -4   0  -9  235.15   17.67
  -4   4  -8   17.77    6.87
   0  -4  -8   10.94    3.00
   4  -4  -8   32.86    9.27
  -4   0  -8   26.30    7.27
   0  -4  -8   25.97    4.06
   4   0  -8   12.67    9.09
   0   4  -8   16.35    8.43
   0  -4  -7   60.88    6.84
  -4   4  -7   51.31   11.43
   4  -4  -7   58.11   10.95
   4   0  -7   36.83    9.60
   0   4  -7   73.70   13.95
   0  -4  -7   58.48    6.18
  -4   4  -6  167.70   17.77
   4  -4  -6  150.30   16.41
   0  -4  -6  137.50   10.08
  -4   4  -6  134.36   12.89
   0  -4  -6  128.75   13.47
   4   0  -6  162.12   18.02
  -4   4  -6  149.25   16.84
   0  -4  -6  144.08   10.83
   0   4  -6  142.92   16.60
  -4   0  -6  121.37   15.29
   4  -4  -5  126.70   14.53
  -4   4  -5  142.48   15.75
  -4   4  -5  146.07   16.33
   0  -4  -5  114.24   12.45
   4   0  -5  104.65   14.35
   0  -4  -5  108.20   10.10
   0   4  -5  126.97   15.67
  -4   0  -5  116.82   14.13
  -4   4  -5  110.01   12.25
   4   0  -4  668.16   32.79
   0  -4  -4  705.54   30.39
   4  -4  -4  687.05   32.05
  -4   0  -4  683.00   24.12
   0   4  -4  727.21   34.33
  -4   4  -4  648.40   28.46
  -4   4  -4  690.10   32.76
   0  -4  -4  641.60   24.93
  -4   0  -4  680.74   32.02
  -4   4  -4  701.97   32.52
   0   4  -3 1454.55   47.04
  -4   0  -3 1456.22   36.76
   4  -4  -3 1498.72   46.65
   0  -4  -3 1388.46   43.15
   0  -4  -3 1401.30   38.32
  -4   4  -3 1457.09   42.98
  -4   4  -3 1463.63   46.51
   4   0  -3 1404.17   45.50
   4  -4  -2 3238.25   67.71
   0  -4  -2 3184.02   65.85
  -4   0  -2 3203.07   56.91
   4   0  -2 3240.12   66.18
   0  -4  -2 3220.06   59.97
  -4   4  -2 3255.76   68.34
  -4   4  -2 3271.48   65.10
   0   4  -2 3258.16   68.40
   4  -4  -1 1368.13   44.10
  -4   0  -1 1371.86   38.99
   0   4  -1 1361.33   43.04
   4   0  -1 1393.16   42.32
   0  -4  -1 1394.58   41.12
  -4   4  -1 1422.77   44.44
   4   0   0   99.35   11.96
   0   4   0   78.90   10.97
  -4   4   0   90.74   11.84
  -4   0   0   72.83   10.53
   0  -4   0   85.56   11.00
   4  -4   0   91.18   12.06
   4  -4   1 1422.74   45.22
   4   0   1 1394.87   38.81
   0  -4   1 1416.08   43.67
  -4   0   1 1398.43   42.00
  -4   4   1 1441.11   43.31
   4  -4   1 1451.77   44.65
   0  -4   1 1429.92   42.96
   0   4   1 1363.17   40.74
  -4   4   2 3282.85   63.85
   0  -4   2 3297.59   68.43
   0   4   2 3318.74   61.15
   4   0   2 3235.35   56.91
   4  -4   2 3209.40   67.78
   0  -4   2 3351.49   67.96
  -4   0   2 3297.17   67.19
   0   4   3 1437.90   38.90
   0  -4   3 1431.26   45.67
   0   4   3 1417.13   25.53
   0  -4   3 1417.09   25.30
   0  -4   3 1501.75   47.32
  -4   0   3 1459.18   46.36
   4   0   3 1409.46   36.21
  -4   4   3 1396.59   41.13
   4  -4   3 1451.87   46.64
   0  -4   4  671.15   21.05
   0  -4   4  654.95   32.16
  -4   0   4  712.23   33.71
   0   4   4  646.42   25.13
   4   0   4  615.30   22.97
   0   4   4  671.18   20.87
  -4   4   4  682.64   28.64
   0  -4   4  655.35   32.29
   4  -4   4  695.18   33.07
   4  -4   5  130.97   15.07
   0  -4   5  141.68   15.92
   0   4   5  124.48   10.77
   0  -4   5  123.56   10.78
   4   0   5  110.04    9.72
  -4   4   5  109.64   11.87
   0   4   5  121.68   10.91
   0   4   6  135.23   12.45
   0  -4   6  123.12   12.38
  -4   4   6  139.02   13.25
   4   0   6  145.78   10.32
  -4   0   6  144.52   16.10
  -4   4   6  116.58   14.17
  -4   4   7   62.61    9.12
   4   0   7   54.27    6.07
  -4   0   7   49.00   10.67
  -4   4   7   65.58   10.75
   0   4   7   60.19    9.64
   0  -4   7   64.51   10.12
  -4   4   8   14.68    7.10
   4   0   8   14.79    3.01
   0   4   8   25.22    8.31
   0  -4   8   19.99    7.57
   0   4   9  228.68   20.55
   0  -4   9  237.96   20.56
   4   0   9  208.76    8.00
  -4   4   9  218.89   15.14
   0   4  10  668.87   36.03
   0  -4  10  607.68   34.45
  -4   4  10  643.54   24.71
   0   4  11  719.85   39.53
   0  -4  11  689.77   38.23
  -4   4  11  785.85   25.90
   0   4  12  166.08   20.46
   0  -4  12  129.96   18.12
   0   4  13  273.32   27.78
   0  -4  13  222.72   25.12
   0   4  14  635.71   43.21
   0  -4  14  729.70   46.18
   0  -4  15   51.63   15.52
   0   4  15   60.48   16.50
  -4   4  16   49.49   16.89
   0   4  16   36.94   14.49
   0  -4  16   44.50   15.22
  -4   0  16   43.66   14.16
   0   4  17   14.12   11.67
   0  -4  17   26.79   14.05
   4   1 -16  204.56   27.30
   4   1 -15    5.01    8.06
   4   1 -14    6.37   10.94
   4  -5 -14    5.66    6.42
  -5   4 -14    2.78    6.58
  -5   1 -13    5.09    5.84
   4  -5 -13    2.83    6.00
   4   1 -13   -2.83    9.76
  -5   4 -13   -3.82    8.13
   4   1 -12 1724.47   70.51
   4  -5 -12 1649.26   57.66
   1   4 -12 1851.75   69.19
  -5   4 -12 1764.30   63.54
  -5   1 -12 1754.17   54.50
  -5   4 -11    6.63    6.13
  -5   1 -11   16.64    6.84
   4  -5 -11    4.26    6.46
   1  -5 -11   13.31    3.47
   4   1 -11   16.28    9.73
   1   4 -11    5.09    7.52
  -5   4 -10    1.17    6.87
  -5   1 -10   -0.33    5.58
   1  -5 -10    0.88    2.77
   4  -5 -10   -0.32    7.80
   4   1 -10    5.47    7.54
   1   4 -10    1.83    7.46
  -5   4  -9    4.75    7.81
   1  -5  -9    0.83    3.25
  -5   1  -9    6.67    5.30
   4  -5  -9    6.43    6.37
   4   1  -9    2.41    6.62
   1   4  -9   -6.01    7.70
   4  -5  -8  422.93   27.96
   1  -5  -8  430.95   20.24
  -5   1  -8  470.51   28.12
  -5   4  -8  463.67   30.87
   4   1  -8  412.30   31.60
   1  -5  -8  438.98   17.16
   1   4  -8  490.01   33.20
  -5   4  -8  453.87   23.44
   4  -5  -7   -1.52    6.03
  -5   4  -7   16.27    7.67
   1  -5  -7    7.78    4.44
  -5   1  -7    0.98    6.80
  -5   4  -7    7.59    4.05
   4   1  -7    1.64    7.98
   1   4  -7    9.01    8.41
   1  -5  -7    2.12    4.11
   4  -5  -6   22.23    8.86
   1  -5  -6   14.69    5.03
  -5   4  -6   13.28    8.64
  -5   1  -6   13.31    6.30
  -5   4  -6   20.75    6.77
   4   1  -6   19.65    9.45
   1   4  -6    8.93    6.90
   1  -5  -6   -1.85    4.72
   1  -5  -5    9.07    4.56
  -5   4  -5   21.46    9.39
  -5   4  -5   17.08    6.55
   4   1  -5   22.77    9.52
   1   4  -5   13.81    7.93
   4  -5  -5    8.48    7.85
   4  -5  -4 1281.56   45.96
   1  -5  -4 1287.54   45.61
   1   4  -4 1355.33   49.50
   4   1  -4 1307.78   47.86
   1  -5  -4 1283.70   38.65
  -5   4  -4 1340.39   48.96
   1  -5  -3   19.38    6.23
  -5   4  -3    0.76    6.37
   1  -5  -3   15.36    7.28
   4  -5  -3   12.23    7.36
   4   1  -3   13.43    6.35
   1   4  -3   28.29    9.00
  -5   1  -3   10.53    6.31
   1  -5  -2  238.58   18.31
   4  -5  -2  219.64   19.94
  -5   1  -2  266.98   19.00
   1   4  -2  230.35   20.27
   4   1  -2  223.47   19.24
   4  -5  -2  244.74   19.15
   1  -5  -2  222.08   19.88
  -5   4  -2  233.93   20.32
   1  -5  -1   10.02    6.26
  -5   4  -1   -3.34    6.76
   4  -5  -1    2.17    3.81
   4   1  -1   -6.02    5.39
   1  -5  -1    4.89    6.43
   1   4  -1    6.51    8.35
   4  -5  -1    8.39    6.98
  -5   1  -1   -2.40    5.48
   4  -5   0 7809.55  108.88
  -5   1   0 7663.54  105.26
   1  -5   0 7861.15  112.43
   1   4   0 7610.70  107.14
   1  -5   0 7888.35  107.32
   4   1   0 7618.66  100.46
  -5   4   0 7696.77  110.41
  -5   1   1   29.77    9.50
   1  -5   1   26.24    7.97
  -5   4   1   37.10   10.15
   4  -5   1   26.39    8.17
   1  -5   1   24.26    8.22
   4   1   1   14.65    6.37
   1   4   1   44.56    9.34
   1  -5   2  206.65   19.34
   4   1   2  196.64   15.44
   1  -5   2  202.99   18.77
   4  -5   2  193.81   18.41
  -5   4   2  193.68   17.50
  -5   1   2  185.40   17.64
  -5   4   3   24.15    8.51
   4   1   3    6.13    4.80
   1  -5   3   21.60    7.77
  -5   4   4 1254.49   43.35
   1  -5   4 1294.02   47.24
   4   1   4 1294.19   34.08
  -5   4   5    5.54    6.30
   4   1   5    6.36    3.64
  -5   4   6   62.31   10.57
   4   1   6   52.31    6.50
   1   4   6   71.85   10.20
   1  -5   6   72.48   10.52
   1   4   7   46.26    9.49
   1  -5   7   63.65   10.46
  -5   4   7   43.42    9.37
   4   1   7   56.14    5.32
   1   4   8  534.76   28.83
   1  -5   8  561.91   29.49
  -5   4   8  521.92   27.46
   1   4   9    7.74    7.35
   1  -5   9    3.18    6.54
  -5   4   9   -0.70    5.00
  -5   4  10   11.34    6.16
   1   4  10   25.47    9.47
   1  -5  10   18.41    8.82
  -5   4  11   15.88    5.86
   1   4  11    6.47    8.12
   1  -5  11   14.83    7.51
   1  -5  11   22.35    9.62
   1   4  12 1513.88   60.57
   1  -5  12 1493.48   60.96
   1  -5  12 1584.40   57.22
   1  -5  13    1.50    6.56
   1  -5  13   -7.46    9.22
   1   4  14   52.54   15.05
   1  -5  14   41.93   13.74
   1   4  15    2.70   10.73
   1  -5  15    8.24    9.37
   1   4  16  314.73   34.07
   1  -5  16  308.55   33.37
  -6   4 -14  216.29   24.89
   4   2 -14  206.84   28.14
  -6   4 -13   72.23   15.43
  -6   2 -13   78.24   13.44
   4  -6 -13   41.59   10.03
   4   2 -13   54.43   14.58
  -6   4 -12   47.31   12.55
  -6   2 -12   70.68   13.72
   4  -6 -12   43.30   10.94
   4   2 -12   47.53   13.45
  -6   4 -11  204.48   23.07
  -6   2 -11  169.54   20.03
   4  -6 -11  147.80   17.85
   4   2 -11  157.35   22.94
   2  -6 -10  276.24   19.26
  -6   4 -10  304.44   27.26
   4  -6 -10  303.85   24.78
  -6   2 -10  295.85   25.60
   4   2 -10  330.62   31.30
   2  -6  -9  379.51   22.95
   4  -6  -9  355.81   26.46
  -6   4  -9  425.46   31.96
  -6   2  -9  400.72   29.34
   4   2  -9  420.80   34.10
   4  -6  -8   15.67    7.76
  -6   4  -8    8.17    7.33
  -6   2  -8   24.48    9.04
   2  -6  -8    8.60    3.42
   4   2  -8    8.04    7.71
  -6   4  -8   17.66    7.17
   2  -6  -8   10.13    6.56
   2  -6  -7  408.52   24.36
  -6   4  -7  402.30   23.97
  -6   4  -7  341.10   27.59
   4   2  -7  422.97   32.60
   2  -6  -7  397.23   21.33
  -6   2  -7  395.05   28.60
   4  -6  -7  418.43   28.37
  -6   2  -6 1339.29   51.62
   2  -6  -6 1337.07   44.41
   4  -6  -6 1324.92   49.68
  -6   4  -6 1413.82   45.71
  -6   4  -6 1351.42   54.15
   2  -6  -6 1353.59   40.95
   4   2  -6 1395.51   56.46
  -6   2  -5  259.31   23.02
   4  -6  -5  242.72   21.91
   4   2  -5  270.13   24.52
   2  -6  -5  246.14   18.68
  -6   4  -5  263.98   24.27
   2  -6  -4  721.33   32.20
   4  -6  -4  683.99   35.85
   4   2  -4  683.84   37.53
  -6   4  -4  694.31   38.10
   4  -6  -4  746.49   33.86
   4  -6  -3  498.09   30.66
   2  -6  -3  515.38   27.99
   4   2  -3  484.00   30.60
  -6   4  -3  421.21   29.50
   4  -6  -3  419.44   26.02
   4  -6  -2 1262.90   48.72
  -6   2  -2 1267.40   45.82
   2  -6  -2 1229.05   48.44
   4  -6  -2 1242.94   45.18
   2  -6  -2 1248.60   44.74
   4   2  -2 1175.99   45.72
  -6   4  -2 1218.62   49.00
   2  -6  -1  133.26   15.73
  -6   4  -1  172.32   19.16
   2  -6  -1  181.89   20.06
   4   2  -1  160.43   16.63
   4   2   0   52.45   10.24
   2  -6   0   35.14    9.48
  -6   4   1   59.52   11.39
   4   2   1   72.21   11.17
   2  -6   1   67.43   13.09
   2  -6   2  838.94   40.46
  -6   4   2  839.42   39.70
   4   2   2  914.36   34.52
   2  -6   3 1470.60   54.04
   4   2   3 1502.01   42.03
  -6   4   3 1485.70   52.59
  -6   4   4   -2.78    7.49
   2  -6   4    9.14    7.89
   4   2   4    0.97    4.17
   4   2   5 1085.92   31.29
  -6   4   5  986.57   42.86
   2  -6   5 1019.72   45.93
   2  -6   6  884.07   42.66
  -6   4   6  870.88   40.06
  -6   4   7   41.27   10.10
   2  -6   7   41.43   10.21
  -6   4   8  157.09   17.55
   2  -6   8  149.75   18.68
  -6   4   9  124.47   16.13
   2  -6   9   96.25   15.42
   2  -6  10  745.90   40.65
  -6   4  10  802.63   38.19
   2  -6  11  195.44   21.99
  -6   4  11  146.62   16.82
   2   4  11  156.53   19.84
   2  -6  11  197.86   21.25
   2   4  12   84.82   16.04
   2  -6  12   85.98   16.90
   2  -6  12   87.29   15.45
   2  -6  13   64.91   13.33
   2   4  13   66.03   14.52
   2  -6  13   72.85   16.35
   2   4  14  206.82   26.89
   2  -6  14  201.88   26.19
   2   4  15   93.16   19.13
   2  -6  15   96.74   20.84
   2   4  16   23.35   13.58
   2  -6  16    8.22   11.24
  -7   4 -13   -3.95    8.87
  -7   3 -13   12.12    6.42
  -7   4 -12   -8.32    9.72
  -7   3 -12    8.41    6.35
   4   3 -12   19.38   12.79
  -7   4 -11   88.92   17.58
  -7   3 -11  122.24   19.38
   4  -7 -11   94.67   15.23
   4   3 -11   83.72   18.57
   3  -7 -10   38.15    9.33
  -7   4 -10   55.54   13.50
   4  -7 -10   72.56   13.76
  -7   3 -10   57.41   13.33
   4   3 -10   83.73   18.10
   4  -7  -9  258.96   23.30
  -7   4  -9  288.79   28.39
  -7   3  -9  286.94   27.38
   4   3  -9  303.40   31.09
   3  -7  -9  297.65   23.67
   4  -7  -8    5.56    7.93
  -7   4  -8   19.78   11.32
  -7   3  -8    4.41    7.71
   4   3  -8   -6.06    8.02
   3  -7  -8   -2.52    6.09
  -7   3  -7  367.42   30.62
   3  -7  -7  322.21   25.08
   4  -7  -7  377.77   28.34
  -7   4  -7  370.50   31.06
   3  -7  -7  343.45   22.56
   4   3  -7  382.36   33.39
   3  -7  -6 1503.97   53.30
   4  -7  -6 1494.59   55.48
  -7   4  -6 1458.65   60.14
  -7   3  -6 1453.95   58.87
   3  -7  -6 1530.87   49.05
   4   3  -6 1485.07   62.09
  -7   4  -5  198.69   22.54
  -7   3  -5  190.56   21.95
   3  -7  -5  206.31   21.02
   3  -7  -5  201.31   18.83
   4   3  -5  186.88   22.22
   4  -7  -5  166.77   19.95
   4  -7  -4  617.78   36.66
  -7   4  -4  649.97   39.77
   4   3  -4  655.12   39.32
  -7   3  -4  650.08   39.10
  -7   4  -3  132.78   19.18
   4   3  -3  126.83   17.55
  -7   3  -3  147.33   20.09
   4  -7  -3  109.16   16.18
  -7   4  -2  788.11   42.65
   4   3  -2  715.88   38.57
  -7   3  -2  766.71   42.32
  -7   4  -1  160.62   20.41
   4   3  -1  168.88   19.13
  -7   4   0    9.93    7.37
   4   3   0   -3.25    6.22
   3  -7   1  164.40   20.17
  -7   4   1  124.19   18.23
   4   3   1  175.31   18.01
   3  -7   2  283.08   26.30
  -7   4   2  314.24   27.31
   4   3   2  291.31   21.76
  -7   4   3  394.13   30.04
   3  -7   3  386.78   30.23
   3  -7   4   24.40   11.00
   3  -7   5  597.62   37.66
   3  -7   6  961.31   47.96
   3  -7   7  185.11   21.65
   3  -7   8  534.01   36.01
   3  -7   9   17.83   10.04
   3  -7  10  597.25   38.41
   3  -7  11   76.59   14.90
   3  -7  12   20.18    9.72
  -8   4 -13    0.56    8.18
  -8   4 -12  421.98   37.11
  -8   4 -11    6.14    8.74
   4  -8 -10    5.03    8.66
  -8   4 -10   41.56   15.15
   4  -8  -9   23.91    8.54
  -8   4  -9  -12.02    9.50
  -8   4  -8  341.89   31.87
   4  -8  -8  334.55   28.75
  -8   4  -7    5.76    8.08
   4  -8  -7    4.00    6.26
  -8   4  -6    9.56    8.08
   4  -8  -6   23.33   11.42
  -8   4  -5   -7.41    7.90
   4  -8  -5  -10.02    9.27
   4  -8  -4 1278.65   55.86
  -8   4  -4 1322.84   60.44
  -8   4  -3    2.00    7.06
  -8   4  -2   75.50   16.43
  -8   4  -1   -3.98    9.04
  -8   4   0 1564.70   64.51
  -8   4   1   -4.51    8.03
  -8   4   2  280.79   27.78
   5  -2 -17   26.68   13.79
   5  -3 -16    2.89    7.51
   5  -2 -16   41.37   14.57
  -2   5 -16   51.59   13.86
  -3   5 -16   11.50    9.09
   5  -3 -15  131.84   20.34
   5  -2 -15   88.36   17.82
  -2   5 -15  117.18   19.68
  -3   5 -15  115.27   18.77
  -2   5 -14  334.16   30.83
  -3   5 -14  320.55   29.54
   5  -3 -14  295.14   28.71
   5  -2 -14  298.73   30.43
   5  -3 -13  135.00   20.24
   5  -2 -13  167.56   22.11
  -2   5 -13  118.92   18.35
  -3   5 -13  181.47   22.60
   5  -3 -12  118.89   17.96
   5  -2 -12  118.80   18.19
  -2   5 -12   74.59   14.02
  -3   5 -12   79.17   14.96
  -3  -2 -11   63.07    7.64
   5  -3 -11   58.83   12.87
   5  -2 -11   66.03   14.15
  -2   5 -11   66.38   14.24
  -3   5 -11   55.83   13.04
  -3   5 -10  332.73   27.88
  -3  -2 -10  316.56   17.32
   5  -3 -10  265.33   24.99
  -2   5 -10  278.75   25.83
  -2  -3 -10  311.01   13.94
   5  -2 -10  294.42   27.04
  -3  -2 -10  290.49   16.88
  -2  -3 -10  290.78   13.23
  -2   5  -9   76.69   14.44
   5  -3  -9   89.46   15.61
  -2  -3  -9   70.95    9.03
  -2  -3  -9   92.80    8.90
   5  -2  -9  117.82   17.38
  -3  -2  -9   92.09   10.11
  -3  -2  -9   82.11    8.66
  -3   5  -9   91.89   15.69
   5  -3  -8  155.78   18.60
  -2  -3  -8  137.85   13.23
   5  -2  -8  137.26   18.86
  -2  -3  -8  125.39   11.04
  -2   5  -8  146.10   18.63
  -3  -2  -8  168.21   14.10
  -3   5  -8  166.65   19.19
   5  -3  -7  415.69   28.88
  -2  -3  -7  372.52   21.07
  -3  -2  -7  436.28   22.68
  -3  -2  -7  459.30   27.36
  -3   5  -7  440.01   26.75
  -2  -3  -7  382.48   19.78
   5  -2  -7  435.80   30.22
  -2   5  -7  483.67   31.67
  -3   5  -7  389.36   27.89
  -2  -3  -7  377.81   23.77
  -2   5  -7  421.15   24.61
  -3   5  -6 1790.08   51.02
   5  -2  -6 1701.15   56.82
  -3  -2  -6 1759.20   26.26
  -3  -2  -6 1812.33   51.20
   5  -3  -6 1796.29   58.15
  -2  -3  -6 1802.41   26.95
  -2   5  -6 1781.03   57.98
  -2  -3  -6 1781.93   44.06
  -3   5  -6 1787.79   58.09
  -2  -3  -6 1763.05   46.67
  -2   5  -6 1847.37   47.51
  -3  -2  -5 1164.32   41.56
  -3   5  -5 1159.54   40.23
  -3  -2  -5 1160.74   27.14
   5  -3  -5 1164.61   48.31
   5  -2  -5 1163.72   47.41
  -2  -3  -5 1162.80   38.07
  -2  -3  -5 1167.50   27.50
  -2   5  -5 1164.44   47.58
  -2  -3  -5 1158.98   36.18
  -2   5  -5 1155.81   36.94
  -3   5  -5 1157.00   48.23
   5  -3  -4  149.09   17.18
  -3  -2  -4  141.28   13.64
  -3   5  -4  143.98   13.81
   5  -2  -4  166.11   18.42
  -2  -3  -4  160.78   14.50
  -3  -2  -4  153.15   14.56
  -3  -2  -4  137.82   10.50
  -2  -3  -4  146.22   10.91
  -2  -3  -4  133.31   11.39
  -2   5  -4  161.73   12.59
  -2   5  -4  147.72   17.13
  -3   5  -4  154.85   17.44
  -3  -2  -3  879.91   31.07
  -3   5  -3  939.67   31.82
  -2  -3  -3  918.23   26.51
   5  -3  -3  895.61   38.72
   5  -2  -3  980.57   40.57
  -3  -2  -3  883.39   27.91
  -3  -2  -3  951.05   35.73
  -2  -3  -3  931.41   34.46
  -2   5  -3  968.64   26.93
  -2   5  -3  912.34   38.57
  -2  -3  -3  939.88   28.77
  -3   5  -3  925.68   39.10
  -2  -3  -2 1885.97   35.53
  -2   5  -2 1890.79   34.94
   5  -3  -2 1848.90   54.37
   5  -2  -2 1974.88   55.60
  -3  -2  -2 2032.26   53.08
  -3  -2  -2 1939.13   43.93
  -2  -3  -2 1967.09   51.13
  -2   5  -2 1939.19   54.95
  -3   5  -2 1872.33   54.27
  -2  -3  -2 1903.49   43.75
  -3   5  -2 1936.51   43.62
  -3   5  -1  297.47   21.53
  -2  -3  -1  300.71   13.56
  -2   5  -1  302.79   13.24
  -2  -3  -1  296.86   20.61
  -3  -2  -1  313.66   21.46
  -3  -2  -1  277.52   17.88
   5  -2  -1  334.84   23.03
  -2   5  -1  314.17   21.80
  -2  -3  -1  312.02   18.94
  -3   5  -1  300.17   21.44
   5  -3  -1  288.47   21.77
   5  -3   0   71.17   11.98
  -3   5   0   95.46   12.45
   5  -2   0   80.38   11.75
  -3  -2   0   92.63   11.48
  -3   5   0   78.41   11.79
  -2  -3   0   78.86   10.70
  -3  -2   0   85.55   12.19
  -2  -3   0  102.36   12.79
  -2   5   0   77.23   11.50
  -2  -3   1  232.87   19.44
   5  -3   1  237.75   21.11
  -3   5   1  232.92   21.38
   5  -2   1  238.89   20.80
  -3  -2   1  233.70   21.34
  -2  -3   1  237.30   20.50
  -3  -2   1  239.88   20.38
  -3   5   1  230.87   20.39
  -2   5   1  272.64   19.47
   5  -3   2  425.09   25.08
  -3   5   2  367.75   24.58
   5  -2   2  434.28   24.60
  -2  -3   2  384.08   25.07
  -3  -2   2  428.45   25.10
  -3  -2   2  379.45   24.91
  -2   5   2  407.32   22.96
  -2  -3   2  411.22   24.72
  -3   5   2  398.72   22.88
   5  -3   3  240.56   19.28
   5  -2   3  252.76   18.49
  -3   5   3  237.99   19.87
  -3  -2   3  239.52   20.46
  -2  -3   3  264.30   21.42
  -3  -2   3  235.24   19.67
  -2  -3   3  262.43   20.56
  -3   5   3  270.93   18.67
  -2   5   3  257.26   17.94
   5  -3   4  278.59   20.57
  -3   5   4  331.86   23.68
  -2   5   4  317.46   19.05
  -3   5   4  291.10   18.86
   5  -2   4  303.41   19.83
  -2   5   4  312.30   22.38
  -2   5   5  370.61   19.91
   5  -2   5  424.81   23.04
   5  -3   5  371.84   23.36
  -2   5   5  368.76   24.54
  -3   5   5  414.43   21.45
  -3   5   5  395.95   25.96
   5  -3   6 1841.97   50.82
   5  -2   6 1897.02   47.66
  -2   5   6 1903.87   55.69
  -2   5   6 1978.32   42.80
  -3   5   6 1923.21   44.37
   5  -3   7  532.76   27.67
   5  -2   7  535.14   25.32
  -2   5   7  558.58   21.37
  -3   5   7  498.55   21.95
  -2   5   7  513.05   29.32
  -3   5   8  296.42   16.11
   5  -3   8  311.18   21.86
   5  -2   8  299.51   19.42
  -2   5   8  300.64   22.77
  -2   5   8  300.23   14.45
   5  -3   9  588.21   29.65
   5  -2   9  570.60   26.19
  -2   5   9  586.92   16.39
  -3   5   9  542.80   19.48
  -2   5   9  579.83   32.60
  -2  -3   9  612.73   33.74
   5  -3  10  638.34   31.21
   5  -2  10  600.10   26.38
  -3   5  10  548.74   16.08
  -2   5  10  601.59   35.23
  -2  -3  10  524.25   32.98
   5  -3  11  342.95   23.39
   5  -2  11  293.00   18.67
  -2   5  11  268.62   24.79
  -2   5  12   16.57   11.02
  -2  -3  12    5.81    7.74
   5  -3  12    5.81    4.96
  -3   5  12  -11.96   11.44
  -2  -3  13   36.69   11.77
  -3  -2  13   26.44   10.76
  -3   5  13   51.96   14.59
  -3   5  14  248.35   28.76
  -3  -2  14  205.34   25.82
  -2   5  14  229.50   26.77
  -2  -3  14  178.99   23.87
  -3  -2  15   65.49   16.45
  -2   5  15   51.27   14.48
  -2  -3  15   51.40   15.08
  -3   5  15   22.42   11.97
  -3   5  16   58.54   14.78
  -3  -2  16   67.95   17.34
  -2   5  16   69.00   19.04
  -2  -3  16   53.55   18.24
   5  -1 -17   -5.79    8.00
  -1   5 -16  347.30   33.04
   5  -1 -16  343.00   35.43
   5  -4 -15   -3.33    7.03
   5  -1 -15    5.99   10.05
  -1   5 -15    3.50    8.48
  -4   5 -15    2.15    8.18
   5  -4 -14   52.34   13.82
   5  -1 -14   63.92   16.89
  -1   5 -14   74.43   16.26
  -4   5 -14   45.07   11.75
  -1   5 -13    1.38    7.76
   5  -4 -13   22.09   11.10
   5  -1 -13    6.01    8.89
  -4   5 -13    2.37    6.86
  -1   5 -12 1508.18   63.29
   5  -4 -12 1481.93   59.84
  -4   5 -12 1510.30   61.36
   5  -1 -12 1430.50   63.29
  -4  -1 -11   13.00    5.63
   5  -4 -11   22.29    9.30
   5  -1 -11    7.32    8.76
  -1   5 -11   26.97   10.17
  -4   5 -11   13.02    8.59
  -4  -1 -10   14.68    5.27
   5  -4 -10   18.78   10.16
  -4  -1 -10   21.09    3.20
   5  -1 -10   20.29    9.17
  -1   5 -10   25.39   10.08
  -4   5 -10   10.57    8.33
  -1  -4  -9    1.34    2.57
  -4  -1  -9   -2.04    5.24
   5  -4  -9    2.77    7.31
   5  -1  -9   -4.47    9.07
  -1   5  -9    0.31    6.95
  -4   5  -9   21.23   10.11
  -1   5  -8  506.25   33.88
  -1  -4  -8  548.45   27.11
   5  -4  -8  514.73   32.97
   5  -1  -8  516.50   34.00
  -1  -4  -8  515.15   20.49
  -4   5  -8  543.13   34.28
  -4   5  -7   60.86   12.41
   5  -4  -7   46.57   11.44
  -1  -4  -7   66.38    5.97
   5  -1  -7   25.55    9.71
  -1  -4  -7   55.02    5.40
  -1   5  -7   36.98    9.91
  -1  -4  -7   49.83    9.65
  -1  -4  -7   36.53    6.78
  -4   5  -6   34.36    9.35
   5  -4  -6   53.05   11.38
  -1  -4  -6   40.06    9.49
   5  -1  -6   59.26   13.37
  -4  -1  -6   68.14   11.46
  -1  -4  -6   57.40    6.64
  -1   5  -6   73.32   13.84
  -4   5  -6   51.92   11.43
  -1  -4  -6   45.97    7.51
  -4   5  -5   10.83    9.36
   5  -4  -5    0.28    8.23
  -4  -1  -5   -1.69    6.64
  -4   5  -5    0.09    5.53
  -1  -4  -5    8.84    6.96
   5  -1  -5    8.44    7.84
  -1  -4  -5    0.41    3.70
  -1   5  -5   11.45    9.08
  -4  -1  -5    2.28    3.29
  -1  -4  -5    7.50    5.00
  -4  -1  -4 1224.87   42.85
  -4   5  -4 1242.74   43.13
  -4  -1  -4 1192.74   32.75
  -4   5  -4 1279.32   44.04
   5  -1  -4 1248.03   47.10
  -1   5  -4 1324.01   48.84
  -1  -4  -4 1263.92   39.35
  -4   5  -4 1264.58   47.62
   5  -4  -4 1186.21   45.79
  -1  -4  -4 1224.95   33.43
   5  -4  -3   10.26    7.47
  -4   5  -3   17.10    7.73
  -4  -1  -3   10.61    4.86
   5  -1  -3   10.55    7.62
  -1  -4  -3   12.43    4.45
  -4   5  -3    7.91    5.93
  -1   5  -3   15.25    8.33
  -1  -4  -3   10.78    5.68
   5  -4  -2  131.05   18.60
  -4   5  -2  137.28   18.01
  -4  -1  -2  133.23   15.19
   5  -1  -2  139.69   19.38
  -1   5  -2  132.69   18.81
  -4   5  -2  131.72   18.65
  -1  -4  -2  134.98   14.69
  -1  -4  -2  137.77   17.05
  -4   5  -1   26.73    8.42
  -4  -1  -1   48.43    9.07
   5  -1  -1   27.91    9.16
  -1  -4  -1   33.75    7.82
  -1   5  -1    8.03    5.48
  -1  -4  -1   40.94    9.02
  -4   5  -1   30.01    8.46
   5  -4  -1   39.41   10.57
   5  -4   0 7644.52  110.90
  -4   5   0 7623.53  110.03
  -4  -1   0 7770.33  101.05
   5  -1   0 7739.56  105.08
  -1   5   0 7706.71  106.66
  -1  -4   0 7567.32  106.67
  -4   5   0 7711.35  108.33
  -1  -4   0 7643.08  100.70
  -4   5   1   11.41    6.25
  -4  -1   1    1.11    5.07
   5  -1   1   -7.52    6.77
  -4   5   1   -3.59    7.20
  -1  -4   1   -3.93    5.51
  -1   5   1    3.69    5.99
   5  -4   1    6.67    7.28
  -1  -4   1   -0.21    5.65
   5  -1   2  208.33   17.09
   5  -4   2  216.07   19.33
  -4   5   2  248.55   20.85
  -1   5   2  219.44    8.05
  -4  -1   2  254.16   20.46
  -1  -4   2  217.07    8.18
  -1   5   2  241.46   18.27
  -1  -4   2  220.03   19.73
  -4   5   2  230.97   18.69
  -1  -4   2  210.06   18.29
  -4   5   3   18.33    6.55
  -1  -4   3   21.59    4.11
   5  -1   3   17.90    6.55
  -4  -1   3   26.00    8.23
  -1   5   3   15.11    3.65
  -1  -4   3   12.97    6.56
   5  -4   3   19.48    7.77
  -1   5   3   13.43    6.01
   5  -4   4 1359.89   47.02
   5  -1   4 1315.60   39.19
  -1   5   4 1347.21   39.59
  -1   5   4 1313.49   29.73
  -1  -4   4 1299.44   30.09
  -4   5   4 1228.23   40.35
  -4   5   5   10.48    6.04
   5  -1   5   11.62    6.30
  -1  -4   5    9.38    4.46
   5  -4   5   13.59    7.77
  -1   5   5   14.57    5.50
  -1   5   5   13.49    5.04
  -1  -4   6   18.01    6.18
  -4   5   6   21.10    6.42
   5  -1   6   21.44    6.34
  -1   5   6   13.49    5.22
  -1   5   6    8.84    4.38
  -4   5   7   13.24    5.70
   5  -1   7   18.69    5.85
  -1   5   7    1.40    5.40
  -1   5   7    4.41    3.74
  -1  -4   7   12.35    5.81
   5  -1   8  486.06   21.51
  -1   5   8  458.92   26.64
  -1  -4   8  447.73   26.01
  -4   5   8  491.70   23.43
  -4   5   9    7.36    4.11
   5  -1   9    3.68    3.27
  -1   5   9   10.02    6.67
  -1  -4   9   -0.62    6.05
  -4   5  10    1.06    3.15
   5  -1  10    1.88    3.08
  -1   5  10    9.01    6.76
  -1  -4  10   -4.61    7.46
  -1   5  11    2.00    6.09
  -1  -4  11   16.83    8.92
  -1   5  12 1694.12   63.89
  -1  -4  12 1758.80   64.81
  -1   5  13   19.03    9.54
  -1  -4  13   -5.25    6.99
  -1   5  14   24.31   11.33
  -1  -4  14    4.92    9.17
  -1  -4  15   -0.12    7.77
  -4  -1  15    5.93    9.63
  -1   5  15   10.69   11.13
  -1   5  16  195.09   27.14
  -1  -4  16  182.85   26.69
   5   0 -16   21.20   13.09
   0   5 -15   45.54   14.86
   5   0 -15   33.36   12.72
  -5   5 -15   40.87   12.55
   0   5 -14  545.88   41.51
   5  -5 -14  556.94   37.77
   5   0 -14  534.09   42.76
  -5   5 -14  622.85   42.03
   5  -5 -13  182.35   22.25
   5   0 -13  198.55   26.01
   0   5 -13  177.75   24.36
  -5   5 -13  182.73   22.85
  -5   0 -12  225.54   19.55
   5  -5 -12  221.70   23.60
   5   0 -12  182.87   24.02
   0   5 -12  194.64   24.05
  -5   5 -12  186.26   22.90
   0   5 -11  494.02   36.63
   5  -5 -11  441.86   31.72
  -5   5 -11  487.67   35.43
   5   0 -11  498.62   37.88
  -5   0 -11  508.49   29.07
   5  -5 -10  854.45   43.93
   0   5 -10  919.55   48.87
  -5   5 -10  850.06   45.57
   5   0 -10  913.47   49.78
  -5   0 -10  949.33   39.92
   0  -5  -9  333.45   13.83
   0   5  -9  364.52   30.72
  -5   5  -9  373.37   29.95
   5   0  -9  398.71   32.63
   0  -5  -9  335.21   14.79
  -5   0  -9  315.33   23.36
   5  -5  -9  346.83   27.88
  -5   5  -8   26.04   10.60
   0  -5  -8   11.91    4.53
   5  -5  -8    6.68    6.62
  -5   0  -8   27.56    8.47
   0   5  -8   14.36    7.72
   5   0  -8  -14.29   10.03
   0  -5  -8   20.14    4.80
   0  -5  -8    3.15    2.80
   0  -5  -7   25.68    6.47
  -5   5  -7    5.94    6.52
   5  -5  -7   16.88    8.89
   0  -5  -7   14.39    6.99
   5   0  -7   13.06    8.59
   0  -5  -7    9.56    4.70
   0   5  -7   20.03    7.73
   0  -5  -7   12.79    4.45
   0  -5  -6    0.68    4.44
  -5   5  -6    4.47    7.16
   5  -5  -6    8.74    7.36
  -5   5  -6    3.36    5.27
   5   0  -6  -12.00   11.74
   0  -5  -6   -5.10    6.90
   0   5  -6   -6.70    8.20
   0  -5  -5   38.63    7.65
   5  -5  -5   17.13    8.81
  -5   5  -5   32.89   10.21
  -5   5  -5   39.27    8.19
   0  -5  -5   35.56    9.97
   5   0  -5   49.70   13.23
  -5   0  -5   27.20    6.31
   0   5  -5   23.96   10.98
  -5   5  -4   61.92   13.28
   0  -5  -4   54.00   11.02
  -5   5  -4   65.07   11.51
   5   0  -4   66.73   12.87
   0   5  -4   55.18   11.73
  -5   0  -4   58.02    8.92
   0  -5  -4   52.09    9.18
   5  -5  -4   35.70    9.93
  -5   0  -3  680.71   29.33
   5  -5  -3  678.33   35.91
  -5   5  -3  656.31   33.15
   0   5  -3  694.26   36.75
   5   0  -3  700.94   36.05
   0  -5  -3  708.51   31.89
  -5   5  -3  675.57   35.93
   0  -5  -3  667.47   34.12
   5  -5  -2 3811.75   83.11
  -5   0  -2 3897.92   71.99
   0  -5  -2 3795.09   80.79
   0   5  -2 3840.39   83.23
   5   0  -2 3993.71   82.59
   0  -5  -2 3957.09   76.24
  -5   5  -2 3849.83   83.66
   0  -5  -2 3848.05   72.50
   5  -5  -1 1492.46   52.11
  -5   0  -1 1546.79   46.83
   0   5  -1 1552.86   51.53
   5   0  -1 1537.70   49.62
   0  -5  -1 1538.39   48.87
  -5   5  -1 1509.37   51.88
   0  -5  -1 1540.78   47.38
   0  -5  -1 1483.59   51.38
   5  -5   0  729.84   36.86
  -5   0   0  658.10   31.75
   0   5   0  702.49   34.23
   5   0   0  666.56   32.22
   0  -5   0  730.94   34.64
  -5   5   0  684.34   34.63
   0  -5   0  738.25   33.62
   5  -5   1 1509.04   52.22
   0   5   1 1440.46   47.84
  -5   0   1 1555.95   50.19
   5   0   1 1514.13   46.24
  -5   5   1 1531.68   51.08
   0  -5   1 1498.16   49.47
   5  -5   2 3916.00   84.55
   0   5   2 3882.90   75.91
   5   0   2 3831.47   71.08
  -5   5   2 3970.53   80.38
   0   5   3  701.52   31.54
   5   0   3  671.67   29.11
  -5   5   3  719.68   34.09
  -5   5   4   45.79    9.35
   5   0   4   56.78    9.57
   0   5   4   54.40    9.68
   0   5   4   57.15    6.35
   0  -5   4   63.84    6.92
   0   5   5   15.86    4.95
  -5   5   5   25.11    8.28
   0  -5   5   35.89    6.46
   5   0   5   32.05    7.15
   0   5   5   21.58    6.69
   5   0   6    2.51    3.73
  -5   5   6    5.04    6.12
   0   5   6    2.61    4.20
   0  -5   6   -0.26    4.46
  -5   5   7   13.58    6.46
   0   5   7   31.97    7.99
   0  -5   7   18.50    6.69
   5   0   7   11.51    4.16
  -5   5   8   13.32    6.22
   5   0   8   11.75    3.79
   0   5   8    8.22    6.91
   0  -5   8   10.06    5.77
   0   5   9  355.35   24.59
   0  -5   9  331.64   23.94
   5   0   9  331.25   13.08
  -5   5   9  392.94   23.30
   0   5  10  943.49   42.64
   0  -5  10  918.89   42.10
  -5   5  10  895.07   33.96
   0   5  11  481.88   32.58
   0  -5  11  435.43   31.11
   0   5  12  230.81   23.71
   0  -5  12  219.87   23.51
   0   5  13  177.44   22.51
   0  -5  13  175.14   22.38
   0   5  14  514.48   39.59
   0  -5  14  572.66   41.21
   0   5  15   42.54   14.70
   0  -5  15   68.17   17.30
   0   5  16   32.14   13.33
   0  -5  16   33.23   14.77
   5   1 -14  263.70   31.98
  -6   5 -14  230.88   27.24
   5  -6 -13   90.57   15.30
   5   1 -13  132.36   22.99
  -6   5 -13  101.19   19.11
  -6   5 -12  171.75   22.98
   5  -6 -12  142.81   19.60
  -6   1 -12  206.58   21.17
   5   1 -12  191.44   26.71
  -6   5 -11   70.58   14.58
  -6   1 -11   69.01   12.88
   5  -6 -11   66.67   13.99
   5   1 -11   67.68   15.67
   1   5 -11   92.28   18.83
   5  -6 -10  730.02   40.99
  -6   5 -10  821.75   46.82
   1   5 -10  784.04   47.37
   5   1 -10  927.48   52.68
  -6   1 -10  904.41   43.53
   1  -6  -9   40.01    7.79
  -6   5  -9   73.60   14.91
   5  -6  -9   81.50   14.11
  -6   1  -9   75.93   13.56
   5   1  -9   62.10   15.39
   1   5  -9   51.76   12.64
  -6   5  -8   23.40   10.48
   5  -6  -8   19.92    9.27
   1  -6  -8   30.48    6.97
  -6   1  -8   30.27    9.91
  -6   5  -8   37.33    8.94
   5   1  -8   20.80   10.91
   1   5  -8   48.90   13.91
   1  -6  -8   20.63    6.67
   1  -6  -7  364.41   21.71
  -6   5  -7  355.96   24.46
   1   5  -7  413.74   32.31
  -6   5  -7  372.41   30.09
   5   1  -7  361.67   30.36
   1  -6  -7  319.88   19.76
  -6   1  -7  381.76   28.11
   5  -6  -7  336.00   27.05
   5  -6  -6   48.12   12.42
   1  -6  -6   42.98    8.28
  -6   5  -6   47.36   12.99
   5   1  -6   39.92   11.55
   1   5  -6   36.76   11.07
   5  -6  -5  508.20   33.10
   1  -6  -5  494.12   31.61
   5   1  -5  523.78   35.02
   1  -6  -5  526.65   27.61
  -6   5  -5  555.25   35.74
   1   5  -5  564.79   36.63
   1  -6  -4   14.71    6.39
  -6   5  -4   29.20   10.47
   1  -6  -4   10.55    6.80
   5   1  -4   14.47    8.01
   1   5  -4   12.86    6.42
  -6   1  -4    1.30    5.33
   5  -6  -4    5.20    7.21
   1  -6  -3   92.06   13.18
  -6   5  -3   76.11   14.02
   1  -6  -3  105.99   15.56
   5   1  -3  105.73   16.06
   1   5  -3   90.01   14.86
  -6   1  -3   94.65   12.67
   5  -6  -3   83.29   14.94
   5  -6  -2 2077.19   65.14
  -6   1  -2 2167.06   59.16
   1  -6  -2 2077.74   64.89
   1   5  -2 2120.04   65.89
   5   1  -2 2103.41   63.17
  -6   5  -2 2132.63   66.89
   5  -6  -1  307.61   25.79
   1  -6  -1  330.47   27.01
   1   5  -1  339.35   26.53
   5   1  -1  320.96   24.37
  -6   5  -1  366.54   27.99
   5  -6   0  778.28   40.69
   1   5   0  770.93   38.38
   5   1   0  836.35   37.39
  -6   5   0  827.87   40.80
   1  -6   0  796.75   40.56
   1  -6   1 1055.50   46.94
   1   5   1 1069.00   43.71
   5   1   1 1102.27   41.62
  -6   5   1 1100.27   46.48
   1  -6   2  848.21   42.55
   5   1   2  897.93   36.28
  -6   5   2  871.50   41.25
   1  -6   3  141.75   18.95
  -6   5   3  175.54   19.06
   5   1   3  167.76   15.75
  -6   5   4   29.53   10.27
   1  -6   4   28.48   10.94
   5   1   4   33.71    7.58
   1  -6   5   -2.99    8.21
  -6   5   5   -3.02    6.39
   5   1   5    7.49    5.29
   1  -6   6  347.57   28.26
   5   1   6  352.99   18.46
  -6   5   6  343.53   25.62
   1  -6   7  263.83   25.15
   5   1   7  247.75   13.94
  -6   5   7  248.53   21.42
  -6   5   8   39.00    9.86
   1  -6   8   40.35   10.41
   1   5   8   30.77    8.73
   5   1   8   41.27    5.12
   1   5   9  674.36   34.18
   1  -6   9  649.92   39.84
   1  -6   9  641.72   33.51
  -6   5   9  618.34   33.31
   1   5  10  611.94   34.89
   1  -6  10  568.30   33.60
   1  -6  10  586.05   38.26
  -6   5  10  557.85   31.06
   1  -6  11  121.12   16.72
  -6   5  11  151.29   16.69
   1  -6  11  142.22   19.79
   1   5  11  153.11   18.94
   1   5  12  116.17   17.73
   1  -6  12  119.89   17.93
   1  -6  12   82.88   15.71
   1  -6  13   38.65   12.86
   1   5  13   14.76    9.94
   1  -6  13   39.18   10.88
   1   5  14  274.14   29.01
   1  -6  14  281.07   29.35
   1   5  15   34.34   14.64
   1  -6  15   33.99   14.94
   1   5  16   21.99   16.17
  -7   5 -14   -6.88    8.61
  -7   5 -13    0.42    9.74
   5   2 -13  -10.07    9.61
   5  -7 -12  279.10   26.55
  -7   5 -12  310.87   32.18
  -7   2 -12  294.38   27.42
   5   2 -12  372.75   37.66
  -7   5 -11   -1.20    8.24
  -7   2 -11    5.66    7.30
   5  -7 -11  -15.99   10.65
   5   2 -11    3.07    8.87
  -7   5 -10  124.66   21.34
   5  -7 -10   78.35   15.26
  -7   2 -10   88.73   16.61
   5   2 -10   79.29   17.80
  -7   5  -9    0.86    8.85
   5  -7  -9   -3.08    8.00
  -7   2  -9    1.43    7.26
   5   2  -9   16.30    8.91
   2  -7  -9   12.88    5.95
   2  -7  -8  776.54   35.85
   5  -7  -8  886.99   46.18
  -7   5  -8  842.82   48.07
   5   2  -8  916.17   51.82
  -7   2  -8  890.05   46.81
   5  -7  -7    3.62    6.81
  -7   5  -7    8.45    9.91
  -7   2  -7    7.74    7.92
   5   2  -7   -4.36    9.85
   2  -7  -7   10.90    7.41
  -7   5  -6   62.23   13.91
   2  -7  -6   70.88   11.84
  -7   2  -6   47.59   13.02
   5   2  -6   47.88   13.46
   2  -7  -6   48.52   10.14
   5  -7  -6   78.59   14.37
  -7   5  -5   23.19    9.74
  -7   2  -5    8.98    8.28
   5   2  -5    5.97    9.98
   5  -7  -5   16.95    9.91
   5  -7  -4 1830.79   64.45
   5   2  -4 1766.48   65.00
  -7   5  -4 1839.43   67.80
  -7   5  -3  -13.05    9.12
   2  -7  -3   -1.74    8.91
   5   2  -3   11.85    8.76
   5  -7  -3    2.55    6.57
   2  -7  -2   -1.16    7.02
  -7   5  -2    4.55    7.23
   5   2  -2    3.37    6.60
   5  -7  -2   -8.94    9.06
  -7   5  -1    3.84    7.63
   2  -7  -1    5.03    7.75
   5   2  -1    9.19    7.35
   5  -7  -1    4.77    8.34
   2  -7   0 1120.27   51.45
   5   2   0 1137.57   46.62
  -7   5   0 1139.21   51.32
  -7   5   1   12.64    6.89
   2  -7   1   24.60   11.53
   5   2   1    9.11    6.21
  -7   5   2    8.73    7.90
   2  -7   2   23.61   10.67
   5   2   2   17.16    7.26
  -7   5   3  -12.01    8.75
   2  -7   3    4.67    9.56
   5   2   3    0.03    6.80
   2  -7   4  730.85   42.38
   5   2   4  704.22   31.09
  -7   5   5   -0.30    7.53
   2  -7   5   -5.47    7.87
   5   2   5    4.54    4.40
  -7   5   6   -1.48    6.83
   5   2   6    9.94    4.77
   2  -7   6    8.26    9.09
  -7   5   7   -3.58    6.37
   2  -7   7    2.21    7.32
   2  -7   8 1755.60   67.39
  -7   5   8 1711.05   61.11
  -7   5   9   -6.92    7.07
   2  -7   9   12.71    9.73
  -7   5  10  -13.06    8.47
   2  -7  10   -9.67   11.42
  -7   5  11   -3.27    7.28
   2  -7  11  -11.17    8.44
   2  -7  12  294.02   28.89
   2  -7  13    0.05    8.49
  -8   5 -13  118.40   21.69
  -8   5 -12    1.55    8.33
  -8   3 -12   26.80   12.95
  -8   3 -11  -13.91   11.82
   5  -8 -11  -14.10   10.30
   5   3 -11   -7.12   10.09
   5  -8 -10  384.26   32.25
  -8   5 -10  398.64   36.83
  -8   3 -10  304.13   30.79
   5   3 -10  400.60   39.51
   5  -8  -9   25.78   11.52
  -8   5  -9   -3.90    9.72
  -8   3  -9   21.98   10.67
   5   3  -9    3.28    9.38
   3  -8  -9    6.27    5.50
   5  -8  -8  100.50   17.19
  -8   5  -8   81.15   17.05
  -8   3  -8  102.84   18.18
   5   3  -8   88.12   17.46
   3  -8  -8   86.11   14.38
  -8   5  -7  186.55   24.48
  -8   3  -7  187.71   23.99
   5   3  -7  172.01   24.90
   3  -8  -7  171.72   19.82
   5  -8  -7  194.19   23.47
   3  -8  -6  318.60   26.96
   5  -8  -6  310.64   28.94
  -8   5  -6  314.64   31.00
  -8   3  -6  331.79   30.75
   5   3  -6  323.92   31.93
   3  -8  -5  300.31   26.46
   5  -8  -5  257.69   26.15
  -8   5  -5  300.05   29.60
   5   3  -5  327.32   31.03
  -8   3  -5  299.11   29.69
  -8   5  -4   57.35   14.50
   5   3  -4   60.72   13.61
   5  -8  -4   42.61   12.63
  -8   5  -3   91.42   18.01
  -8   3  -3  113.74   19.66
   5   3  -3  120.62   18.57
   5  -8  -3  132.49   19.53
   5  -8  -2  929.72   49.58
  -8   5  -2  920.91   50.49
   5   3  -2  931.96   47.52
  -8   5  -1  109.19   18.07
   5   3  -1  128.07   18.33
  -8   5   0   12.57    7.94
   5   3   0   18.63    8.25
   3  -8   1  501.74   37.37
  -8   5   1  504.18   36.91
   5   3   1  485.85   31.47
   3  -8   2  281.98   28.44
  -8   5   2  258.40   26.78
   5   3   2  233.77   21.41
   3  -8   3  235.87   26.11
  -8   5   3  258.95   26.83
   5   3   3  230.17   20.26
  -8   5   4   49.36   12.32
   3  -8   4   25.48   10.46
  -8   5   5   -1.77    8.44
   3  -8   5    4.25    8.63
   3  -8   6  919.64   51.02
  -8   5   6  851.98   47.47
  -8   5   7   61.89   13.99
   3  -8   7  117.08   19.18
  -8   5   8   54.82   12.45
   3  -8   8   84.16   16.94
   3  -8   9  269.95   28.44
  -8   5   9  293.23   27.89
   3  -8  10  232.21   26.92
  -8   5  10  253.16   25.86
  -8   5  11   47.69   12.70
   3  -8  11   28.14   10.86
   3  -8  12    2.86    9.21
  -9   4 -12   25.09   11.64
  -9   5 -11  161.57   25.50
  -9   4 -11  181.36   26.63
  -9   5 -10  276.12   32.57
  -9   4 -10  214.23   28.69
   5  -9  -9   38.74   12.03
  -9   5  -9   34.47   13.94
  -9   4  -9   34.92   13.24
  -9   5  -8   11.57    8.79
  -9   4  -8    9.73    7.43
   4  -9  -8    9.50    9.75
   5  -9  -8   10.20    8.06
  -9   5  -7    4.38    7.92
  -9   4  -7    4.26   11.45
   4  -9  -7    4.24    8.70
   5  -9  -7    4.92    8.37
  -9   5  -6  179.48   25.94
  -9   4  -6  157.14   23.50
   4  -9  -6  151.29   20.74
   5  -9  -6  180.77   23.51
   5   4  -6  147.17   23.95
  -9   5  -5   19.66   12.78
  -9   4  -5   -5.96    9.95
   4  -9  -5    7.12    8.08
   5  -9  -5    7.99    9.74
   5   4  -5   -8.98    9.69
  -9   5  -4   61.30   16.84
  -9   4  -4   51.78   13.29
   4  -9  -4   49.30   13.67
   5  -9  -4   71.41   16.51
   5   4  -4   55.82   14.65
  -9   5  -3  150.88   23.77
  -9   4  -3  140.50   22.45
   5  -9  -3  182.87   24.77
   5   4  -3  175.45   23.81
   5  -9  -2  631.20   43.59
  -9   5  -2  635.10   45.19
  -9   4  -2  606.00   44.27
  -9   5  -1  394.93   36.35
  -9   4  -1  431.98   37.39
  -9   5   0   49.95   15.55
  -9   4   0   36.86   14.11
  -9   5   1  187.44   24.72
  -9   4   1  219.45   27.12
  -9   5   2  694.66   47.00
  -9   4   2  715.30   48.05
  -9   5   3  102.10   19.36
  -9   5   4   80.26   18.16
  -9   5   5   50.01   13.32
  -9   5   6  123.96   20.29
  -9   5   7   -2.10   10.52
  -9   5   8   -3.55   10.28
  -9   5   9   40.06   13.63
  -9   5  10  216.96   27.23
   5 -10  -8  173.72   23.63
   5 -10  -7    4.50    8.06
   5 -10  -6    9.01    9.30
 -10   5  -5   -3.29   11.76
   5 -10  -5    8.18   11.58
   5 -10  -4  343.63   34.47
 -10   5  -4  401.79   39.66
 -10   5  -3   -0.36    9.79
   5 -10  -3   28.98   14.20
 -10   5  -2   16.64   10.35
   5 -10  -2   35.91   14.87
 -10   5  -1    0.07   10.04
 -10   5   0 1147.06   64.63
 -10   5   1  -16.60   12.65
 -10   5   2   55.17   16.07
 -10   5   3  -11.21   15.43
 -10   5   4  474.59   41.64
 -10   5   5   -2.93   10.20
 -10   5   6   46.58   14.28
 -10   5   7   -9.77    9.69
 -10   5   8  103.50   21.12
   6  -3 -16  149.01   24.33
  -3   6 -16  140.44   22.48
   6  -3 -15    0.90    9.30
  -3   6 -15  -32.51   12.62
   6  -3 -14   62.47   16.55
  -3   6 -14  100.45   19.36
   6  -3 -13   13.44   11.46
  -3   6 -13   13.48   12.11
  -3   6 -12  839.46   49.67
   6  -3 -12  845.79   49.66
   6  -3 -11   -3.88    7.79
  -3   6 -11    0.69    7.64
   6  -3 -10  686.66   42.99
  -3   6 -10  696.39   43.07
  -3  -3 -10  665.88   26.94
   6  -3  -9    0.49    7.31
  -3  -3  -9    5.75    4.30
  -3  -3  -9   -4.77    4.17
  -3   6  -9    6.51    6.77
  -3  -3  -8  974.96   36.08
  -3  -3  -8  953.69   35.24
   6  -3  -8 1000.23   49.39
  -3   6  -8  891.11   46.98
   6  -3  -7   -2.08    7.23
  -3  -3  -7    8.25    4.56
  -3   6  -7    9.06    5.74
  -3  -3  -7   -3.06    4.35
  -3  -3  -7    0.04    1.16
  -3   6  -7    5.65    8.43
   6  -3  -6  160.00   19.41
  -3  -3  -6  194.46   11.21
  -3  -3  -6  209.39   17.95
  -3   6  -6  173.17   16.25
  -3  -3  -6  146.54   15.15
  -3   6  -6  192.44   21.95
  -3  -3  -5   -3.26    4.71
  -3  -3  -5   -3.30    4.25
  -3   6  -5    9.86    5.62
   6  -3  -5    9.31    7.48
  -3  -3  -5   -5.34    4.83
  -3   6  -5   16.53   10.01
  -3  -3  -4 3627.58   64.56
  -3   6  -4 3733.89   64.71
   6  -3  -4 3664.48   86.82
  -3  -3  -4 3716.93   59.90
  -3  -3  -4 3895.50   78.22
  -3   6  -4 3817.41   87.79
   6  -3  -3   10.67    8.12
  -3  -3  -3   -4.03    5.41
  -3  -3  -3    2.37    4.26
  -3   6  -3    1.39    3.87
  -3  -3  -3    1.69    5.23
  -3   6  -3   -0.86    7.74
  -3  -3  -2  648.77   25.15
  -3   6  -2  623.47   24.51
  -3  -3  -2  656.55   28.64
   6  -3  -2  675.46   36.48
  -3  -3  -2  677.42   33.62
  -3   6  -2  652.42   35.11
   6  -3  -1    7.50    7.67
  -3  -3  -1   -2.50    5.57
  -3   6  -1   -0.48    5.74
   6  -3   0  148.36   17.03
  -3  -3   0  148.47   15.39
  -3   6   0  159.17   17.46
   6  -3   1   11.31    8.73
  -3  -3   1    7.19    5.16
  -3   6   1   -2.44    5.97
   6  -3   2  579.40   31.75
  -3   6   2  604.22   31.15
   6  -3   3   -0.51    6.82
  -3   6   3   -2.81    5.45
   6  -3   4 3453.08   75.16
  -3   6   4 3424.36   69.80
  -3   6   5    3.02    4.96
   6  -3   5    4.05    6.12
   6  -3   6  275.05   21.96
  -3   6   6  315.10   20.12
  -3   6   7    0.11    4.55
   6  -3   7   -3.36    6.98
   6  -3   8 1931.81   55.43
  -3   6   8 1932.35   44.85
  -3   6   9    3.11    3.92
   6  -3   9    7.87    6.67
   6  -3  10  597.03   31.00
  -3  -3  11   -3.06    7.22
   6  -3  11    4.71    4.93
  -3   6  11   -4.90   10.17
  -3   6  12  121.84   18.91
  -3  -3  12   86.93   16.53
  -3   6  13    2.50    8.26
  -3  -3  13   -5.24    7.85
  -3   6  14  147.67   22.48
  -3  -3  14  148.46   22.22
  -3  -3  15  -11.89   11.77
  -3   6  15    3.89    9.38
  -3   6  16  464.12   41.61
  -3  -3  16  356.23   37.09
   6  -4 -16   26.36   14.14
  -2   6 -16   25.15   12.83
  -4   6 -16    5.57    8.25
   6  -4 -15   61.30   15.78
   6  -2 -15   87.76   18.51
  -2   6 -15   80.67   18.52
  -4   6 -15   53.48   14.84
   6  -4 -14  190.02   26.09
   6  -2 -14  165.79   24.29
  -2   6 -14  239.08   29.37
  -4   6 -14  183.62   24.66
   6  -4 -13   49.35   14.59
   6  -2 -13   60.77   16.88
  -2   6 -13   49.66   14.17
  -4   6 -13   66.49   16.14
   6  -4 -12   70.75   15.71
   6  -2 -12   56.84   14.85
  -2   6 -12   77.65   16.36
  -4   6 -12  117.46   19.39
   6  -4 -11  153.00   21.61
   6  -2 -11  161.68   22.55
  -2   6 -11  175.01   23.60
  -4   6 -11  195.06   24.42
  -4  -2 -10  732.56   25.33
  -2   6 -10  756.36   45.70
  -4   6 -10  794.70   46.54
   6  -2 -10  777.01   46.29
   6  -4 -10  747.15   44.33
   6  -4  -9   78.93   14.60
   6  -2  -9  109.81   18.32
  -2  -4  -9   85.64   11.51
  -4  -2  -9  115.16   13.71
  -2   6  -9  121.24   18.37
  -4   6  -9  125.41   18.28
   6  -4  -8  123.46   18.32
  -2  -4  -8  144.92   15.24
   6  -2  -8  137.92   19.07
  -2  -4  -8  133.36   12.98
  -4  -2  -8  136.06   14.45
  -2   6  -8  121.72   17.40
  -4   6  -8  131.91   18.87
   6  -2  -7   25.28    9.64
   6  -4  -7   19.10    7.39
  -2  -4  -7   37.20    4.33
  -2  -4  -7   32.50    8.82
  -2   6  -7   14.75    8.56
  -2  -4  -7   39.73    8.55
  -4  -2  -6  779.76   36.69
  -4  -2  -6  876.41   24.92
  -4   6  -6  852.61   38.45
  -2  -4  -6  821.21   36.56
   6  -4  -6  870.83   44.08
  -2  -4  -6  852.69   24.75
   6  -2  -6  827.25   43.46
  -2  -4  -6  867.20   34.61
  -2   6  -6  872.84   44.87
  -4   6  -6  881.80   44.85
  -4  -2  -5  992.84   39.71
  -4   6  -5 1079.17   41.05
  -4  -2  -5 1031.02   30.06
   6  -4  -5 1027.42   47.42
   6  -2  -5 1008.27   46.60
  -2  -4  -5 1053.24   39.21
  -2   6  -5 1018.58   47.34
  -2  -4  -5 1000.86   29.86
  -4   6  -5 1002.02   47.15
  -4   6  -4   -3.94    8.49
  -4  -2  -4    4.35    4.95
  -2   6  -4    2.97    3.40
   6  -4  -4   10.52    8.87
  -4  -2  -4   -0.94    5.48
  -4   6  -4    5.95    5.51
   6  -2  -4   -4.72    6.26
  -2  -4  -4    2.42    3.35
  -2  -4  -4    3.62    4.36
  -2  -4  -4    3.24    6.11
  -2   6  -4    3.93    7.84
  -4  -2  -3 1453.96   44.92
  -4   6  -3 1447.04   44.52
   6  -4  -3 1514.52   55.36
  -4  -2  -3 1436.60   40.97
   6  -2  -3 1421.73   53.22
  -2  -4  -3 1450.77   48.19
  -2   6  -3 1448.63   53.89
  -2  -4  -3 1379.25   40.34
  -2  -4  -3 1439.00   31.14
  -4   6  -3 1386.07   52.68
  -2   6  -3 1486.84   31.55
   6  -4  -2  866.92   41.60
  -4  -2  -2  871.45   33.79
  -2  -4  -2  844.73   21.55
   6  -2  -2  880.46   41.08
  -2   6  -2  881.71   21.52
  -2  -4  -2  876.97   37.92
  -2   6  -2  833.00   40.23
  -2  -4  -2  865.83   33.57
  -4   6  -2  800.57   39.67
  -4   6  -1   69.81   12.06
   6  -4  -1   80.38   13.66
   6  -2  -1   75.42   13.41
  -4  -2  -1   58.70   10.03
  -2  -4  -1   71.88    6.12
  -2  -4  -1   78.52   11.36
  -2   6  -1   70.39   13.51
  -2   6  -1   62.00    5.39
   6  -4   0   66.40   12.70
  -4   6   0   38.70    9.63
  -2  -4   0   52.12    5.04
  -2   6   0   55.16    5.02
   6  -2   0   63.98   12.17
  -4  -2   0   39.46    8.70
  -2  -4   0   67.23   11.35
  -2   6   0   69.44   11.64
  -4   6   1  170.60   17.77
   6  -2   1  159.47   17.56
  -4  -2   1  141.80   15.92
   6  -4   1  178.88   19.02
  -2  -4   1  180.84   17.84
  -2   6   1  162.36   17.22
   6  -4   2 1229.80   47.64
   6  -2   2 1277.26   45.86
  -2   6   2 1260.02   44.94
  -4   6   2 1248.72   45.78
   6  -4   3  500.48   30.53
   6  -2   3  502.62   28.49
  -2   6   3  484.25   27.21
  -4   6   3  517.24   29.05
   6  -4   4  711.50   36.34
   6  -2   4  728.40   33.49
  -2   6   4  746.04   32.88
  -4   6   4  726.36   33.34
   6  -4   5  254.24   22.32
   6  -2   5  267.46   20.42
  -2   6   5  254.02   18.86
  -4   6   5  260.40   20.35
   6  -4   6 1364.13   50.13
   6  -2   6 1395.25   44.80
  -2   6   6 1390.87   41.49
  -4   6   6 1433.58   44.84
  -2   6   6 1360.28   40.35
   6  -4   7  394.71   27.51
   6  -2   7  413.83   24.14
  -2   6   7  422.50   21.90
  -4   6   7  423.78   23.80
  -2   6   7  391.54   23.65
  -2  -4   7  442.42   24.92
  -4   6   8   10.96    5.55
   6  -2   8   13.18    6.26
  -2  -4   8    9.41    6.88
  -2   6   8   17.04    5.78
   6  -4   8   22.68    8.58
  -2   6   8   10.51    6.28
   6  -2   9  433.45   24.16
   6  -4   9  375.29   27.31
  -2   6   9  389.21   17.33
  -4   6   9  423.48   21.81
  -2   6   9  396.67   26.88
  -2  -4   9  428.88   28.06
  -2   6  10  314.00   25.58
   6  -4  10  325.40   25.26
   6  -2  10  344.02   21.15
  -2  -4  10  323.15   25.96
   6  -4  11  187.06   19.80
  -2   6  11  174.40   20.61
  -2  -4  11  179.22   20.92
  -2   6  12   63.19   13.48
  -2  -4  12   71.65   14.31
   6  -4  12   61.40   12.82
  -2   6  13   88.52   17.40
  -2  -4  13   53.62   14.47
  -2   6  14  243.97   28.38
  -2  -4  14  239.10   27.63
  -4   6  14  247.62   28.62
  -4  -2  14  223.70   28.53
  -2   6  15   49.00   14.87
  -2  -4  15   33.95   12.46
  -4   6  15   -0.42   11.07
  -4  -2  15    8.81    8.59
  -2  -4  16   51.43   15.09
  -2   6  16   93.37   19.98
  -1   6 -16   54.62   15.21
   6  -5 -15   45.37   13.56
   6  -1 -15   49.32   16.82
  -1   6 -15   46.90   14.99
  -5   6 -15   77.80   16.81
   6  -5 -14  279.73   29.70
   6  -1 -14  278.68   31.51
  -1   6 -14  292.30   32.23
  -5   6 -14  262.84   29.71
   6  -5 -13   31.60   12.91
   6  -1 -13   36.43   13.23
  -1   6 -13   37.61   14.06
  -5   6 -13   23.63   10.18
   6  -5 -12  102.69   18.05
   6  -1 -12   88.12   18.20
  -1   6 -12  107.05   21.43
  -5   6 -12   65.83   15.46
  -5  -1 -11  153.72   16.57
   6  -5 -11  148.14   20.76
   6  -1 -11  171.03   23.89
  -1   6 -11  117.95   20.18
  -5   6 -11  121.35   20.04
   6  -5 -10  604.94   39.69
  -1   6 -10  632.99   42.79
  -5   6 -10  554.00   38.98
   6  -1 -10  621.09   42.77
  -5  -1 -10  580.99   31.64
   6  -5  -9  596.55   38.89
  -1   6  -9  588.15   40.43
   6  -1  -9  619.37   41.71
  -5   6  -9  645.79   41.56
  -1  -5  -8   48.21    8.22
  -5   6  -8   40.60   12.01
   6  -5  -8   39.47   11.20
  -1  -5  -8   45.93    9.83
   6  -1  -8   52.04   13.24
  -1   6  -8   28.35   10.24
  -1  -5  -8   39.27    5.12
  -1  -5  -7  262.04   21.88
   6  -5  -7  272.30   25.89
  -1   6  -7  289.22   27.73
   6  -1  -7  262.24   26.15
  -1  -5  -7  210.19   16.68
  -5   6  -7  269.51   26.69
  -1  -5  -7  254.43   14.26
  -5  -1  -6  334.13   18.03
  -1  -5  -6  352.68   25.72
   6  -5  -6  293.62   26.75
  -1   6  -6  368.62   30.37
   6  -1  -6  330.64   28.75
  -1  -5  -6  304.27   20.59
  -5   6  -6  352.40   29.28
  -1  -5  -6  326.58   17.98
  -5   6  -5    2.28    6.73
   6  -5  -5   -2.26    7.25
   6  -1  -5   18.34   10.69
  -1  -5  -5    2.66    4.71
  -1   6  -5   17.05    7.60
  -5  -1  -5    5.14    3.83
  -1  -5  -5    2.37    4.32
  -1  -5  -5    0.28    6.16
  -5   6  -4   37.86   12.07
   6  -5  -4   26.12   10.78
   6  -1  -4   43.35   12.41
  -1  -5  -4   43.02   10.98
  -1  -5  -4   31.59    7.67
  -1   6  -4   28.87   10.92
  -1  -5  -4   58.91   10.47
  -5  -1  -4   36.68    7.90
   6  -5  -3  152.06   19.03
  -5   6  -3  173.61   20.17
  -5  -1  -3  170.28   15.48
   6  -1  -3  167.60   19.06
  -1  -5  -3  177.96   17.47
  -1  -5  -3  155.94   15.05
  -1   6  -3  190.05   20.72
   6  -5  -2  863.54   42.65
  -5  -1  -2  893.13   36.40
   6  -1  -2  854.19   41.00
  -1   6  -2  812.41   41.05
  -5   6  -2  823.85   41.51
  -1  -5  -2  896.74   36.21
   6  -5  -1 1039.97   46.71
  -5  -1  -1 1112.40   41.61
   6  -1  -1 1123.91   46.05
  -1   6  -1 1062.33   45.85
  -5   6  -1 1090.29   46.89
  -1  -5  -1 1089.93   41.31
   6  -5   0  806.46   40.98
   6  -1   0  822.57   38.28
  -1   6   0  778.92   38.23
  -5   6   0  878.25   41.39
   6  -5   1  367.89   28.04
   6  -1   1  336.97   24.40
  -1   6   1  345.35   25.34
  -5   6   1  352.57   26.14
   6  -5   2 2231.57   67.40
   6  -1   2 2144.99   58.85
  -1   6   2 2135.37   60.53
  -5   6   2 2075.36   61.78
  -1   6   3   86.31    4.76
  -5   6   3  103.35   14.93
  -1  -5   3   87.66    5.17
   6  -1   3  113.10   14.04
  -1   6   3   98.62   13.09
   6  -5   3   96.64   15.11
  -5   6   4    7.87    6.49
   6  -1   4   18.74    7.69
  -1   6   4   12.26    3.33
  -1  -5   4   10.09    3.17
  -1   6   4   15.28    7.41
   6  -5   4   -3.36    6.90
   6  -5   5  537.80   33.73
  -1   6   5  575.27   21.05
  -1  -5   5  561.33   21.05
   6  -1   5  529.11   27.50
  -1   6   5  526.65   27.67
  -5   6   5  550.56   30.66
  -5   6   6   30.88    8.40
   6  -1   6   33.75    7.35
  -1   6   6   51.43    9.23
  -1   6   6   38.09    7.12
   6  -5   6   57.81   12.47
  -1  -5   6   38.80    7.28
   6  -5   7  362.41   28.13
  -1   6   7  423.14   22.97
  -1  -5   7  378.72   21.75
   6  -1   7  413.40   23.02
  -1   6   7  388.52   21.86
  -5   6   7  373.85   24.15
  -5   6   8   44.66    9.48
   6  -1   8   38.08    7.64
   6  -5   8   28.78   10.59
  -1   6   8   26.34    7.70
  -1  -5   8   25.79    7.86
  -5   6   9   79.79   11.61
   6  -1   9   59.10    8.40
  -1   6   9   84.03   12.97
  -1  -5   9   68.11   11.43
  -1   6  10  919.21   41.98
  -5   6  10  840.64   33.08
  -1  -5  10  857.24   40.55
  -1   6  11   82.16   13.88
  -1  -5  11   65.34   12.98
  -1   6  12  160.30   20.10
  -1  -5  12  160.50   20.87
  -1   6  13  140.16   19.97
  -1  -5  13  100.67   17.36
  -1   6  14  227.13   26.59
  -1  -5  14  224.73   26.24
  -1   6  15   50.76   14.64
  -1  -5  15   34.49   13.61
  -1   6  16   -4.62   11.59
  -6   6 -15    3.39    7.31
   6  -6 -14   23.25   10.45
   0   6 -14   -2.62   12.15
  -6   6 -14    8.52   10.32
   6  -6 -13   -5.54    8.72
   6   0 -13   -2.32   10.91
   0   6 -13  -16.08   14.40
  -6   6 -13    5.77   10.07
   0   6 -12  678.66   47.99
   6  -6 -12  677.60   43.80
  -6   6 -12  643.10   44.81
   6   0 -12  713.98   49.94
  -6   6 -11    2.95    8.26
  -6   0 -11   14.23    8.02
   6  -6 -11  -10.15   10.23
   6   0 -11   11.08    9.17
   0   6 -11  -11.03   11.73
  -6   6 -10   15.89    9.13
  -6   0 -10   38.30   10.66
   6  -6 -10   14.81    9.05
   6   0 -10   16.06    9.13
   0   6 -10   35.02   12.85
  -6   6  -9    3.99    8.13
   6  -6  -9   22.70   10.37
  -6   0  -9    6.19    6.89
   6   0  -9   44.09   13.23
   0   6  -9   53.19   14.15
   0  -6  -8  921.29   30.40
   6  -6  -8  974.01   49.75
   0   6  -8  881.07   50.00
  -6   6  -8  958.81   51.09
   6   0  -8 1010.55   53.62
   0  -6  -7    4.73    4.89
  -6   6  -7   21.64   11.50
   6  -6  -7   -0.61    8.85
   6   0  -7   11.44    9.42
   0   6  -7    5.52    8.40
   0  -6  -7    0.76    6.18
   0  -6  -6  133.95   14.81
  -6   6  -6  141.37   19.50
   6  -6  -6  139.50   19.23
   0  -6  -6  133.23   18.27
   6   0  -6  119.06   18.55
   0   6  -6  164.49   21.68
   0  -6  -6  126.80   13.48
   0  -6  -5    0.99    5.09
   6  -6  -5    7.76    9.14
  -6   6  -5   -1.66    7.06
   0  -6  -5   10.47    7.62
   6   0  -5    0.80    6.39
  -6   0  -5   -2.37    4.94
   0   6  -5    1.30    7.66
   0  -6  -5    2.62    4.10
  -6   0  -4  466.36   26.58
   6  -6  -4  480.00   33.93
   0  -6  -4  507.38   33.24
   6   0  -4  556.51   36.40
   0   6  -4  501.36   35.29
  -6   6  -4  519.30   35.75
   0  -6  -4  490.87   27.65
  -6   6  -3   18.24    9.41
   0  -6  -3    1.03    7.05
   6   0  -3    3.84    6.16
   0   6  -3   21.69   10.67
   0  -6  -3   10.19    4.99
  -6   0  -3    9.27    6.86
   6  -6  -3    7.27    8.72
  -6   6  -2   88.51   15.80
   0  -6  -2   79.43   14.88
   6   0  -2  100.02   16.26
   0   6  -2   77.46   14.23
   6  -6  -2   67.09   14.76
  -6   6  -1   -9.38    6.83
   0  -6  -1    6.57    8.75
   6   0  -1    8.28    7.71
   0   6  -1   -1.72    6.32
   6  -6  -1   12.49    8.84
   6  -6   0 3663.88   90.77
   0   6   0 3646.25   86.08
   6   0   0 3652.69   82.53
  -6   6   0 3608.06   87.89
   0  -6   0 3648.19   89.45
  -6   6   1   17.12   10.46
   6   0   1   11.20    8.86
   0   6   1   -2.60    7.22
   6  -6   1   -1.21    8.01
   6   0   2   54.03   11.44
  -6   6   2   89.95   15.23
   0   6   2   89.00   13.98
   6  -6   2   98.22   17.37
  -6   6   3   12.07    9.50
   6   0   3    2.36    5.55
   0   6   3   10.44    6.56
   6  -6   3   17.98   10.23
   6  -6   4  518.39   35.39
   0   6   4  525.91   29.88
   6   0   4  528.29   28.26
  -6   6   4  483.51   31.18
  -6   6   5   14.25    8.18
   6   0   5    3.97    4.32
  -6   6   6  147.99   17.43
   6   0   6  154.01   14.34
   0  -6   6  159.56   12.18
  -6   6   7   10.74    6.95
   6   0   7    4.00    4.69
   0   6   7    7.41    5.63
   0  -6   7    6.79    5.14
   0   6   8  992.17   37.16
   0  -6   8  997.26   37.35
   6   0   8 1006.62   31.19
  -6   6   8  973.26   41.84
   0   6   9   41.92   10.09
  -6   6   9   21.45    7.35
   0  -6   9   31.39    9.04
  -6   6  10    9.84    5.68
   0   6  10   18.57    7.90
   0  -6  10   21.71    9.01
   0   6  11   20.71   10.45
   0  -6  11   -0.78    5.96
   0   6  12  726.74   41.66
   0  -6  12  650.88   39.38
   0   6  13   11.40    8.59
  -7   6 -14  129.33   22.05
  -7   6 -13   48.58   15.44
   6  -7 -13   32.35   12.49
  -7   6 -12   79.34   18.08
   6  -7 -12   67.06   16.05
   6   1 -12   50.77   15.76
  -7   6 -11   14.43    9.26
  -7   1 -11   31.07    9.92
   6  -7 -11   26.88   11.92
   6   1 -11   30.99   13.54
   1   6 -11   25.13   11.15
   6  -7 -10  325.94   30.42
   1   6 -10  330.33   33.09
  -7   6 -10  354.90   34.00
   6   1 -10  357.68   35.60
  -7   1 -10  329.04   29.07
  -7   6  -9  113.01   19.64
   6  -7  -9  109.27   18.39
  -7   1  -9  129.40   19.39
   6   1  -9  123.75   22.51
   1   6  -9  117.48   20.55
   1  -7  -8  277.39   20.28
   6  -7  -8  291.25   28.30
   1   6  -8  268.78   29.64
  -7   6  -8  289.25   29.91
   6   1  -8  262.16   29.26
  -7   1  -8  229.08   24.88
  -7   6  -7  200.00   24.94
  -7   1  -7  220.47   23.67
   1  -7  -7  181.97   17.34
   6  -7  -7  261.22   26.65
   6   1  -7  228.06   26.37
   1   6  -7  230.36   27.63
   6  -7  -6  746.92   44.09
   1   6  -6  763.10   47.21
   6   1  -6  774.58   46.86
  -7   6  -6  838.67   48.56
   6  -7  -5  272.62   27.02
   1  -7  -5  230.45   24.29
   1   6  -5  278.93   28.35
   6   1  -5  242.93   26.09
  -7   6  -5  268.01   27.35
  -7   6  -4   87.94   16.56
   1  -7  -4   51.98   14.19
   6   1  -4   84.56   16.10
   1   6  -4   46.14   12.79
   6  -7  -4   46.74   13.15
   6  -7  -3  697.45   41.98
   1  -7  -3  692.47   41.16
   1   6  -3  718.32   43.34
   6   1  -3  694.08   40.92
  -7   6  -3  654.41   41.50
   6  -7  -2  463.19   34.68
   1  -7  -2  463.42   34.68
   1   6  -2  452.64   33.91
   6   1  -2  481.00   33.59
  -7   6  -2  473.61   35.18
   6  -7  -1  566.39   38.00
   1  -7  -1  615.58   39.42
   1   6  -1  619.08   38.78
   6   1  -1  678.30   38.43
  -7   6  -1  570.39   38.09
  -7   6   0  142.82   19.46
   1  -7   0  155.22   20.89
   6   1   0  167.95   18.83
   1   6   0  137.82   18.66
   6  -7   0  153.02   20.76
  -7   6   1   -1.99    7.38
   1  -7   1    2.28    8.02
   6   1   1   12.74    8.01
   6  -7   1    6.56    6.46
   6  -7   2  882.45   48.10
   1  -7   2  812.85   46.20
   6   1   2  808.87   38.03
  -7   6   2  829.51   44.43
  -7   6   3   -5.91    7.75
   1  -7   3   -1.49    7.25
   6   1   3   -4.04    6.52
   1  -7   4  196.75   23.20
   6   1   4  202.84   18.26
  -7   6   4  204.64   22.57
   1  -7   5  411.07   33.23
   6   1   5  388.05   23.58
  -7   6   5  366.31   28.95
   6   1   6  654.78   28.81
  -7   6   6  624.68   37.62
   1  -7   6  675.58   43.11
  -7   6   7  577.75   35.61
   1  -7   7  611.74   41.43
  -7   6   8   18.35    9.00
   1  -7   8   14.06   10.08
   1  -7   9  236.25   26.81
  -7   6   9  222.72   22.68
   1  -7  10  362.82   32.89
  -7   6  10  336.66   26.86
   1  -7  11   75.50   16.35
   1  -7  12   14.85    8.21
   1  -7  13   66.36   15.73
  -8   6 -12   36.19   13.47
   6  -8 -12    4.88    7.53
  -8   6 -11   52.32   14.75
  -8   2 -11   33.34   10.79
   6  -8 -11   17.75    9.46
   6  -8 -10  254.15   28.22
  -8   6 -10  278.11   31.94
  -8   2 -10  298.77   30.89
   6   2 -10  282.59   33.61
  -8   6  -9    9.81    8.47
   6  -8  -9   29.95   13.23
  -8   2  -9    3.21    9.07
   6   2  -9   -0.07   11.21
  -8   6  -8  224.32   27.61
   2  -8  -8  250.96   22.36
   6  -8  -8  300.04   30.25
   6   2  -8  269.79   31.04
  -8   2  -8  260.05   28.59
   6  -8  -7   65.86   14.93
  -8   6  -7   51.38   14.62
  -8   2  -7   87.99   16.85
   6   2  -7   75.67   16.44
   2  -8  -7   87.04   14.09
   2  -8  -6  715.54   38.92
   6  -8  -6  761.76   46.23
  -8   6  -6  740.84   47.85
   6   2  -6  793.87   49.74
  -8   2  -6  731.37   45.95
   6  -8  -5  288.15   28.89
  -8   6  -5  297.19   30.43
   6   2  -5  336.79   32.13
  -8   2  -5  317.12   30.72
  -8   6  -4   27.75   11.03
   6   2  -4   28.94   11.85
   6  -8  -4   37.35   14.53
   6  -8  -3  483.48   36.96
   2  -8  -3  487.06   36.89
   6   2  -3  455.83   34.99
  -8   6  -3  503.88   38.77
  -8   6  -2  194.96   24.84
   2  -8  -2  171.70   23.50
   6   2  -2  171.87   21.37
   6  -8  -2  171.17   22.77
  -8   6  -1  218.00   25.60
   2  -8  -1  213.65   25.59
   6   2  -1  245.92   24.51
   6  -8  -1  237.30   26.88
   2  -8   0    2.66    6.77
  -8   6   0   36.74   13.34
   6   2   0   27.80    8.74
   6  -8   0   36.80   13.85
  -8   6   1    3.49    8.68
   2  -8   1   -0.55    8.82
   6   2   1   17.19    9.52
   6  -8   1    7.64    7.93
   2  -8   2  456.22   37.14
   6   2   2  526.04   32.51
  -8   6   2  484.24   36.76
  -8   6   3   13.16    9.68
   2  -8   3   11.13    8.77
   6   2   3   -0.07    5.27
   2  -8   4  520.03   39.73
  -8   6   4  513.28   37.32
   6   2   4  504.79   29.53
  -8   6   5  211.46   24.28
   2  -8   5  232.20   27.53
   6   2   5  237.70   19.49
   2  -8   6  866.59   51.56
  -8   6   6  628.03   40.62
  -8   6   7  196.35   23.15
   2  -8   7  288.08   30.50
  -8   6   8   -7.06    8.07
   2  -8   8   -4.96    7.41
  -8   6   9  107.54   17.50
   2  -8   9  130.14   21.23
  -8   6  10   86.49   15.74
   2  -8  10  103.80   19.69
   2  -8  11  109.38   20.37
   2  -8  12    9.28   11.92
  -9   3 -11   12.64   10.68
   6  -9 -10   21.94   11.67
  -9   3 -10   13.05    8.61
   6  -9  -9   29.30   13.04
  -9   6  -9   17.91   10.00
   6  -9  -8  525.08   40.58
  -9   6  -8  514.05   43.33
  -9   3  -8  529.03   42.48
   6   3  -8  537.07   45.41
  -9   6  -7   22.93    9.73
  -9   3  -7    3.21    9.57
   6   3  -7   12.11   11.69
   3  -9  -7   20.77    9.18
   6  -9  -7   10.31    9.50
  -9   6  -6   -3.47    7.85
  -9   3  -6  -13.65   11.57
   3  -9  -6    5.13    7.22
   6   3  -6   -8.12    8.24
   6  -9  -6   -5.04    8.93
  -9   6  -5   10.21   10.13
  -9   3  -5    9.92   12.48
   3  -9  -5   13.06   10.16
   6   3  -5    3.84    8.65
   6  -9  -5   -5.58    8.79
   6  -9  -4  573.71   43.12
  -9   6  -4  481.78   40.69
   6   3  -4  515.61   40.33
  -9   3  -4  436.07   37.81
  -9   6  -3   -2.42    8.61
  -9   3  -3   16.91   10.48
   6   3  -3   12.47    9.48
   6  -9  -3    1.85    9.44
  -9   6  -2   19.35   11.98
   6   3  -2   13.91   10.90
   6  -9  -2   12.04    9.19
  -9   6  -1   10.87   10.86
   6  -9  -1    3.22    9.44
   6   3  -1    8.07    7.87
   6  -9   0  786.02   50.40
  -9   6   0  748.88   48.77
   6   3   0  789.03   44.69
  -9   6   1   -2.68    8.23
   3  -9   1   -1.24   10.55
   6   3   1   13.51    8.95
  -9   6   2   -6.03    9.25
   3  -9   2   17.26   11.63
   6   3   2   -5.79    6.77
  -9   6   3   -7.56   10.49
   3  -9   3   -5.46   11.96
   6   3   3    9.26    8.59
   3  -9   4  930.63   55.53
  -9   6   4  953.88   54.65
  -9   6   5    6.01    9.36
   3  -9   5   22.38   12.13
  -9   6   6   19.05   10.14
   3  -9   6   11.63    9.42
  -9   6   7   -4.02    9.67
   3  -9   7   -7.84    9.67
   3  -9   8  458.04   39.89
  -9   6   8  413.63   35.91
  -9   6   9   15.46    8.42
   3  -9   9   18.68   12.10
  -9   6  10   61.97   15.78
   3  -9  10   12.33    9.53
   3  -9  11  -18.89   13.93
   6 -10  -9  164.66   24.12
   6 -10  -8    1.43    8.04
   4 -10  -7   32.86   12.97
   6 -10  -7   41.36   13.59
   4 -10  -6  119.22   20.98
   6 -10  -6  110.59   22.54
   6   4  -6   94.63   18.79
 -10   4  -5   42.86   15.81
   4 -10  -5   19.61   11.11
   6 -10  -5   24.23   11.93
   6   4  -5    0.07   11.74
 -10   6  -4    8.44   10.70
 -10   4  -4   26.55   12.90
   6 -10  -4   28.82   14.06
   6   4  -4    1.89   11.29
 -10   6  -3   52.06   15.01
 -10   4  -3   54.61   16.99
   6 -10  -3   28.65   12.57
   6   4  -3   71.37   17.32
   6 -10  -2  312.39   34.05
 -10   6  -2  379.22   38.14
 -10   4  -2  303.88   33.79
 -10   6  -1   71.10   18.04
 -10   4  -1  107.96   21.95
   6 -10  -1  126.62   22.72
 -10   6   0   75.44   18.25
 -10   4   0  105.75   21.44
   6 -10   0  117.86   23.06
 -10   6   1  128.91   22.20
 -10   4   1  124.50   22.55
 -10   6   2  549.28   45.19
 -10   4   2  535.36   44.96
 -10   6   3   51.49   14.37
 -10   6   4   12.79    9.91
 -10   6   5   46.75   14.76
 -10   6   6   78.88   17.16
 -10   6   7   85.04   18.47
 -10   6   8  -16.85   13.57
 -10   6   9   15.54   10.60
   5 -11  -5   30.12   13.43
   5 -11  -4   34.14   15.75
  -4   7 -15   50.04   15.03
   7  -4 -14   80.10   18.57
   7  -3 -14   79.85   19.25
  -3   7 -14   62.06   17.49
  -4   7 -14   91.82   20.45
   7  -4 -13   97.89   19.79
   7  -3 -13  132.88   23.58
  -3   7 -13   91.92   18.61
  -4   7 -13  155.42   23.88
   7  -4 -12   45.96   15.49
   7  -3 -12   24.66   12.21
  -3   7 -12   14.35    8.10
  -4   7 -12   29.36   13.48
   7  -4 -11   62.12   15.44
   7  -3 -11   70.02   15.64
  -3   7 -11   78.98   18.32
  -4   7 -11   59.89   15.79
  -3  -4 -10  603.70   30.39
   7  -4 -10  642.08   44.40
  -3   7 -10  717.41   47.29
   7  -3 -10  585.26   42.72
  -4   7 -10  566.41   42.10
   7  -4  -9    5.83    7.87
   7  -3  -9   25.30   11.14
  -4  -3  -9   10.40    6.95
  -3  -4  -9   17.89    7.08
  -3   7  -9   17.57   10.60
  -4   7  -9   10.22    6.97
  -3  -4  -8  486.96   29.32
   7  -4  -8  491.25   37.51
   7  -3  -8  490.72   37.24
  -3   7  -8  517.39   38.36
  -4   7  -8  494.16   38.01
   7  -4  -7  171.36   22.85
   7  -3  -7  190.71   23.87
  -3   7  -7  198.17   24.05
  -4   7  -7  166.90   22.35
  -4  -3  -6  888.89   38.61
  -4  -3  -6  865.81   27.48
  -4   7  -6  856.46   38.02
   7  -4  -6  870.07   47.54
   7  -3  -6  845.01   47.24
  -3   7  -6  934.57   49.42
  -4   7  -6  984.12   51.17
  -3  -4  -6  867.85   34.59
  -3   7  -6  906.26   35.26
  -3  -4  -6  884.74   27.82
  -4  -3  -5  526.80   28.67
  -4   7  -5  544.93   29.05
  -4  -3  -5  591.48   25.49
   7  -4  -5  642.84   40.80
  -3  -4  -5  541.66   24.48
   7  -3  -5  590.43   39.13
  -3   7  -5  569.27   38.51
  -4   7  -5  602.56   39.33
  -3  -4  -5  548.66   25.89
  -3   7  -5  612.09   27.11
  -4  -3  -4   11.75    4.86
   7  -4  -4   -2.67    7.78
   7  -3  -4   -1.95    7.70
  -3  -4  -4   11.17    5.57
  -4  -3  -4   -0.34    4.49
  -3  -4  -4    5.48    4.07
  -4   7  -4   13.98    6.38
  -3   7  -4    9.84    4.29
  -3   7  -4    0.05    6.73
  -4   7  -4    3.54    8.23
  -4  -3  -3  328.56   21.15
  -4   7  -3  383.93   22.57
  -3  -4  -3  406.27   19.60
  -3   7  -3  396.26   19.01
   7  -4  -3  434.88   32.61
  -4  -3  -3  409.90   24.02
   7  -3  -3  393.94   30.83
  -3  -4  -3  377.28   23.21
  -3   7  -3  372.78   29.97
  -4   7  -3  377.70   29.68
  -4  -3  -2  307.60   20.31
  -4   7  -2  291.49   19.72
  -3  -4  -2  343.18   16.97
  -3   7  -2  302.06   15.94
   7  -4  -2  312.92   27.50
   7  -3  -2  287.22   26.21
  -4  -3  -2  322.88   22.45
  -3  -4  -2  306.75   21.87
  -3   7  -2  285.54   25.97
  -4   7  -2  323.12   27.60
   7  -4  -1  156.34   20.15
  -3  -4  -1  170.41   11.87
  -3   7  -1  166.20   11.30
   7  -3  -1  155.57   19.02
  -3   7  -1  169.62   20.04
  -4   7  -1  184.95   20.75
   7  -4   0   -8.84    9.14
   7  -3   0   20.33   11.03
  -3  -4   0    4.83    4.46
  -3   7   0    6.28    4.44
  -3   7   0   -7.50    7.94
  -4   7   0    0.89    6.64
   7  -4   1  202.76   21.75
   7  -3   1  153.40   19.02
  -3   7   1  188.80   20.11
  -4   7   1  163.30   18.89
   7  -4   2  814.02   41.61
   7  -3   2  790.81   40.23
  -3   7   2  739.23   37.75
  -4   7   2  665.00   36.82
   7  -4   3  156.08   18.91
   7  -3   3  121.79   15.71
  -3   7   3  113.39   15.57
  -4   7   3  114.98   15.38
   7  -4   4  674.96   37.55
   7  -3   4  691.73   36.72
  -3   7   4  650.42   33.84
  -4   7   4  650.72   34.65
   7  -3   5  192.40   19.83
  -3   7   5  224.44   19.80
  -4   7   5  166.91   17.27
   7  -4   5  186.56   19.88
   7  -4   6 1536.20   55.97
   7  -3   6 1537.48   53.33
  -3   7   6 1528.11   49.02
  -4   7   6 1498.91   49.66
   7  -4   7  391.08   28.73
   7  -3   7  377.27   26.58
  -3   7   7  391.96   24.19
  -4   7   7  356.30   23.60
   7  -3   8    0.73    6.41
  -3   7   8   -2.68    5.17
  -4   7   8    0.55    4.50
   7  -4   8   -4.68    6.81
   7  -4   9  296.58   25.07
   7  -3   9  279.59   22.90
  -3   7   9  272.28   23.21
  -3  -4   9  298.28   24.40
   7  -3  10   63.04   11.70
  -3   7  10   74.02   13.15
  -3  -4  10   47.04   10.70
   7  -4  10   56.12   11.72
  -3   7  11  101.02   16.59
  -3  -4  11   91.57   16.10
   7  -4  11  113.91   15.87
  -3   7  12   29.90    9.36
  -3  -4  12    4.99    7.35
  -4   7  12    7.65    8.69
  -3  -4  13    0.56    8.48
  -4   7  13   12.39   10.53
  -3   7  13   24.99   10.93
  -4  -3  13    4.23    9.44
  -4  -3  14  270.98   30.78
  -3   7  14  251.99   28.97
  -3  -4  14  266.78   29.92
  -4   7  14  265.41   28.77
  -3   7  15   36.59   12.18
  -3  -4  15   36.55   11.75
  -4   7  15   36.67   11.80
  -4  -3  15   -0.28    9.57
   7  -5 -15    1.66    9.52
   7  -5 -14   12.16    8.86
  -2   7 -14    9.38    9.68
  -5   7 -14   29.33   12.24
   7  -5 -13    3.73   10.40
   7  -2 -13   26.75   14.09
  -2   7 -13   -9.53    9.29
  -5   7 -13   -2.21    8.83
   7  -5 -12  264.35   29.80
  -2   7 -12  298.60   32.68
   7  -2 -12  302.40   33.23
  -5   7 -12  268.84   31.09
   7  -5 -11  -10.15    9.80
   7  -2 -11   19.32   12.46
  -2   7 -11   -2.05    9.34
  -5   7 -11    2.35    9.70
   7  -5 -10   -5.83   10.36
   7  -2 -10    2.60    7.77
  -2   7 -10  -13.67    9.03
  -5   7 -10    6.07    7.50
   7  -5  -9   -1.95    7.77
  -2  -5  -9   -0.79    5.51
   7  -2  -9   -4.17    8.42
  -2   7  -9    1.71    8.22
  -5   7  -9   -2.70    7.42
  -2  -5  -8 1694.47   57.17
   7  -5  -8 1712.33   69.02
  -2   7  -8 1828.38   73.49
   7  -2  -8 1772.72   72.29
  -5   7  -8 1878.96   73.37
   7  -5  -7    7.96   10.78
   7  -2  -7   -2.74    8.23
  -2  -5  -7    8.98    7.06
  -2   7  -7    2.39    6.75
  -5   7  -7   -5.41    8.26
   7  -5  -6   -2.44    8.73
   7  -2  -6    2.99    8.53
  -2  -5  -6    5.98    7.34
  -2   7  -6    6.88    7.46
  -5   7  -6  -12.03    9.54
  -5   7  -5    9.16    8.19
   7  -5  -5    8.51    8.90
   7  -2  -5   -1.87    7.44
  -2  -5  -5    5.73    6.52
  -2  -5  -5   -0.80    3.47
  -2   7  -5    0.95    6.64
  -5  -2  -5    4.08    4.12
  -5  -2  -4  650.75   30.02
   7  -5  -4  659.66   41.11
   7  -2  -4  670.66   40.94
  -2   7  -4  789.98   44.94
  -2  -5  -4  693.65   30.98
  -5   7  -4  629.78   40.45
  -5   7  -3    2.94    7.50
   7  -5  -3    5.39    7.62
  -5  -2  -3   -0.82    4.84
   7  -2  -3   -1.00    8.26
  -2  -5  -3    4.80    4.92
  -2   7  -3    2.41    6.03
  -5  -2  -3   -3.68    5.61
  -5   7  -3    7.68    7.17
  -5   7  -2   19.90   10.09
   7  -5  -2    5.87    8.57
  -5  -2  -2    1.86    4.71
   7  -2  -2   -1.48    6.77
  -2  -5  -2   10.55    5.58
  -2   7  -2   18.16    9.75
  -5   7  -1   15.95    8.08
   7  -5  -1   13.41    9.07
   7  -2  -1   16.21    9.74
  -2   7  -1   13.70    8.75
   7  -5   0 1109.36   50.96
   7  -2   0 1176.68   49.84
  -2   7   0 1116.33   49.12
  -5   7   0 1182.41   51.42
  -5   7   1   16.31    8.25
   7  -2   1   14.18    9.13
  -2   7   1   -7.15    6.25
   7  -5   1    5.18    8.61
  -5   7   2    0.04    5.58
   7  -2   2    5.68    6.36
  -2   7   2   -1.86    6.48
   7  -5   2    2.36    8.37
  -5   7   3   10.51    8.10
   7  -2   3   -7.96    6.29
  -2   7   3    2.45    1.84
  -2  -5   3   -0.36    1.78
  -2   7   3   13.39    7.50
   7  -5   3   10.83   11.14
   7  -5   4 1792.68   63.77
   7  -2   4 1817.35   57.55
  -2   7   4 1828.43   34.31
  -2   7   4 1818.57   56.91
  -2  -5   4 1848.84   35.18
  -5   7   4 1738.03   57.89
  -5   7   5   13.46    7.25
   7  -2   5   18.62    7.92
  -2   7   5   10.65    4.35
  -2   7   5    6.39    6.47
  -2  -5   5   16.79    5.34
   7  -5   5   23.55   10.56
  -5   7   6   51.45   10.25
   7  -2   6   56.00   10.90
  -2   7   6   66.06    8.93
  -2  -5   6   50.73    7.79
  -2   7   6   74.76   11.66
   7  -5   6   61.96   13.62
  -5   7   7    3.39    4.95
   7  -2   7    4.15    5.43
  -2   7   7    3.64    4.42
  -2  -5   7    0.28    4.30
  -2   7   7    5.58    5.62
   7  -5   7   14.57    9.51
   7  -5   8  857.70   45.11
   7  -2   8  999.24   39.94
  -2   7   8  929.94   37.25
  -2  -5   8  960.99   38.19
  -2   7   8  920.83   34.83
  -5   7   8  884.40   37.93
   7  -2   9    1.96    5.13
  -2   7   9    8.19    5.65
  -2  -5   9   14.92    6.88
   7  -5   9    2.77    7.17
  -5   7   9    3.55    5.99
  -2   7  10  106.98   15.02
  -2  -5  10   77.37   13.50
   7  -5  10   96.67   16.55
  -2   7  11   -6.05    7.40
  -2  -5  11    8.88    6.72
   7  -5  11   14.97    9.42
   7  -5  12  304.13   27.79
  -2   7  12  287.54   26.89
  -2  -5  12  260.41   25.93
   7  -6 -14  104.24   19.12
  -6   7 -14  130.09   23.47
   7  -6 -13   37.39   14.05
  -1   7 -13   76.07   18.77
  -6   7 -13   61.42   16.27
   7  -6 -12   13.75    9.39
   7  -1 -12   38.95   14.68
  -1   7 -12   34.68   15.59
  -6   7 -12   42.53   13.47
   7  -6 -11   53.61   14.85
   7  -1 -11   90.72   20.27
  -1   7 -11  107.30   21.10
  -6   7 -11   88.15   18.29
   7  -6 -10  326.94   32.36
  -1   7 -10  324.62   33.42
  -6   7 -10  412.44   37.22
   7  -1 -10  350.83   35.40
  -6  -1 -10  378.82   29.00
  -6   7  -9  212.26   26.90
   7  -6  -9  174.23   23.72
   7  -1  -9  205.39   26.80
  -1   7  -9  190.14   25.88
  -6   7  -8   -5.64    9.94
   7  -6  -8    6.32    9.63
  -1  -6  -8   -1.27    8.30
   7  -1  -8    6.51    7.49
  -1   7  -8    2.27    7.67
  -1  -6  -7  484.43   33.36
   7  -6  -7  617.04   42.07
  -1   7  -7  516.42   39.45
   7  -1  -7  512.43   39.05
  -6   7  -7  551.40   40.14
  -1  -6  -6  653.62   39.18
   7  -6  -6  624.96   41.91
  -1   7  -6  673.84   44.33
   7  -1  -6  643.45   43.02
  -6   7  -6  660.54   43.42
  -6  -1  -5  346.33   22.64
  -1  -6  -5  418.31   31.37
   7  -6  -5  399.64   32.91
  -1   7  -5  399.94   33.88
   7  -1  -5  379.82   32.16
  -6   7  -5  360.15   31.36
  -1  -6  -5  322.80   21.87
  -6   7  -4  178.62   22.38
   7  -6  -4  190.06   22.89
  -6  -1  -4  175.03   17.35
  -1  -6  -4  226.82   23.62
   7  -1  -4  204.11   23.71
  -1  -6  -4  192.61   17.87
  -1   7  -4  202.37   24.08
   7  -6  -3    2.52    8.55
  -6   7  -3    2.19    7.89
  -1  -6  -3    7.43    7.91
   7  -1  -3   12.26    8.63
  -1   7  -3  -12.64    9.84
  -1  -6  -2  766.24   42.91
   7  -6  -2  795.65   45.30
  -1   7  -2  843.61   45.72
   7  -1  -2  843.08   44.69
  -6   7  -2  804.88   45.47
  -6   7  -1   23.04    9.36
   7  -1  -1   -1.17    6.09
  -1   7  -1    4.10    7.34
   7  -6  -1    1.69    8.11
  -6   7   0  128.54   18.02
   7  -1   0  158.60   19.45
  -1   7   0  172.58   20.65
   7  -6   0  144.91   19.84
   7  -6   1  572.90   38.17
  -1   7   1  482.32   32.78
   7  -1   1  578.50   34.86
  -6   7   1  602.82   37.94
   7  -6   2  498.22   35.80
  -1   7   2  479.63   31.83
   7  -1   2  469.09   30.35
   7  -6   3  626.97   40.27
  -1   7   3  703.22   37.77
   7  -1   3  682.57   36.18
  -6   7   3  574.23   35.87
  -6   7   4   77.36   14.20
   7  -1   4   50.20   10.67
  -1   7   4   56.72   11.40
   7  -6   4   74.93   15.22
   7  -6   5  262.32   26.93
  -1   7   5  239.34   21.49
   7  -1   5  245.15   20.83
  -6   7   5  259.59   23.47
  -1   7   6  756.23   24.38
   7  -6   6  734.58   43.67
  -1   7   6  790.82   36.75
   7  -1   6  726.85   34.57
  -6   7   6  749.22   39.15
  -1   7   7  227.67   15.88
  -1   7   7  194.14   17.86
   7  -1   7  199.62   17.59
  -6   7   7  215.86   21.31
   7  -6   7  209.72   24.37
   7  -6   8  282.66   28.46
  -6   7   8  322.82   25.34
  -6   7   9  100.81   13.57
   7  -6   9  112.52   18.96
   7  -6  10  343.81   31.43
   7  -6  11   25.16   10.40
   7  -6  12   47.74   13.32
   7  -7 -13   17.71    9.13
   7  -7 -12   34.48   12.76
  -7   7 -12   32.32   14.25
  -7   7 -11   59.28   16.07
   7  -7 -11   59.94   15.42
   7   0 -11   48.28   14.85
   0   7 -11   36.33   14.49
   7  -7 -10  244.09   28.29
  -7   7 -10  344.99   34.65
   7   0 -10  301.83   33.85
  -7   0 -10  292.70   27.53
   0   7 -10  305.31   33.44
  -7   7  -9  140.63   21.89
   7  -7  -9  137.58   21.38
  -7   0  -9  131.74   19.05
   7   0  -9  104.86   20.19
   0   7  -9   95.69   19.59
  -7   7  -8   38.75   14.61
   7  -7  -8   39.64   14.70
   7   0  -8   33.96   14.35
   0   7  -8   18.51   10.91
  -7   7  -7   95.92   17.98
   7  -7  -7   58.02   14.94
   0  -7  -7   65.99   14.69
   7   0  -7   75.90   17.08
   0   7  -7   50.67   14.43
   7  -7  -6  685.48   44.64
   0  -7  -6  629.81   40.21
   0   7  -6  649.90   44.84
   7   0  -6  707.23   46.67
  -7   7  -6  628.57   44.10
   7  -7  -5  252.81   27.59
   0  -7  -5  248.60   25.91
   0   7  -5  306.33   31.09
   7   0  -5  275.92   28.56
  -7   7  -5  278.12   29.31
   7  -7  -4  108.94   18.80
  -7   7  -4  174.27   23.53
   0  -7  -4  121.64   19.02
   7   0  -4  113.71   18.54
   0   7  -4  128.23   21.15
   7  -7  -3  575.36   40.46
   0  -7  -3  534.97   37.79
   0   7  -3  590.80   40.80
   7   0  -3  571.70   39.08
  -7   7  -3  548.46   39.80
   7  -7  -2  378.08   33.13
   0  -7  -2  358.37   31.10
   0   7  -2  369.60   31.52
   7   0  -2  368.04   30.89
  -7   7  -2  382.81   32.85
  -7   7  -1   15.07   10.79
   0  -7  -1   25.89   11.66
   7   0  -1   28.68    9.02
   0   7  -1   20.78   11.17
   7  -7  -1   15.42   10.66
  -7   7   0   30.82   12.56
   0  -7   0   12.75   10.30
   7   0   0   32.57   11.03
   0   7   0   36.84   10.08
   7  -7   0   60.99   15.71
  -7   7   1   17.97    8.43
   0  -7   1   24.19   10.10
   7   0   1   16.12    8.64
   0   7   1   10.68   10.10
   7  -7   1   19.03   10.44
   7  -7   2  358.98   32.32
   0  -7   2  358.75   32.20
   0   7   2  317.16   27.64
   7   0   2  362.26   27.47
  -7   7   2  272.05   26.97
   7  -7   3  564.84   40.14
   0  -7   3  546.58   39.53
   0   7   3  513.89   34.06
   7   0   3  563.81   33.08
  -7   7   3  532.62   36.48
  -7   7   4  100.44   16.70
   7   0   4  143.04   16.91
   0   7   4  130.16   17.41
   7  -7   4  127.01   19.94
   7  -7   5  258.19   27.98
   7   0   5  236.19   20.77
  -7   7   5  261.70   25.19
   7  -7   6  740.51   46.03
   7   0   6  671.71   32.87
  -7   7   6  671.97   39.59
  -7   7   7   74.59   13.72
   7  -7   7   61.36   15.46
  -7   7   8   28.13   10.72
   7  -7   8   41.78   12.27
  -7   7   9   91.71   15.33
   0  -7  12   39.23   14.07
   0  -7  13   32.23   11.75
   7  -8 -12  275.82   31.05
   7  -8 -11   -0.13    8.68
  -8   7 -10    0.78    8.75
   7  -8 -10   14.92   11.65
  -8   1 -10   27.94   11.05
  -8   7  -9   -5.87   10.57
   7  -8  -9    6.65   10.47
  -8   1  -9   -7.48    9.53
   7   1  -9   14.23   11.50
   1   7  -9  -19.80   12.51
   7  -8  -8  613.19   44.20
   1   7  -8  610.90   47.36
  -8   7  -8  715.56   50.73
   7   1  -8  702.46   50.51
  -8   1  -8  554.02   40.80
   7  -8  -7    8.14    9.16
  -8   7  -7   -1.90    6.88
  -8   1  -7   -1.83    9.92
   7   1  -7    1.97    8.52
   1   7  -7   23.23   11.78
   7  -8  -6   81.21   17.52
  -8   7  -6   57.67   14.71
   7   1  -6   76.32   16.95
   1   7  -6   86.49   18.23
   7  -8  -5  -15.43   12.06
  -8   7  -5    2.98    7.48
   1  -8  -5   -6.16    9.44
   7   1  -5    7.87   10.33
   1   7  -5    6.01    9.84
   7  -8  -4  952.98   53.72
   1  -8  -4  910.92   51.66
   1   7  -4  868.45   52.52
   7   1  -4  919.64   52.33
  -8   7  -4  924.11   53.95
  -8   7  -3   21.90   12.00
   1  -8  -3   11.86    7.12
   7   1  -3    8.07    8.23
   1   7  -3    8.50    9.63
   7  -8  -3   12.76   11.02
   7  -8  -2  431.94   36.85
   1  -8  -2  486.72   38.54
   1   7  -2  517.67   39.63
   7   1  -2  488.67   36.42
  -8   7  -2  493.87   39.22
  -8   7  -1   14.24    7.88
   1  -8  -1   10.64    9.58
   7   1  -1    2.61    7.64
   7  -8  -1    0.58    9.59
   7  -8   0  344.13   32.88
   1  -8   0  314.08   31.03
   7   1   0  247.70   25.17
  -8   7   0  302.39   30.21
  -8   7   1  -19.30   13.01
   1  -8   1    6.30    9.23
   7   1   1   -0.18    6.82
   7  -8   1   -2.39    8.08
   7  -8   2  331.73   32.61
   1  -8   2  346.29   33.34
   7   1   2  374.58   28.88
  -8   7   2  329.57   30.97
  -8   7   3    5.79    8.56
   1  -8   3    9.79   10.45
   7   1   3    4.58    6.74
   7  -8   3    4.05    8.95
   7  -8   4 1490.89   68.73
   1  -8   4 1566.02   70.20
   7   1   4 1503.90   53.75
  -8   7   4 1410.62   62.80
  -8   7   5   -8.34    7.31
   1  -8   5   -0.18    7.39
   7   1   5    3.92    6.51
   7  -8   5   -2.58    7.18
  -8   7   6   -1.56    6.55
   1  -8   6   -4.12    8.85
  -8   7   7    7.11    9.33
   1  -8   7   -0.51    9.53
   1  -8   8  431.66   38.14
  -8   7   8  381.10   31.39
  -8   7   9  -13.54    8.64
   1  -8   9   -0.59   10.32
   1  -8  10    0.94   10.03
   1  -8  11  -19.61   11.21
   1  -8  12  202.63   27.94
   7  -9 -11   78.08   19.29
   7  -9 -10  268.87   30.98
  -9   2 -10  313.99   33.34
   7  -9  -9   56.90   16.25
  -9   2  -9   26.79   12.38
   7  -9  -8  119.64   21.74
  -9   7  -8  105.21   21.13
  -9   2  -8  129.09   22.33
   7  -9  -7   31.51   13.80
  -9   7  -7   38.65   13.95
  -9   2  -7   17.74   11.66
   7   2  -7   41.13   13.84
   2  -9  -6  491.29   34.88
   7  -9  -6  493.40   40.66
  -9   7  -6  527.46   43.77
   7   2  -6  493.09   42.40
  -9   2  -6  505.89   41.58
  -9   7  -5  140.94   23.34
  -9   2  -5  117.93   21.26
   7   2  -5  156.07   24.76
   7  -9  -5  107.77   20.45
  -9   7  -4    2.42   10.16
   7   2  -4   23.25   11.47
   7  -9  -4   11.44   10.05
  -9   7  -3  214.19   28.20
   7   2  -3  290.45   30.96
   7  -9  -3  237.95   29.40
  -9   7  -2   88.92   18.91
   2  -9  -2   65.95   16.58
   7   2  -2   63.99   15.23
   7  -9  -2   63.16   16.77
  -9   7  -1   30.51   12.49
   2  -9  -1   70.65   17.80
   7   2  -1   47.43   12.90
   7  -9  -1   56.98   15.98
  -9   7   0    6.31    8.63
   2  -9   0   -3.74    9.44
   7   2   0   -5.27    8.15
   7  -9   0   -6.19   10.23
  -9   7   1   27.08   12.93
   2  -9   1   23.10   11.05
   7   2   1   14.31    9.32
   7  -9   1   30.57   11.61
   7  -9   2  492.19   42.10
   2  -9   2  412.74   37.60
  -9   7   2  480.35   39.65
   7   2   2  456.50   33.34
  -9   7   3  202.35   25.91
   2  -9   3  225.92   29.09
   7   2   3  187.48   21.19
   7  -9   3  193.04   26.84
   2  -9   4  288.36   32.67
  -9   7   4  329.78   32.87
   7  -9   4  282.85   32.48
  -9   7   5  195.86   25.74
   2  -9   5  250.13   31.12
   2  -9   6  533.20   43.77
  -9   7   6  504.78   40.09
  -9   7   7   66.21   15.23
   2  -9   7   77.49   18.77
  -9   7   8  -10.49    9.52
   2  -9   8   12.14   14.18
  -9   7   9   41.65   12.22
   2  -9   9   84.47   19.44
   7 -10  -8   24.89   11.87
   7 -10  -7  192.58   26.97
   7 -10  -6  217.15   29.84
   3 -10  -5   85.96   17.06
   7   3  -5   60.62   16.90
   7 -10  -5   57.81   16.17
 -10   3  -4   21.17   14.59
   7   3  -4   30.10   13.31
   7 -10  -4   30.89   12.17
 -10   3  -3   14.68   12.26
   7   3  -3    6.51    9.07
   7 -10  -3  -21.65   13.73
 -10   7  -2  211.04   29.17
 -10   3  -2  250.81   31.32
   7   3  -2  199.69   26.33
   7 -10  -2  191.76   28.41
 -10   7  -1    7.73    9.60
   7 -10  -1   28.16   14.77
   7   3  -1   -0.54    7.66
 -10   7   0   58.20   15.32
   7 -10   0   51.20   16.11
   7   3   0   48.08   14.06
 -10   7   1  166.05   25.64
   7 -10   1  142.65   25.13
   7   3   1  161.96   22.88
   3 -10   2  328.65   35.81
 -10   7   2  311.63   33.85
   7 -10   2  274.57   33.30
 -10   7   3  169.04   25.55
   3 -10   3  161.24   26.20
 -10   7   4   19.43   11.24
 -10   7   5   82.47   18.00
 -10   7   6  325.14   34.93
 -10   7   7   74.82   17.56
 -10   7   8   46.12   15.43
   4 -11  -4  253.62   30.77
  -4   8 -12  349.60   36.59
   8  -4 -12  374.27   37.42
   8  -4 -11    7.77   10.96
  -4   8 -11    8.29    8.98
   8  -4 -10   28.39   13.64
  -4   8 -10    6.63   10.48
   8  -4  -9    3.47    8.61
  -4  -4  -9    9.14    4.81
   8  -4  -8  767.05   49.53
  -4   8  -8  833.21   52.08
   8  -4  -7   -3.52   10.64
  -4   8  -7   -9.12    9.86
   8  -4  -6   88.39   18.40
  -4   8  -6   69.25   15.63
   8  -4  -5   -6.45    9.56
  -4   8  -5    0.90    7.17
   8  -4  -4  512.80   38.62
  -4   8  -4  574.32   40.56
   8  -4  -3    6.66    8.82
  -4   8  -3    2.99    7.14
   8  -4  -2  342.51   30.83
  -4   8  -2  286.31   27.71
  -4   8  -1   -2.02    4.23
   8  -4  -1    4.91   10.15
  -4   8  -1    3.28    7.72
   8  -4   0 1691.44   65.55
  -4   8   0 1613.45   62.99
  -4   8   0 1640.85   42.13
   8  -4   1   -5.80    7.69
  -4   8   1    0.78    8.28
   8  -4   2   68.18   14.42
  -4   8   2   40.96   10.84
   8  -4   3    1.39    8.10
  -4   8   3    3.33    5.86
   8  -4   4 1331.44   56.09
  -4   8   4 1290.11   52.47
   8  -4   5   -2.03    7.19
  -4   8   5   -2.85    6.06
   8  -4   6    6.02    8.12
  -4   8   6   23.21    8.41
   8  -4   7   -1.99    8.22
  -4   8   7   -8.20    5.25
   8  -4   8  350.97   28.45
   8  -4   9    0.61    6.20
  -4   8  10   14.08    6.87
  -4   8  11    4.70    8.15
   8  -5 -12  -23.50   12.70
  -5   8 -12   -1.31    9.40
   8  -5 -11   60.73   17.26
   8  -3 -11   82.93   19.95
  -3   8 -11   49.66   16.61
  -5   8 -11   21.98   11.37
   8  -5 -10  224.08   28.45
   8  -3 -10  246.81   30.18
  -3   8 -10  224.92   29.11
  -5   8 -10  251.14   29.75
  -3  -5  -9  298.64   25.11
   8  -5  -9  367.21   35.51
  -3   8  -9  366.23   36.46
   8  -3  -9  321.13   34.41
  -5   8  -9  314.15   33.36
   8  -5  -8   82.07   17.87
   8  -3  -8   98.15   20.52
  -3  -5  -8   92.70   15.56
  -3   8  -8   89.47   18.89
  -5   8  -8  109.17   21.06
   8  -5  -7   55.93   14.79
   8  -3  -7  109.33   19.63
  -3  -5  -7   83.45   14.90
  -3   8  -7  134.83   22.23
  -5   8  -7  118.15   20.38
   8  -5  -6  810.89   49.86
   8  -3  -6  862.83   51.21
  -3   8  -6  904.44   52.49
  -5   8  -6  903.17   52.69
   8  -5  -5   18.34   10.88
   8  -3  -5   10.11   11.93
  -3   8  -5    3.54    9.72
  -5   8  -5   -9.66    9.57
   8  -5  -4   40.75   13.03
   8  -3  -4   59.28   15.51
  -3   8  -4   38.27   12.27
  -5   8  -4   49.68   14.38
   8  -5  -3  215.80   25.25
   8  -3  -3  215.51   25.78
  -5   8  -3  245.15   26.90
  -3   8  -3  236.73   26.31
  -5   8  -2  251.15   20.45
   8  -3  -2  232.24   25.57
   8  -5  -2  255.78   27.32
  -5   8  -2  240.68   26.18
  -3   8  -2  237.66   25.71
   8  -5  -1  458.26   35.59
   8  -3  -1  500.56   36.10
  -3   8  -1  410.70   32.89
  -5   8  -1  491.79   36.30
   8  -5   0   28.31   11.25
   8  -3   0   20.64   10.22
  -3   8   0    8.74    9.13
  -5   8   0   36.60   13.10
   8  -5   1  143.81   20.91
   8  -3   1  129.76   18.94
  -3   8   1  130.24   18.30
  -5   8   1  118.96   18.26
   8  -5   2  886.78   47.98
   8  -3   2  935.24   47.71
  -3   8   2  925.73   46.30
  -5   8   2  920.23   46.88
   8  -5   3  162.16   20.59
   8  -3   3  125.28   17.37
  -3   8   3  133.26   17.71
  -5   8   3   84.84   14.40
   8  -5   4   91.05   17.11
   8  -3   4   89.01   16.08
  -3   8   4   63.06   12.73
  -5   8   4   76.99   13.89
   8  -5   5  298.57   27.80
   8  -3   5  298.79   26.33
  -3   8   5  289.08   24.53
  -5   8   5  305.11   26.05
  -3   8   5  309.28   17.94
   8  -5   6  342.95   29.97
   8  -3   6  329.78   27.64
  -3   8   6  357.08   26.39
  -5   8   6  330.08   26.30
   8  -3   7  180.90   20.01
  -3   8   7  182.41   18.53
  -5   8   7  227.73   22.08
   8  -5   7  178.57   22.42
   8  -3   8   94.21   14.78
  -5   8   8   76.39   12.56
   8  -5   8   86.59   16.78
   8  -5   9    8.63    7.81
   8  -5  10  319.71   29.01
  -5   8  13  104.72   20.14
  -5  -3  13  123.08   22.17
   8  -6 -12   -0.64   10.31
   8  -6 -11   75.70   17.66
  -2   8 -11   97.02   20.55
  -6   8 -11   84.77   19.64
   8  -6 -10  109.24   20.68
   8  -2 -10  115.93   21.36
  -2   8 -10  125.81   22.81
  -6   8 -10   95.05   20.44
   8  -6  -9  123.38   22.04
  -2  -6  -9  130.22   18.32
   8  -2  -9  131.04   23.14
  -2   8  -9  141.42   24.21
  -6   8  -9  167.19   25.31
   8  -6  -8   -1.96    9.13
  -2  -6  -8    3.06    6.09
   8  -2  -8   12.54   11.56
  -2   8  -8    8.41    9.56
  -6   8  -8    6.04    9.12
   8  -6  -7  232.75   27.73
  -2  -6  -7  311.85   28.34
  -2   8  -7  318.51   33.74
   8  -2  -7  320.97   33.21
  -6   8  -7  312.52   32.73
  -2  -6  -6  843.45   46.26
   8  -6  -6  909.25   53.24
  -2   8  -6  886.76   53.53
   8  -2  -6  932.66   54.22
  -6   8  -6  901.91   53.84
  -6   8  -5  183.76   24.15
   8  -6  -5  224.77   26.97
  -2  -6  -5  248.31   25.70
   8  -2  -5  217.81   26.84
  -2   8  -5  191.96   24.70
  -2  -6  -4  506.36   36.99
   8  -6  -4  503.93   39.54
  -2   8  -4  456.25   37.19
   8  -2  -4  463.04   37.00
  -6   8  -4  447.91   36.62
  -6   8  -3   13.34    7.90
   8  -6  -3   18.97   10.94
   8  -2  -3   16.74   10.54
  -2   8  -3   -2.26    8.58
   8  -6  -2  545.98   39.97
   8  -2  -2  457.71   35.65
  -2   8  -2  557.50   39.54
  -6   8  -2  536.88   39.27
  -6   8  -1   10.30    8.42
   8  -6  -1   -9.56   11.82
   8  -2  -1    4.87    7.55
  -2   8  -1   21.97   10.10
   8  -6   0   17.08    8.37
  -6   8   0   32.39   11.18
   8  -2   0   31.66   12.24
  -2   8   0   17.15    9.78
  -6   8   1  194.80   23.79
   8  -2   1  169.54   20.56
   8  -6   1  229.79   25.91
  -2   8   1  238.88   25.02
  -6   8   2  101.50   16.86
   8  -2   2  174.86   21.16
  -2   8   2  118.02   17.39
   8  -6   2  194.15   24.16
   8  -6   3  513.04   37.92
   8  -2   3  459.71   32.61
  -2   8   3  518.30   34.93
  -6   8   4    3.87    6.82
   8  -2   4   21.06    9.00
  -2   8   4   12.71    8.01
   8  -6   4   10.80    9.83
   8  -6   5  325.72   30.43
   8  -2   5  336.38   27.17
  -2   8   5  307.44   25.55
  -6   8   5  369.37   29.71
   8  -6   6  670.25   43.47
   8  -2   6  760.17   39.60
  -2   8   6  723.45   37.95
  -6   8   6  717.27   40.34
  -6   8   7   69.93   13.59
   8  -2   7   84.59   13.81
  -2   8   7   61.99   11.75
   8  -6   7   51.37   13.06
   8  -6   8  272.31   28.53
  -6   8   8  278.84   24.30
   8  -6   9   23.65   11.72
   8  -6  10  337.76   31.57
   8  -6  11   28.69   11.45
   8  -7 -11   -1.33   12.49
   8  -7 -10   -9.44    9.66
  -7   8 -10    7.25    7.45
  -7   8  -9  -17.13   12.10
   8  -7  -9   -7.02    8.36
   8  -1  -9    5.18    8.78
  -1   8  -9    0.79    9.21
  -1  -7  -8  450.71   35.25
   8  -7  -8  391.47   36.46
  -1   8  -8  411.46   38.92
  -7   8  -8  408.79   38.65
   8  -1  -8  433.14   40.24
  -7   8  -7   -1.39    8.28
   8  -7  -7    1.72    9.86
  -1  -7  -7    8.28    8.50
   8  -1  -7   -5.70    9.37
  -1   8  -7    5.91    8.82
  -7   8  -6    4.95    9.79
   8  -7  -6   -2.88    9.17
  -1  -7  -6    7.12    7.36
   8  -1  -6    0.89    8.01
  -1   8  -6   -0.06   10.02
  -7   8  -5    1.63   10.50
   8  -7  -5   17.29   11.18
  -1  -7  -5   11.16   10.71
   8  -1  -5   -0.36    8.47
  -1   8  -5    2.94    9.78
  -1  -7  -4 1443.83   63.86
   8  -7  -4 1391.97   66.22
  -1   8  -4 1519.70   69.08
   8  -1  -4 1460.89   66.30
  -7   8  -4 1529.01   69.30
   8  -7  -3   -4.44    8.95
  -7   8  -3   13.91    8.27
  -1  -7  -3   19.48   10.46
   8  -1  -3  -15.35   11.00
  -1   8  -3    8.23    8.90
  -1  -7  -2  332.96   32.05
   8  -7  -2  386.83   34.55
  -1   8  -2  335.89   32.07
   8  -1  -2  363.86   32.16
  -7   8  -2  306.82   31.12
  -7   8  -1   -1.87    6.81
  -1  -7  -1    0.34    8.42
   8  -1  -1   -6.77    9.47
  -1   8  -1   -5.34    8.21
   8  -7  -1    4.71    9.46
   8  -7   0  309.55   31.40
  -1   8   0  276.33   28.05
   8  -1   0  292.25   28.15
  -7   8   0  307.21   30.34
  -7   8   1   -5.19    8.36
   8  -1   1   -1.38    6.96
  -1   8   1   -2.54    7.77
   8  -7   1   -7.89    9.59
   8  -7   2  464.53   38.09
   8  -1   2  474.99   33.81
  -7   8   2  501.71   37.53
  -7   8   3   10.00   10.01
   8  -1   3   -4.68    7.29
  -1   8   3   -7.06    7.26
   8  -7   3  -10.24    9.86
   8  -7   4  961.00   54.13
  -1   8   4  919.02   46.57
   8  -1   4  917.77   44.86
  -7   8   5    3.07    6.51
   8  -1   5    5.77    5.84
  -1   8   5   -2.15    5.98
   8  -7   5   -3.05    8.28
  -7   8   6   59.09   13.46
   8  -1   6   61.53   12.31
  -1   8   6   51.64   10.79
   8  -7   6   84.49   17.30
  -7   8   7  -12.98    8.45
   8  -7   7  -30.87   12.00
   8  -7   8  630.61   44.88
  -7   8   8  606.17   37.94
   8  -7   9    1.91   10.33
   8  -7  10   16.01   12.28
   8  -7  11    4.83    9.84
   8  -7  12  236.16   28.49
   8  -8 -10  174.21   27.36
   8  -8  -9   29.12   13.19
  -8   0  -9    6.91   10.30
  -8   8  -8   54.60   16.10
   8  -8  -8   76.28   18.74
   8   0  -8   57.21   18.16
   0   8  -8   97.18   21.63
  -8   8  -7   73.03   19.77
   8  -8  -7   93.82   18.87
   8   0  -7   59.61   16.95
   0   8  -7   83.85   18.98
   8  -8  -6  329.21   34.27
   0  -8  -6  364.62   33.96
   0   8  -6  360.38   36.50
  -8   8  -6  390.18   38.19
   8   0  -6  359.96   35.78
   8  -8  -5  104.91   20.13
  -8   8  -5  109.45   21.03
   0  -8  -5   66.98   15.62
   8   0  -5  120.27   22.78
   0   8  -5   54.76   15.02
   8  -8  -4   69.45   17.66
  -8   8  -4   69.95   16.54
   0  -8  -4   81.48   17.98
   8   0  -4  116.90   20.62
   0   8  -4   85.27   18.24
   8  -8  -3   91.72   19.42
  -8   8  -3   74.61   17.19
   0  -8  -3   94.18   19.04
   8   0  -3   84.97   16.67
   0   8  -3   87.85   18.16
   8  -8  -2  344.91   34.13
   0  -8  -2  346.95   33.16
   0   8  -2  331.30   33.27
   8   0  -2  389.74   34.60
  -8   8  -2  396.30   36.99
   0  -8  -1  255.06   29.26
   8   0  -1  254.28   27.62
  -8   8  -1  288.78   31.32
   0   8  -1  253.91   28.35
   8  -8  -1  234.79   27.97
  -8   8   0    3.50    9.58
   0  -8   0  -15.12   13.22
   8   0   0   -1.99    8.13
   0   8   0   28.32   13.09
   8  -8   0   19.37   10.34
   0  -8   1  274.80   30.75
   0   8   1  290.39   28.91
   8   0   1  272.19   27.07
  -8   8   1  243.61   28.02
   8  -8   1  248.11   29.15
   8  -8   2  317.63   32.63
   0  -8   2  372.49   35.63
   0   8   2  305.68   29.50
   8   0   2  424.06   32.68
  -8   8   2  341.59   32.48
  -8   8   3   97.91   17.39
   0  -8   3   70.13   17.17
   8   0   3   86.05   15.08
   8  -8   3  124.09   23.08
  -8   8   4   69.03   15.44
   0  -8   4   74.24   18.08
   8   0   4   79.80   13.68
   8  -8   4   94.74   20.06
  -8   8   5   76.53   15.82
   0  -8   5   96.30   21.53
   8  -8   5  135.52   23.44
   8  -8   6  308.08   32.99
   0  -8   6  366.45   37.06
  -8   8   6  342.33   31.37
  -8   8   7   58.66   13.83
   0  -8   7   42.58   13.94
   8  -8   7   63.76   17.79
  -8   8   8   98.98   17.94
   0  -8   8   62.47   17.65
   8  -8   8   67.21   17.76
   0  -8   9   51.55   16.03
   8  -8   9   39.53   15.18
   8  -8  10  199.83   27.76
  -9   1  -9   99.43   20.13
   8  -9  -8   88.27   19.39
  -9   1  -8   96.63   19.48
   8  -9  -7   11.55   11.44
  -9   1  -7    3.84    7.61
   8  -9  -6  258.59   31.76
   8   1  -6  229.45   30.43
   8  -9  -5   32.80   14.11
  -9   8  -5    2.71    8.09
   8   1  -5   28.39   12.05
   8  -9  -4    3.32    9.12
   1  -9  -4    3.07    8.76
   8   1  -4   -1.33    9.24
  -9   8  -3  150.94   24.40
   1  -9  -3  185.15   26.32
   8   1  -3  159.80   23.67
   8  -9  -3  125.26   22.79
  -9   8  -2  178.50   25.89
   1  -9  -2  117.53   21.66
   8   1  -2  169.33   23.36
   8  -9  -2  165.82   25.84
  -9   8  -1  271.77   31.78
   1  -9  -1  190.94   27.49
   8   1  -1  211.31   25.75
   8  -9  -1  218.63   29.39
  -9   8   0   26.46   11.73
   1  -9   0   12.87   11.16
   8   1   0   13.35    8.96
   8  -9   0   21.69   12.04
  -9   8   1  167.10   24.39
   1  -9   1  144.53   23.57
   8   1   1  144.96   20.83
   8  -9   1  169.24   25.46
   8  -9   2  627.41   48.18
   1  -9   2  680.47   50.00
   8   1   2  574.26   38.65
  -9   8   2  590.84   45.00
  -9   8   3   51.01   14.70
   1  -9   3   73.75   17.87
   8   1   3   76.37   14.40
   8  -9   3   74.88   19.19
  -9   8   4  123.40   21.52
   1  -9   4   86.99   20.11
   8  -9   4   92.69   19.69
  -9   8   5   53.67   15.80
   1  -9   5   59.99   15.68
   8  -9   5   49.65   16.68
  -9   8   6  251.48   29.26
   1  -9   6  178.06   26.89
   8  -9   6  239.37   31.84
  -9   8   7   96.90   18.45
  -9   8   8  -28.49   11.41
   8   2  -4  334.02   35.98
   8   2  -3  -14.80   10.42
   8   2  -2    3.09    9.72
   8   2  -1    5.78    8.88
   8   2   0  252.80   28.31
   8   2   1    8.63    8.73
 -10   8   2   18.25    9.07
 -10   8   3   12.53   11.41
 -10   8   4  620.55   48.08
 -10   8   5   -4.89   11.01
 -10   8   6    1.05   11.92
 -10   8   7   -2.77    9.09
   8   3  -1   21.85   12.66
   9  -5  -9   34.31   13.61
   9  -5  -8    5.10   11.70
   9  -4  -8    7.19   10.03
  -4  -5  -8   24.63    9.72
  -4   9  -8    0.79   11.25
  -5   9  -8   15.39   13.16
   9  -5  -7    7.43    8.51
   9  -4  -7   13.83   13.12
  -4   9  -7   19.93   12.04
  -5   9  -7    9.94    9.30
   9  -5  -6  122.92   22.12
   9  -4  -6  141.46   23.27
  -4   9  -6  114.05   21.56
  -5   9  -6  136.63   22.12
   9  -5  -5   71.18   16.55
   9  -4  -5   91.48   20.68
  -4   9  -5   93.76   18.78
  -5   9  -5   91.18   18.67
   9  -5  -4   91.29   18.86
   9  -4  -4   49.76   13.82
  -4   9  -4   90.96   18.13
  -5   9  -4   69.69   16.14
   9  -5  -3  126.50   21.49
   9  -4  -3  117.14   20.78
  -4   9  -3  104.93   20.08
  -5   9  -3   66.42   15.65
   9  -5  -2  701.20   47.39
   9  -4  -2  674.74   45.75
  -4   9  -2  712.81   47.26
  -5   9  -2  743.23   48.10
   9  -5  -1  197.91   24.94
   9  -4  -1  184.92   24.32
  -4   9  -1  164.67   23.01
  -5   9  -1  193.47   24.49
   9  -5   0   24.91   12.03
   9  -4   0   47.62   15.10
  -4   9   0   44.32   13.45
  -5   9   0   46.44   14.12
   9  -5   1  345.69   32.49
   9  -4   1  347.30   31.98
  -4   9   1  336.71   31.15
  -5   9   1  308.67   30.12
   9  -5   2  630.44   43.31
   9  -4   2  597.64   41.23
  -5   9   2  539.13   38.56
   9  -5   3  192.30   25.33
   9  -4   3  180.69   23.15
  -4   9   3  133.95   19.04
   9  -5   4   61.93   15.50
   9  -4   4   59.16   13.88
  -4   9   4   64.51   14.06
  -5   9   4   61.01   13.92
   9  -5   5    3.22    9.03
   9  -4   5   10.43    9.50
  -4   9   5   -6.30    7.65
  -5   9   5   -5.99    7.85
   9  -5   6  155.21   22.37
   9  -4   6  195.41   24.29
  -4   9   6  141.71   18.74
  -5   9   6  137.15   18.36
   9  -5   7   -9.64   10.04
   9  -4   7   -7.91    6.52
   9  -5   8   20.64    8.49
   9  -4   8   12.36    8.48
   9  -5   9   29.36   11.47
  -3  -6  -8  448.99   34.57
   9  -6  -8  443.94   41.26
  -3   9  -8  375.99   38.40
   9  -3  -8  440.78   41.36
  -6   9  -8  472.23   42.83
   9  -6  -7  -13.74   10.49
   9  -3  -7   -4.42   10.74
  -3  -6  -7   -2.32    7.07
  -3   9  -7   10.04   10.34
  -6   9  -7   22.96   15.71
   9  -6  -6    3.54    9.64
   9  -3  -6  -10.92   12.77
  -3  -6  -6   18.37    9.82
  -3   9  -6   19.33   12.77
  -6   9  -6  -10.05   11.38
   9  -6  -5    9.84   13.36
   9  -3  -5   11.18   11.21
  -3  -6  -5   17.90   10.29
  -3   9  -5   -1.99    8.14
  -6   9  -5    0.13    8.48
   9  -6  -4  841.99   53.10
   9  -3  -4  946.66   55.81
  -3   9  -4  977.31   57.10
  -6   9  -4  942.34   56.48
   9  -6  -3   -7.82    9.41
   9  -3  -3   -0.31    8.27
  -3   9  -3   -7.28    9.50
  -6   9  -3    3.26    8.83
   9  -6  -2    6.89    8.66
   9  -3  -2   -1.18    9.72
  -3   9  -2   -6.26    7.26
  -6   9  -2  -14.96   11.40
   9  -6  -1   -5.12    7.27
   9  -3  -1   -9.28   10.40
  -3   9  -1    8.50    8.27
  -6   9  -1    7.84    7.03
   9  -6   0  781.94   50.02
   9  -3   0  804.16   48.89
  -3   9   0  739.90   46.53
  -6   9   0  731.56   46.90
   9  -6   1   -4.98    8.34
   9  -3   1   13.87   10.63
  -3   9   1    7.42    7.05
  -6   9   1   17.68   10.97
   9  -6   2  -13.71   12.75
   9  -3   2   18.92    9.83
  -3   9   2    1.37    7.53
  -6   9   2   16.61    9.91
   9  -6   3    0.18    8.74
   9  -3   3   -0.31    8.74
  -3   9   3    4.43    6.57
  -6   9   3   10.34   10.39
   9  -6   4  485.12   39.09
   9  -3   4  508.01   36.83
  -3   9   4  527.70   36.79
  -6   9   4  507.81   37.29
   9  -6   5    2.93    8.28
   9  -3   5    0.88    7.26
  -3   9   5   -5.06    7.53
  -6   9   5    5.01    6.24
   9  -6   6    9.35   11.09
   9  -3   6    0.72    6.72
  -3   9   6   -0.58    5.96
  -6   9   6   -7.67    7.28
   9  -3   7   11.78    8.13
  -6   9   7    7.36    7.67
   9  -6   7   16.37   11.17
   9  -6   8  493.35   39.18
   9  -6   9  -12.29    9.82
   9  -6  10    4.78    8.46
   9  -7  -8   -0.51    7.60
  -2  -7  -8   -5.98   11.42
   9  -7  -7   72.05   19.62
  -2  -7  -7   61.75   15.13
   9  -2  -7   59.25   16.60
  -2   9  -7   91.46   21.03
  -7   9  -7   86.94   20.07
  -2  -7  -6  568.77   41.82
   9  -7  -6  476.64   42.02
  -2   9  -6  506.30   43.00
   9  -2  -6  518.13   43.42
  -7   9  -6  528.50   44.68
  -7   9  -5  210.57   28.60
   9  -7  -5  218.68   29.00
  -2  -7  -5  211.92   25.93
   9  -2  -5  241.61   29.92
  -2   9  -5  261.33   31.68
  -7   9  -4  301.83   32.98
   9  -7  -4  300.53   33.47
  -2  -7  -4  258.50   28.49
  -2   9  -4  330.18   35.11
   9  -2  -4  299.01   32.43
  -7   9  -3  203.01   27.44
   9  -7  -3  183.15   26.13
   9  -2  -3  245.75   29.43
  -2  -7  -3  200.19   26.12
  -2   9  -3  216.49   27.57
  -2  -7  -2  513.47   40.85
   9  -7  -2  527.54   43.23
  -2   9  -2  500.23   41.03
   9  -2  -2  527.26   41.32
  -7   9  -2  542.39   42.90
  -7   9  -1   29.73   13.07
   9  -7  -1   17.02   11.24
   9  -2  -1   23.02   10.88
  -2   9  -1   41.08   12.49
  -7   9   0   -1.83    8.46
   9  -7   0   -3.91    9.25
   9  -2   0   12.55    9.64
  -2   9   0   -2.94    8.00
   9  -7   1   61.08   16.23
  -7   9   1   35.26   12.16
   9  -2   1   49.36   14.39
  -2   9   1   61.56   14.89
   9  -7   2   67.11   18.53
  -7   9   2   44.11   13.75
   9  -2   2   69.06   15.54
  -2   9   2   45.62   12.77
   9  -2   3  280.73   28.08
  -7   9   3  252.30   27.88
  -2   9   3  219.15   24.98
   9  -7   3  273.67   30.55
  -7   9   4    9.92    7.37
   9  -2   4   13.11    8.33
  -2   9   4    7.40    7.68
   9  -7   4   10.15    8.86
  -7   9   5  137.19   21.04
   9  -2   5  142.96   19.43
  -2   9   5  136.21   19.43
   9  -7   5  147.77   24.16
   9  -7   6  465.55   39.45
  -7   9   6  491.59   36.95
  -7   9   7   10.81    7.00
   9  -7   7   20.57   10.95
   9  -7   8  144.21   22.89
   9  -7   9   18.74   11.84
   9  -7  10  247.54   29.56
  -1  -8  -8    1.17    7.48
  -1  -8  -7  102.09   18.61
   9  -8  -6  193.20   28.69
  -1  -8  -6  260.20   29.96
   9  -1  -6  226.16   30.63
  -8   9  -5   54.67   16.22
   9  -8  -5   60.40   17.28
  -1  -8  -5   55.84   16.17
   9  -1  -5   54.33   17.47
  -1   9  -5   38.43   14.27
  -8   9  -4  113.78   22.42
   9  -8  -4  175.99   27.32
  -1  -8  -4  107.88   20.59
   9  -1  -4  124.54   21.66
  -1   9  -4   81.41   19.30
  -8   9  -3   93.05   19.53
   9  -8  -3   90.99   19.44
  -1  -8  -3   75.79   18.10
   9  -1  -3  101.76   20.97
  -1   9  -3   98.02   20.81
  -1  -8  -2  538.09   43.84
   9  -8  -2  590.15   46.79
  -1   9  -2  576.12   44.83
   9  -1  -2  565.60   43.15
  -8   9  -2  656.91   48.45
   9  -8  -1  179.52   27.63
  -8   9  -1  154.04   24.13
  -1  -8  -1  159.36   25.34
   9  -1  -1  139.40   22.06
  -1   9  -1  154.36   24.35
  -8   9   0   -1.38   10.07
  -1  -8   0   14.90   11.20
   9  -1   0   25.98   10.97
  -1   9   0   14.89    9.89
   9  -8   0    2.20   11.15
  -8   9   1  211.93   27.02
  -1  -8   1  221.58   28.63
   9  -1   1  216.85   26.07
  -1   9   1  171.97   23.09
   9  -8   1  188.92   26.88
  -8   9   2  122.14   21.08
  -1  -8   2  187.76   27.05
   9  -1   2  136.91   20.81
  -1   9   2  152.67   22.18
   9  -8   2  181.58   25.77
  -8   9   3  160.66   23.84
  -1  -8   3  152.67   24.66
   9  -1   3  173.39   22.38
  -1   9   3  159.66   22.43
   9  -8   3  162.63   24.31
  -8   9   4    9.60    9.65
   9  -1   4    9.00    7.58
  -1   9   4   22.51   10.12
   9  -8   4   -3.04    8.46
  -8   9   5   -1.07    8.51
  -1   9   5   18.30    8.83
   9  -8   5   22.83   12.63
  -8   9   6  251.96   27.97
   9  -8   6  233.34   29.88
  -8   9   7   45.45   14.53
   9  -8   7   17.01    9.74
   9  -8   8  115.65   22.87
   0  -9  -6    4.47    8.66
   0  -9  -5    0.56   10.27
   0  -9  -4  129.04   21.89
   9   0  -4  124.51   23.63
   0  -9  -3    3.79    9.72
   9   0  -3   -4.47    9.80
   0   9  -3  -14.13   10.52
   0  -9  -2    1.14    9.85
   9   0  -2    1.17   13.09
   0   9  -2    1.18   14.83
  -9   9  -1    1.46    9.87
   0  -9  -1    5.10   10.38
   9   0  -1   19.11   10.90
   0   9  -1   -8.52    8.33
   0  -9   0 1440.47   73.81
   0   9   0 1392.97   69.96
   9   0   0 1275.86   63.51
  -9   9   0 1452.49   73.15
  -9   9   1    5.33   11.27
   0  -9   1    4.76   10.06
   9   0   1   23.91   12.98
  -9   9   2   10.22    9.36
   9   0   2   10.26    9.46
  -9   9   3   26.43   14.04
   9   0   3   18.52   10.42
  -9   9   4  149.67   23.74
  -9   9   5   17.44   10.55
  -9   9   6   -2.97    7.79
  -9   9   7    9.01    8.37
   9   1  -2  284.82   32.92
   9   1  -1  119.94   21.87
   9   1   0  102.01   20.95
   9   1   1  130.06   21.17
  10  -5  -4  444.69   41.86
  -5  10  -4  474.58   42.48
  10  -5  -3   -0.07   11.68
  -5  10  -3    0.98    9.61
  10  -5  -2   47.01   14.49
  -5  10  -2   49.71   13.90
  10  -5  -1   20.88    9.32
  -5  10  -1   -8.41    9.55
  10  -5   0 1222.63   64.63
  -5  10   0 1207.46   63.69
  10  -5   1   -6.26    9.29
  -5  10   1   12.68   11.04
  10  -5   2  -15.21   13.61
  -5  10   2   12.04   10.33
  10  -5   3    6.88    8.75
  -5  10   3  -13.24    9.94
  10  -5   4  320.55   32.38
  -5  10   4  366.68   33.46
  10  -5   5   -8.95    7.57
  -5  10   5   -2.89    7.92
  10  -5   6   19.38   11.98
  10  -5   7  -15.48   10.91
  -4  -6  -7   93.79   18.36
  -4  -6  -6   80.35   16.19
  10  -6  -4   12.68   13.32
  10  -4  -4   11.99    8.64
  -4  10  -4   22.38   13.03
  -6  10  -4   10.00   11.10
  10  -6  -3   71.17   19.15
  10  -4  -3   59.71   17.63
  -4  10  -3   78.48   18.37
  -6  10  -3   69.48   16.48
  10  -6  -2  538.65   44.58
  10  -4  -2  548.41   44.30
  -4  10  -2  576.16   45.90
  -6  10  -2  546.48   44.67
  10  -6  -1  122.36   22.16
  10  -4  -1  148.38   23.57
  -4  10  -1  140.32   23.19
  -6  10  -1  146.01   23.41
  10  -6   0  128.18   23.80
  10  -4   0   72.37   17.71
  -4  10   0  120.02   22.30
  -6  10   0  118.53   20.85
  10  -6   1   80.77   18.35
  10  -4   1   96.71   18.95
  -4  10   1   95.30   19.68
  -6  10   1   73.25   16.62
  10  -6   2  310.93   33.85
  10  -4   2  306.55   32.53
  -4  10   2  292.60   31.01
  -6  10   2  296.00   31.23
  10  -6   3   36.11   13.40
  10  -4   3   29.90   10.06
  -4  10   3   33.73   11.56
  -6  10   3   60.94   15.98
  10  -6   4   33.40   13.72
  10  -4   4   28.24   11.50
  -4  10   4   26.34   10.58
  -6  10   4   23.35   11.36
  10  -6   5   24.17   10.34
  10  -4   5   11.13    9.37
  -4  10   5   40.29   12.67
  -6  10   5   41.10   12.49
  10  -6   6  129.35   21.99
  10  -4   6  153.74   22.61
  10  -6   7   41.06   13.95
  10  -6   8   17.61   10.62
  -3  -7  -7   23.91   11.94
  -3  -7  -6  298.63   32.21
  -3  -7  -5   91.06   18.99
  10  -3  -4    6.00   11.76
  -3  -7  -4   10.47   10.77
  10  -3  -3  193.23   27.67
  -3  10  -3  161.49   25.82
  -7  10  -3  161.86   24.94
  10  -7  -2  266.84   32.49
  10  -3  -2  266.59   31.13
  -3  10  -2  280.81   32.41
  -7  10  -2  272.10   32.55
  10  -7  -1  171.03   26.32
  10  -3  -1  204.96   28.10
  -3  10  -1  211.86   28.18
  -7  10  -1  176.65   26.10
  10  -7   0   52.14   14.85
  10  -3   0   52.45   16.51
  -3  10   0   52.58   17.78
  -7  10   0   52.04   17.64
  10  -7   1   18.72   10.74
  10  -3   1   33.48   11.96
  -3  10   1   33.05   11.47
  -7  10   1   43.46   15.41
  10  -7   2  233.42   30.63
  10  -3   2  211.88   26.64
  -3  10   2  211.42   26.12
  -7  10   2  196.77   26.72
  10  -3   3   -0.60    9.04
  -3  10   3    0.36    8.53
  -7  10   3   -9.27    8.36
  10  -7   4   11.22    9.66
  10  -3   4   19.27   11.03
  -3  10   4   24.27   10.93
  -7  10   4   20.88   10.75
  10  -7   5   64.31   17.45
  10  -3   5   43.41   14.14
  -7  10   5   70.23   16.08
  10  -7   6  231.52   29.79
  10  -7   7  220.00   28.85
  10  -7   8   -3.48    9.00
  -2  -8  -7   20.69   12.65
  -2  -8  -6  -26.08   12.59
  -2  -8  -5   24.83   13.61
  -2  -8  -4  605.69   47.66
  -2  -8  -3   -5.29    8.52
  10  -2  -3    8.60    8.70
  -2  -8  -2   37.24   15.97
  10  -2  -2    4.69    9.39
  -2  10  -2   16.10   10.62
  -8  10  -1  -18.66   14.25
  -2  -8  -1   21.98   12.91
  10  -2  -1    3.79    9.09
  -2  10  -1   17.25    9.63
  -8  10   0  274.23   32.66
  10  -2   0  284.75   31.86
  -2  10   0  312.85   34.21
  10  -2   1   15.97   10.85
  -2  10   1   12.06    9.65
  -8  10   2   22.62   12.11
  10  -2   2   29.11   12.06
  -2  10   2    8.50    8.10
  -8  10   3   -3.64    8.49
  10  -2   3    8.25   11.06
  -2  10   3    4.41   10.23
  -2  10   4  358.57   34.13
  -8  10   4  348.44   34.66
  -8  10   5   -7.97   11.20
  10  -1  -1  149.88   24.87
  10  -1   0   38.44   13.23
  10  -1   1   94.94   20.04
  -1  10   1  100.14   19.92
  10  -1   2  293.54   31.92
  -1  10   2  264.41   31.55
  -1  10   3   28.05    9.30
  -9  10   5    7.49    8.94
  -5  11   1   66.09   15.46
  -5  11   2  304.53   33.70
  -6  11   2  304.00   34.21
  11  -5   3  115.09   21.89
  -5  11   3   87.92   18.21
  -6  11   3   96.80   19.58
  11  -5   4   11.63    9.96
  -5  11   4    6.03    7.44
  -6  11   4   -3.82    7.80
  11  -5   5   90.72   20.48
  11  -4   2   12.16   12.07
  -4  11   2   48.57   15.22
  11  -4   3  -21.72   11.44
  -4  11   3    0.68    8.38
  -7  11   3   -5.89   10.10
  11  -4   4  249.77   30.29
  -7  11   4  300.63   33.14
   0   0   0    0.00    0.00



TITL CrMnRT in P31c
REM P31c (#159 in standard setting)
CELL 0.71073   8.287604   8.287604  14.113800  90.0000  90.0000 120.0000
ZERR    2.00   0.000257   0.000257   0.000496   0.0000   0.0000   0.0000
LATT -1
SYMM -y, x-y, z
SYMM -x+y,-x, z
SYMM  y, x, z+1/2
SYMM  x-y,-y, z+1/2
SYMM -x,-x+y, z+1/2
SFAC C H N O Cr Mn
UNIT 16.00 28.00 2.00 26.00 2.00 2.00
TREF
HKLF 4
END
_computing_structure_solution     'SHELXT 2014/5 (Sheldrick, 2014)'
_computing_structure_solution     'SHELXT 2014/5 (Sheldrick, 2014)'
;
_shelx_hkl_checksum              10350
loop_
_space_group_symop_operation_xyz
'x, y, z'
'-y, x-y, z'
'-x+y, -x, z'
'-y, -x, -z+1/2'
'-x+y, y, -z+1/2'
'x, x-y, -z+1/2'
'-x, -y, -z'
'y, -x+y, -z'
'x-y, x, -z'
'y, x, z-1/2'
'x-y, -y, z-1/2'
'-x, -x+y, z-1/2'
loop_
_atom_site_label
_atom_site_type_symbol
_atom_site_fract_x
_atom_site_fract_y
_atom_site_fract_z
_atom_site_U_iso_or_equiv
_atom_site_adp_type
_atom_site_occupancy
_atom_site_site_symmetry_order
_atom_site_calc_flag
_atom_site_refinement_flags_posn
_atom_site_refinement_flags_adp
_atom_site_refinement_flags_occupancy
_atom_site_disorder_assembly
_atom_site_disorder_group
CR1 Mn 0.0000 0.0000 0.5000 0.0194(2) Uani 1 6 d S T P . .
MN1 Cr 0.3333 0.6667 0.7500 0.0177(2) Uani 1 6 d S T P . .
O1 O 0.2008(2) 0.1922(2) 0.57955(11) 0.0332(4) Uani 1 1 d . . . . .
O2 O 0.3338(3) 0.4473(3) 0.66584(13) 0.0456(5) Uani 1 1 d . . . . .
C1 C 0.2068(3) 0.3314(3) 0.61699(16) 0.0353(5) Uani 1 1 d . . . . .
H1 H 0.1055 0.3486 0.6068 0.042 Uiso 1 1 calc R U . . .
N1 N 0.4616(15) 0.7308(7) 0.2500 0.052(3) Uani 0.3333 2 d S T P . .
O3 O 0.220(2) 0.6495(18) 0.4333(8) 0.060(4) Uani 0.1667 1 d . . P . .
C2 C 0.3333 0.6667 0.4099(10) 0.068(4) Uani 0.5 3 d DS T P . .
C3 C 0.3333 0.6667 0.3035(10) 0.123(7) Uani 0.5 3 d DS T P . .
loop_
_atom_site_aniso_label
_atom_site_aniso_U_11
_atom_site_aniso_U_22
_atom_site_aniso_U_33
_atom_site_aniso_U_23
_atom_site_aniso_U_13
_atom_site_aniso_U_12
CR1 0.0190(3) 0.0190(3) 0.0202(4) 0.000 0.000 0.00951(13)
MN1 0.0160(2) 0.0160(2) 0.0211(4) 0.000 0.000 0.00798(12)
O1 0.0318(9) 0.0282(9) 0.0403(9) -0.0145(7) -0.0116(7) 0.0155(7)
O2 0.0415(10) 0.0400(11) 0.0590(11) -0.0275(9) -0.0173(9) 0.0230(9)
C1 0.0319(13) 0.0331(12) 0.0424(13) -0.0120(11) -0.0084(10) 0.0173(11)
N1 0.035(6) 0.039(4) 0.079(8) 0.020(5) 0.000 0.018(3)
O3 0.117(13) 0.044(7) 0.041(6) -0.023(6) -0.026(8) 0.056(9)
C2 0.064(6) 0.064(6) 0.077(11) 0.000 0.000 0.032(3)
C3 0.136(12) 0.136(12) 0.098(14) 0.000 0.000 0.068(6)
loop_
_atom_type_symbol
_atom_type_description
_atom_type_scat_dispersion_real
_atom_type_scat_dispersion_imag
_atom_type_scat_source
C C 0.0033 0.0016 'International Tables Vol C Tables 4.2.6.8 and 6.1.1.4'
H H 0.0000 0.0000 'International Tables Vol C Tables 4.2.6.8 and 6.1.1.4'
N N 0.0061 0.0033 'International Tables Vol C Tables 4.2.6.8 and 6.1.1.4'
O O 0.0106 0.0060 'International Tables Vol C Tables 4.2.6.8 and 6.1.1.4'
Cr Cr 0.3209 0.6236 'International Tables Vol C Tables 4.2.6.8 and 6.1.1.4'
Mn Mn 0.3368 0.7283 'International Tables Vol C Tables 4.2.6.8 and 6.1.1.4'
loop_
_geom_angle_atom_site_label_1
_geom_angle_atom_site_label_2
_geom_angle_atom_site_label_3
_geom_angle
_geom_angle_site_symmetry_1
_geom_angle_site_symmetry_3
O1 CR1 O1 180.0 7_556 .
O1 CR1 O1 90.99(7) 7_556 9_556
O1 CR1 O1 89.01(7) . 9_556
O1 CR1 O1 89.01(7) 7_556 2
O1 CR1 O1 90.99(7) . 2
O1 CR1 O1 89.01(7) 9_556 2
O1 CR1 O1 90.99(7) 7_556 8_556
O1 CR1 O1 89.01(7) . 8_556
O1 CR1 O1 90.99(7) 9_556 8_556
O1 CR1 O1 180.0 2 8_556
O1 CR1 O1 89.01(7) 7_556 3
O1 CR1 O1 90.99(7) . 3
O1 CR1 O1 180.0 9_556 3
O1 CR1 O1 90.99(7) 2 3
O1 CR1 O1 89.01(7) 8_556 3
O2 MN1 O2 179.84(10) . 6_566
O2 MN1 O2 92.98(7) . 3_565
O2 MN1 O2 87.14(11) 6_566 3_565
O2 MN1 O2 92.98(7) . 2_665
O2 MN1 O2 86.90(10) 6_566 2_665
O2 MN1 O2 92.98(7) 3_565 2_665
O2 MN1 O2 87.14(11) . 5_556
O2 MN1 O2 92.98(7) 6_566 5_556
O2 MN1 O2 86.90(10) 3_565 5_556
O2 MN1 O2 179.84(11) 2_665 5_556
O2 MN1 O2 86.90(10) . 4_666
O2 MN1 O2 92.98(7) 6_566 4_666
O2 MN1 O2 179.84(10) 3_565 4_666
O2 MN1 O2 87.14(11) 2_665 4_666
O2 MN1 O2 92.98(7) 5_556 4_666
C1 O1 CR1 127.80(16) . .
C1 O2 MN1 127.19(17) . .
O2 C1 O1 125.8(2) . .
O2 C1 H1 117.1 . .
O1 C1 H1 117.1 . .
C3 N1 C3 78.7(13) 4_665 .
C3 N1 N1 48.0(5) 4_665 2_665
C3 N1 N1 48.0(5) . 2_665
C3 N1 N1 48.0(5) 4_665 3_565
C3 N1 N1 48.0(5) . 3_565
N1 N1 N1 60.0 2_665 3_565
O3 O3 O3 60.001(6) 2_665 3_565
O3 C2 O3 108.3(13) . 3_565
O3 C2 O3 108.3(13) . 2_665
O3 C2 O3 108.3(13) 3_565 2_665
O3 C2 C3 110.6(12) . .
O3 C2 C3 110.6(13) 3_565 .
O3 C2 C3 110.6(12) 2_665 .
N1 C3 N1 84.1(10) . 2_665
N1 C3 N1 84.1(10) . 3_565
N1 C3 N1 84.1(10) 2_665 3_565
N1 C3 C2 129.3(7) . .
N1 C3 C2 129.3(7) 2_665 .
N1 C3 C2 129.3(7) 3_565 .
N1 C3 C3 50.7(7) . 4_665
N1 C3 C3 50.7(7) 2_665 4_665
N1 C3 C3 50.7(7) 3_565 4_665
C2 C3 C3 180.0 . 4_665
loop_
_geom_bond_atom_site_label_1
_geom_bond_atom_site_label_2
_geom_bond_distance
_geom_bond_site_symmetry_2
CR1 O1 1.9790(15) 7_556
CR1 O1 1.9790(15) .
CR1 O1 1.9790(15) 9_556
CR1 O1 1.9790(15) 2
CR1 O1 1.9790(15) 8_556
CR1 O1 1.9790(15) 3
MN1 O2 2.1735(16) .
MN1 O2 2.1735(16) 6_566
MN1 O2 2.1735(16) 3_565
MN1 O2 2.1735(17) 2_665
MN1 O2 2.1735(17) 5_556
MN1 O2 2.1735(16) 4_666
O1 C1 1.247(3) .
O2 C1 1.223(3) .
C1 H1 0.9300 .
N1 C3 1.191(11) 4_665
N1 C3 1.191(11) .
N1 N1 1.595(18) 2_665
N1 N1 1.595(18) 3_565
O3 C2 0.937(16) .
O3 O3 1.52(3) 2_665
O3 O3 1.52(3) 3_565
C2 O3 0.937(16) 3_565
C2 O3 0.937(16) 2_665
C2 C3 1.502(5) .
C3 N1 1.191(11) 2_665
C3 N1 1.191(11) 3_565
C3 C3 1.51(3) 4_665
