#------------------------------------------------------------------------------
#$Date: 2021-03-19 10:35:32 +0200 (Fri, 19 Mar 2021) $
#$Revision: 263167 $
#$URL: file:///home/coder/svn-repositories/cod/cif/1/56/11/1561143.cif $
#------------------------------------------------------------------------------
#
# This file is available in the Crystallography Open Database (COD),
# http://www.crystallography.net/
#
# All data on this site have been placed in the public domain by the
# contributors.
#
data_1561143
loop_
_publ_author_name
'M\;aczka, Miros\/law'
'Janczak, Jan'
'Hermanowicz, Krzysztof'
'Pikul, Adam'
'Hanuza, Jerzy'
_publ_section_title
;
 Magnetic, optical and phonon properties of novel
 heterometallic&#x00A0;formates [NH3CH2CH2OH][MIIIMII(HCOO)6] (MIII = Fe,
 Cr; MII = Mn, Ni, Co)
;
_journal_name_full               'Journal of Solid State Chemistry'
_journal_page_first              7
_journal_page_last               15
_journal_paper_doi               10.1016/j.jssc.2017.12.017
_journal_volume                  260
_journal_year                    2018
_chemical_formula_moiety         'C6 H6 Cr Mn O12, C2 H8 N O'
_chemical_formula_sum            'C8 H14 Cr Mn N O13'
_chemical_formula_weight         439.14
_space_group_crystal_system      trigonal
_space_group_IT_number           163
_space_group_name_Hall           '-P 3 2c'
_space_group_name_H-M_alt        'P -3 1 c'
_atom_sites_solution_hydrogens   geom
_atom_sites_solution_primary     direct
_atom_sites_solution_secondary   difmap
_cell_angle_alpha                90
_cell_angle_beta                 90
_cell_angle_gamma                120
_cell_formula_units_Z            2
_cell_length_a                   8.2675(3)
_cell_length_b                   8.2675(3)
_cell_length_c                   14.0576(5)
_cell_measurement_reflns_used    11737
_cell_measurement_temperature    100(2)
_cell_measurement_theta_max      29.3370
_cell_measurement_theta_min      2.8990
_cell_volume                     832.13(5)
_computing_cell_refinement
;
CrysAlis Red 1.171.38.41 (Rigaku Oxford Diffraction, 2015)
;
_computing_data_collection
;
CrysAlis CCD 1.171.38.41 (Rigaku Oxford Diffraction, 2015)
;
_computing_data_reduction
;
CrysAlis Red 1.171.38.41 (Rigaku Oxford Diffraction, 2015)
;
_computing_molecular_graphics
;
Brandenburg & Putz (2006). Diamond 3.0. Crystal and Molecular
Structure Visualisation, University of Bonn, Germany
;
_computing_publication_material  'SHELXL-2014/7 (Sheldrick, 2014)'
_computing_structure_refinement  'SHELXL-2014/7 (Sheldrick, 2014)'
_computing_structure_solution    'SHELXT (Sheldrick, 2014)'
_diffrn_ambient_temperature      100(2)
_diffrn_detector_area_resol_mean 10.6249
_diffrn_measured_fraction_theta_full 1.000
_diffrn_measured_fraction_theta_max 0.989
_diffrn_measurement_device_type  'KUMA KM-4 with CCD detector'
_diffrn_measurement_method       \w-scan
_diffrn_radiation_type           MoK\a
_diffrn_radiation_wavelength     0.71073
_diffrn_reflns_av_R_equivalents  0.0226
_diffrn_reflns_av_unetI/netI     0.0110
_diffrn_reflns_Laue_measured_fraction_full 1.000
_diffrn_reflns_Laue_measured_fraction_max 0.989
_diffrn_reflns_limit_h_max       11
_diffrn_reflns_limit_h_min       -11
_diffrn_reflns_limit_k_max       11
_diffrn_reflns_limit_k_min       -11
_diffrn_reflns_limit_l_max       18
_diffrn_reflns_limit_l_min       -19
_diffrn_reflns_number            19824
_diffrn_reflns_point_group_measured_fraction_full 1.000
_diffrn_reflns_point_group_measured_fraction_max 0.989
_diffrn_reflns_theta_full        28.000
_diffrn_reflns_theta_max         29.435
_diffrn_reflns_theta_min         2.845
_diffrn_source                   'fine-focus sealed X-ray tube'
_exptl_absorpt_coefficient_mu    1.476
_exptl_absorpt_correction_T_max  1.00000
_exptl_absorpt_correction_T_min  0.95445
_exptl_absorpt_correction_type   multi-scan
_exptl_absorpt_process_details
;
CrysAlisPro 1.171.38.43 (Rigaku Oxford Diffraction, 2015)
Empirical absorption correction using spherical harmonics,
 implemented in SCALE3 ABSPACK scaling algorithm.
;
_exptl_crystal_colour            violet
_exptl_crystal_density_diffrn    1.753
_exptl_crystal_description       parallelepiped
_exptl_crystal_F_000             444
_exptl_crystal_size_max          0.180
_exptl_crystal_size_mid          0.170
_exptl_crystal_size_min          0.150
_refine_diff_density_max         0.209
_refine_diff_density_min         -0.230
_refine_diff_density_rms         0.042
_refine_ls_extinction_coef       .
_refine_ls_extinction_method     none
_refine_ls_goodness_of_fit_ref   1.001
_refine_ls_hydrogen_treatment    constr
_refine_ls_matrix_type           full
_refine_ls_number_parameters     52
_refine_ls_number_reflns         775
_refine_ls_number_restraints     0
_refine_ls_restrained_S_all      1.001
_refine_ls_R_factor_all          0.0273
_refine_ls_R_factor_gt           0.0235
_refine_ls_shift/su_max          0.000
_refine_ls_shift/su_mean         0.000
_refine_ls_structure_factor_coef Fsqd
_refine_ls_weighting_details
'w=1/[\s^2^(Fo^2^)+(0.0136P)^2^+0.7612P] where P=(Fo^2^+2Fc^2^)/3'
_refine_ls_weighting_scheme      calc
_refine_ls_wR_factor_gt          0.0451
_refine_ls_wR_factor_ref         0.0465
_reflns_Friedel_coverage         0.000
_reflns_Friedel_fraction_full    .
_reflns_Friedel_fraction_max     .
_reflns_number_gt                706
_reflns_number_total             775
_reflns_threshold_expression     'I > 2\s(I)'
_cod_data_source_file            cr100.cif
_cod_data_source_block           cr100
_cod_original_cell_volume        832.13(7)
_cod_database_code               1561143
_shelx_space_group_comment
;
The symmetry employed for this shelxl refinement is uniquely defined
by the following loop, which should always be used as a source of
symmetry information in preference to the above space-group names.
They are only intended as comments.
;
_shelx_estimated_absorpt_t_min   0.779
_shelx_estimated_absorpt_t_max   0.810
_exptl_absorpt_special_details
;
Empirical correction (ABSPACK) includes:
- Absorption correction using spherical harmonics
- Frame scaling
;
_shelx_res_file
;

    cr100.res created by SHELXL-2014/7

TITL cr100_a.res in P-31c
CELL 0.71073 8.2675 8.2675 14.0576 90 90 120
ZERR 2 0.0003 0.0003 0.0005 0 0 0
LATT 1
SYMM -Y,+X-Y,+Z
SYMM +Y-X,-X,+Z
SYMM -Y,-X,0.5-Z
SYMM +Y-X,+Y,0.5-Z
SYMM +X,+X-Y,0.5-Z
SFAC C H N O Mn Cr
UNIT 16 28 2 26 2 2
TEMP -173
L.S. 10
PLAN  20
BOND $H
FMAP 2
ACTA 56
SIZE 0.26 0.21 0.18
WGHT    0.013600    0.761200
FVAR       0.98219
CR1   6    0.000000    0.000000    0.500000    10.16667    0.00939    0.00939 =
         0.01051    0.00000    0.00000    0.00469
MN1   5    0.333333    0.666667    0.750000    10.16667    0.01324    0.01324 =
         0.01729    0.00000    0.00000    0.00662
O1    4    0.203368    0.190973    0.579544    11.00000    0.02195    0.02056 =
         0.03138   -0.01113   -0.01007    0.01148
O2    4    0.336904    0.449333    0.665422    11.00000    0.03484    0.03391 =
         0.05573   -0.02860   -0.02432    0.02157
C1    1    0.209137    0.333431    0.615718    11.00000    0.02116    0.02114 =
         0.02692   -0.00712   -0.00349    0.00949
AFIX  43
H1    2    0.106875    0.352558    0.603602    11.00000   -1.20000
AFIX   0

N1    3    0.464329    0.732164    0.250000    10.16667    0.01900    0.02573 =
         0.04478    0.01064    0.00000    0.00950
O3    4    0.216692    0.654343    0.431287    10.16667    0.05747    0.02328 =
         0.01771   -0.01235   -0.00538    0.02877
C2    1    0.333333    0.666667    0.410523    10.16667    0.07521    0.07521 =
         0.03070    0.00000    0.00000    0.03761
C3    1    0.333333    0.666667    0.300178    10.16667    0.19372    0.19372 =
         0.02181    0.00000    0.00000    0.09686
hklf 4

REM  cr100_a.res in P-31c
REM R1 =  0.0235 for     706 Fo > 4sig(Fo)  and  0.0273 for all     775 data
REM     52 parameters refined using      0 restraints

END

WGHT      0.0083      0.5816

REM Highest difference peak  0.209,  deepest hole -0.230,  1-sigma level  0.042
Q1    1   0.4143  0.7122  0.3084  11.00000  0.05    0.21
Q2    1   0.7231  0.8616  0.2500  10.50000  0.05    0.19
Q3    1   0.2693  0.3445  0.6816  11.00000  0.05    0.18
Q4    1   0.4134  0.4389  0.6541  11.00000  0.05    0.18
Q5    1   0.3107  0.4639  0.6273  11.00000  0.05    0.16
Q6    1   0.5487  0.8514  0.2325  11.00000  0.05    0.15
Q7    1   0.2454  0.5473  0.6330  11.00000  0.05    0.14
Q8    1   0.3333  0.6667  0.8211  10.33333  0.05    0.14
Q9    1   0.1781  0.1758  0.5006  11.00000  0.05    0.13
Q10   1   0.0180  0.6160  0.4878  11.00000  0.05    0.13
Q11   1   0.1364  0.1571  0.5432  11.00000  0.05    0.13
Q12   1   0.0000  0.0000  0.7500  10.16667  0.05    0.12
Q13   1   0.6127  0.8064  0.2500  10.50000  0.05    0.12
Q14   1   0.3070  0.4231  0.7028  11.00000  0.05    0.12
Q15   1   0.1814  0.2403  0.5624  11.00000  0.05    0.12
Q16   1   0.1335  0.4026  0.5584  11.00000  0.05    0.12
Q17   1   0.2127  0.6662  0.3422  11.00000  0.05    0.12
Q18   1   0.1803  0.3606  0.7500  10.50000  0.05    0.12
Q19   1   0.0717  0.3110  0.6397  11.00000  0.05    0.11
Q20   1   0.4411  0.4594  0.6184  11.00000  0.05    0.11
;
_shelx_res_checksum              54901
_shelx_hkl_file
;
   0   0   2   37.48    4.00
   0   0   2   37.26    3.36
   0   0  -3    2.01    3.32
   0   0   3    2.95    4.21
   0   0   3    2.16    3.48
   0   0  -3    2.83    3.80
   0   0  -3    2.05    4.08
   0   0   3    2.81    3.77
   0   0  -3    2.89    3.11
   0   0  -3    2.31    3.90
   0   0  -3    2.44    3.34
   0   0   3    2.63    3.92
   0   0  -3    2.79    4.15
   0   0  -4 1405.77   25.80
   0   0  -4 1404.83   23.07
   0   0   4 1403.88   27.22
   0   0   4 1407.17   26.34
   0   0  -4 1408.36   20.60
   0   0  -4 1404.49   26.14
   0   0  -4 1406.57   23.27
   0   0   4 1406.05   24.00
   0   0   4 1403.21   25.83
   0   0  -4 1401.88   23.58
   0   0  -4 1402.84   25.54
   0   0  -4 1400.84   25.92
   0   0  -5   -0.99    4.82
   0   0   5    1.10    4.50
   0   0  -5    4.12    4.99
   0   0   5    1.81    5.29
   0   0   5    5.37    4.95
   0   0  -5   -1.06    3.49
   0   0   5    4.95    5.29
   0   0  -5    0.31    4.44
   0   0  -5    2.88    3.97
   0   0  -5   -3.75    4.39
   0   0  -5    3.06    4.42
   0   0  -5   -2.65    5.22
   0   0  -6 1716.92   39.56
   0   0  -6 1712.53   39.50
   0   0  -6 1717.77   34.98
   0   0  -6 1711.20   36.08
   0   0  -6 1715.38   40.74
   0   0   6 1710.50   41.25
   0   0   6 1710.51   36.44
   0   0   6 1718.45   39.84
   0   0   6 1713.47   39.58
   0   0  -6 1710.71   31.09
   0   0  -6 1716.88   36.81
   0   0  -6 1719.61   40.05
   0   0  -7    1.29    5.80
   0   0   7   -0.96    5.29
   0   0   7   -0.18    4.65
   0   0  -7   -3.14    4.25
   0   0  -7    1.40    4.44
   0   0  -7    0.88    4.48
   0   0  -7    0.25    5.40
   0   0  -7    0.47    3.37
   0   0  -7   -0.52    5.56
   0   0  -7    1.03    4.07
   0   0  -7    1.66    5.00
   0   0   7   -0.11    5.42
   0   0  -8 1139.81   22.84
   0   0  -8 1131.88   25.34
   0   0  -8 1133.34   25.16
   0   0  -8 1139.29   22.99
   0   0   8 1138.13   23.86
   0   0  -8 1136.27   26.84
   0   0  -8 1134.50   26.15
   0   0  -8 1135.52   20.38
   0   0   8 1138.09   26.56
   0   0   8 1135.16   26.42
   0   0  -8 1138.03   24.12
   0   0  -8 1139.42   26.23
   0   0  -9   -2.83    5.66
   0   0   9   -0.83    6.34
   0   0  -9   -0.10    4.62
   0   0  -9    3.62    5.85
   0   0   9   -3.87    6.61
   0   0  -9    4.36    4.28
   0   0  -9   -4.16    5.73
   0   0  -9    5.82    6.87
   0   0   9    5.44    5.52
   0   0  -9    1.14    5.49
   0   0  -9    3.66    5.69
   0   0  -9   -0.43    4.63
   0   0 -10   62.62    8.62
   0   0 -10   62.31   10.12
   0   0 -10   62.00    7.20
   0   0 -10   62.96    7.94
   0   0  10   62.00   10.34
   0   0 -10   62.11    7.60
   0   0  10   62.55   10.53
   0   0  11   13.96    8.95
   0   0 -11    2.04    5.46
   0   0 -11   -2.35    5.84
   0   0 -11   -6.42    6.14
   0   0  11   -2.41    8.61
   0   0 -11    1.52    4.78
   0   0 -11   -7.35    7.38
   0   0  12 4649.77   85.61
   0   0  12 4648.30   81.28
   0   0 -12 4643.97   63.53
   0   0 -12 4643.04   72.55
   0   0 -12 4642.74   71.23
   0   0 -12 4649.97   84.42
   0   0  13   -2.43    9.03
   0   0  13    8.84    9.27
   0   0 -13   -0.69    5.18
   0   0 -13   -0.03    5.84
   0   0 -13    7.73    7.12
   0   0 -13    0.71    7.75
   0   0  14    6.15    9.54
   0   0  14   16.82    9.70
   0   0 -14   -2.08    6.25
   0   0 -14    1.56    5.35
   0   0 -14    2.75    8.23
   0   0 -14   -0.27    6.99
   0   0  15    5.54    9.78
   0   0 -15   -6.42    6.57
   0   0 -15   -2.09    7.53
   0   0 -15   -4.74    6.84
   0   0 -15   -6.10    9.76
   0   0 -16  871.08   37.47
   0   0  16  921.18   46.30
   0   0 -16  911.40   44.68
   0   0 -16  852.55   36.97
   0   0 -17    6.08    7.76
   0   0 -17   -2.56    9.59
   0   0 -17    4.02    7.74
   0   0 -18    4.63   11.39
  -1   1   0 1457.21    2.64
   1   0   0 1457.44    3.09
   1  -1   0 1458.09    2.89
   0  -1   0 1457.78    3.36
  -1   0   0 1457.04    4.09
   0   1   0 1457.40    2.48
  -1   0  -1 3080.51   19.85
   0  -1   1 3020.44   16.39
  -1   0   1 3015.55   18.62
   1   0  -1 3059.80   18.89
   1  -1   1 3090.76   19.81
   1  -1  -1 3042.56   21.51
   1   0  -1 3088.53   18.45
   0   1  -1 3078.55   20.97
   1  -1  -1 3026.16   21.04
   1   0  -1 3006.85   20.13
   0  -1   1 3068.37   19.86
   0   1  -1 3054.36   19.19
  -1   0   1 3032.25   19.45
   1  -1  -1 3008.40   20.05
  -1   0   1 3076.23   20.13
   1   0  -1 3030.79   17.89
   0   1  -1 3033.48   17.87
   1  -1   1 3082.48   20.82
   1  -1   1 3075.87   18.22
   0  -1   1 3021.31   19.62
  -1   0   1 3046.59   21.57
   0   1   1 3091.94   14.62
  -1   0   1 3060.19   17.43
   0  -1   1 3060.28   20.91
  -1   1   1 3040.02   21.12
  -1   0   1 3099.76   20.51
  -1   0  -1 3066.01   20.45
   1   0   1 3096.05   20.11
   0  -1  -1 3065.15   19.78
   0   1  -1 3073.10   18.68
   1   0   1 3072.87   20.36
   0  -1   1 3063.55   18.91
  -1   1   1 3062.58   20.34
   1  -1   1 3072.56   21.10
  -1   1   1 3080.94   20.13
   1  -1  -210520.58   55.48
   0   1   210660.78   45.94
  -1   0   210543.64   52.34
   1  -1  -210620.58   54.61
  -1   1  -210605.31   45.64
   1  -1  -210643.88   45.78
  -1   1  -210385.27   51.44
  -1   0  -210103.89   52.14
   0  -1   210630.68   52.22
   0  -1   210737.33   54.91
   1   0  -210543.24   53.16
   0   1   210458.17   54.59
   0  -1  -210448.27   45.94
   0   1   210835.60   43.96
  -1   1   210611.47   55.07
  -1   1   210495.86   38.52
   1   0   210271.13   52.42
  -1   0   210978.16   55.12
  -1   0  -210711.57   34.85
   0   1   210120.15   52.45
   1  -1   210741.07   52.15
  -1   0   210101.38   52.08
   0   1  -210557.53   54.80
  -1   0  -210556.40   54.88
   1   0  -210776.93   56.02
   1   0   210625.61   46.21
   0  -1   210590.68   39.50
   1   0   210528.37   34.59
  -1   1   210626.25   42.89
   1   0  -210678.96   55.43
   0  -1   210793.29   55.37
  -1   1  -210450.09   53.00
  -1   1   210536.25   53.91
   1   0  -210518.32   51.82
  -1   1   210720.09   46.05
  -1   0  -210305.91   45.65
   0  -1   210406.25   53.85
   1  -1  -210709.84   38.52
  -1   1   210346.45   54.49
  -1   0   210690.24   43.18
   1  -1  -210401.13   53.58
   1  -1   210573.59   52.95
   1   0   210493.79   54.70
   0   1  -210336.25   51.97
   0  -1   210529.84   45.69
   1   0  -210053.55   52.68
   1  -1   210622.65   45.71
   0   1  -210501.17   54.11
  -1   0  -210741.66   33.39
   1   0  -210560.14   53.03
  -1   0   210491.67   54.64
   0  -1  -210911.46   43.90
  -1   0   210478.91   45.81
   0   1   210603.59   51.00
   1   0  -210733.09   43.23
   0  -1  -210225.22   50.50
   0  -1  -210856.29   55.26
   1  -1  -210301.57   45.43
   0   1  -210503.24   39.45
   1   0  -210471.08   46.00
   0   1  -210218.57   53.11
  -1   1  -210470.68   46.07
   0   1  -210542.70   45.70
   1  -1  -210332.90   42.09
  -1   1   210552.65   41.50
   1  -1  -210039.02   41.77
  -1   0  -210512.21   47.39
  -1   0   210602.01   53.21
  -1   1   3  683.89   17.37
  -1   1   3  688.95   22.12
   1  -1   3  686.89   21.88
   1  -1  -3  682.03   19.39
  -1   0  -3  684.52   15.03
  -1   1  -3  680.21   21.30
   1   0  -3  680.04   23.48
   0  -1  -3  686.39   17.40
   1  -1  -3  686.02   17.12
   0  -1  -3  719.91   21.16
   1   0  -3  684.54   23.92
   1  -1  -3  680.02   23.41
  -1   0   3  681.95   23.06
  -1   1  -3  682.23   21.26
   1   0   3  688.46   14.78
  -1   0   3  687.94   17.16
   1   0  -3  684.59   23.46
  -1   0   3  688.09   23.62
  -1   0  -3  681.85   17.58
   1   0   3  683.23   17.55
   1  -1  -3  688.24   23.47
   0   1  -3  685.42   23.50
   0   1  -3  687.20   22.19
   1  -1  -3  688.77   19.74
  -1   0   3  684.83   21.15
   0   1   3  680.11   17.35
   1   0  -3  683.20   22.86
   0   1  -3  686.77   17.27
   0   1  -3  687.34   22.89
  -1   0  -3  684.60   17.11
   0  -1   3  683.61   24.00
  -1   0  -3  684.30   23.32
   1  -1   3  680.45   17.18
   1   0  -3  688.94   17.46
   1   0   3  685.94   23.37
   0   1  -3  684.54   23.78
   1  -1  -3  686.94   15.28
   0   1  -3  687.29   17.01
  -1   1   3  688.51   15.20
  -1   1   3  689.58   23.53
   0  -1   3  682.79   16.74
   0  -1  -3  686.51   24.11
   0  -1  -3  683.61   23.53
   0   1   3  687.28   21.47
   1   0  -3  680.07   21.43
   0   1  -3  680.19   22.95
  -1   1  -3  687.08   22.46
   1   0   3  684.35   17.38
  -1   1   3  687.00   19.37
   1  -1  -3  683.65   20.60
  -1   1   3  680.60   19.94
   0  -1   3  688.91   23.94
  -1   1   3  686.85   23.67
   0  -1  -3  684.59   20.08
   0  -1   3  689.89   17.35
   1  -1  -3  684.36   22.73
  -1   1   3  682.10   21.66
  -1   0   3  685.47   17.88
   1   0  -3  680.48   23.82
   1  -1   3  688.20   21.85
   0  -1   3  681.12   23.46
   1   0  -3  688.61   17.92
  -1   1  -3  686.05   16.98
   0   1   3  683.54   20.11
   1   0  -3  683.45   23.48
   1  -1   3  687.28   22.83
   0   1   3  683.95   23.03
  -1   0   3  688.62   23.49
  -1   0   3  689.49   22.94
  -1   0  -3  688.48   23.37
   0  -1  -4   12.91    4.89
  -1   1  -4   10.69    3.08
   0  -1  -4   16.98    5.20
   1  -1   4   10.89    4.98
  -1   0   4   10.63    3.11
   1   0   4   14.61    5.82
  -1   1   4   14.86    5.32
   0   1   4   11.85    5.25
  -1   0  -4    6.85    5.33
   1  -1  -4   10.76    4.48
   0  -1  -4   11.75    5.69
   1  -1  -4   16.97    5.70
   0   1   4   13.10    3.22
   1  -1  -4   11.85    5.20
   0  -1  -4    1.89    4.64
  -1   0   4   11.55    5.74
   1  -1   4   17.03    5.65
   0   1  -4    9.33    3.18
  -1   1   4    9.92    2.88
   1   0  -4   15.19    5.23
   0  -1   4    9.84    5.71
   0  -1  -4    7.42    4.80
   1  -1   4   10.60    3.06
   0  -1  -4   10.04    3.16
  -1   1  -4   15.40    5.03
  -1   0   4    9.82    5.74
   1   0  -4    7.30    5.16
  -1   0  -4   11.71    4.08
   0  -1   4   15.58    6.60
   1   0  -4   12.04    5.81
   0   1  -4   12.13    3.00
   0   1  -4   10.16    5.17
  -1   0  -4    7.79    5.43
   1  -1  -4    9.45    4.62
  -1   1   4    8.33    4.78
   1   0   4    9.90    3.20
  -1   0   4   10.20    3.46
  -1   1   4    7.33    2.82
  -1   0  -4   12.04    3.32
   1  -1  -4    7.85    2.93
   1   0   4   19.16    3.83
   0   1  -4   12.22    5.94
   0  -1   4    9.72    3.65
   0  -1   4   10.17    6.01
  -1   0   4   15.03    4.70
  -1   1   4    8.75    5.99
   1   0  -4   30.55    6.86
   0   1  -4    7.34    4.93
   1  -1  -4    7.58    3.03
  -1   1  -4   14.51    5.23
   0   1  -4   12.59    3.81
   1   0  -4   11.45    4.32
  -1   1   4    8.59    4.77
   0  -1  -4    9.32    3.21
   1   0  -4    6.58    3.10
   1   0   4    8.12    3.97
   1   0  -4    9.60    4.73
   1   0  -4    7.75    6.45
   0   1  -4    8.93    5.33
  -1   0   4   13.71    6.24
   0   1   4    8.70    5.80
   1  -1   4   10.86    4.63
  -1   1  -4   13.17    4.86
  -1   1  -4   12.51    5.30
   0   1  -4   12.78    5.51
   0   1  -4    3.99    5.34
  -1   1   4   11.77    5.85
  -1   1   4    8.54    4.56
   1   0  -4   23.98    6.80
   1  -1  -4   18.04    6.24
  -1   0  -4    9.39    3.11
   0  -1   4   10.56    3.07
  -1   1  -4   14.00    5.88
   1  -1  -4   20.54    5.88
   1  -1   5  100.93   12.35
  -1   1  -5  101.03    7.82
   0   1  -5  102.30   13.49
   1   0   5  100.66   11.83
   0  -1   5  100.70   13.81
   1  -1  -5  101.25   13.06
   1  -1  -5  107.54   14.12
  -1   1  -5  100.06   13.69
   0   1   5  102.31   14.39
  -1   1  -5  100.43   13.13
   0  -1  -5  100.35   10.12
   1  -1  -5  101.63    7.95
  -1   1   5  102.92   14.10
   1   0  -5  100.86   14.34
  -1   1  -5  103.38   12.94
   0   1  -5  100.59   12.64
  -1   0  -5  100.17    9.76
   1  -1   5  104.81   12.62
   1  -1  -5  107.65   12.28
  -1   0   5  102.87   13.84
   0   1  -5  100.50    9.31
   0  -1  -5  100.66   13.41
   0  -1  -5  100.24   12.59
   0  -1   5  102.92   10.06
  -1   1   5  100.20   13.61
  -1   0  -5  100.17   13.08
   0   1   5  100.11   12.58
   1  -1  -5  100.36    8.79
  -1   0   5  100.10   14.30
  -1   0   5  100.62   10.61
   1   0   5  100.71   14.68
  -1   1   5  100.34   11.89
  -1   1   5  100.50    7.87
   1   0  -5  100.74   14.34
  -1   0   5  100.08    8.00
   1   0  -5  100.81    8.02
  -1   0   5  100.67   11.64
   0   1  -5  100.54   13.83
   1   0  -5  100.86   13.65
  -1   0   5  100.35   13.51
  -1   0  -5  100.86    7.72
   1   0   5  100.54    7.93
   1  -1  -5  100.25   13.87
  -1   1   5  100.96    8.66
   1  -1   5  100.47   13.33
   1   0  -5  100.89   11.96
  -1   0  -5  101.12   11.74
   1   0  -5  100.61   14.20
   1  -1  -5  101.19   11.74
   0   1  -5  100.99   13.63
   0   1  -5  101.24   13.37
   1  -1  -5  101.21   12.42
  -1   0  -5  100.80   13.86
   1   0  -5  100.79   13.23
   1   0  -5  100.41   13.98
  -1   1  -5  100.75   12.52
   0   1  -5  100.51    7.80
   0  -1  -5  101.27   12.63
   1  -1   5  100.76    7.74
   1   0   5  100.91   10.10
  -1   1   5  100.59   12.80
   0  -1  -5  101.02   13.30
   0   1  -5  101.19   10.22
   0  -1   5  101.26    7.74
  -1   1   5  101.14   12.29
   1   0  -5  100.44   10.97
   0  -1  -5  100.74    7.97
   1  -1  -5  100.99   12.21
  -1   1   5  100.68   12.82
   0  -1   5  100.00   13.81
  -1   1  -5  100.95   12.04
   0   1  -5  100.74   13.94
   0   1   5  100.95    8.14
   0  -1  -5  100.47   13.28
   0   1  -6  228.50   14.25
  -1   0  -6  224.95   11.36
   1   0   6  229.73   11.16
   0  -1   6  229.23   15.45
   0   1  -6  222.50   14.17
   1  -1  -6  221.64   13.46
  -1   0  -6  227.06   15.18
  -1   0   6  220.80   14.72
  -1   0   6  221.06   12.31
  -1   1  -6  221.60   14.05
  -1   0   6  227.29   15.14
  -1   1  -6  224.27   15.10
  -1   1  -6  227.27   13.62
  -1   0   6  228.26   15.29
   0   1   6  223.04    7.72
   1   0  -6  225.38   14.80
   0  -1  -6  224.63   13.79
   1   0  -6  221.35   14.51
   0  -1   6  221.53   14.68
  -1   1   6  220.99   13.84
   1  -1  -6  228.91   14.39
   1   0  -6  229.92   10.69
   0   1   6  222.67   14.71
  -1   0  -6  220.60   14.40
   1  -1   6  227.39   13.65
  -1   1   6  225.40    9.78
   1  -1   6  225.99   13.72
  -1   1  -6  225.84   14.26
   0   1  -6  228.65   10.42
  -1   1  -6  222.60   13.71
   0   1  -6  226.19    7.53
   0  -1  -6  224.80   13.79
   1   0  -6  229.17   15.21
   0  -1   6  229.81   15.44
   1   0  -6  222.91   15.63
   0   1  -6  228.10   14.58
   0   1  -6  227.85   15.51
   1  -1  -6  223.67   15.42
   1  -1  -6  221.56   14.35
  -1   1   6  223.93   14.72
   1  -1  -6  227.38    9.72
   0   1  -6  223.40   11.08
   0  -1  -6  226.06    7.85
  -1   0   6  223.48   11.59
   0   1  -6  221.70   13.42
   1  -1   6  227.62    7.44
   0  -1  -6  223.93   11.59
   1  -1  -6  228.36   13.39
   0  -1  -6  221.92   15.05
   0   1  -6  220.58   14.67
  -1   0   6  229.41   15.21
  -1   0  -6  225.51   14.71
   0  -1   6  229.76    7.50
   0  -1  -6  226.84   14.32
   1  -1  -6  227.22    7.69
   1   0  -6  226.41   14.60
   1   0  -6  227.55   12.68
   1   0  -6  225.32   15.07
   0  -1  -6  229.95   14.28
   0   1   6  228.90   14.32
   1  -1  -6  222.37   13.35
  -1   0  -6  228.34   13.06
   1   0   6  223.27    7.53
   1   0  -6  221.87   12.12
   1   0   6  227.75   13.16
   1   0  -6  223.22    7.68
  -1   1   6  225.85   14.03
   0  -1  -6  223.34    8.23
  -1   1   6  226.24   14.95
   1  -1  -6  223.71   13.34
   1   0   6  229.51   15.49
   1  -1   6  225.76   14.76
   1   0  -7  291.52   15.23
  -1   0  -7  295.50   14.99
  -1   0   7  297.80   15.92
   0  -1   7  299.89   16.32
  -1   0  -7  296.69   15.10
  -1   0   7  292.17   16.14
  -1   1  -7  298.34   14.72
   1  -1   7  295.24    6.72
   0  -1   7  297.12   16.23
   0  -1  -7  290.99    7.13
   0  -1  -7  297.57   12.21
  -1   1   7  292.71   15.45
   0   1  -7  292.09   12.31
   1   0  -7  290.89   11.32
   1  -1  -7  294.54   10.44
   1   0  -7  298.01   15.75
   0   1  -7  294.64   16.25
   0   1   7  296.61   16.75
   1   0  -7  294.84   13.03
   1  -1   7  296.95   14.64
   0  -1  -7  296.35   15.36
  -1   1  -7  299.88   15.46
   1   0  -7  290.14   16.38
   0   1  -7  293.53   14.06
   1   0  -7  291.98   15.81
   1   0   7  298.40   12.28
   1  -1  -7  291.93   14.61
  -1   0  -7  297.08   15.34
   1  -1  -7  293.88   14.51
   0   1  -7  299.07   15.54
   0  -1  -7  294.12    9.33
   0  -1  -7  307.59   16.60
   0   1   7  294.13    6.87
   1   0  -7  298.32   12.98
  -1   0  -7  293.21   13.76
   1   0   7  295.99   15.15
  -1   1  -7  296.11   14.03
  -1   0   7  291.95   12.69
   1   0   7  296.58   14.13
   1   0  -7  299.86    6.82
  -1   1   7  297.87   14.55
   0  -1  -7  297.90   15.16
   1   0  -7  294.47    6.90
   0   1  -7  298.67    6.70
   1   0  -7  296.51   15.39
   0   1   7  294.01   15.15
   1  -1   7  290.93   16.06
   1   0   7  298.18    6.77
   0   1  -7  295.11   15.76
   0  -1  -7  291.97   15.37
   1  -1  -7  295.38    7.00
   0   1  -7  292.54   10.78
   1  -1  -7  295.67   14.19
   0  -1   7  292.02   15.61
   1  -1  -7  292.62   13.66
  -1   1   7  296.87   15.32
   0   1  -7  298.15   16.01
   0  -1  -7  297.68   15.13
   1  -1  -7  294.28   16.29
   1  -1  -7  293.01   15.89
   0  -1  -7  291.37   14.15
  -1   0   7  291.47   16.14
  -1   1   7  292.95   15.18
   1  -1  -7  320.11   16.92
   1   0  -7  297.43   15.47
  -1   0   7  292.86   15.91
   1  -1  -7  298.18    6.88
  -1   0  -7  297.84   11.83
  -1   1  -7  291.83   14.69
   0   1  -7  291.35   14.84
  -1   0   7  297.88   12.39
  -1   1  -7  298.16   15.62
  -1   1  -8  101.81   12.22
   1  -1  -8  100.14   11.35
   0  -1  -8  101.94   12.45
  -1   0  -8  103.66   13.18
   1  -1  -8  108.12   11.35
   0  -1  -8  102.17   12.41
   1   0  -8  104.61    4.04
   1  -1  -8  102.56   10.72
  -1   0  -8  109.29   11.84
  -1   1  -8  102.70   12.39
  -1   1   8  107.97   12.21
   0   1  -8  101.88   11.83
   1   0  -8  108.37   10.11
   1   0   8  103.70   12.22
   0   1  -8  103.92   11.66
  -1   1  -8  103.48   12.27
   0   1  -8  105.28   12.70
   1   0  -8  107.45   12.45
   1  -1  -8  109.61    8.02
  -1   0   8  106.24   12.80
   0   1   8  104.26   12.64
   0  -1  -8  101.61    9.68
   0  -1   8  105.70   12.49
   1  -1  -8  106.02   12.75
   0   1  -8  108.05   10.68
   1  -1   8  108.01   11.42
   1   0  -8  103.35    9.99
   1   0  -8  101.85   11.75
   1  -1  -8  100.38   10.61
   0   1  -8  101.59    9.02
   1  -1  -8  108.02    4.01
   1   0  -8  106.32   12.38
   1   0  -8  100.98    3.97
  -1   1  -8  107.58   11.89
   0  -1  -8  106.20   11.67
   0  -1   8  104.04   13.40
   0   1  -8  106.78   12.69
   1   0  -8  102.91   12.41
   1   0  -8  108.63    9.08
   0  -1  -8  100.07   11.99
   0  -1  -8  103.52   11.85
   0  -1  -8  101.57   12.36
   1  -1  -8  104.66   13.35
  -1   0   8  100.08   13.45
   1  -1   8  107.35   12.61
   0  -1  -8  108.45    7.49
   0   1  -8  107.85    9.68
  -1   0  -8  104.56   11.70
   1  -1  -8  108.56    4.01
  -1   0  -8  101.21    9.81
   1  -1  -8  108.20   12.19
   1   0  -8  102.02   13.20
  -1   1   8  106.23   12.97
  -1   1  -8  107.70   11.65
  -1   1   8  104.89   12.34
   0  -1   8  106.23   13.40
   0   1   8  104.87   12.61
   1   0   8  107.33   11.23
  -1   0  -8  100.47   12.89
  -1   0  -8  105.84   11.28
  -1   1  -8  102.71   11.49
   1   0   8  102.48    9.78
   0  -1  -8  100.27    4.02
  -1   0   8  107.31   12.74
   1   0  -8  106.95   12.10
   0   1  -8  106.56   12.35
   1  -1  -9 1056.93   30.74
   0  -1  -9 1095.89   32.95
   0  -1  -9 1025.74   26.98
  -1   1  -9 1066.14   34.01
   0  -1   9 1107.69   34.99
  -1   1  -9 1066.55   30.23
   0   1  -9 1044.08   34.00
   0  -1  -9 1097.76   33.20
   0   1  -9 1029.94   33.90
   0  -1  -9 1024.84   31.19
  -1   0  -9 1027.92   33.55
   0   1  -9 1054.44   29.82
   1   0   9 1121.87   35.09
   1   0   9 1020.89   31.15
   1   0  -9 1031.71   34.03
   0  -1  -9 1095.19   34.46
   0   1  -9  944.35   24.51
   1  -1   9 1063.55   30.71
   1   0  -9 1022.18   32.80
   0  -1  -9  970.36   30.74
  -1   0  -9 1016.63   30.79
   1  -1  -9 1013.92   33.51
   0   1   9 1074.31   32.96
   1  -1  -9 1052.84   31.62
  -1   1   9  984.68   32.79
   0   1  -9 1048.02   33.85
  -1   0   9 1093.68   34.93
   0  -1  -9 1013.73   21.07
  -1   1  -9 1042.95   28.72
   1  -1  -9 1052.57   23.25
   1   0  -9 1205.01   36.67
  -1   0   9 1028.79   34.38
   1  -1   9 1018.50   33.15
   1  -1  -9  938.14   32.39
  -1   0  -9 1052.75   27.03
  -1   0  -9 1063.29   33.66
   1   0  -9 1067.60   33.50
   1   0   9 1045.96   27.49
   1  -1  -9  964.89   32.87
  -1   1  -9 1041.23   33.93
   1   0  -9 1041.71   27.69
   1  -1  -9 1044.79   30.61
  -1   1  -9 1019.28   33.59
   0  -1   9 1027.00   32.38
   0   1  -9 1032.85   31.91
  -1   0  -9 1106.29   31.99
   0   1  -9 1026.52   26.56
  -1   1   9 1041.95   34.07
   0  -1  -9 1004.79   32.04
   0  -1   9 1032.22   33.90
   1   0  -9 1024.81   31.91
  -1   1   9 1013.70   32.38
  -1   0   9 1063.19   33.96
  -1   1  -9 1010.90   29.54
   0   1  -9  996.08   33.42
  -1   1  -9 1005.31   27.88
   0   1   9 1056.55   34.19
   1  -1  -9 1050.05   32.09
   1   0  -9 1012.39   25.30
  -1   1  -9 1023.05   31.96
   1   0  -9 1056.53   34.72
   1   0  -9 1035.19   27.74
  -1   0  -9  986.68   31.28
   1   0 -10 2152.54   39.26
   1   0 -10 2166.34   41.81
  -1   1 -10 2221.91   49.41
   0   1  10 2157.28   49.38
  -1   0 -10 2141.24   49.00
   0  -1 -10 2138.73   32.45
   1  -1  10 2129.29   45.52
   1  -1 -10 2199.58   46.35
   1   0 -10 2142.08   41.65
   0  -1 -10 2005.62   40.20
   0  -1 -10 2101.87   46.38
  -1   0 -10 2158.43   41.29
   0  -1  10 2106.68   51.47
   0   1 -10 2014.00   37.97
  -1   1 -10 2115.45   45.42
   1  -1 -10 2226.94   46.86
  -1   0 -10 2177.14   47.56
  -1   0 -10 2196.70   47.25
   1   0  10 1903.56   48.65
   1   0 -10 2238.86   49.65
   1   0  10 2145.90   47.37
   1  -1  10 2342.72   52.71
   1  -1 -10 2188.88   51.56
  -1   0  10 2173.28   50.63
   0  -1 -10 2082.14   48.81
   0   1 -10 2217.81   48.84
   0  -1 -10 2041.39   48.52
  -1   0  10 2184.98   52.07
   0  -1  10 2074.86   50.83
  -1   1 -10 2096.76   43.12
   0  -1 -10 2063.46   46.46
   0   1 -10 2077.07   43.69
   0   1  10 2018.72   49.69
   0  -1 -10 2108.14   47.57
   0  -1  10 2122.58   48.42
   1  -1 -10 2093.10   34.93
  -1   1  10 2171.18   51.33
   0   1 -10 2137.95   40.73
  -1   0  10 2187.99   52.29
  -1   1  10 2007.13   49.05
  -1   1 -10 2122.69   44.97
   1  -1 -10 2110.60   47.09
  -1   0 -10 2148.68   47.57
  -1   0 -10 2100.72   38.18
   1   0  10 2149.65   41.84
  -1   1 -10 2126.04   42.78
   1   0 -10 2218.90   52.76
   1   0 -11  254.92   14.87
  -1   1 -11  250.28   15.94
   1   0 -11  251.81   15.59
  -1   0 -11  258.50   18.19
  -1   0  11  255.25   18.48
  -1   1 -11  251.29   15.86
   1  -1 -11  253.37   16.98
   1  -1 -11  258.82   17.20
   0  -1 -11  250.69   15.62
  -1   0 -11  252.60   14.91
   0  -1 -11  259.89   12.02
  -1   0  11  254.43   19.60
   1  -1 -11  252.84   19.78
   1  -1  11  250.88   17.35
   1  -1  11  258.85   19.41
   1  -1 -11  256.31   13.05
   1   0 -11  251.50   19.71
  -1   1  11  256.51   20.44
   0   1  11  259.40   19.16
  -1   1 -11  256.87   17.34
   0   1 -11  256.83   21.09
   1   0 -11  259.42   15.24
   0   1  11  255.40   18.95
  -1   0 -11  257.38   14.02
  -1   0 -11  252.59   18.16
   0  -1 -11  258.04   18.47
  -1   1  11  258.15   20.17
  -1   0 -11  257.07   19.43
   0  -1  11  251.43   18.46
   0   1 -11  258.24   16.60
   0   1 -11  259.69   15.74
   1   0  11  259.78   19.87
  -1   1 -11  256.61   15.84
   1   0  11  255.24   18.24
   0  -1  11  259.03   19.17
   1  -1 -11  257.49   16.06
   0  -1 -11  258.29   17.58
   0  -1 -11  254.91   17.77
   0   1 -11  250.10   14.55
   0   1 -12  220.83   19.73
   0  -1 -12  223.53   15.10
  -1   0  12  225.18   19.96
   1   0  12  228.11   17.39
   1   0 -12  227.21   14.95
  -1   1  12  229.87   18.41
   0   1 -12  222.62   14.13
   0  -1  12  221.40   17.85
   0  -1 -12  220.97   11.28
   0   1  12  226.36   18.50
  -1   0 -12  229.27   19.30
   1  -1 -12  222.19   16.69
  -1   0 -12  222.69   17.12
   1   0 -12  222.49   19.07
   1  -1  12  229.37   16.31
   0  -1 -12  224.25   17.62
  -1   0 -12  225.03   13.71
  -1   1 -12  220.91   16.17
  -1   0  12  229.73   20.04
   1   0 -12  220.46   14.93
   0   1  12  224.82   18.43
  -1   1 -12  226.79   15.16
   0  -1 -12  221.51   17.05
   0   1 -12  223.74   15.29
   1   0 -12  225.57   14.77
   1  -1 -12  229.16   19.62
   0  -1 -12  228.61   17.81
   1  -1 -12  223.02   12.71
  -1   0 -12  225.75   14.90
   0   1 -12  229.85   15.37
   1   0  12  220.75   19.86
   1  -1  12  227.49   19.12
  -1   1  12  229.25   18.98
  -1   1 -12  226.74   14.89
  -1   0 -12  224.58   16.59
   1  -1 -12  225.11   15.84
  -1   1  13  348.59   25.36
   0   1  13  325.24   23.62
   0  -1  13  339.77   23.12
  -1   0 -13  308.79   23.10
   1  -1  13  338.03   22.02
   0  -1 -13  339.81   24.38
   0   1 -13  339.78   19.78
   1   0  13  343.07   23.50
   0   1 -13  348.05   25.54
   1  -1  13  344.12   25.19
   0  -1 -13  333.73   15.60
  -1   0 -13  351.09   22.46
   0   1 -13  348.90   19.34
   1   0 -13  353.56   19.32
   1   0  13  377.13   26.16
   1   0 -13  322.12   19.65
  -1   0  13  344.61   25.58
  -1   0 -13  347.40   22.13
  -1   1 -13  327.88   20.37
  -1   1 -13  336.77   21.50
   0  -1 -13  262.11   19.91
  -1   0 -13  326.55   17.76
   0   1  13  354.46   25.44
  -1   1 -13  339.70   20.02
   1  -1 -13  323.29   20.46
  -1   1  13  385.70   26.74
  -1   1 -13  354.03   25.26
   1   0 -13  331.77   24.76
   1  -1 -13  319.94   21.48
   1  -1 -13  338.60   16.62
   1   0 -13  349.78   19.67
   0  -1 -13  345.80   22.27
   1  -1 -13  346.59   25.17
   0   1 -13  347.94   20.84
  -1   0 -14  813.03   34.72
   0  -1 -14  844.39   38.86
   1   0 -14  839.34   32.50
   1   0 -14  799.62   30.03
   0   1 -14  824.58   31.45
   0   1  14  842.54   39.89
  -1   0 -14  836.34   28.88
   1  -1  14  927.38   41.86
  -1   1 -14  832.78   39.22
   0  -1 -14  783.39   34.50
   1  -1 -14  823.30   39.25
  -1   1  14  851.94   40.17
  -1   0  14  860.63   40.42
  -1   0 -14  799.37   34.95
  -1   1 -14  770.15   33.17
  -1   0 -14  825.94   38.44
   1   0  14  827.90   39.77
   0  -1 -14  553.59   29.54
   0   1 -14  779.93   29.81
   0  -1 -14  766.04   24.17
   1   0 -14  831.62   40.04
  -1   1 -14  817.83   32.69
   0   1 -14  807.41   32.42
   1  -1 -14  819.10   26.09
   1  -1 -14  796.35   32.47
   0   1 -14  781.11   39.03
   1  -1 -14  706.12   32.59
  -1   1 -14  805.17   31.63
  -1   1  14  839.51   39.63
   0   1  14  778.90   37.07
   1   0 -14  793.15   29.92
   1  -1  14  804.23   34.56
  -1   1 -15  194.97   18.35
  -1   0 -15  209.92   19.78
   0  -1 -15  182.95   19.81
  -1   1 -15  230.85   18.86
   1  -1 -15  240.65   20.50
   1   0 -15  208.82   22.39
   1   0 -15  241.49   19.04
  -1   0 -15  212.96   21.92
   0   1  15  234.68   23.08
  -1   1  15  235.17   23.29
   0  -1 -15  224.38   19.84
   1  -1 -15  231.42   22.85
  -1   0 -15  206.61   15.68
   1   0 -15  215.65   16.96
   0   1 -15  220.09   22.89
   0  -1 -15  156.09   17.29
   0   1  15  243.03   23.05
   0   1 -15  204.77   16.94
   1  -1 -15  226.73   18.90
   1   0 -15  202.18   16.41
  -1   0 -15  215.31   19.83
  -1   1 -15  207.51   17.48
  -1   1 -15  211.03   21.93
  -1   1  15  271.03   25.12
   1  -1  15  232.48   23.44
   1   0  15  236.51   23.75
   0   1 -15  219.22   17.64
   0   1 -15  237.31   18.76
   1   0 -16   70.72   15.37
  -1   1 -16   75.44   14.81
   0  -1 -16   54.98   12.97
  -1   1  16   62.50   14.75
   1  -1 -16   68.59   15.63
   0  -1 -16   78.37   13.60
  -1   1  16   62.49   14.67
   1   0 -16   55.77   10.60
  -1   1 -16   67.68   11.93
  -1   0 -16   82.29   13.78
   0   1  16   73.97   16.24
  -1   0 -16   53.07   13.87
  -1   1 -16   90.38   12.92
  -1   1 -16   76.77   11.62
   1   0  16   46.58   13.94
   1  -1 -16   87.66   14.31
   1  -1  16   76.34   15.68
   0   1 -16   82.73   16.09
   1   0 -16   60.90   10.52
   0   1 -16   69.04   11.26
  -1   0 -16   59.43   11.99
   0  -1 -16   96.01   15.43
   1  -1 -16   69.90   12.02
   0   1 -16   59.24   11.38
   0   1  16   82.79   16.04
   0   1 -16   69.47   10.94
   0  -1 -17   21.72   11.19
   0  -1 -17   32.24   10.50
   1  -1 -17   43.80   13.40
  -1   0 -17   19.01   11.46
   0  -1 -17   30.12   12.24
   1  -1 -17   22.29   10.93
   1   0  17   16.05   11.93
  -1   0 -17   37.41   11.83
  -1   0 -17   29.73   11.42
   1   0 -17   25.02   12.35
  -1   1 -17   23.10    9.34
   1  -1 -17   24.51    9.07
   0   1 -17    4.65    9.01
  -1   1  17   18.40   11.35
   0   1  17   30.29   14.03
   0   1  17   30.14   12.46
  -1   1 -17   14.97    9.33
  -1   1 -17   14.39    7.72
  -1   0 -18  233.91   25.67
   1  -1 -18  195.57   21.56
  -1   0 -18  219.96   22.90
   0  -1 -18  193.46   23.67
   0  -1 -18  202.10   21.93
  -1   0 -18  169.33   19.83
   0  -1 -18  187.03   20.73
  -1  -1 -19    6.23    9.63
  -1  -1 -19   -0.35   10.99
  -1  -1 -18    4.63    9.05
  -1  -1 -18   15.04   12.59
  -1  -1 -18   16.57   11.34
  -1   2 -17    3.73    9.73
   1   1  17   17.76   11.68
  -1  -1 -17   13.54   11.13
   2  -1 -17   -4.40   10.91
   2  -1 -17    4.87    8.76
  -1   2 -17   -2.48    7.67
  -1  -1 -17   18.17   12.40
  -1  -1 -17    1.64    9.30
  -2   1  17    8.87   10.29
  -1  -1 -16  579.17   35.04
  -1  -1 -16  556.29   33.58
  -2   1  16  571.22   37.15
  -1   2 -16  631.36   38.79
  -1   2 -16  569.50   31.39
   2  -1 -16  577.01   37.61
   1   1  16  568.54   36.85
   2  -1 -16  580.64   31.30
  -1   2 -16  556.01   29.45
  -1  -1 -16  558.20   33.20
   1  -2  16  585.12   34.56
   1   1  16  582.21   34.52
  -1  -1 -15   -5.13    9.27
   1   1  15    2.77    8.99
  -1   2 -15   -4.04    7.29
   1  -2  15  -10.38   10.06
   2  -1 -15   -2.96    7.75
  -1  -1 -15    4.95    7.93
   2  -1 -15   -0.47    6.33
   1   1  15    0.75    9.96
  -1   2 -15   -0.83    5.95
  -1   2 -15   -0.04    8.34
  -1  -1 -15    2.59    8.91
  -2   1  15    1.32    9.28
   2  -1 -15   -3.77    9.82
  -1   2 -15   -4.70    6.81
  -2   1  14  135.51   18.47
  -1  -1 -14  109.59    9.72
   2  -1 -14  118.11   12.73
   1   1  14  101.02   14.63
  -1   2 -14  112.03   13.83
  -1   2 -14  128.60   12.66
   2  -1 -14  128.92   14.96
   2  -1 -14  113.61   11.49
   1   1  14  112.10   16.81
  -1  -1 -14  109.31   15.44
  -1  -1 -14   93.58   14.12
  -1  -1 -14   90.97   14.44
   2  -1 -14  130.19   17.56
  -1   2 -14  114.51   13.60
   1  -2  14   93.62   14.19
  -1  -1 -13   -1.60    4.27
  -2   1  13    1.15    8.56
  -1  -1 -13   -3.48    8.20
  -1   2 -13   -2.96    6.91
   1   1  13    4.39    9.17
  -1   2 -13    0.24    6.26
  -1  -1 -13    1.45    8.23
   2  -1 -13    0.99    4.65
   1   1  13   -0.66    7.20
   2  -1 -13    3.10    6.88
   2  -1 -13    1.99    8.43
   2  -1 -13    4.96    6.59
  -1   2 -13   -0.51    5.44
  -1  -1 -13    4.55    7.92
   1  -2  13   -0.59    7.47
  -2   1  13   -3.65    8.55
  -1  -1 -13    1.59    5.13
   1   1  12 1784.35   48.40
  -1   2 -12 1807.25   39.94
   2  -1 -12 1791.51   53.70
  -2   1  12 1693.03   50.10
   2  -1 -12 1899.62   46.68
  -1   2 -12 1738.46   43.67
  -2   1  12 1721.41   52.88
  -1   2 -12 1699.61   46.03
   2  -1 -12 1729.08   38.65
   1   1  12 1867.67   54.38
   1  -2  12 1743.52   49.37
  -1  -1 -12 1761.68   49.03
   2  -1 -12 1714.63   39.88
  -1  -1 -12 1650.87   48.89
  -1  -1 -12 1431.11   45.05
  -1  -1 -12 1664.27   36.94
  -1  -1 -12 1698.04   32.57
   1   1  11   19.04   10.55
   2  -1 -11   11.01    9.93
   2  -1 -11    6.16    6.90
   1  -2  11   -2.75    7.10
  -2   1  11    8.51    8.61
   2  -1 -11    4.29    5.61
  -1  -1 -11    3.67    8.38
  -1   2 -11    5.14    7.40
  -1   2 -11    4.91    6.36
  -1   2 -11    1.79    5.20
   2  -1 -11    7.59    6.23
  -1  -1 -11    5.97    7.67
  -2   1  11    3.93    9.75
   1   1  11    6.18    7.62
  -1  -1 -11    8.65    7.82
  -1  -1 -11    5.58    5.70
  -1  -1 -11    5.58    4.75
  -1  -1 -10  231.92   16.55
   2  -1 -10  231.39    7.92
   1  -2  10  217.79    7.45
  -1  -1 -10  221.93   16.29
   1   1  10  238.50   16.74
  -1  -1 -10  249.65   18.18
   1   1  10  235.45    7.78
  -1   2 -10  230.16   15.11
   2  -1 -10  283.81   17.50
   2  -1 -10  253.62   18.12
  -2   1  10  246.44   19.45
  -1  -1 -10  217.24   17.57
  -1   2 -10  219.16   13.13
  -1   2 -10  229.12   16.59
  -1   2 -10  230.59    7.60
   2  -1 -10  224.40    7.88
   1  -2  10  243.94   17.88
  -2   1  10  228.46   15.76
   2  -1 -10  231.84   18.99
  -1  -1 -10  231.32   12.74
   2  -1 -10  257.56   14.54
  -2   1  10  224.98   17.73
   1   1  10  270.87   19.79
  -1  -1  -9    4.57    6.41
  -1   2  -9    4.78    5.63
  -2   1   9    2.52    6.67
   2  -1  -9    9.65    8.42
  -1  -1  -9    2.70    3.60
   2  -1  -9    1.55    5.55
   1   1   9    2.38    2.74
  -1   2  -9    0.18    5.83
   1   1   9    3.54    5.85
   1   1   9   -1.90    6.70
  -1   2  -9    2.03    2.53
  -1  -1  -9    0.85    5.53
   2  -1  -9    3.32    2.81
  -2   1   9    3.03    5.36
   1  -2   9    2.44    5.09
  -1   2  -9    6.11    7.34
   1  -2   9    2.38    2.51
   2  -1  -9   18.11    9.05
  -1  -1  -9    0.03    5.70
  -2   1   9   -4.72    7.14
  -1  -1  -9    1.41    6.65
  -1  -1  -9    0.96    2.57
  -1   2  -9    3.77    4.52
  -1   2  -9    4.21    5.98
  -2   1   9    4.91    4.82
   2  -1  -9    6.33    6.09
  -2   1   9   -2.20    6.42
   1  -2   9    6.13    6.97
   2  -1  -9   22.39    9.47
  -1  -1  -9    5.69    7.46
  -1   2  -9    4.21    5.42
   2  -1  -9    2.41    2.55
   1  -2   9    4.67    7.53
   2  -1  -9    8.23    7.43
   2  -1  -9    3.71    4.56
   1  -2   8 2392.38   39.81
   2  -1  -8 2397.20   45.24
  -1  -1  -8 2399.96   47.26
  -1   2  -8 2393.46   46.93
  -2   1   8 2394.88   37.01
  -1  -1  -8 2397.69   45.39
  -1  -1  -8 2395.41   27.45
  -1   2  -8 2391.59   46.88
  -2   1   8 2390.50   39.99
   1  -2   8 2395.78   46.78
  -2   1   8 2396.75   48.58
   2  -1  -8 2398.72   48.69
  -1   2  -8 2398.25   39.63
   1  -2   8 2396.26   26.83
   2  -1  -8 2397.49   42.42
  -1  -1  -8 2391.31   42.26
   2  -1  -8 2395.06   27.76
  -1  -1  -8 2397.74   41.77
   2  -1  -8 2398.32   36.54
   2  -1  -8 2393.78   27.77
   1   1   8 2396.07   27.66
   1  -2   8 2393.61   44.30
  -1   2  -8 2398.64   45.42
  -1   2  -8 2395.86   47.42
   2  -1  -8 2396.50   45.39
   2  -1  -8 2398.10   46.83
  -1   2  -8 2391.11   27.09
  -2   1   8 2393.94   44.86
  -2   1   8 2397.51   45.30
  -1   2  -8 2399.56   43.56
  -1   2  -8 2391.19   48.22
  -1  -1  -8 2395.89   46.11
   1   1   8 2390.16   41.40
  -1  -1  -8 2396.96   48.01
   1   1   8 2392.02   47.18
   2  -1  -8 2398.38   48.23
   2  -1  -8 2398.07   46.80
  -2   1   7    5.10    4.19
  -2   1   7   -0.18    6.14
  -1  -1  -7    3.22    3.06
  -1   2  -7    5.61    6.41
  -1  -1  -7    3.70    6.31
  -1  -1  -7   -0.26    5.74
  -1   2  -7   -1.44    4.86
   2  -1  -7    4.38    5.82
   2  -1  -7    1.68    5.57
  -2   1   7   -0.22    4.39
   2  -1  -7    1.46    3.81
  -2   1   7    4.40    6.18
   1   1   7    3.38    5.01
  -1   2  -7    2.00    5.56
  -1  -1  -7    4.37    3.10
  -2   1   7    0.77    4.81
   1  -2   7    1.87    2.71
  -1   2  -7   -1.90    5.18
  -1  -1  -7   -2.65    2.85
  -1   2  -7    2.68    5.41
   2  -1  -7    8.46    7.21
  -1   2  -7    2.29    2.87
   2  -1  -7    1.07    2.83
   2  -1  -7    3.63    5.51
  -1   2  -7   -3.00    4.56
  -1  -1  -7    2.61    4.69
  -2   1   7    4.58    5.97
   2  -1  -7   -0.82    2.88
   2  -1  -7    6.30    5.44
   1   1   7    3.55    5.47
  -1  -1  -7    0.60    4.42
   1   1   7    2.24    2.90
   1  -2   7    1.43    4.32
   1  -2   7    2.31    5.93
  -2   1   6  289.85   16.75
   2  -1  -6  281.87   12.77
  -1  -1  -6  288.47   15.75
   2  -1  -6  284.97   18.46
  -1   2  -6  284.09   17.81
   2  -1  -6  281.13   17.53
  -1   2  -6  284.05   18.59
  -1  -1  -6  286.88   20.03
  -1   2  -6  289.39   17.79
   2  -1  -6  280.84   18.05
   1  -2   6  288.05   15.50
   1  -2   6  285.32   18.67
   1   1   6  284.42   12.83
   2  -1  -6  283.33   19.78
   2  -1  -6  284.98   17.44
  -1  -1  -6  282.37   12.94
  -2   1   6  285.41   19.09
  -2   1   6  284.05   15.02
  -1   2  -6  289.96   15.83
  -1  -1  -6  283.78   10.51
   1   1   6  282.09   19.54
   2  -1  -6  280.63   19.43
  -2   1   6  281.18   19.34
  -1   2  -6  286.66   12.66
  -1   2  -6  288.64   18.38
   2  -1  -6  282.42   16.46
   1  -2   6  282.87   12.48
  -1  -1  -6  283.86   10.55
  -1   2  -6  287.92   18.08
   2  -1  -6  285.10   15.15
  -2   1   6  283.82   17.52
  -2   1   6  288.98   17.98
  -1  -1  -6  282.28   15.53
   1   1   6  280.85   15.77
   2  -1  -6  288.73   12.80
   1  -2   5    6.92    4.78
   1   1   5    2.16    4.29
  -1  -1  -5    1.70    2.62
  -1   2  -5    9.07    5.89
   2  -1  -5    2.83    6.34
  -2   1   5    1.07    5.35
  -2   1   5    5.19    5.47
  -2   1   5    6.19    6.06
  -2   1   5    2.34    6.03
  -1  -1  -5    3.68    3.68
  -2   1   5    4.14    4.76
   2  -1  -5   -0.94    6.17
   1  -2   5    4.64    3.56
   1  -2   5    2.35    5.63
  -1   2  -5    0.39    3.47
  -1   2  -5    6.26    5.52
  -1   2  -5    6.58    4.94
   2  -1  -5    5.38    5.25
  -1   2  -5    0.34    4.50
   2  -1  -5    2.22    5.01
  -1  -1  -5    5.12    4.64
   1  -2   5    2.02    5.61
   2  -1  -5    4.58    4.44
   1   1   5    3.42    3.55
   2  -1  -5    2.37    3.91
  -1  -1  -5    2.69    4.03
  -1  -1  -5    1.01    1.68
   2  -1  -5   -6.12    6.15
  -2   1   5    6.85    4.07
  -1   2  -5    6.80    4.98
  -1  -1  -5    6.54    6.44
   2  -1  -5    3.56    3.70
   1   1   5    1.27    5.32
   2  -1  -5    4.61    5.08
   1   1   4 8712.14   54.95
  -1  -1  -4 8781.99   50.16
   2  -1  -4 8753.92   61.31
  -2   1   4 8787.71   69.21
   2  -1  -4 8715.34   57.57
  -2   1   4 8710.61   62.61
  -2   1   4 8777.26   67.36
  -1   2  -4 8795.63   60.40
  -1  -1  -4 8759.48   47.53
   2  -1  -4 8772.29   50.19
   1  -2   4 8791.16   59.60
   2  -1  -4 8738.40   60.59
   2  -1  -4 8754.65   54.84
   2  -1  -4 8747.42   61.95
  -1   2  -4 8740.17   67.82
  -2   1   4 8755.94   60.81
  -1  -1  -4 8779.43   55.29
   2  -1  -4 8770.42   67.49
  -1  -1  -4 8757.16   55.19
  -1   2  -4 8704.36   46.51
   1  -2   4 8709.09   54.31
   2  -1  -4 8716.47   69.80
  -2   1   4 8768.44   63.31
  -1   2  -4 8759.04   60.75
   1   1   4 8711.94   69.05
   1  -2   4 8725.83   69.83
  -1   2  -4 8779.97   63.96
   1  -2   4 8711.94   63.93
  -1   2  -4 8735.00   54.77
   2  -1  -4 8751.20   62.92
   1   1   4 8708.64   55.05
  -1   2  -4 8750.71   67.03
  -2   1   4 8743.67   57.72
   2  -1  -4 8774.80   54.32
  -2   1   3    2.12    5.15
   2  -1  -3    3.45    4.38
  -1   2  -3   -3.93    4.32
  -2   1   3   -2.07    5.88
   1   1   3    3.47    4.47
  -2   1   3    2.64    4.41
  -1  -1  -3   -0.27    2.64
   1   1   3    2.26    3.37
   1   1   3    2.45    3.54
   2  -1  -3    2.58    4.25
  -2   1   3  -21.33    8.39
   2  -1  -3    0.75    6.38
  -1   2  -3   -1.04    4.74
   1  -2   3    4.73    4.44
   2  -1  -3    3.94    4.87
  -2   1   3   -0.25    4.74
  -1   2  -3    4.01    4.24
   2  -1  -3    7.84    5.31
   2  -1  -3    5.70    6.32
   1   1   3    4.45    6.38
  -1   2  -3   -4.71    4.90
   2  -1  -3    4.79    4.93
   2  -1  -3    2.38    5.04
   2  -1  -3    1.45    4.05
  -1  -1  -3   -0.04    4.09
  -1   2  -3    1.33    4.19
  -2   1   3    3.80    4.16
   1  -2   3    1.35    4.67
  -1   2  -3    2.51    2.91
   1  -2   3   -0.41    3.85
  -1   2  -3    7.08    5.50
   1  -2   3    2.32    5.84
  -1  -1  -3    6.27    3.38
   1  -2   2 4910.06   47.01
  -1  -1  -2 4912.37   47.54
  -2   1   2 4919.81   46.40
   1  -2   2 4918.24   36.62
  -1   2  -2 4910.15   37.35
  -2   1   2 4915.97   40.60
   2  -1  -2 4911.83   47.09
   1   1   2 4918.77   41.45
  -1   2  -2 4918.48   41.83
   2  -1  -2 4917.74   47.37
   1  -2   2 4915.13   41.86
  -1   2  -2 4918.87   45.32
   2  -1  -2 4915.82   47.39
   2  -1  -2 4918.63   48.74
  -1   2  -2 4917.49   47.12
   2  -1  -2 4910.89   46.77
  -1   2  -2 4917.74   46.70
  -2   1   2 4912.37   47.33
  -2   1   2 4913.26   48.76
  -2   1   2 4915.52   48.04
  -2   1   2 4910.35   47.33
  -1   2  -2 4918.68   50.57
   2  -1  -2 4919.12   40.57
  -1  -1  -2 4911.58   41.08
   1  -2   2 4912.57   51.09
   1  -2   2 4915.03   47.13
   1   1   2 4915.67   47.24
  -2   1   2 4911.58   50.69
  -1   2  -1   -0.89    3.52
   1  -2   1   -3.22    4.80
   2  -1  -1   -1.55    3.87
  -1   2  -1    2.15    2.82
  -2   1   1    3.07    4.44
   1  -2   1    1.11    5.07
   2  -1  -1    2.69    4.78
  -1  -1  -1    2.91    4.86
   1  -2   1    3.15    3.12
  -1  -1  -1    3.59    4.06
   2  -1  -1    2.74    5.31
  -1   2  -1    0.75    5.15
  -1   2  -1    2.51    4.98
  -2   1   1    0.08    4.97
   2  -1  -1   -0.39    3.85
   2  -1  -1    1.21    4.62
   1   1   1   -0.98    2.14
   1   1   1    2.40    4.17
  -1   2  -1   -0.15    3.46
   1  -2   1    7.81    5.20
   1   1   1    2.54    5.07
   1  -2   1    1.60    3.65
  -1   2  -1   -1.80    5.52
   2  -1  -1   -0.82    4.73
  -2   1   1    2.04    4.17
  -2   1   1    1.12    4.02
  -1  -1  -1    2.56    2.44
  -1   2   0 5258.99   53.49
  -1  -1   0 5251.70   42.69
  -1   2   0 5254.90   53.24
   1   1   0 5253.42   54.33
   1  -2   0 5259.38   53.84
  -2   1   0 5253.97   53.96
   1  -2   0 5254.56   49.05
   1   1   0 5255.79   42.44
  -2   1   0 5255.78   39.49
  -1   2   0 5252.64   54.08
  -2   1   0 5253.77   53.88
   2  -1   0 5252.29   54.07
   2  -1   0 5257.07   50.02
   1   1   0 5250.22   51.68
   2  -1   0 5254.56   54.04
  -1   2   0 5256.92   48.26
  -2   1   0 5250.86   50.28
   1  -2   0 5250.76   52.89
   2  -1   0 5258.79   53.97
  -1  -1   0 5254.75   54.66
  -1  -1   0 5257.76   51.72
   1  -2   0 5254.76   53.32
  -1   2   0 5253.72   33.59
   1   1  -1    5.94    5.66
   2  -1   1    2.07    4.42
   1   1  -1   18.94    7.86
  -1   2   1    6.11    4.56
   1  -2  -1    4.74    4.51
  -2   1  -1    1.47    5.05
   1   1  -1    2.04    3.89
  -1   2   1    1.14    4.18
  -1  -1   1    2.63    4.21
   1  -2  -1    5.78    5.18
   2  -1   1   -2.75    4.66
   1  -2  -1    2.33    4.87
   1   1  -1   -1.10    4.80
   2  -1   1    4.35    5.31
  -1  -1   1    7.97    5.25
  -2   1  -1    0.64    4.95
  -2   1  -1    5.77    5.10
  -1   2   1    5.08    5.09
   2  -1   1    0.57    4.66
  -1  -1   1    1.47    4.63
  -1  -1   2 5572.28   46.45
   1  -2  -2 5574.79   42.94
   1   1  -2 5577.41   48.56
  -1  -1   2 5578.67   44.92
   1   1  -2 5571.00   45.76
   2  -1   2 5573.35   37.65
   2  -1   2 5578.00   41.19
  -1  -1   2 5577.06   48.46
  -2   1  -2 5577.85   41.22
  -1   2   2 5577.80   38.39
  -1   2   2 5577.55   43.94
  -1  -1   2 5575.53   27.30
   1  -2  -2 5583.86   44.03
   1   1  -2 5581.94   44.35
   2  -1   2 5577.85   47.12
  -2   1  -2 5576.12   47.42
   1   1  -2 5574.60   48.43
  -1  -1   2 5580.76   47.79
  -1  -1   2 5576.47   44.48
   1  -2  -2 5579.67   46.17
  -1   2   2 5580.73   47.06
   2  -1   2 5579.67   44.08
   2  -1   2 5575.09   43.52
   1   1  -2 5578.79   47.66
  -1   2   2 5580.75   47.10
   1   1  -4 9999.00   76.14
  -2   1  -4 9916.60   72.91
   1   1  -4 9939.45   75.69
  -1  -1   4 9938.22   75.97
  -1   2   4 9915.47   68.88
  -1   2   4 9980.29   75.31
   1  -2  -4 9975.71   55.44
  -2   1  -4 9990.20   54.75
  -1  -1   4 9926.01   38.15
   1   1  -4 9990.29   77.05
   1  -2  -4 9979.26   49.35
  -1  -1   4 9962.80   72.89
  -1  -1   4 9964.43   74.96
   2  -1   4 9939.75   73.37
  -2   1  -4 9921.24   65.22
   1   1  -4 9969.41   72.77
   2  -1   4 9932.26   60.13
   1  -2  -4 9982.51   74.36
  -1   2   4 9976.25   59.61
  -1  -1   4 9987.09   60.05
  -1   2   4 9973.35   73.97
  -1  -1   4 9903.00   75.37
   1   1  -4 9970.88   74.61
   1   1  -4 9920.54   59.44
   2  -1   4 9941.77   61.06
   2  -1   4 9900.69   59.75
   1  -2  -4 9929.51   59.61
   2  -1   4 9974.09   66.69
   1  -2  -4 9928.38   66.04
  -1   2   4 9984.48   66.93
  -2   1  -4 9998.56   62.58
   1  -2  -4 9966.10   74.40
   1  -2  -4 9961.87   69.58
   1   1  -5    6.03    4.97
   1   1  -5   12.17    6.35
  -1  -1   5   10.76    7.29
   1   1  -5    8.25    4.36
   1   1  -5   23.79    8.01
  -1  -1   5   10.79    5.27
   1  -2  -5   19.40    6.97
  -1  -1   5    6.73    6.47
   2  -1   5    8.82    5.98
   1  -2  -5    7.21    4.64
  -2   1  -5    6.42    5.49
   1   1  -5   12.64    6.73
   1  -2  -5    7.47    5.74
   1  -2  -5    5.99    3.82
  -1   2   5    5.03    5.74
   2  -1   5    8.10    3.87
   1   1  -5    6.22    2.72
   2  -1   5   18.88    6.71
   2  -1   5   10.19    4.76
   1   1  -5   16.46    6.77
  -1   2   5   13.37    5.51
   2  -1   5    8.81    4.58
   1  -2  -5    9.47    3.78
  -1  -1   5    8.75    6.15
   1  -2  -5   16.38    6.49
  -2   1  -5    5.54    3.86
  -1   2   5   10.96    5.68
   1  -2  -5    3.79    5.05
   1   1  -5    7.56    5.33
  -2   1  -5    4.26    3.97
  -1  -1   5    2.82    3.18
  -1   2   5   12.90    6.84
  -1  -1   5    5.43    2.56
  -2   1  -5   21.96    7.40
   1   1  -5    8.10    2.44
  -1   2   5    4.39    4.07
   1   1  -6   58.94   11.84
  -1  -1   6   59.68   12.49
  -2   1  -6   55.72   12.81
   1   1  -6   58.14   12.46
  -1   2   6   55.43   12.39
  -1  -1   6   57.10   13.19
   1  -2  -6   52.46   12.06
  -1   2   6   55.59    8.77
   1  -2  -6   55.13   12.32
   1   1  -6   53.39   13.08
   2  -1   6   51.04    8.23
   1   1  -6   57.99   12.63
   2  -1   6   56.74    9.85
   2  -1   6   55.46   12.86
   1  -2  -6   59.84   10.09
   2  -1   6   57.22    8.25
  -2   1  -6   53.41    9.78
  -1   2   6   51.35   12.81
  -2   1  -6   56.12    9.94
   2  -1   6   53.61   12.28
  -1   2   6   59.01   11.01
   1  -2  -6   59.01    8.37
   1   1  -6   56.39    8.55
  -1  -1   6   54.60   11.57
  -1  -1   6   56.83    8.44
   1   1  -6   54.54   12.20
  -1   2   6   54.04   11.88
  -1  -1   6   54.03   12.92
  -2   1  -6   58.04   11.73
   1  -2  -6   57.15    9.39
   1   1  -6   53.91    6.84
   1  -2  -6   53.92   12.41
   1   1  -6   55.99    6.95
   1  -2  -6   53.50   11.82
   1   1  -6   53.18   14.01
   1   1  -6   54.66   12.09
   1  -2  -7    1.74    2.83
   1   1  -7    2.51    5.71
  -1   2   7    0.32    5.21
  -2   1  -7    4.53    6.21
  -1   2   7   -0.93    3.03
   1   1  -7    6.44    6.27
  -1  -1   7    0.58    5.41
   1  -2  -7    3.97    6.14
   1   1  -7    0.02    2.82
   2  -1   7    0.51    2.65
  -1  -1   7    0.24    2.69
   1  -2  -7   -3.44    4.33
  -1  -1   7   -3.07    6.99
   1   1  -7    1.13    6.30
   1  -2  -7   -0.91    4.25
  -2   1  -7    1.50    3.75
   1   1  -7   -0.82    4.79
  -1  -1   7    0.44    6.14
  -1   2   7   -0.62    5.74
   1   1  -7   -3.39    5.84
  -1   2   7    0.25    5.74
   1  -2  -7   -2.27    5.73
   2  -1   7    1.24    4.08
   1  -2  -7   -1.32    4.36
   1  -2  -7    0.69    5.49
   1   1  -7    2.61    2.99
   1  -2  -7   -1.25    5.69
  -2   1  -7   -0.12    4.17
   1  -2  -7   -0.03    1.05
   1   1  -7    1.14    2.97
  -1  -1   7   -2.94    5.14
   2  -1   7    1.92    5.32
   1   1  -7    7.55    6.03
   2  -1   7   -1.60    5.06
   2  -1   7    1.90    2.87
  -1   2   7   -0.56    5.26
  -2   1  -7    2.39    5.79
   1   1  -7   32.56    8.91
   1  -2  -8 2164.44   37.75
   1  -2  -8 2122.06   44.60
   1  -2  -8 2181.12   43.60
  -2   1  -8 2133.01   43.50
  -1   2   8 2120.30   45.89
  -1   2   8 2187.19   44.33
  -2   1  -8 2143.05   45.83
   1  -2  -8 2161.73   40.56
   1   1  -8 2126.63   26.64
  -2   1  -8 2153.53   39.45
   2  -1   8 2127.34   44.23
   1   1  -8 2115.92   29.11
   1   1  -8 2142.24   46.07
   1   1  -8 2131.98   45.54
   2  -1   8 2155.76   38.48
  -1  -1   8 2196.44   26.45
   1   1  -8 2199.24   45.88
  -1  -1   8 2175.88   46.77
   1   1  -8 2170.63   42.42
   1  -2  -8 2101.88   45.82
  -1   2   8 2100.31   45.22
  -1  -1   8 2113.00   46.52
  -2   1  -8 2149.90   45.60
  -1   2   8 2146.65   26.68
   1   1  -8 2183.20   47.60
   2  -1   8 2111.81   26.23
   1  -2  -8 2128.45   26.83
   1  -2  -8 2153.93   46.49
   1   1  -8 2186.34   47.98
  -1  -1   8 2121.00   45.42
   1   1  -8 2201.65   47.36
   1  -2  -8 2126.51   38.00
   1  -2  -8 2126.29   18.88
  -2   1  -8 2149.80   37.38
   2  -1   8 2165.38   26.84
   1   1  -8 2127.26   32.02
   1  -2  -9    5.86    6.98
   1  -2  -9    3.47    2.16
   1  -2  -9    3.21    2.93
   1  -2  -9   -2.20    6.95
   1   1  -9    8.77    7.23
  -1  -1   9    2.92    2.55
  -1   2   9    8.36    7.23
   2  -1   9    7.56    8.12
  -2   1  -9    1.06    7.05
   1  -2  -9    5.80    7.35
  -1  -1   9    5.86    7.88
   1  -2  -9    2.39    5.69
   1   1  -9    6.97    4.31
  -2   1  -9    4.50    6.56
   2  -1   9    6.42    5.54
   2  -1   9    0.63    2.36
  -1  -1   9    7.30    7.69
  -2   1  -9    3.14    5.18
   1   1  -9    5.49    4.24
   1  -2  -9    0.44    5.03
   1   1  -9   -3.49    7.54
   1   1  -9    2.73    2.43
   1   1  -9   11.14    7.37
   1  -2  -9   13.01    5.54
  -2   1  -9    2.75    5.00
  -1   2   9    1.13    2.62
   1  -2  -9   -2.39    7.27
   2  -1   9    3.31    2.69
  -1  -1   9    6.73    7.70
  -1   2   9    7.11    7.46
  -2   1 -10  248.39   16.55
  -1   2  10  299.78   20.27
   1  -2 -10  241.89   16.65
  -2   1 -10  250.17   17.96
   1  -2 -10  248.32   18.43
  -1  -1  10  248.28   18.68
   2  -1  10  238.33    7.79
   1  -2 -10  252.12   18.30
  -2   1 -10  239.07   15.17
   1  -2 -10  237.52    8.11
  -1   2  10  264.21   19.41
   1  -2 -10  245.04   15.67
   1   1 -10  246.71   12.68
   2  -1  10  248.00   15.52
   1   1 -10  253.90    8.09
   1  -2 -10  258.82    8.89
   1   1 -10  283.77   13.91
  -1  -1  10  271.43   19.79
   2  -1  10  241.39    7.77
   1  -2 -10  254.85   16.20
   2  -1  10  228.50   17.90
  -1   2  10  247.77    8.03
   1   1 -10  287.71   20.46
   1   1 -10  261.61   17.33
   1  -2 -11   -0.05    5.94
  -1  -1  11    5.68    8.13
   1   1 -11    2.27    4.65
   1   1 -11    5.81    4.81
   1  -2 -11    2.66    2.68
   2  -1  11   -0.22    5.81
   1  -2 -11   -3.91    8.11
  -1   2  11    9.62    9.00
   1   1 -11    2.71    7.82
  -1   2  11    4.58    7.29
   1  -2 -11    3.69    7.13
  -1  -1  11    9.83    9.75
   1   1 -11   -2.26    6.69
   2  -1  11   -1.57    7.91
  -2   1 -11    4.69    5.85
   1  -2 -11    2.87    6.34
  -2   1 -11   12.22    8.73
   1  -2 -12 1709.81   50.33
   1  -2 -12 1589.77   41.92
   1  -2 -12 1633.34   24.80
  -2   1 -12 1569.86   41.00
   1   1 -12 1618.36   36.43
   1   1 -12 1714.57   53.09
  -2   1 -12 1739.52   48.85
  -1   2  12 1714.24   50.78
  -1  -1  12 1644.25   51.32
   2  -1  12 1661.74   42.47
  -2   1 -12 1364.90   41.31
   1   1 -12 1711.43   45.08
   2  -1  12 1746.60   51.71
   1  -2 -12 1427.01   44.91
  -1   2  12 1687.88   50.84
   1   1 -12 1665.46   35.68
   1  -2 -13    6.42    6.48
   2  -1  13   -0.84    5.99
  -1  -1  13   10.62   10.37
  -2   1 -13   -1.95    5.93
  -1   2  13   19.02   11.08
  -2   1 -13    1.55    6.11
  -2   1 -13    4.22    8.07
   1  -2 -13   -3.21    8.00
  -1   2  13   13.94    9.82
   1   1 -13    6.82    8.41
   1  -2 -13   -0.26    2.63
   1   1 -13   -1.36    7.20
   1  -2 -13   -4.10    7.54
   2  -1  13    6.39    9.21
   1   1 -13   -0.66    5.00
   1   1 -13    0.01    4.76
  -1   2  14    4.77    9.40
  -2   1 -14    3.98    6.79
   1   1 -14    5.23    6.12
  -2   1 -14   20.49   10.40
   2  -1  14    2.83    9.34
   1   1 -14   -3.07    9.64
   1   1 -14   -0.63    7.26
   1  -2 -14    4.55    9.52
   1   1 -14   -2.82    5.16
  -1   2  14   -2.00    9.07
   1  -2 -14    2.64    7.36
   1  -2 -14   -6.06    7.51
  -2   1 -14    2.97    6.25
  -2   1 -14    8.64    8.79
   2  -1  14    2.26    6.60
   1  -2 -15    4.80    8.01
   1   1 -15    5.10    6.51
   1   1 -15    0.67    6.96
  -1   2  15   18.47   11.48
  -2   1 -15    3.82    9.19
  -2   1 -15   -1.67    5.81
   1  -2 -15    3.05    7.05
   1   1 -15   -5.95    9.24
  -2   1 -15    9.47   10.00
   2  -1  15   17.56   12.24
  -2   1 -15    6.28    7.58
   1  -2 -15   -4.75    9.37
  -1   2  15    2.52    8.57
   1  -2 -16  684.61   38.89
   2  -1  16  649.50   39.11
  -1   2  16  671.70   39.54
  -2   1 -16  677.09   38.68
  -2   1 -16  615.58   34.62
  -2   1 -16  600.97   32.41
   1   1 -16  657.91   32.48
   1   1 -16  663.13   40.27
  -1   2  16  700.31   39.90
   1  -2 -16  628.32   33.41
   1  -2 -16  661.40   36.34
  -1   2  17   -6.14   10.09
   1  -2 -17    4.37    9.37
  -1   2  17   19.29   13.05
  -2   1 -17    4.63    7.94
  -2   1 -17    4.62   10.88
   1   1 -17    4.77   11.90
   1  -2 -17    4.70    8.41
   2  -1  17   -5.23   10.98
  -2   1 -17    9.03   10.40
   1  -2 -17    3.66    9.58
  -2   1 -18   22.75   11.79
   1  -2 -18   32.02   13.19
   1  -2 -18   39.20   11.69
   1  -2 -18   36.64   13.57
  -2   1 -18   25.43   11.66
   1  -2 -19  -13.09   11.39
   0   2   0  492.96   16.45
   0   2   0  492.02   14.30
   2  -2   0  497.32   18.96
   0  -2   0  490.36   13.85
   2   0   0  496.95   15.02
  -2   0   0  494.77   15.11
   0   2   0  492.33   17.81
  -2   2   0  490.06   18.09
   2  -2   0  498.38   18.31
   0   2   0  498.17   16.12
   2   0   0  495.26   18.47
   2  -2   0  492.99   18.68
  -2   0   0  494.06   18.56
   0   2   0  497.03   18.57
  -2   2   0  490.79   18.94
   0  -2   0  499.64   15.41
   0  -2   0  494.70   18.08
   2  -2   0  490.52   18.60
   0  -2   0  497.10   15.67
   2   0   0  490.74   11.05
   0  -2   0  490.63   14.75
  -2   0   0  492.50   18.46
   2   0   0  492.78   18.61
   0  -2   0  492.81   16.19
  -2   2  -1  404.68   18.01
  -2   2   1  405.17   16.68
   2  -2  -1  405.97   18.14
   0   2   1  409.33   16.90
  -2   0  -1  400.39   15.82
   2   0   1  404.72   17.26
   2   0  -1  401.57   18.00
   0   2  -1  405.73   11.70
   0  -2  -1  404.83   14.17
  -2   2  -1  404.92   17.60
   0   2  -1  401.33   15.16
   2  -2   1  401.23   18.17
   2   0  -1  407.71   12.31
   0   2  -1  405.78   16.51
   0  -2   1  408.49   17.49
   2   0  -1  409.68   13.35
  -2   2  -1  405.55   17.01
   0   2  -1  400.32   17.06
   0   2   1  408.43   14.19
  -2   0   1  400.32   17.60
   0  -2  -1  405.02   15.84
   0  -2  -1  406.89   13.72
   2  -2  -1  405.54   18.19
   0  -2   1  400.30   16.93
  -2   2  -1  406.72   17.26
  -2   0   1  403.95   12.52
   0   2   1  404.88   13.87
   0  -2  -1  407.85   13.94
   0   2  -1  403.74   16.49
  -2   0  -1  404.97   16.97
   0  -2   1  400.70   16.73
   2   0   1  408.42   17.51
  -2   2   1  405.66   17.71
   2  -2  -1  409.78   18.13
   0  -2   1  407.88   11.76
   0  -2   1  403.43   15.11
   2  -2   1  401.11   17.14
  -2   0   1  409.43   13.68
   2   0   1  404.55   16.17
   2   0  -1  406.02   17.55
  -2   0  -1  406.28   17.31
  -2   0   1  405.62   13.97
  -2   2   1  403.56   17.79
   2  -2  -1  409.08   17.18
   2  -2   1  408.10   16.81
   0  -2  -1  407.69   17.53
  -2   0   1  406.85   15.52
   2  -2   1  407.90   17.45
   0  -2   1  406.45   17.21
   0   2  -1  409.91   17.48
   0   2   1  407.59   15.96
   0  -2   1  409.73   14.37
  -2   0   1  408.92   17.77
  -2   0   2 2086.72   25.94
  -2   2   2 2086.78   20.44
  -2   2   2 2085.46   29.58
  -2   2   2 2089.86   22.27
  -2   2   2 2088.05   32.35
   0   2   2 2081.61   22.34
  -2   0   2 2083.75   27.86
  -2   2  -2 2088.67   29.75
   0   2  -2 2085.24   31.59
  -2   2  -2 2081.82   31.94
  -2   0  -2 2084.22   29.98
  -2   2   2 2080.60   25.89
   0  -2  -2 2089.79   21.45
   2  -2   2 2085.70   29.31
  -2   0   2 2080.83   18.19
  -2   0   2 2082.28   30.22
  -2   0  -2 2087.67   30.52
   2  -2  -2 2083.00   32.41
   2  -2   2 2088.93   31.68
   0   2   2 2084.48   21.72
  -2   0   2 2082.84   32.83
   0   2  -2 2089.44   29.45
   2   0  -2 2081.34   27.27
   2   0   2 2088.69   30.32
   2   0  -2 2087.61   32.15
   0   2  -2 2085.62   15.65
   0  -2   2 2081.16   31.78
  -2   2   2 2089.92   31.40
  -2   2   2 2089.59   31.68
   2  -2  -2 2086.60   31.70
   0  -2  -2 2082.76   29.98
   2   0  -2 2080.01   29.11
   2  -2   2 2089.94   29.77
   2  -2   2 2082.13   20.95
   0   2  -2 2082.78   30.85
   0  -2   2 2081.32   28.50
  -2   2  -2 2085.04   21.65
   2   0  -2 2088.07   17.96
   0   2   2 2084.47   29.45
  -2   2   2 2082.12   23.20
   0  -2   2 2086.42   15.91
  -2   0   2 2087.28   29.01
   0   2  -2 2084.27   28.84
  -2   0  -2 2086.56   30.06
   0  -2  -2 2082.01   21.98
   2  -2   2 2080.57   31.84
   0  -2   2 2083.54   30.90
   2   0   2 2089.50   30.01
   0  -2  -2 2080.02   29.99
   0   2  -2 2081.18   30.12
   2   0   2 2084.78   31.01
  -2   2  -2 2080.22   32.18
  -2   0   2 2086.76   31.79
   2   0   2 2088.12   21.12
   0  -2   2 2084.96   25.25
  -2   0   2 2087.43   35.98
   0  -2   2 2080.90   29.14
   0   2  -2 2087.49   26.66
   2   0  -2 2086.10   27.88
   2  -2  -2 2089.57   30.06
   0   2   2 2086.50   22.46
   2   0  -2 2088.08   30.48
  -2   2  -2 2082.25   30.01
   2  -2  -2 2085.91   20.95
   0  -2   2 2089.56   30.09
   0   2   2 2085.97   30.18
  -2   0   3 4087.09   49.00
   2  -2   3 4024.06   48.14
   0  -2  -3 4097.97   43.48
   2  -2   3 4018.03   42.71
  -2   0   3 4064.63   39.03
   0   2  -3 4067.34   48.73
  -2   2   3 4001.58   49.37
   2   0   3 4040.32   43.25
   2  -2  -3 4023.20   38.34
  -2   2   3 4017.22   47.75
   2   0  -3 4022.52   43.40
   0  -2   3 4023.07   47.26
   0  -2  -3 4022.61   47.63
   0   2   3 4024.56   46.86
  -2   2  -3 4022.85   48.38
  -2   0  -3 4023.85   24.69
   0  -2  -3 4019.23   26.69
   0   2   3 4023.50   43.32
  -2   0  -3 4018.63   43.26
   2   0  -3 4017.82   49.46
   0   2  -3 4024.82   42.70
   2  -2   3 4024.07   36.56
   0  -2  -3 4021.18   31.66
  -2   0  -3 4018.74   44.47
  -2   0   3 4028.53   49.73
   2   0   3 4026.01   47.95
  -2   0   3 4020.47   45.56
  -2   0   3 4019.70   47.30
  -2   2   3 4016.79   35.38
  -2   0   3 4019.23   47.35
   2   0   3 4022.83   28.61
   2   0  -3 4023.08   45.55
   2   0  -3 4023.16   48.31
   0   2   3 4020.49   26.90
   0   2  -3 4018.18   35.76
  -2   2   3 4019.11   43.19
  -2   2   3 4023.78   48.23
   2  -2  -3 4019.70   48.94
  -2   0   3 4025.32   43.55
   0   2   3 4021.25   36.83
   0  -2   3 4026.28   48.67
   2  -2  -3 4022.90   48.92
  -2   2  -3 4024.20   43.07
  -2   2   3 4018.44   36.41
   0  -2   3 4021.32   43.16
   2   0   3 4023.75   24.13
   0   2  -3 4023.90   48.97
   2  -2  -3 4025.98   44.75
  -2   2   3 4027.52   35.27
   2  -2   3 4025.53   46.76
   2  -2  -3 4023.17   35.68
   2  -2  -3 4025.45   43.53
   0  -2   3 4020.56   36.08
   0   2  -3 4023.00   47.37
   2   0  -3 4028.28   38.72
   0  -2   3 4029.61   45.44
   2   0  -3 4026.82   45.97
   0   2  -3 3993.57   43.75
  -2   0  -3 4029.21   48.33
  -2   2  -3 4022.03   37.13
  -2   2   3 4027.98   37.47
   0   2   3 4020.45   44.76
   2   0  -3 4027.14   47.37
  -2   2  -3 4020.33   43.83
  -2   2  -3 4025.51   46.88
   2  -2   4 1041.25   25.05
   0   2   4 1067.64   22.16
  -2   0  -4 1026.07   15.12
   2   0  -4 1065.84   25.25
   0  -2  -4 1019.70   20.49
   2   0   4 1046.24   22.10
   0   2  -4 1071.13   22.08
   0  -2  -4 1077.54   16.57
   0  -2   4 1032.72   21.82
   0   2  -4 1067.11   25.92
  -2   0   4 1051.22   22.07
   0   2  -4 1090.27   26.83
  -2   2   4 1043.22   21.89
   2  -2   4 1087.82   26.12
   2   0  -4 1053.83   22.15
  -2   0  -4 1026.76   26.22
   0  -2  -4 1064.67   22.20
   2  -2  -4 1101.37   26.80
  -2   2  -4 1084.80   25.95
   2   0  -4 1129.26   28.43
   2   0   4 1116.75   26.39
  -2   2  -4 1039.53   24.63
   0   2  -4 1053.35   25.05
   2  -2  -4  981.65   21.45
  -2   2   4 1071.25   22.03
   0  -2   4 1057.76   26.44
   0  -2   4 1110.38   26.57
   0  -2   4 1048.53   18.75
  -2   2   4 1050.88   18.16
  -2   0  -4 1041.19   21.85
  -2   2   4 1028.42   20.15
   2  -2  -4 1101.18   24.43
   0   2  -4 1072.04   19.20
   0   2  -4 1061.30   26.38
  -2   2   4 1043.00   26.44
  -2   0   4 1091.86   27.31
   2   0   4 1044.90   15.38
  -2   0   4  930.16   19.35
   2   0   4 1051.04   16.30
   2   0  -4 1136.67   26.57
  -2   2   4 1095.44   27.21
   2  -2   4 1062.22   22.10
   2   0  -4 1015.98   25.08
   2   0  -4 1120.60   27.18
   0  -2  -4 1110.01   26.97
  -2   2  -4 1070.60   22.09
  -2   0   4 1097.33   25.97
  -2   0  -4 1090.84   23.17
   2  -2  -4 1177.71   22.26
  -2   2   4 1068.89   26.17
   2  -2   4 1056.31   21.75
   0   2   4 1020.99   24.18
   2  -2  -4 1082.30   18.11
   0   2   4 1059.45   20.71
  -2   0  -4 1087.65   16.46
   0  -2   4 1095.90   25.43
  -2   2   4 1049.13   19.79
   2  -2  -4 1057.72   21.94
  -2   2  -4 1084.79   22.55
  -2   0   4 1161.59   27.39
   2  -2  -4 1088.59   26.92
  -2   0   4 1025.01   24.83
   2   0  -4 1046.35   20.51
   2   0  -4 1054.61   26.57
   0   2   4 1147.05   26.60
  -2   0   4 1088.66   26.04
   2  -2  -4 1068.32   20.76
  -2   2   5 2369.40   25.36
   2   0  -5 2365.68   38.56
   2  -2   5 2305.15   29.86
  -2   2   5 2302.75   30.83
   2  -2  -5 2321.32   30.83
   0  -2  -5 2314.13   30.36
   0   2   5 2317.74   31.85
  -2   2   5 2313.07   32.53
  -2   0   5 2333.53   37.86
   0  -2   5 2322.01   30.23
   2   0   5 2311.48   30.40
   0  -2   5 2339.07   37.86
  -2   0   5 2325.34   36.45
   2  -2  -5 2330.89   40.00
   0   2   5 2336.91   37.04
   2   0  -5 2341.46   37.08
   2   0  -5 2334.48   36.21
   0  -2  -5 2337.92   37.15
  -2   2  -5 2335.75   37.83
  -2   2  -5 2336.88   30.47
  -2   0  -5 2328.27   38.35
   2  -2  -5 2335.59   37.28
  -2   2   5 2337.08   39.12
  -2   0  -5 2332.81   22.64
   2   0  -5 2337.28   39.51
  -2   2  -5 2336.89   37.43
  -2   2   5 2333.56   36.88
  -2   2  -5 2338.44   35.67
  -2   0  -5 2337.17   38.68
  -2   2  -5 2337.42   37.24
   0  -2   5 2330.78   38.87
   0  -2   5 2330.43   39.50
   2   0  -5 2335.00   18.34
   2  -2   5 2337.36   36.03
   0  -2  -5 2331.35   40.22
   0   2  -5 2334.15   37.78
   0   2  -5 2330.09   39.05
   0   2  -5 2333.18   38.93
  -2   2   5 2335.75   30.55
  -2   0   5 2328.05   30.44
   0  -2   5 2337.26   26.94
   2  -2  -5 2333.82   32.12
   2   0  -5 2330.79   30.68
   2  -2   5 2332.45   33.37
   0  -2  -5 2332.94   32.79
   2   0   5 2339.74   23.94
   0   2   5 2332.08   30.57
   0   2  -5 2330.88   27.81
   2  -2  -5 2334.63   30.30
   2  -2   5 2338.54   37.49
  -2   0  -5 2334.66   32.73
   2   0   5 2338.08   36.80
  -2   0   5 2338.52   29.76
  -2   2   5 2337.64   39.94
   2   0  -5 2335.73   38.06
   0   2  -5 2337.56   30.45
  -2   2   5 2337.97   33.64
   0   2   5 2333.89   36.96
   2  -2  -5 2337.33   35.70
   0   2  -5 2335.57   38.07
   2   0  -5 2334.38   40.28
  -2   0  -5 2339.85   26.73
   2   0  -5 2337.69   39.29
   2   0   5 2334.00   26.89
   2   0  -5 2330.98   29.94
  -2   0   5 2331.25   40.16
   0   2  -5 2333.44   40.09
   0  -2  -5 2330.21   37.66
   2  -2  -5 2333.43   39.08
  -2   0   5 2334.33   38.78
  -2   0  -5 2332.73   30.33
   2  -2  -5 2338.83   25.73
   0  -2   6 5823.06   69.50
  -2   0   6 5756.46   68.76
  -2   2  -6 5772.47   49.75
  -2   2  -6 5833.55   64.66
   2   0  -6 5721.34   69.66
  -2   0  -6 5730.74   67.94
  -2   0   6 5898.97   68.89
  -2   0   6 6264.63   54.58
   0   2   6 5274.15   65.08
  -2   2   6 5761.63   43.55
   0   2  -6 5780.99   70.42
  -2   2  -6 5386.76   62.19
   0  -2  -6 6006.85   66.08
  -2   2   6 5495.82   49.04
   2   0  -6 5704.73   67.96
   2  -2  -6 5672.72   68.93
  -2   0   6 5600.75   61.92
   2   0   6 5589.27   51.31
   2  -2  -6 5528.53   61.62
  -2   2   6 5488.58   64.89
   0  -2  -6 5650.65   58.43
   0   2  -6 5693.65   67.41
  -2   2  -6 5699.56   67.20
   0  -2   6 5591.53   67.18
   0  -2   6 5581.63   47.99
   2   0  -6 5596.02   52.17
   2  -2  -6 5614.74   49.98
  -2   2  -6 5731.24   65.25
  -2   2   6 5542.27   61.33
   2  -2   6 5605.08   49.77
  -2   0  -6 5478.04   50.70
   0   2  -6 5736.36   67.29
   2   0  -6 5712.81   68.82
   0   2  -6 5974.58   69.05
  -2   0   6 5566.26   49.54
  -2   2   6 5839.07   56.19
   2   0  -6 5543.51   50.03
  -2   2   6 5596.31   68.24
   2  -2  -6 5683.16   56.38
   2  -2   6 5634.14   63.26
   0   2  -6 5721.63   49.97
   2  -2   6 5548.73   64.18
   2  -2  -6 5619.66   43.35
  -2   0   6 5616.71   66.83
   0  -2  -6 5482.87   45.03
   0   2  -6 5687.49   69.07
   2   0   6 5552.03   66.25
   2  -2  -6 5881.19   58.66
   2  -2  -6 5605.48   67.82
   0  -2  -6 5907.10   68.70
   0  -2   6 5584.00   68.20
   2   0  -6 5733.70   69.08
   0  -2  -6 5842.17   68.79
   0   2  -6 5718.97   68.26
   2   0  -6 5738.72   69.11
   2  -2   6 5550.45   61.45
  -2   2   6 5578.19   57.49
  -2   0  -6 5577.00   49.69
   2   0   6 5475.48   49.46
  -2   2   6 5759.76   69.31
   0   2   6 5742.02   64.12
   0   2  -6 5607.64   48.68
   0  -2   6 5714.93   50.01
  -2   2  -6 5669.22   61.42
  -2   0  -6 5534.20   67.47
   2   0   6 5742.07   43.74
   2   0  -6 5682.17   62.10
   0  -2  -6 5777.00   59.55
   2  -2  -6 5205.38   63.73
   0   2   6 5410.60   49.18
   0  -2  -6 5635.97   50.36
   0  -2  -7  162.66   13.07
   2   0  -7  166.35    9.65
   0  -2  -7  158.40   13.90
  -2   2   7  160.43    8.98
   2  -2   7  168.46   12.87
  -2   2  -7  167.53   13.40
   0   2   7  161.38   12.90
   0   2   7  166.26    9.48
   0  -2  -7  163.00   14.26
   0   2  -7  166.93   13.97
   2  -2  -7  167.25   14.23
   0   2  -7  164.62    9.08
   2   0   7  162.40    9.36
  -2   2  -7  160.14   11.94
   2  -2  -7  169.12   14.01
  -2   2  -7  168.69   13.48
   2   0  -7  169.33   14.95
   2  -2  -7  169.85   14.87
  -2   2   7  166.86   14.91
   0  -2   7  169.31    9.18
  -2   2  -7  168.56   13.49
   0   2  -7  162.18   13.63
   0   2  -7  160.67   13.90
   0   2   7  160.64   14.14
   2   0  -7  165.24   14.10
  -2   2   7  163.88    8.51
   2   0  -7  168.66   13.81
   2  -2  -7  161.37    8.53
   2   0  -7  164.18   10.76
  -2   0   7  156.99   13.72
   2  -2  -7  163.16   11.94
  -2   2  -7  159.24   12.46
  -2   0  -7  162.41   14.47
   2   0  -7  169.13   12.45
   0  -2  -7  161.64   12.14
  -2   0   7  160.50   14.27
  -2   0  -7  168.59   14.71
   0   2  -7  157.12   13.71
  -2   2   7  166.84   11.74
   2  -2  -7  165.34    9.19
   2   0   7  165.81    9.35
  -2   0  -7  160.27    8.87
   2   0  -7  169.67   14.82
   0  -2  -7  162.25    9.33
   0   2  -7  168.10   13.40
   0  -2  -7  165.88    9.18
   0  -2   7  160.82   14.03
  -2   2   7  163.41   13.12
  -2   2   7  160.88   12.28
   2  -2   7  161.73   13.37
  -2   2   7  169.34   13.16
   2   0   7  164.37   14.35
   0   2  -7  160.22    9.91
  -2   0  -7  160.20   10.81
   0   2  -7  166.46   14.28
   0  -2   7  166.22    9.82
   2  -2   7  162.45   12.86
   2  -2   7  160.39    8.87
  -2   2   7  163.84   14.65
  -2   0   7  164.66   13.73
   2   0   7  160.31   10.75
  -2   0   7  166.50   10.27
   2   0  -7  164.57   12.92
   2   0  -7  167.91    7.66
   2   0  -7  166.14   14.22
   0  -2   7  167.18   14.41
   2  -2  -7  169.70   12.63
   0   2  -7  166.45    7.17
  -2   0  -7  167.83    9.19
   2  -2  -7  160.06   13.43
   0  -2  -7  169.89   12.64
  -2   2  -7  168.56    8.93
  -2   0   7  163.72   12.23
   2   0   8   97.84    7.17
   0  -2   8  110.28    7.34
   2   0   8  106.28   12.21
   2  -2  -8  108.06   12.38
  -2   0  -8   89.30   11.29
   0   2   8  112.21   12.34
  -2   2   8   88.82   10.77
   0  -2  -8  117.12   11.48
   2   0  -8   95.82    7.17
   2   0  -8   99.69    8.87
   0   2  -8  113.25   12.05
  -2   2   8  116.01   12.56
   2   0  -8   86.37   11.04
   2  -2  -8  109.56   10.68
   2   0   8  106.37    9.58
   0   2  -8  116.39    8.86
   2  -2   8  110.30   10.94
   2   0  -8   98.96   10.84
  -2   0   8  107.87   10.33
   2  -2   8  126.90   12.10
   0  -2   8  110.19   12.28
   0  -2  -8  111.36   12.25
   2   0  -8  106.94   11.90
  -2   0  -8   81.40    7.00
  -2   0  -8  112.77   12.37
  -2   0   8  115.40    9.09
   0  -2   8  105.26    8.23
  -2   2  -8  109.59   10.76
  -2   2  -8  112.73   12.41
   0   2  -8  105.55   11.99
  -2   2   8  112.96    7.18
   2  -2  -8  106.93    7.14
   2  -2  -8  108.21   11.27
   0   2   8  107.98   11.60
   0   2  -8  113.55   12.24
   0   2  -8  105.29   11.42
  -2   2  -8  108.48   10.92
  -2   0  -8  107.79    9.53
   2   0  -8   97.00    6.69
   2  -2   8  111.09   11.36
  -2   2  -8   93.01    9.98
   0  -2  -8   99.54   11.82
  -2   0   8  120.08   12.60
   2  -2  -8  103.49    7.34
   2  -2  -8  107.42   11.43
   2   0  -8   98.78   11.27
   0   2  -8  110.14   12.16
   0   2  -8   98.14    6.53
   2  -2  -8   99.08   10.50
  -2   2   8   92.06   10.24
   0  -2  -8   67.47    6.59
   2   0   8   96.22    7.58
   0  -2  -8  102.24    7.16
   2  -2  -8  108.09   10.42
   0  -2  -8  113.83   10.47
   0  -2   8  105.63   12.22
   0   2  -8  106.36    7.37
   2   0  -8   97.35   12.37
   0   2  -8  123.39   12.46
   0   2   8  107.33    7.27
  -2   0   8  105.10   11.95
  -2   2   8  115.37   12.70
  -2   0   8  108.61   12.31
  -2   2  -8  113.36   11.60
   2   0  -8  103.30   12.05
   2  -2  -8   98.25   11.47
  -2   2   8  100.87   10.87
   2   0  -8  106.90   10.65
   2  -2   8  105.02    7.24
   0  -2  -8  108.50   11.12
   0  -2  -9  479.75   20.68
   0   2   9  488.11   23.02
  -2   2  -9  478.91   22.75
  -2   2   9  513.38   24.18
   2   0  -9  490.17   19.03
  -2   0  -9  549.53   25.79
  -2   0   9  470.20   18.51
   0   2  -9  464.09   22.98
   2  -2  -9  475.52   22.90
  -2   2  -9  491.08   23.86
   0  -2  -9  328.86   14.54
  -2   2   9  462.62   21.86
   2  -2   9  505.76   22.80
   0   2   9  481.77   14.22
   2  -2  -9  533.07   22.56
   2   0  -9  471.59   21.45
  -2   0   9  510.23   24.93
   0  -2  -9  506.63   23.70
   0  -2   9  495.44   24.86
   0   2  -9  464.32   14.61
   0   2  -9  466.89   17.80
   2   0   9  501.60   25.18
   0  -2   9  487.98   24.51
   2   0   9  478.48   14.14
   0  -2  -9  431.78    8.68
   2  -2  -9  452.61   21.93
   2  -2   9  466.78   23.19
   0  -2  -9  510.21   22.52
  -2   0   9  483.78   21.11
   2  -2  -9  477.04   14.13
  -2   0   9  475.80   25.07
   2   0  -9  558.10   26.91
   2  -2  -9  501.98   14.53
  -2   2   9  526.62   25.85
   0  -2  -9  429.84    8.70
   2  -2  -9  527.55   25.87
   2   0  -9  458.16   13.82
   2   0   9  507.76   20.92
   2   0  -9  483.52   15.31
   2  -2  -9  464.45   14.60
  -2   2  -9  497.94   22.50
   2  -2  -9  492.98   24.15
   2   0  -9  481.77   14.18
   2   0   9  455.85   17.04
   2  -2   9  472.15   13.70
   0  -2  -9  454.20   14.00
   0   2   9  470.93   24.55
   0  -2  -9  501.55   22.78
  -2   2  -9  483.33   22.51
  -2   0  -9  335.13   14.22
   0  -2  -9  520.55   25.16
   2   0   9  487.79   13.95
   2  -2   9  531.64   23.49
   2  -2   9  477.52   13.99
  -2   0  -9  479.61   20.51
   2  -2  -9  510.86   22.40
  -2   2   9  533.72   24.08
  -2   0   9  495.54   24.73
   0  -2   9  478.37   14.01
   0   2  -9  484.35   14.02
  -2   0 -10  595.75   27.81
   2  -2 -10  573.77   28.37
   2   0 -10  672.16   31.00
   2  -2 -10  586.95   26.50
   2  -2  10  564.73   13.86
   0  -2 -10  582.47   24.28
  -2   0 -10  606.57   24.53
   2   0  10  592.51   20.33
   0  -2 -10  549.64   10.93
   0   2  10  580.77   14.36
  -2   2  10  602.70   25.98
   0   2 -10  570.27   14.00
   0  -2 -10  634.04   26.47
   2   0 -10  590.21   24.63
  -2   0  10  569.06   28.56
   0  -2 -10  544.82   10.98
   2  -2 -10  571.10   14.36
   2   0 -10  613.49   18.67
   0  -2 -10  549.81   14.26
   0   2 -10  603.66   20.96
   2  -2 -10  558.92   14.27
  -2   0 -10  554.74   19.42
  -2   2 -10  584.33   25.78
   0  -2  10  566.48   28.31
   2   0  10  574.23   14.01
   0  -2  10  575.81   14.15
   0   2 -10  611.62   18.21
   2  -2  10  593.35   14.19
   0  -2 -10  565.00   27.18
   2  -2 -10  572.75   16.95
   2   0 -10  577.14   14.32
  -2   2  10  628.32   29.67
   0  -2 -10  614.87   26.60
   2   0 -10  649.64   22.82
   0   2  10  607.23   27.09
   2   0  10  679.58   30.59
   2   0  10  564.08   14.03
   0  -2  10  596.60   28.09
   0  -2 -10  566.88   20.29
   2  -2 -10  655.71   26.50
  -2   0  10  645.72   29.17
   2  -2 -10  596.97   25.89
   0   2  10  665.51   29.85
  -2   0  10  572.19   23.90
  -2   2 -10  572.18   24.81
  -2   0  10  599.26   28.59
   2  -2  10  595.51   27.53
   0   2 -10  581.27   26.08
   2   0 -10  585.27   14.42
   2  -2 -10  599.62   25.85
  -2   2 -10  598.94   25.97
  -2   2  10  566.70   26.65
   2   0  10  578.75   24.16
   2  -2  10  572.36   25.66
   0   2 -11  777.23   13.01
   0   2 -11  779.37   30.44
   0  -2 -11  778.73   13.56
   2  -2 -11  789.82   13.94
   0  -2 -11  776.11   29.05
   2   0  11  776.89   13.08
   0  -2 -11  781.09   23.98
   0   2 -11  780.71   24.28
  -2   2 -11  778.44   30.08
   2   0  11  777.18   34.00
   2  -2 -11  776.55   30.28
   2  -2  11  770.84   29.77
   0  -2 -11  776.03   13.13
  -2   0  11  772.06   34.01
   2  -2 -11  770.52   13.96
   0  -2  11  774.92   32.86
   2  -2 -11  773.30   29.58
   2  -2  11  776.52   12.93
   2   0  11  778.66   28.73
   0  -2 -11  775.11   13.30
   2  -2 -11  772.47   20.00
   2  -2 -11  777.42   33.84
   0   2 -11  772.40   21.51
   2   0  11  771.51   13.09
  -2   0 -11  779.10   23.67
  -2   2  11  780.60   33.22
  -2   0 -11  777.29   30.18
   2   0 -11  777.39   28.07
  -2   0 -11  779.34   31.17
   0  -2 -11  777.12   30.89
   2   0 -11  776.51   34.28
   0  -2 -11  776.09   33.01
   2   0  11  779.22   24.33
   2  -2  11  775.40   32.21
   2   0 -11  776.88   13.48
  -2   2  11  770.81   33.83
  -2   0 -11  773.32   28.54
   0  -2  11  776.24   32.52
   2   0 -11  778.27   25.25
   2   0 -11  774.76   21.54
   0   2  11  771.89   31.47
   0   2  11  774.30   33.77
   0   2  11  779.10   13.56
  -2   0  11  772.67   33.02
   2   0 -11  779.32   13.63
   2   0 -12  148.20   12.60
   2  -2  12  136.13   15.83
   0   2  12  175.19   17.28
   2   0  12  155.25   17.49
   0   2 -12  162.18   13.01
   0  -2 -12  157.68   16.78
  -2   2 -12  140.42   15.15
  -2   0 -12  109.20   13.55
   0  -2  12  140.58   17.67
  -2   2 -12  146.01   13.46
   0  -2 -12  147.23    6.66
   0  -2 -12  139.97    6.58
  -2   2  12  163.14   17.40
   2  -2 -12  153.94   15.68
   0  -2 -12  157.62   16.51
  -2   0 -12  150.85   12.24
   2  -2 -12  151.93   17.63
   0  -2  12  160.33   17.19
   0  -2 -12  161.33   16.15
   2   0 -12  155.77   17.79
  -2   2 -12  145.23   14.80
   0  -2 -12  159.45   12.81
  -2   2  12  156.09   17.42
  -2   0  12  156.24   18.05
   2   0 -12  155.10   11.23
  -2   0 -12  132.54   16.00
   0   2 -12  148.55   11.02
   2  -2 -12  151.99    9.89
  -2   0  12  159.71   17.75
   0   2 -12  140.08   15.40
   0   2  12  168.11   17.86
   2   0  12  159.73   15.08
   2   0 -12  160.15   14.58
   2  -2  12  132.51   14.62
  -2   0 -12  153.82   15.90
   2   0  13  156.43   18.30
   2  -2  13  132.82   15.28
   0   2 -13  130.42   12.24
  -2   2  13  142.51   17.80
  -2   0 -13  131.95   16.53
   0   2  13  135.64   16.39
   2  -2 -13  124.64   14.86
   0   2 -13  124.59   16.30
   0   2 -13  122.87   10.63
   2  -2 -13  133.20    9.61
  -2   0 -13  137.14   12.29
  -2   0  13  121.82   16.28
   0  -2 -13  138.39   16.68
  -2   0  13  151.75   18.30
   0  -2 -13  127.40   12.27
  -2   2 -13  130.81   14.32
   2   0 -13  133.54   13.35
   2   0 -13  141.19   14.35
   2   0 -13  158.25   19.21
  -2   2 -13  133.99   15.11
   0   2 -13  123.26   14.58
   2   0 -13  127.07   10.99
  -2   2  13  128.57   16.39
  -2   0 -13  135.33   15.97
   0   2  13  144.59   17.88
   0  -2  13  146.31   17.33
  -2   2 -13  145.23   13.85
  -2   0 -13  135.23   12.29
   0  -2 -13  132.09   16.01
   2  -2 -13  144.29   17.78
   2  -2  13  140.81   17.45
  -2   0 -13  131.97   15.64
   0  -2 -13  126.10   15.66
   2   0 -14  657.09   27.87
   0   2  14  585.41   32.62
   2   0 -14  621.08   23.71
   0  -2 -14  623.78   32.53
   0  -2  14  599.22   33.74
   2  -2 -14  633.57   32.25
  -2   2  14  669.61   35.91
   0   2 -14  588.67   25.61
  -2   2  14  635.68   35.89
   2   0  14  692.77   36.97
   2  -2  14  619.15   31.45
   2  -2 -14  604.81   28.89
   2  -2 -14  643.82   35.84
   2   0 -14  615.76   36.29
   2  -2  14  630.47   35.08
  -2   0 -14  666.78   34.32
  -2   0  14  601.94   35.05
  -2   0 -14  617.80   25.44
   0  -2 -14  618.04   33.43
   0  -2 -14  586.05   32.51
   0   2 -14  644.94   31.87
  -2   0 -14  634.17   33.21
  -2   2 -14  611.24   28.13
   0   2 -14  587.09   23.11
  -2   2 -14  636.88   30.54
   0   2 -14  619.17   35.60
   0   2  14  625.16   35.25
  -2   2 -14  588.75   30.54
  -2   0 -14  436.09   27.53
   2   0 -14  640.97   28.78
   0  -2 -15    8.80    9.73
  -2   0 -15    9.51    8.77
   2  -2  15    8.24   10.74
   0  -2 -15    3.12    9.18
   2   0 -15   16.86   11.99
   0   2  15   16.46   11.14
   0  -2  15   10.27   10.23
  -2   0 -15    3.62    6.84
   0   2 -15   22.33    8.09
  -2   2 -15    3.10    7.29
   2   0  15    8.82    8.91
   2   0 -15   10.44    8.04
  -2   2  15   12.00   10.71
  -2   0  15    6.13   10.69
   0  -2 -15    8.21    9.65
   0   2 -15   18.73    9.49
   2   0 -15   -1.06    6.52
   2  -2 -15    9.22   10.49
  -2   2  15    5.23   10.32
   2  -2 -15    1.54    6.45
   2  -2 -15    6.94    7.25
   2  -2  15    2.06    7.96
   0   2 -15    2.06    8.41
  -2   2 -15   -1.17    7.63
   0   2  15    5.78    9.59
  -2   2 -15   11.77    7.57
  -2   0 -15   14.24   10.16
   2  -2 -16    5.15   10.28
   2   0  16   19.54   11.67
   0   2  16   26.94   13.38
   0   2 -16    6.66    9.78
   0  -2 -16    6.97    8.88
   2  -2  16   12.05    9.14
   0  -2 -16    2.31    8.74
  -2   0 -16   12.73   11.58
  -2   0 -16    1.14    8.75
   2  -2  16    9.61   10.13
  -2   2 -16    9.81    7.74
  -2   2 -16    0.69    9.74
  -2   2  16   13.91   10.20
   2  -2 -16   16.72    8.47
  -2   0 -16   14.40   10.16
  -2   2 -16   16.14    9.03
   0   2 -16   12.33    8.16
   2  -2 -16    8.51    9.56
   2   0 -16   11.78   11.49
  -2   2 -16   12.17    7.30
   0   2  16   11.08   11.65
   0  -2 -16   24.86   11.95
  -2   0 -17  130.77   19.39
   0  -2 -17  125.03   19.65
  -2   2 -17  110.69   17.26
  -2   0 -17   98.80   16.69
   0   2  17  134.42   20.96
  -2   2  17  126.88   20.75
   0  -2 -17  126.43   18.47
   0   2  17  163.63   21.97
   2   0 -17  127.47   20.28
   0   2 -17  138.09   21.08
   2   0  17  156.07   22.65
   2  -2  17  119.85   17.28
   0  -2 -17  129.96   18.32
  -2   2 -17  119.80   18.88
   0   2 -17  114.00   16.31
   2  -2 -17  109.43   16.98
   2  -2 -17  115.77   19.46
  -2   0 -17  124.56   20.17
   0  -2 -18  298.26   27.24
   0  -2 -18  282.76   27.82
   2  -2 -18  292.21   26.20
   0  -2 -18  288.91   27.76
   0   2  18  294.61   28.10
  -2   0 -18  289.23   27.89
  -2   2 -18  288.68   25.40
  -2   0 -18  255.28   25.88
  -2   0 -18  271.95   25.74
  -1  -2 -18  613.26   39.79
  -1   3 -18  626.54   37.75
  -1  -2 -18  652.18   39.70
   2  -3  18  607.72   38.44
  -2  -1 -18  614.76   39.51
  -2  -1 -18  589.43   37.81
  -2  -1 -18  606.77   39.41
   1   2  18  608.72   38.24
   3  -2 -17   39.31   12.42
   2  -3  17   50.49   14.30
  -2   3 -17   40.65   12.17
   1   2  17   44.89   14.37
  -1  -2 -17   49.70   14.89
  -1  -2 -17   39.46   13.34
  -1   3 -17   39.66   12.52
  -2  -1 -17   36.38   12.80
  -1  -2 -17   31.86   13.59
  -2  -1 -17   47.89   12.80
  -2  -1 -17   63.92   15.85
   1  -3  17   46.90   14.78
   2  -3  16  249.14   23.53
  -1   3 -16  251.62   23.30
  -1   3 -16  241.44   25.33
   2   1  16  276.81   27.13
  -1  -2 -16  237.51   23.22
  -3   1  16  256.25   26.99
   1   2  16  264.66   27.05
  -3   1  16  279.54   26.53
   3  -2 -16  226.20   21.22
   1   2  16  238.64   23.53
  -1  -2 -16  246.47   24.67
  -2  -1 -16  267.89   24.12
  -1  -2 -16  253.07   24.92
   3  -1 -16  255.58   21.10
   3  -1 -16  227.50   25.03
   3  -2 -16  291.84   27.76
   1  -3  16  261.63   25.32
  -2   3 -16  246.67   21.53
  -2  -1 -16  237.73   24.28
  -3   2  16  264.36   26.99
  -2   3 -16  229.46   21.89
  -2  -1 -16  244.91   24.46
   2   1  15  153.51   17.33
  -2  -1 -15  134.73   18.40
  -2  -1 -15  133.23   16.88
   3  -2 -15  154.17   15.01
  -1   3 -15  151.95   15.58
  -3   1  15  154.36   21.10
  -3   2  15  137.16   19.30
   3  -1 -15  153.76   16.37
  -3   1  15  158.67   20.27
  -1  -2 -15  134.15   17.64
   3  -1 -15  147.43   20.53
   1  -3  15  148.63   19.52
   2   1  15  147.81   20.57
   3  -2 -15  152.98   18.15
   1   2  15  165.12   18.58
  -1  -2 -15  146.13   18.85
   3  -1 -15  155.82   15.35
  -2  -1 -15  130.26   18.66
  -2   3 -15  161.90   17.19
  -1  -2 -15  148.15   19.42
   2  -3  15  150.42   18.60
  -1   3 -15  148.89   17.97
   3  -2 -15  172.56   22.12
   1   2  15  154.30   20.61
  -2   3 -15  169.61   18.74
  -3   1  14  273.18   25.28
  -3   2  14  254.66   24.29
  -2  -1 -14  304.37   25.22
  -2   3 -14  274.25   21.45
  -2  -1 -14  240.33   20.79
   1  -3  14  250.62   23.17
  -3   2  14  271.44   23.10
   2   1  14  285.07   25.69
   3  -1 -14  255.90   24.43
  -2   3 -14  299.12   23.15
   2   1  14  283.01   21.59
   3  -2 -14  247.01   20.73
   2  -3  14  256.34   22.65
  -1  -2 -14  279.73   24.00
   3  -1 -14  268.80   18.79
   3  -2 -14  263.41   24.51
   3  -1 -14  265.50   19.97
   1   2  14  241.43   23.80
  -1  -2 -14  246.01   22.48
  -1   3 -14  278.51   19.28
   3  -2 -14  274.17   18.70
  -1  -2 -14  255.22   21.42
  -2   3 -14  270.17   17.75
   1   2  14  273.01   22.40
  -3   1  14  280.35   24.31
  -1   3 -14  281.43   23.09
  -2  -1 -14  260.28   23.32
   3  -2 -13   89.54   15.42
  -1  -2 -13   93.25   14.82
  -2  -1 -13   86.69   14.91
   3  -1 -13   89.00   11.89
  -3   2  13   94.70   14.45
   2   1  13   87.82   12.95
  -2  -1 -13   78.16   12.99
   3  -1 -13   96.89   12.67
  -1   3 -13   87.17    9.25
   1  -3  13   93.50   15.30
   2   1  13   91.60   15.47
   1   2  13   84.30   14.92
   3  -1 -13   88.27    9.92
  -3   2  13  104.38   17.07
   3  -2 -13   84.12    9.72
  -1  -2 -13  102.52   15.40
   1   2  13   78.92   12.75
  -3   1  13   86.86   15.94
   3  -2 -13   79.13   13.15
  -2   3 -13   82.73   13.38
  -3   1  13   85.96   14.51
  -2  -1 -13   75.40   13.53
   3  -1 -13   85.07   16.00
  -2   3 -13   70.46    9.85
  -1  -2 -13  100.36   14.03
  -1   3 -13   91.32   14.51
  -1   3 -13   95.56   11.89
  -2   3 -13   80.77   12.25
   2  -3  13   80.96   13.27
   2  -3  12    6.98    8.38
  -2  -1 -12   -1.00    8.05
   1   2  12    4.70    7.24
   2  -3  12    3.61    2.91
   1   2  12    5.24    7.70
  -1  -2 -12    7.34    8.09
  -3   1  12   -5.70    8.05
   3  -1 -12   -3.29    4.85
  -2  -1 -12    4.37    6.67
   2   1  12    0.83    6.43
  -2   3 -12   -1.22    7.37
   3  -2 -12   -3.25    7.36
  -2   3 -12    5.28    6.90
  -2  -1 -12    3.98    3.89
   2  -3  12    7.10    2.92
   3  -2 -12    6.84    3.05
  -1   3 -12    6.68    6.39
  -1  -2 -12    5.24    8.18
   1  -3  12   -3.71    8.28
  -1   3 -12    6.53    8.09
   2   1  12    0.91    2.28
   2   1  12    1.85    2.61
  -1  -2 -12    1.76    2.28
  -1  -2 -12    1.35    4.27
  -1   3 -12    1.32    3.95
   3  -2 -12    6.56    5.37
  -3   2  12    8.00    8.06
   3  -1 -12    4.60    8.40
  -1  -2 -12    1.90    7.47
  -3   1  12    2.83    8.68
   1  -3  12    1.85    2.45
  -2  -1 -12    5.28    8.56
   2   1  12    0.32    7.81
   3  -1 -12    0.54    5.64
   3  -2 -12    8.07    8.21
  -3   2  12    0.73    8.73
  -2   3 -12    1.87    5.26
   1   2  12    1.77    2.57
   3  -1 -12    1.02    2.54
  -1   3 -12    2.01    2.61
  -2  -1 -12    2.62    4.11
   3  -1 -12    4.84    6.48
  -3   1  12    2.97    5.16
  -3   1  12   -0.91    7.66
  -1   3 -11   96.01   10.90
   3  -1 -11  107.86    8.07
   1   2  11  102.69   14.83
  -2   3 -11  105.27   13.60
   1   2  11   96.30    7.70
   2   1  11   85.71   13.84
   3  -1 -11  100.32   11.28
  -3   2  11  111.21   13.93
  -1   3 -11   98.32    7.53
   3  -2 -11   92.43   12.88
  -2  -1 -11   98.33   14.01
  -2   3 -11  104.33    7.61
  -2  -1 -11  100.82   12.40
  -1   3 -11  112.35   13.70
   3  -2 -11  102.69    7.92
   3  -1 -11   97.74    7.62
  -2   3 -11  106.24   13.06
  -3   2  11   95.77    9.43
  -2  -1 -11   98.24    9.22
   1  -3  11   94.41   14.05
  -2  -1 -11  108.88    8.31
   1  -3  11  102.49   10.97
  -3   1  11  106.01   11.43
   3  -2 -11  101.55   10.02
  -2  -1 -11   97.54   11.89
   2  -3  11  107.55   13.62
  -3   1  11  101.56   13.57
   3  -1 -11  109.23    9.46
  -1  -2 -11  112.16   12.68
  -1  -2 -11   96.10   13.63
   3  -1 -11  109.47   12.16
  -1  -2 -11   98.53    7.61
  -1  -2 -11   97.18    6.34
   3  -1 -11   90.10   13.96
  -1   3 -11   95.09    8.27
  -3   1  11  103.84   11.15
  -1  -2 -11   98.50   14.35
   3  -2 -11  105.28    7.95
  -3   1  11  119.95   14.61
  -1  -2 -11  101.92    8.22
  -3   2  11  102.85   14.51
   2  -3  11  106.74    7.68
   3  -2 -11   98.20   15.23
   2   1  11  109.22    7.92
   2   1  11  112.60   12.01
   1  -3  11   98.22    7.41
   1   2  11  101.51   12.69
  -2  -1 -11   92.08   13.68
  -3   1  11   97.50   15.04
  -1  -2 -11   99.63    6.43
   3  -1 -10  353.34   14.32
  -2  -1 -10  354.09   18.86
   3  -2 -10  338.83   13.93
  -3   1  10  318.86   21.48
  -2   3 -10  334.69   13.69
   3  -2 -10  364.69   21.50
  -1  -2 -10  343.08   20.51
   3  -2 -10  367.17   24.27
   3  -1 -10  353.92   14.40
  -3   2  10  369.21   21.57
   3  -1 -10  367.76   24.42
   1   2  10  372.45   24.17
  -3   1  10  340.91   18.64
  -2  -1 -10  367.59   23.53
  -1  -2 -10  378.83   13.51
  -3   2  10  333.27   20.43
  -2  -1 -10  374.61   20.06
  -3   2  10  389.09   24.93
  -2   3 -10  353.64   22.32
   1  -3  10  381.52   19.04
   3  -2 -10  357.68   14.53
  -1  -2 -10  360.72   14.68
   2  -3  10  365.69   22.40
   1  -3  10  365.56   23.16
   1   2  10  348.57   14.38
   3  -2 -10  318.74   22.27
  -2   3 -10  370.13   20.79
  -2  -1 -10  373.47   23.60
  -2  -1 -10  359.65   16.01
  -1  -2 -10  348.23   19.52
   1  -3  10  353.91   14.06
  -2  -1 -10  357.71   14.44
  -1   3 -10  350.21   14.03
   3  -1 -10  349.48   18.74
  -3   1  10  365.07   22.65
   3  -2 -10  351.71   16.54
  -1  -2 -10  343.22   11.09
  -3   2  10  340.78   16.21
  -1   3 -10  342.80   18.08
  -1   3 -10  367.51   22.60
   2  -3  10  346.80   13.94
   2   1  10  361.32   14.28
  -2  -1 -10  356.61   12.85
  -1  -2 -10  353.08   22.75
  -3   1  10  378.41   24.32
   1   2  10  330.61   19.72
   2   1  10  359.26   19.16
   2   1  10  355.49   23.35
  -1   3 -10  358.20   14.06
   2  -3  10  353.62   20.48
   3  -1 -10  387.37   20.17
  -3   1  10  341.69   18.45
  -1   3  -9 1384.78   34.07
  -2  -1  -9 1359.28   34.65
  -2  -1  -9 1325.14   40.97
  -2  -1  -9 1377.72   29.34
  -1   3  -9 1322.67   40.10
   3  -1  -9 1494.02   36.83
  -3   1   9 1243.47   33.60
  -3   2   9 1317.41   29.92
   3  -2  -9 1397.35   28.40
   2   1   9 1397.00   42.32
  -3   2   9 1382.24   38.35
  -1  -2  -9 1386.79   35.36
   2  -3   9 1307.81   27.43
   3  -2  -9 1382.85   38.11
   3  -1  -9 1399.24   28.59
  -1  -2  -9 1406.62   38.75
  -3   2   9 1363.07   37.94
   3  -2  -9 1385.81   38.77
  -3   1   9 1373.09   42.51
  -3   2   9 1417.62   43.13
   3  -2  -9 1321.47   27.91
  -2  -1  -9 1373.91   21.77
  -1   3  -9 1361.62   27.91
  -3   1   9 1420.03   35.41
   1   2   9 1410.54   37.02
   2  -3   9 1376.82   40.20
  -3   1   9 1377.93   40.30
   2  -3   9 1387.53   37.42
   1   2   9 1405.67   28.42
   3  -1  -9 1346.70   28.01
  -1  -2  -9 1450.60   38.22
  -2   3  -9 1415.10   37.62
  -1  -2  -9 1346.39   21.21
  -1  -2  -9 1315.55   22.19
  -3   2   9 1379.16   37.63
   3  -2  -9 1395.94   38.33
   3  -1  -9 1385.69   35.03
   2   1   9 1431.88   34.36
  -2  -1  -9 1310.98   33.04
   1  -3   9 1360.15   41.29
  -2   3  -9 1358.50   27.94
   2   1   9 1371.61   28.43
  -1  -2  -9 1452.77   42.35
  -2  -1  -9 1362.93   28.11
  -1   3  -9 1398.61   25.28
   3  -2  -9 1342.95   30.61
   1  -3   9 1327.82   27.71
   3  -2  -9 1361.00   42.60
   1   2   9 1362.23   41.64
   1  -3   9 1353.28   33.43
   3  -1  -9 1432.79   43.15
   1  -3   9 1349.46   41.22
  -3   1   9 1370.95   40.15
  -1  -2  -9 1333.38   28.08
  -3   2   8   21.93    8.17
   3  -2  -8   21.10    6.00
  -1   3  -8   21.93    8.11
   3  -2  -8   21.91    6.58
   3  -1  -8   21.80    9.41
   2   1   8   21.50    6.81
   3  -2  -8   21.86    5.79
  -1   3  -8   21.05    8.65
   2  -3   8   21.36    7.55
   1   2   8   21.26    9.74
   2   1   8   21.62    6.24
  -2  -1  -8   21.70    9.45
  -3   2   8   21.97    9.10
  -3   1   8   21.36    6.92
  -1  -2  -8   21.85    3.95
   3  -2  -8   21.70    9.61
  -3   2   8   21.24    6.77
  -2  -1  -8   21.12    3.53
   3  -2  -8   21.90   10.67
   3  -1  -8   21.28    6.50
  -1  -2  -8   21.04    7.31
   3  -1  -8   21.08    6.20
   3  -1  -8   21.57   10.47
  -1   3  -8   21.75    8.31
  -2   3  -8   21.46    9.18
  -3   1   8   21.82    8.47
  -1   3  -8   21.86    4.72
   1  -3   8   21.04    9.70
   1  -3   8   21.40   10.67
  -2  -1  -8   21.15    6.66
   1  -3   8   21.23    5.96
  -1  -2  -8   21.54    6.22
  -3   2   8   21.26    8.14
  -2   3  -8   21.20    8.29
  -3   1   8   21.07    9.91
  -2  -1  -8   21.30    7.06
  -2  -1  -8   21.33    5.32
   1   2   8   21.98    7.57
  -3   2   8   21.32    8.33
  -1  -2  -8   21.78    3.71
   3  -2  -8   21.93   12.77
  -2   3  -8   21.28    7.79
   1  -3   8   21.88    6.94
   2   1   8   21.18    8.72
  -2   3  -8   21.31    7.63
  -1  -2  -8   21.12    9.13
   2  -3   8   21.59    9.66
   3  -1  -8   21.42    7.87
  -1   3  -8   21.65    6.36
  -3   1   8   21.02    8.66
  -2   3  -8   21.83    7.60
  -2  -1  -8   21.07    5.75
  -3   1   8   21.60    7.67
   1   2   8   21.62    6.03
   2  -3   8   21.03    5.85
   3  -1  -8   21.69    7.62
   3  -1  -8   21.98   14.45
   3  -2  -8   21.41    9.08
  -1   3  -8   21.93    7.13
  -1   3  -8   21.48    9.31
   3  -2  -8   21.18   10.45
  -1  -2  -8   21.29    8.65
   3  -2  -8   21.21   12.82
   3  -1  -8   21.42    9.91
  -2   3  -8   21.12    5.90
   3  -1  -7 2409.49   38.27
  -3   2   7 2414.53   44.55
  -3   1   7 2479.35   50.14
  -3   1   7 2362.45   42.49
  -2   3  -7 2298.87   44.23
   3  -2  -7 2365.01   46.03
   3  -1  -7 2382.07   47.08
   3  -1  -7 2410.56   48.17
   2  -3   7 2378.92   44.91
  -2  -1  -7 2401.61   49.80
   3  -1  -7 2399.48   37.87
  -2   3  -7 2350.78   49.24
  -1   3  -7 2441.51   50.13
   1   2   7 2536.56   50.66
  -3   1   7 2401.81   43.34
   1  -3   7 2431.73   40.70
   3  -2  -7 2440.81   44.48
   1   2   7 2409.67   38.03
  -2  -1  -7 2391.91   36.64
  -3   2   7 2426.37   50.84
  -2  -1  -7 2391.89   38.43
   2  -3   7 2288.09   47.40
  -2   3  -7 2426.74   48.83
   3  -2  -7 2419.55   45.08
   3  -2  -7 2311.29   37.31
  -2   3  -7 2402.18   37.62
   2  -3   7 2364.07   37.55
  -1  -2  -7 2484.71   50.42
  -2   3  -7 2321.63   36.89
  -1  -2  -7 2260.78   21.57
   3  -2  -7 2392.79   37.94
  -1  -2  -7 2465.11   39.30
  -1  -2  -7 2351.17   42.60
   2   1   7 2393.05   37.80
   3  -1  -7 2517.97   49.65
  -3   1   7 2515.73   51.43
  -2   3  -7 2462.57   48.10
   1   2   7 2344.87   42.51
  -3   2   7 2409.07   38.45
   1  -3   7 2411.98   48.15
  -2  -1  -7 2440.80   38.47
  -3   1   7 2400.28   47.20
   3  -1  -7 2393.59   49.50
   3  -1  -7 2342.37   49.66
   3  -1  -7 2424.61   43.25
  -2  -1  -7 2340.15   37.67
   1  -3   7 2334.81   37.19
   1  -3   7 2436.27   49.93
  -3   2   7 2462.92   44.21
   3  -2  -7 2408.97   50.88
  -2  -1  -7 2326.53   19.69
  -1  -2  -7 2349.75   38.03
   3  -2  -7 2341.42   39.32
  -3   2   7 2202.06   44.61
   2   1   7 2362.66   37.97
   3  -2  -7 2386.57   44.37
  -1   3  -7 2229.10   45.31
   3  -1  -7 2357.92   49.85
  -1  -2  -7 2328.08   27.12
  -1   3  -7 2394.10   40.66
  -1   3  -7 2420.19   49.14
   3  -1  -7 2286.55   41.63
  -2   3  -7 2212.60   43.29
  -3   1   7 2358.77   47.05
  -1   3  -7 2325.70   37.10
  -3   2   7 2291.58   49.19
   2   1   7 2600.26   51.75
   3  -2  -7 2432.86   50.47
  -1   3  -7 2358.95   28.40
  -1   3  -7 2403.02   49.93
   3  -2  -7 2358.62   37.86
  -1   3  -7 2475.85   48.80
   3  -1  -6 5222.77   44.44
   2   1   6 5296.22   56.75
  -3   1   6 5329.12   69.10
   3  -1  -6 5551.09   72.16
   3  -1  -6 5292.82   68.29
   3  -1  -6 5098.73   59.79
  -3   1   6 5384.15   62.95
  -2  -1  -6 5520.11   53.07
   1   2   6 5439.52   70.93
  -1   3  -6 5297.35   57.72
  -2   3  -6 5370.90   53.44
   3  -2  -6 5271.49   55.77
  -1   3  -6 5342.97   66.36
   3  -1  -6 5533.85   72.24
  -1  -2  -6 4996.96   25.01
  -3   2   6 5306.02   71.87
   2  -3   6 5242.53   55.86
   2  -3   6 5420.11   64.71
   3  -1  -6 5256.47   61.73
  -1   3  -6 5174.25   69.14
  -2  -1  -6 5330.06   70.60
  -2   3  -6 5447.69   66.85
   1  -3   6 5300.26   66.04
   3  -1  -6 5244.69   56.45
   1   2   6 5300.65   56.66
  -3   2   6 5328.34   55.35
   2  -3   6 5347.01   68.91
  -2   3  -6 5387.74   69.11
   3  -2  -6 5394.94   70.36
  -1   3  -6 5316.32   39.46
  -1   3  -6 5290.95   69.71
   2   1   6 5728.48   72.94
  -3   1   6 5479.17   62.57
  -1  -2  -6 5444.74   71.24
   3  -2  -6 5311.54   56.43
  -1  -2  -6 5184.60   56.36
   3  -2  -6 5338.53   66.60
   3  -2  -6 5230.11   54.99
  -3   2   6 5330.85   61.21
  -3   2   6 5284.94   61.42
  -3   1   6 5254.25   66.04
  -3   2   6 5333.66   66.50
   3  -2  -6 5387.10   72.64
   3  -2  -6 5261.93   56.34
  -1   3  -6 5337.89   56.29
   3  -1  -6 5288.73   68.56
  -1   3  -6 5124.20   63.94
   3  -2  -6 5251.79   62.62
   3  -1  -6 5193.22   55.74
  -2   3  -6 5216.17   61.06
  -1  -2  -6 5335.92   51.86
   3  -2  -6 5496.07   62.96
   3  -1  -6 5036.91   64.77
  -2  -1  -6 5171.89   56.17
  -3   1   6 5234.40   66.77
   1  -3   6 5116.42   69.13
   1   2   6 5265.14   59.09
   3  -1  -6 4983.42   63.26
  -2   3  -6 5464.34   70.11
  -3   1   6 5220.80   70.01
  -3   2   6 5303.41   69.84
  -2   3  -6 5326.56   64.53
   3  -2  -6 5553.16   63.10
  -2   3  -6 5284.79   55.87
  -1   3  -6 5344.99   69.88
   2   1   6 5416.46   51.64
   1  -3   6 5220.75   57.61
   1  -3   6 5192.08   55.85
   2  -3   5  745.12   23.66
  -2  -1  -5  729.50   25.22
  -3   2   5  764.77   22.50
   1   2   5  742.06   21.51
   3  -2  -5  752.73   26.40
   2   1   5  756.06   26.14
   3  -1  -5  733.29   22.84
  -3   2   5  730.84   20.52
  -1   3  -5  719.48   22.93
   1   2   5  753.46   16.04
   3  -1  -5  728.51   25.48
  -3   1   5  756.34   24.84
   3  -2  -5  868.61   25.94
   1  -3   5  739.14   25.45
   3  -1  -5  740.05   24.31
   1   2   5  766.33   26.22
  -1  -2  -5  566.62   13.88
   3  -1  -5  715.30   21.19
  -2   3  -5  817.48   26.21
  -2   3  -5  701.87   18.88
  -2   3  -5  775.11   24.16
   2   1   5  693.79   17.10
   1   2   5  726.53   21.09
  -1   3  -5  767.30   23.50
   3  -1  -5  785.52   28.00
  -3   2   5  701.03   24.30
  -2  -1  -5  694.78   19.22
  -3   1   5  788.66   25.85
  -1   3  -5  754.67   25.58
   1  -3   5  766.96   21.61
  -2  -1  -5  727.99   21.31
  -1   3  -5  754.47   25.50
  -3   2   5  698.78   21.37
  -1   3  -5  701.87   13.79
  -1  -2  -5  703.33   21.10
   3  -2  -5  713.12   20.32
   3  -1  -5  723.44   22.41
   3  -2  -5  734.36   23.85
  -1  -2  -5  769.82   25.87
   3  -2  -5  773.74   25.07
  -1  -2  -5  691.99   16.87
  -3   1   5  730.69   22.73
  -1   3  -5  752.63   21.62
   1  -3   5  736.06   21.46
  -3   1   5  794.39   25.42
   3  -1  -5  714.27   21.38
   3  -2  -5 1036.60   26.82
  -3   2   5  699.75   23.83
   3  -2  -5  739.59   25.00
   2   1   5  753.56   22.01
   1  -3   5  719.38   22.93
   3  -2  -5  704.40   20.99
  -2   3  -5  741.27   21.32
  -3   1   5  781.99   22.93
  -1   3  -5  747.70   21.47
   2  -3   5  710.74   24.57
   3  -1  -5  735.19   23.02
  -3   2   5  752.43   26.15
   3  -2  -5  755.08   21.66
  -2   3  -5  712.81   22.92
  -1   3  -5  732.84   24.49
   2  -3   5  738.24   21.45
  -3   1   5  747.73   25.03
  -2   3  -5  745.18   21.82
   3  -1  -5  731.91   16.27
   2  -3   4 4906.02   65.23
   1   2   4 4920.65   64.77
  -2  -1  -4 4919.52   63.82
  -3   2   4 4919.12   56.05
   2   1   4 4912.08   42.26
   3  -2  -4 4929.17   51.51
  -1   3  -4 4822.72   55.24
  -1  -2  -4 4905.18   57.65
  -1  -2  -4 4842.13   63.43
   3  -1  -4 4896.02   65.29
   1  -3   4 4901.83   55.45
  -1   3  -4 4860.40   57.21
   3  -1  -4 4875.77   58.05
   1   2   4 4893.41   57.90
  -3   2   4 4916.41   65.95
   3  -2  -4 4845.48   63.08
   1  -3   4 4919.32   57.67
   3  -1  -4 4896.95   57.28
  -2   3  -4 4901.34   52.33
   1  -3   4 4924.49   64.71
   1   2   4 4882.23   51.24
   3  -2  -4 4913.71   54.21
   2  -3   4 4870.75   61.17
   2   1   4 4902.47   57.70
  -1   3  -4 4920.75   65.03
  -1   3  -4 4935.38   65.29
  -2  -1  -4 4871.78   52.83
   3  -2  -4 4860.40   57.60
   3  -1  -4 4876.41   58.80
  -3   1   4 4899.22   60.21
  -1   3  -4 4861.88   37.81
   3  -1  -4 4898.53   60.53
  -3   1   4 4869.12   58.02
   1   2   4 4826.37   44.48
  -2   3  -4 4848.43   57.15
  -2   3  -4 4891.73   51.16
  -2  -1  -4 4847.05   57.43
   2  -3   4 4822.97   56.86
   3  -1  -4 4872.08   60.57
  -3   2   4 4895.52   62.59
  -1   3  -4 4898.04   57.18
  -3   1   4 4805.67   64.06
  -1  -2  -4 4834.05   39.44
  -2   3  -4 4811.54   61.28
  -3   2   4 4850.75   54.68
  -3   2   4 4895.22   65.27
  -3   1   4 4881.29   60.09
   3  -2  -4 4869.42   53.92
  -3   1   4 4865.28   59.99
  -2   3  -4 4827.55   64.75
  -3   1   4 4866.02   63.88
   1  -3   4 4840.31   57.19
   2   1   4 4917.99   52.55
  -2   3  -4 4915.53   57.35
  -1   3  -4 4851.93   60.81
  -3   2   4 4885.48   57.21
   3  -2  -4 4915.97   62.23
   2   1   4 4877.79   64.04
   3  -2  -3   85.88    8.35
  -2  -1  -3   77.96    9.30
   3  -2  -3   81.55    8.95
   2   1   3   80.35    5.59
   1  -3   3   79.69    8.45
  -3   2   3   75.62    8.51
  -1  -2  -3   68.56    6.32
  -3   1   3   78.66   10.77
   3  -2  -3   76.76    8.93
  -2   3  -3   79.70    8.56
  -3   2   3   73.28    8.70
  -1   3  -3   62.86    6.74
  -3   1   3   73.15    8.01
   2  -3   3   84.30   10.08
  -2  -1  -3   69.71    8.02
  -2  -1  -3   78.78    7.65
  -3   2   3   79.81    8.56
   2   1   3   83.67    8.76
   3  -1  -3   84.13    8.82
  -2   3  -3   89.43    9.68
  -2   3  -3   81.27    7.45
  -1   3  -3   69.24    8.11
  -1   3  -3   72.92    5.29
  -3   1   3  105.21    9.16
   1   2   3   76.33    8.52
   2  -3   3   77.96    7.23
   1  -3   3   72.28    8.81
  -2   3  -3   75.76    7.16
  -3   2   3   84.40    7.96
  -3   1   3   88.29    8.90
  -2   3  -3   71.68    6.28
   3  -1  -3   72.83    5.90
   3  -1  -3   87.79    9.38
   1  -3   3   74.63    5.47
  -2   3  -3   92.73    9.73
  -3   1   3  111.61   11.13
  -1   3  -3   76.43    9.10
   3  -2  -3   78.50    6.36
  -1   3  -3   87.16    9.08
  -1   3  -3   77.84    9.55
  -3   2   3   81.71    8.82
   1   2   3   76.80    6.83
   2  -3   3   79.78    8.43
  -3   2   3   76.41    8.74
   2   1   3   83.21    8.21
  -1  -2  -3   72.77    8.09
   2  -3   3   76.95    8.44
   1   2   3   68.29    3.41
  -3   1   3   87.80    9.27
   3  -2  -3   75.48    8.12
   1  -3   3   74.14    7.89
   3  -1  -3   82.44    8.10
   1  -3   3   77.31    7.46
   3  -1  -3   78.50    8.38
  -1   3  -3   76.22    7.88
  -3   1   3   92.16    7.36
  -3   2   3   83.02    9.55
  -1  -2  -3   69.23    3.35
   3  -2  -3   83.31    8.54
  -1  -2  -2 3165.43   36.77
   3  -2  -2 3267.46   41.66
   2   1   2 3010.17   40.15
   1   2   2 3048.89   25.92
   2  -3   2 3084.19   43.20
   2  -3   2 3132.52   44.19
   3  -2  -2 3063.51   40.97
   2  -3   2 3093.52   45.25
   3  -1  -2 3144.24   44.39
  -2   3  -2 2969.55   29.46
  -1  -2  -2 3133.56   25.75
   3  -2  -2 3178.96   43.53
  -2   3  -2 3069.41   33.84
  -2   3  -2 3170.24   45.48
  -2  -1  -2 3124.89   40.53
  -3   1   2 3191.52   44.51
  -1   3  -2 3108.84   34.43
  -3   1   2 3158.41   42.90
   1  -3   2 3220.58   43.74
  -1   3  -2 3276.66   45.53
   1  -3   2 3047.57   34.04
  -1   3  -2 2894.79   30.88
   3  -1  -2 3153.54   43.76
  -3   2   2 3085.19   41.36
  -3   2   2 3134.08   43.32
  -1   3  -2 3130.77   43.26
   2  -3   2 3201.36   38.85
   3  -2  -2 3112.78   30.11
   1  -3   2 3022.40   44.02
   1   2   2 3151.62   36.88
  -3   2   2 3157.12   45.33
  -1   3  -2 3055.33   37.27
   1  -3   2 3006.83   31.59
  -2   3  -2 3113.40   43.27
  -3   1   2 3359.05   44.18
   1   2   2 3156.07   43.64
  -3   1   2 3104.26   37.26
   2   1   2 3061.65   43.36
  -3   1   2 3109.56   34.55
  -3   2   2 3168.07   41.00
   3  -1  -2 3241.44   43.06
  -1   3  -2 3445.01   44.30
   1  -3   2 3109.16   40.90
  -1  -2  -2 3180.27   43.76
   3  -2  -2 3094.37   39.82
   3  -2  -2 3199.22   45.49
   3  -1  -2 3109.83   34.05
   3  -1  -2 3070.05   37.47
  -2   3  -2 3140.70   44.27
   2   1   2 3057.35   24.38
  -2  -1  -2 3140.06   43.80
  -2   3  -2 3097.66   38.33
   3  -2  -1  401.71   17.46
  -2   3  -1  401.42   19.01
  -1  -2  -1  401.88   18.08
  -3   2   1  401.63   18.39
   3  -1  -1  401.47   15.13
   3  -1  -1  401.10   13.80
  -1  -2  -1  401.51   16.44
   3  -2  -1  401.72   19.01
   1  -3   1  401.81   18.49
   1   2   1  401.02   12.85
  -3   2   1  401.92   15.87
  -1   3  -1  401.81   13.87
  -2   3  -1  401.05   18.85
  -1   3  -1  401.68   14.53
   1  -3   1  401.04   18.32
  -1   3  -1  401.76   11.99
   1  -3   1  401.13   14.69
  -2   3  -1  401.09   12.09
   2  -3   1  401.35   18.15
   3  -1  -1  401.86   18.48
   3  -2  -1  401.69   18.64
  -3   1   1  401.23   15.76
   2  -3   1  401.24   18.80
  -3   2   1  401.32   17.94
  -3   1   1  401.12   18.14
   1  -3   1  401.99   17.85
  -1   3  -1  401.42   18.29
  -3   2   1  401.17   17.96
   2  -3   1  401.41   17.03
   2  -3   1  401.59   19.27
   3  -1  -1  401.54   18.91
   3  -1  -1  401.67   19.18
  -3   2   1  401.21   19.20
  -2  -1  -1  401.91   18.60
  -2  -1  -1  401.23   17.75
  -2   3  -1  401.31   16.85
  -3   1   1  401.18   14.08
   1   2   1  401.03   16.72
   2   1   1  401.18   12.64
   2   1   1  401.25   18.47
  -2   3  -1  401.47   19.55
  -1   3  -1  401.39   18.39
   2   1   1  401.06   17.78
   1  -3   1  401.12   12.56
  -3   1   1  401.94   18.89
  -1   3  -1  401.76   18.61
  -1  -2  -1  401.10   12.86
   1   2   1  401.80   18.10
  -2  -1   0    7.19    4.05
  -1   3   0    7.17    4.71
  -3   2   0    7.10    5.54
   2  -3   0    7.13    5.43
  -1  -2   0    7.13    5.05
  -1   3   0    7.14    4.10
  -3   1   0    7.12    4.79
   2  -3   0    7.16    6.88
   1  -3   0    7.19    4.71
  -2  -1   0    7.15    4.63
   1  -3   0    7.10    5.86
   3  -1   0    7.01    3.10
  -2   3   0    7.09    6.19
   1   2   0    7.16    5.83
   1   2   0    7.19    4.95
  -2  -1   0    7.13    5.22
  -2   3   0    7.06    1.99
  -2   3   0    7.05    4.94
  -3   2   0    7.18    5.16
  -1  -2   0    7.18    6.30
  -3   2   0    7.17    6.17
   3  -1   0    7.12    5.32
   1  -3   0    7.10    2.17
  -3   2   0    7.15    4.29
  -2  -1   0    7.18    2.22
  -1   3   0    7.18    4.32
   3  -2   0    7.17    5.04
   2   1   0    7.12    6.07
   1  -3   0    7.10    5.59
  -3   1   0    7.13    2.77
  -2   3   0    7.19    7.06
  -3   2   0    7.14    4.55
  -3   1   0    7.18    4.85
   3  -2   0    7.10    5.58
   3  -1   0    7.10    5.90
  -1   3   0    7.12    3.27
  -3   1   0    7.24    5.21
   1  -3   0    7.11    5.41
   2   1   0    7.13    5.49
   2   1   0    7.02    3.51
   3  -2   0    7.15    5.21
  -1  -2   0    7.11    3.59
  -1   3   0    7.13    5.67
  -2   3   0    7.14    4.71
   3  -1   0    7.18    4.40
  -1  -2   0    7.19    4.58
   2  -3   0    7.11    5.90
   2  -3   0    7.14    5.06
   3  -2   0    7.16    5.38
   1   2   0    7.13    3.59
   2  -3  -1 1201.18   26.88
  -3   2  -1 1229.13   27.51
   1  -3  -1 1159.12   27.18
  -2   3   1 1202.48   26.75
   1   2  -1 1210.15   24.17
  -2   3   1 1206.59   26.71
   1  -3  -1 1193.81   25.34
   2  -3  -1 1221.93   27.99
  -3   2  -1 1185.39   27.02
   2   1  -1 1207.02   23.88
   3  -1   1 1226.74   27.92
  -3   1  -1 1209.13   27.72
   2   1  -1 1198.85   27.28
  -1  -2   1 1183.72   27.01
   1  -3  -1 1217.72   27.13
   1  -3  -1 1176.33   24.55
   2   1  -1 1236.36   19.34
   2  -3  -1 1179.32   26.85
  -3   1  -1 1187.70   27.22
  -1   3   1 1170.02   21.79
   3  -2   1 1191.77   27.64
  -3   2  -1 1189.19   27.39
  -1  -2   1 1187.70   25.55
  -1  -2   1 1209.41   26.57
  -2   3   1 1147.83   27.81
   3  -1   1 1215.76   25.60
  -2  -1   1 1221.08   19.07
   1   2  -1 1181.72   26.73
  -2  -1   1 1223.94   27.43
  -2  -1   1 1116.55   27.64
   2   1  -1 1161.28   27.14
   3  -1   1 1239.65   27.48
  -2   3   1 1186.82   26.85
  -2   3   1 1166.88   15.65
  -1   3   1 1199.41   27.19
  -1   3   1 1173.23   24.76
  -1  -2   1 1133.92   25.19
  -3   1  -1 1194.24   13.57
   1   2  -1 1213.74   27.27
   3  -2   1 1043.59   24.97
  -1  -2   1 1165.60   23.75
   2  -3  -1 1206.32   26.69
  -1   3   1 1173.95   24.28
  -3   2  -1 1173.96   26.81
  -3   1  -1 1180.83   25.47
   3  -2   1 1233.17   27.35
   3  -2   1 1233.75   16.63
   3  -2   1 1203.23   27.05
  -2  -1   1 1181.14   27.13
  -1  -2   2   73.00    6.24
   2   1  -2   72.31    6.95
   2   1  -2   76.12    5.52
   3  -1   2   79.72    6.09
  -2   3   2   79.90    7.39
  -2   3   2   77.64    8.69
   2   1  -2   72.65    7.70
  -1  -2   2   78.33    4.59
   2  -3  -2   75.15   10.70
  -1  -2   2   75.27    7.09
   1   2  -2   75.57    7.08
  -2  -1   2   74.11    6.27
   1   2  -2   79.14    7.49
  -3   1  -2   76.09    7.24
   1   2  -2   71.53    5.79
   2  -3  -2   71.90    6.42
  -3   2  -2   74.27    6.96
  -1  -2   2   72.16    6.46
  -1  -2   2   70.60    7.06
  -2  -1   2   73.57    4.69
   2   1  -2   76.63    6.39
   3  -1   2   75.06    6.48
  -2   3   2   74.69    4.23
  -3   1  -2   75.14    6.32
   3  -2   2   72.75    4.34
   3  -1   2   77.81    7.06
  -2  -1   2   77.26   12.37
  -3   2  -2   78.22    7.37
   3  -2   2   74.14    7.30
  -2   3   2   77.43    8.50
  -1  -2   2   77.50    9.47
   2  -3  -2   77.94    6.66
   3  -2   2   77.09    7.46
  -2  -1   2   79.30    7.52
   2   1  -2   77.61    5.74
   1  -3  -2   76.66    7.37
   1  -3  -2   77.95    6.04
   1  -3  -2   77.64    6.47
   3  -2   2   79.78    6.67
  -1   3   2   77.92    5.86
  -1   3   2   77.74    6.80
  -1   3   2   77.91    6.43
   2  -3  -2   76.75    6.74
  -2  -1   2   77.87    3.48
  -3   2  -2   77.77    8.17
   1   2  -2   78.07   12.52
  -1   3   2   76.01    4.59
  -3   2  -2   71.56    6.09
  -1   3   3 5048.44   35.97
   2  -3  -3 5008.59   59.23
  -2  -1   3 5069.28   60.49
   3  -2   3 5022.48   56.01
   3  -1   3 5082.33   60.09
  -3   1  -3 5010.31   59.47
  -2  -1   3 5068.33   62.11
  -1   3   3 5066.96   56.49
  -3   1  -3 5026.91   26.11
   2  -3  -3 5095.77   61.88
   3  -2   3 5015.48   46.48
   1   2  -3 5096.91   61.28
   3  -2   3 5080.21   54.10
   2   1  -3 5073.90   56.61
   2  -3  -3 5099.13   44.03
  -2   3   3 5086.67   26.29
  -2  -1   3 5014.74   61.32
   2   1  -3 5014.40   62.33
  -3   2  -3 5007.65   45.99
   1   2  -3 5093.01   56.14
  -1  -2   3 5075.78   58.82
  -1  -2   3 5094.83   59.70
   3  -1   3 5048.04   56.38
   3  -1   3 5071.74   53.26
  -1  -2   3 5055.53   35.77
   1  -3  -3 5066.86   32.12
   1   2  -3 5011.83   56.89
  -1  -2   3 5030.80   61.06
  -2  -1   3 5073.02   56.80
  -3   2  -3 5063.61   59.18
   2  -3  -3 5036.37   29.72
   1  -3  -3 5032.43   56.61
   2   1  -3 5060.11   61.16
  -3   1  -3 5006.27   59.14
   1  -3  -3 5081.19   50.37
   3  -2   3 5028.04   61.11
   2  -3  -3 5099.08   56.32
   1  -3  -3 5006.22   60.15
  -3   2  -3 5095.67   56.44
  -1   3   3 5047.90   60.92
  -1   3   3 5084.59   60.26
  -2  -1   3 5013.51   41.30
   2   1  -3 5038.44   55.95
   2   1  -3 5091.84   51.31
  -2   3   3 5059.47   30.15
  -2   3   3 5093.07   61.06
   3  -1   3 5088.49   47.51
  -2   3   3 5074.55   44.22
   2  -3  -3 5001.59   55.92
  -2   3   3 5021.54   61.19
  -2   3   3 5024.84   56.00
   1   2  -3 5027.10   59.45
  -3   2  -3 5024.20   60.74
  -1   3   3 5048.19   51.50
  -1  -2   3 5072.62   59.12
  -1  -2   3 5000.85   56.75
  -2  -1   3 5004.99   58.33
  -1   3   3 5053.95   52.66
   1   2  -3 5040.16   61.22
   2   1  -3 5086.17   58.88
  -3   1  -4 1188.36   31.42
  -1   3   4 1150.31   27.39
  -1   3   4 1169.94   27.56
   3  -1   4 1156.53   27.66
  -1  -2   4 1187.52   31.37
   1   2  -4 1164.95   31.10
   3  -2   4 1112.15   27.33
   1   2  -4 1142.05   27.52
  -1  -2   4 1163.92   29.38
  -1  -2   4 1125.46   27.65
  -3   2  -4 1111.36   25.01
   2   1  -4 1108.75   37.44
   1  -3  -4 1165.81   31.35
   3  -1   4 1181.51   31.31
  -2   3   4 1135.88   24.89
   1  -3  -4 1184.45   14.29
   1   2  -4 1164.90   35.73
   2  -3  -4 1188.09   18.24
  -2  -1   4 1132.48   31.73
  -1  -2   4 1129.25   30.90
   3  -2   4 1102.04   27.13
   3  -1   4 1112.12   23.69
  -3   1  -4 1189.31   30.04
   2   1  -4 1188.19   30.17
   1   2  -4 1137.35   31.37
   2  -3  -4 1102.22   25.39
  -2  -1   4 1127.36   30.69
   3  -1   4 1129.62   27.61
  -2  -1   4 1124.01   19.42
  -1   3   4 1125.12   26.89
  -3   1  -4 1114.48   23.48
  -2   3   4 1166.54   18.64
  -2   3   4 1188.43   31.79
   2   1  -4 1159.27   30.96
   3  -1   4 1122.71   27.13
   1  -3  -4 1145.18   19.17
  -1  -2   4 1113.27   16.39
   2   1  -4 1125.91   34.88
  -2   3   4 1196.45   18.26
  -2  -1   4 1161.86   27.87
  -1   3   4 1113.27   30.28
   3  -2   4 1136.87   26.03
  -2   3   4 1162.88   31.50
  -2   3   4 1177.39   26.87
  -3   2  -4 1185.83   28.21
   3  -2   4 1127.21   30.73
  -2  -1   4 1140.82   30.99
   2   1  -4 1136.38   31.05
   1  -3  -4 1149.00   24.90
  -3   1  -4 1140.15   16.49
   2   1  -4 1190.42   28.90
   1   2  -4 1124.53   31.78
  -2   3   4 1104.95   15.87
  -3   2  -4 1193.07   30.68
   2  -3  -4 1126.73   27.52
  -1   3   4 1180.04   31.45
   1  -3  -4 1126.64   27.34
  -1  -2   4 1162.97   30.92
   2   1  -4 1152.53   27.76
  -2  -1   4 1158.04   32.52
   2  -3  -4 1148.77   31.47
  -2   3   4 1153.33   30.12
   2  -3  -5 1759.98   26.61
   2  -3  -5 1810.02   40.29
  -1   3   5 1851.51   33.58
   2  -3  -5 1792.36   39.46
  -2   3   5 1770.28   19.86
   3  -2   5 1746.09   32.41
   1  -3  -5 1779.03   39.11
  -2   3   5 1792.38   32.81
  -1   3   5 1752.04   38.34
   2   1  -5 1762.51   41.08
   1   2  -5 1764.46   38.70
  -3   2  -5 1762.10   34.14
  -3   1  -5 1785.88   23.74
   2   1  -5 2082.61   42.52
   1   2  -5 1814.01   38.78
  -1   3   5 1895.66   36.32
  -1  -2   5 1812.58   38.88
   3  -2   5 1784.09   32.99
  -2  -1   5 1805.16   39.08
   1  -3  -5 1796.44   26.96
   3  -1   5 1822.56   32.95
  -1   3   5 1931.75   40.61
  -2  -1   5 1777.38   33.23
  -2   3   5 1782.15   37.72
   3  -1   5 1889.47   36.69
   3  -1   5 1898.07   30.11
   3  -2   5 1869.46   39.49
   3  -2   5 1864.95   35.20
  -1  -2   5 1887.57   39.83
  -2   3   5 1799.81   39.24
  -2  -1   5 1852.19   39.16
   1  -3  -5 1814.65   33.28
   1   2  -5 1812.78   39.43
  -1  -2   5 1774.41   19.48
   1   2  -5 1773.41   19.96
   2  -3  -5 1757.23   32.89
  -2  -1   5 1891.12   24.47
  -1   3   5 1797.06   34.69
   2   1  -5 1806.94   33.33
   2   1  -5 1857.50   37.28
   2   1  -5 1802.55   38.42
  -2  -1   5 1836.72   40.38
  -3   1  -5 1831.99   36.79
   1   2  -5 1849.24   39.82
   2   1  -5 1785.06   39.22
   2   1  -5 1843.95   38.89
  -2   3   5 1814.53   33.12
   2  -3  -5 1778.97   33.02
   3  -1   5 1822.22   39.34
   3  -1   5 1807.91   33.21
  -2  -1   5 1779.12   39.30
  -2   3   5 1878.35   40.61
  -2   3   5 1822.77   26.63
   2  -3  -5 1869.27   26.07
  -3   2  -5 1775.85   38.92
   1  -3  -5 1795.31   22.31
   2   1  -5 1819.00   23.85
  -3   2  -5 1933.35   34.66
  -1  -2   5 1839.43   33.47
  -1  -2   5 1869.21   39.78
  -3   1  -5 1758.96   29.04
  -1  -2   5 1971.08   41.03
  -3   1  -5 1802.68   39.26
   1   2  -5 1792.27   33.02
   1   2  -5 1741.07   38.90
   3  -2   6 4568.17   57.39
   3  -1   6 4618.02   65.57
   3  -2   6 4422.10   51.36
   3  -2   6 4484.35   52.01
   1   2  -6 4407.77   62.71
  -1  -2   6 4355.14   62.79
   2   1  -6 4523.62   52.36
   2   1  -6 4874.97   69.75
   2   1  -6 4616.29   62.94
   1   2  -6 4703.21   66.76
   1   2  -6 4615.62   33.37
  -3   1  -6 4616.69   61.52
  -1  -2   6 4719.02   66.90
  -3   2  -6 4563.39   57.77
  -1  -2   6 4524.17   63.83
   2   1  -6 4520.12   63.02
   2  -3  -6 4617.86   65.60
   1  -3  -6 4674.44   61.46
   2   1  -6 4619.69   65.27
   2  -3  -6 4590.34   44.06
  -2  -1   6 4696.07   65.51
  -3   2  -6 4822.30   58.07
  -2  -1   6 4654.16   66.56
   1   2  -6 4620.47   66.63
   3  -2   6 4604.29   64.96
  -2   3   6 4383.86   28.03
  -2  -1   6 4514.83   52.32
  -2   3   6 4590.94   63.30
   2   1  -6 4532.35   39.06
  -2  -1   6 4560.51   39.07
   1   2  -6 4629.76   64.69
  -1  -2   6 4703.58   66.36
   3  -2   6 4441.10   55.57
  -2  -1   6 4569.00   65.90
   1  -3  -6 4647.39   65.35
  -3   1  -6 4510.82   43.39
   3  -1   6 4488.39   51.67
   2  -3  -6 4707.08   67.08
  -2   3   6 4619.09   57.20
  -2   3   6 4499.98   51.94
  -1   3   6 4579.21   65.26
  -1   3   6 4595.33   52.47
  -1   3   6 4468.03   57.94
   2  -3  -6 4575.25   48.00
   2   1  -6 4549.85   64.47
  -3   2  -6 4473.60   50.75
   2   1  -6 4603.59   65.62
   1   2  -6 4362.41   64.01
  -2   3   6 4587.62   65.81
  -2   3   6 4465.29   64.05
   3  -1   6 4573.79   52.53
  -1  -2   6 4461.25   32.45
   1  -3  -6 4394.32   51.63
  -3   2  -6 4476.51   64.20
  -1   3   6 4669.83   60.90
  -3   1  -6 4588.82   64.75
   2  -3  -6 4465.63   51.84
   2  -3  -6 4752.08   58.17
   3  -1   6 4651.35   61.19
  -2  -1   6 4554.93   63.10
   1  -3  -6 4467.08   47.82
  -1  -2   6 4451.09   52.29
   1  -3  -6 4531.25   41.74
   1   2  -6 4513.31   51.94
   3  -1   6 4310.82   47.49
  -1   3   6 4541.97   64.02
   3  -2   7  552.37   18.24
   1  -3  -7  577.91   22.87
  -3   2  -7  539.57   21.72
   1   2  -7  555.81   24.68
   2  -3  -7  599.34   25.22
   1  -3  -7  575.42   19.17
   2   1  -7  573.17   23.69
   1   2  -7  533.24   23.92
  -1   3   7  576.41   24.27
   2  -3  -7  555.21   18.59
  -1   3   7  593.09   25.30
  -1  -2   7  563.27   23.80
  -2   3   7  546.50   21.67
  -1  -2   7  556.99   18.67
   1   2  -7  579.94   13.02
   3  -1   7  552.47   23.12
   3  -2   7  562.72   21.14
   3  -2   7  608.01   23.10
  -3   1  -7  562.71   23.28
   2  -3  -7  555.75   22.20
  -1  -2   7  595.44   25.68
   2   1  -7  557.29   14.87
   1   2  -7  607.25   25.56
   2  -3  -7  586.57   19.33
   3  -2   7  565.62   18.67
  -2  -1   7  562.58   24.95
  -1  -2   7  564.29   24.71
   2  -3  -7  637.84   25.91
  -2  -1   7  577.88   25.10
  -3   1  -7  542.58   17.86
  -1   3   7  581.04   18.87
  -3   1  -7  539.53   24.37
  -1   3   7  566.78   22.50
   2  -3  -7  561.38   24.98
  -2   3   7  466.15    8.07
  -2  -1   7  574.88   23.63
   2   1  -7  559.03   24.81
   1   2  -7  491.51    8.17
  -3   2  -7  547.19   21.05
  -2  -1   7  556.51   18.55
   3  -2   7  587.50   24.55
  -1  -2   7  608.89   26.08
   3  -1   7  630.71   19.09
   2   1  -7  573.90   18.79
   1  -3  -7  507.53   16.35
   3  -1   7  574.08   18.88
  -2   3   7  541.80   18.34
   2   1  -7  610.84   25.77
   3  -1   7  554.94   18.33
   1  -3  -7  529.92   23.97
   3  -1   7  573.55   24.70
  -2   3   7  615.74   25.29
   1   2  -7  572.52   25.62
   1  -3  -7  539.63   18.26
  -3   2  -7  557.74   24.37
   1  -3  -7  573.37   24.58
   2   1  -7  516.74   24.75
  -3   2  -7  555.73   19.61
   2   1  -7  549.83   23.96
  -2   3   7  574.65   24.04
  -2  -1   7  613.33   15.26
  -2   3   7  531.27   24.32
  -1   3   7  617.21   24.22
  -3   1  -7  538.71   17.21
   2   1  -7  567.62   24.75
   2   1  -7  585.65   25.17
   1  -3  -7  536.77   22.73
   1   2  -7  554.38   23.98
   1   2  -7  598.11   25.85
   1   2  -7  574.53   18.83
   2  -3  -7  557.79   17.66
   1  -3  -8 2711.80   50.80
  -2   3   8 2743.41   56.01
   2  -3  -8 2734.40   54.47
   3  -2   8 2699.11   39.59
   2   1  -8 2469.28   19.60
  -3   2  -8 2692.03   54.12
   1   2  -8 2723.08   30.67
   2  -3  -8 2662.72   44.35
  -1   3   8 2933.03   55.39
   3  -2   8 2774.16   54.91
  -3   2  -8 2662.33   47.45
  -1   3   8 2718.71   50.64
   2  -3  -8 2696.73   39.92
   2  -3  -8 2660.88   41.42
   2  -3  -8 2905.65   52.72
   1  -3  -8 2814.78   54.11
  -3   2  -8 2713.72   45.94
  -3   1  -8 2837.24   54.56
  -1   3   8 2731.59   40.09
   1  -3  -8 2723.54   41.07
  -2   3   8 2834.77   51.74
  -3   2  -8 2579.43   50.42
   2   1  -8 2720.94   40.04
  -1  -2   8 2757.40   55.78
  -1  -2   8 2719.89   40.10
   3  -1   8 2723.29   53.42
  -2  -1   8 2711.96   55.85
   3  -1   8 2626.34   39.27
   1  -3  -8 2748.37   55.81
  -2  -1   8 2737.36   52.67
   1  -3  -8 2653.98   39.90
   1   2  -8 2659.26   24.09
   1   2  -8 2854.97   55.09
   1   2  -8 2705.38   39.82
   2   1  -8 2769.27   35.31
  -1  -2   8 2812.52   57.82
   3  -2   8 2700.69   47.52
   2  -3  -8 2576.24   53.72
   3  -2   8 2754.02   40.10
   3  -1   8 2776.14   40.49
   3  -1   8 2672.29   41.16
   3  -2   8 2678.40   50.76
  -2   3   8 2632.95   53.97
  -2  -1   8 2717.55   40.04
  -2   3   8 2789.82   40.35
  -2   3   8 2696.53   53.97
   2   1  -8 2778.32   53.08
  -2  -1   8 2462.80   32.66
  -3   1  -8 2716.37   41.84
  -3   1  -8 2702.42   55.10
  -2  -1   8 2729.40   56.92
   2   1  -8 2749.16   55.58
   1  -3  -8 2669.06   44.50
  -1   3   8 2809.47   55.30
   1  -3  -8 2805.44   55.78
  -1  -2   8 2818.36   57.32
   1  -3  -9  232.19   13.69
  -3   1  -9  208.60   17.45
   1  -3  -9  229.93   14.82
   1   2  -9  246.64   18.29
   3  -1   9  226.64   11.82
  -1  -2   9  211.20   17.82
   2  -3  -9  243.93   18.39
   3  -1   9  196.28   16.23
  -3   2  -9  225.52   15.00
  -2  -1   9  216.89   18.06
   2   1  -9  229.28   18.60
   1  -3  -9  239.53   17.20
  -2   3   9  200.88   17.67
  -1   3   9  231.84   11.99
   2  -3  -9  214.00   14.28
   3  -2   9  212.41   11.44
   1  -3  -9  220.03   13.48
  -3   1  -9  226.45   13.22
   1   2  -9  220.28   18.11
  -2   3   9  216.73   16.45
   1  -3  -9  234.24   18.50
   1   2  -9  236.77   12.00
   2   1  -9  216.69   11.61
   2  -3  -9  242.75   14.53
  -2  -1   9  243.31   17.16
  -1  -2   9  230.87   18.53
   2   1  -9  218.69   11.17
   1   2  -9  221.26    8.44
  -1  -2   9  217.23   11.63
  -3   2  -9  215.06   14.80
  -1   3   9  214.56   17.49
   2  -3  -9  217.62   11.75
   3  -1   9  228.89   12.02
  -1   3   9  240.16   17.95
   2  -3  -9  238.59   17.33
   3  -2   9  228.41   15.33
  -2   3   9  222.76   11.89
  -2  -1   9  229.72   18.67
   3  -2   9  210.71   16.50
   1  -3  -9  222.87   11.90
   2  -3  -9  237.08   18.28
   1   2  -9  213.73    9.89
   3  -2   9  209.79   11.54
   3  -1   9  206.22   12.76
   2   1  -9  215.20    7.48
  -1  -2   9  194.58   17.08
  -3   1  -9  203.63   13.23
  -2  -1   9  216.74   11.66
  -3   2  -9  235.90   17.87
   2   1  -9  246.35   17.73
  -1  -2  10 1416.12   44.87
   3  -1  10 1462.89   43.53
  -3   2 -10 1439.71   38.19
   2  -3 -10 1509.51   44.72
   2  -3 -10 1394.58   43.28
   1  -3 -10 1348.44   33.72
   1   2 -10 1439.34   44.89
  -3   1 -10 1428.21   35.83
   1   2 -10 1416.07   23.37
   2  -3 -10 1385.11   37.39
  -2   3  10 1434.15   27.94
  -1   3  10 1481.91   43.84
  -1  -2  10 1415.44   27.91
   1   2 -10 1444.20   42.56
  -3   2 -10 1343.84   36.85
   2   1 -10 1429.24   29.07
  -2   3  10 1487.01   42.82
  -3   1 -10 1377.15   32.98
  -2  -1  10 1406.46   27.62
   2   1 -10 1393.34   27.73
   1  -3 -10 1410.18   34.89
   2   1 -10 1378.55   40.37
   2  -3 -10 1356.48   27.56
   3  -2  10 1500.42   39.16
  -2   3  10 1426.05   44.77
  -1  -2  10 1382.10   44.27
  -2  -1  10 1467.92   45.38
   3  -2  10 1429.56   27.70
   1  -3 -10 1356.45   27.66
  -3   1 -10 1439.21   43.81
   3  -2  10 1390.07   27.38
   2   1 -10 1419.11   21.64
   1   2 -10 1392.47   27.63
   1  -3 -10 1396.93   37.49
   3  -1  10 1415.23   27.73
   3  -1  10 1447.42   33.95
   2  -3 -10 1418.04   35.55
  -3   2 -10 1435.73   42.77
  -1   3  10 1404.25   43.24
  -1  -2  10 1485.97   46.20
  -1   3  10 1422.64   28.02
   2  -3 -10 1356.34   38.12
   3  -1  10 1446.53   28.15
  -2  -1  10 1448.05   45.25
   2   1 -10 1450.03   45.39
   3  -2  10 1303.06   40.48
   1  -3 -10 1412.96   41.44
   1  -3 -10 1357.99   43.23
   1   2 -10 1414.98   26.21
   3  -2  11   12.24    8.14
   1  -3 -11    7.09    8.10
   3  -2  11   10.31    6.92
  -1   3  11    5.47    7.37
   1  -3 -11    5.86    6.08
   2   1 -11    7.88    7.98
   2   1 -11    5.02    7.76
   2   1 -11    6.93    4.32
   1   2 -11    8.57    4.32
  -1   3  11    0.56    8.22
   3  -1  11    8.61    3.74
   2  -3 -11    6.78    9.22
   1   2 -11    3.45    9.19
   1  -3 -11    4.82    7.88
   2   1 -11    6.11    3.79
   2  -3 -11   19.83    8.19
   1   2 -11   11.12    8.59
   1  -3 -11   10.97    6.41
   2  -3 -11    7.72    8.44
   1   2 -11    8.76    3.85
   2   1 -11    6.94    3.27
  -1  -2  11   15.53    8.81
  -1  -2  11    6.82    3.71
  -2  -1  11   16.27    9.41
   3  -1  11    7.74    5.76
   1   2 -11    9.30    3.63
  -2   3  11    8.47    8.24
  -2   3  11    5.94    7.63
  -3   1 -11    8.22    5.30
  -1   3  11    3.62    3.47
   3  -2  11    6.77    3.47
   3  -2  11    6.82    3.58
  -3   1 -11    8.60    6.22
  -3   2 -11    1.45    6.33
  -3   1 -11    7.99    8.24
  -2  -1  11    8.64    8.67
  -1  -2  11   11.06    7.66
   3  -1  11    6.54    3.54
  -3   2 -11    5.25    7.79
   3  -1  11    9.06    8.37
   1  -3 -11    7.05    3.78
   2  -3 -11    6.73    3.70
  -2   3  11    6.04    3.57
   1  -3 -12   24.47    9.74
   2  -3 -12   37.32   10.86
   1  -3 -12   41.32   11.09
   1   2 -12   28.59    5.46
   1   2 -12   30.00    4.15
  -2  -1  12   38.73   11.31
  -3   1 -12   25.25    6.79
   2   1 -12   29.39    4.10
   2  -3 -12   24.73   10.02
   3  -2  12   36.08    9.16
   3  -2  12   32.58   10.27
   3  -1  12   27.99    9.73
  -1   3  12   33.38    4.49
   1  -3 -12   29.82    7.40
  -3   2 -12   32.52    9.68
   1  -3 -12   37.40    8.33
  -1  -2  12   36.29    4.48
  -1   3  12   39.25   11.08
   3  -1  12   29.32    4.13
   1   2 -12   30.16    5.09
  -2   3  12   34.31   10.34
   2   1 -12   37.61   10.90
   2   1 -12   32.27    5.07
  -1   3  12   34.51   11.03
   2   1 -12   22.84    5.83
   2   1 -12   20.42    8.38
  -3   1 -12   39.15   11.03
   1   2 -12   17.24    9.04
  -1  -2  12   35.06   10.86
   3  -1  12   30.38    4.08
  -1  -2  12   37.19   11.89
   3  -2  12   25.70    3.88
   3  -1  12   25.31    7.23
  -2   3  12   35.44   10.73
   3  -2  12   28.04    4.15
   1   2 -12   21.61   10.05
   1   2 -13   92.62    9.16
  -3   2 -13   82.73   13.84
   2  -3 -13   82.07   14.14
  -2   3  13  100.29   15.72
   2   1 -13  103.37    8.42
  -1  -2  13  124.12   17.52
  -3   1 -13  101.90   15.22
  -2   3  13   97.07   15.31
   1   2 -13   89.55    8.26
   3  -2  13   98.18   14.53
   2  -3 -13  104.04   15.36
   1  -3 -13   91.22   14.69
  -1  -2  13   99.75   15.43
   2   1 -13   87.01    9.33
   2   1 -13   89.74   13.58
   1   2 -13   94.36   14.21
   2   1 -13   93.93   15.66
  -1   3  13   89.78   14.87
  -2  -1  13  107.57   16.76
   1  -3 -13   98.18   14.61
   3  -1  13   93.01   11.40
   3  -2  13   91.81   12.78
  -1   3  13   92.11   14.45
   3  -1  13   96.26   15.68
   1   2 -13   91.75   15.65
   1   2 -14  190.38   19.18
  -3   1 -14  229.41   21.66
  -3   2 -14  197.96   20.17
  -2   3  14  193.85   21.21
  -1   3  14  221.89   21.98
  -1  -2  14  207.57   22.30
  -2   3  14  227.89   22.13
   2  -3 -14  203.64   21.17
   2   1 -14  189.51   18.71
  -3   1 -14  142.95   17.12
  -2  -1  14  190.32   21.56
   3  -1  14  204.74   21.37
   1  -3 -14  184.28   20.27
   3  -1  14  204.69   16.56
  -1   3  14  214.45   21.61
   3  -2  14  227.36   22.07
   2  -3 -14  191.56   20.12
   3  -2  14  199.77   18.17
   1  -3 -14  221.06   21.30
   1   2 -14  214.13   22.98
   2   1 -14  223.02   23.22
  -3   2 -14  163.29   16.70
   1  -3 -15  369.93   27.92
  -2   3  15  423.58   31.29
  -1   3  15  400.27   30.11
   3  -1  15  442.44   24.32
  -3   2 -15  390.97   28.22
  -2  -1  15  392.80   30.93
   3  -2  15  436.78   31.21
   2  -3 -15  434.32   31.22
  -3   1 -15  316.17   25.34
   2   1 -15  402.72   26.32
   1  -3 -15  409.92   29.90
  -3   1 -15  412.94   29.43
  -3   1 -15  377.60   23.41
   1   2 -15  423.08   28.50
  -3   2 -15  410.01   26.09
   1   2 -15  439.82   32.80
  -3   1 -15  409.37   29.82
   3  -1  15  410.11   30.49
  -3   2 -15  404.92   26.25
   1  -3 -15  412.46   29.25
   2  -3 -15  367.75   27.81
   3  -2  15  401.84   25.63
  -1   3  15  428.50   30.92
  -1  -2  15  459.56   32.84
   2   1 -15  412.27   31.79
  -2   3  15  435.25   31.21
   3  -2  16    0.31   11.00
  -1   3  16    5.30   11.03
  -3   2 -16    5.51    9.94
   2   1 -16    4.30   11.43
   3  -1  16   -6.54   11.07
  -2  -1  16    0.50   10.85
   1  -3 -16   14.26   11.92
   1  -3 -16   -3.65    9.71
  -3   1 -16    4.31    8.44
   1  -3 -16   -6.02   10.84
  -2   3  16    4.14   10.14
   2  -3 -16    6.47    9.45
  -1   3  16   10.63   11.11
   2  -3 -16    3.24    7.81
  -2   3  16   -5.39   11.55
   2  -3 -16   10.65   11.23
  -3   2 -16   -1.72    8.36
   1   2 -16    4.06    8.94
  -3   1 -16    3.75    9.35
  -3   1 -16   -4.79   11.55
   2   1 -16    8.96    9.23
   1   2 -16    0.44   10.70
   3  -2  16   -5.57    7.55
  -3   2 -16    7.55    7.91
  -3   2 -17  158.28   20.50
  -2   3  17  153.78   21.70
   1  -3 -17  187.93   22.55
   1   2 -17  160.18   19.70
  -3   2 -17  201.86   23.92
   3  -2  17  184.38   23.60
  -3   2 -17  144.71   17.49
  -3   1 -17  187.75   21.36
   2  -3 -17  154.22   18.77
  -1   3  17  183.83   23.31
   1  -3 -17  214.25   24.84
   1  -3 -17  140.03   19.29
  -2   3  17  166.19   22.10
  -1   3  17  177.06   22.72
  -3   1 -17  174.38   21.84
   2  -3 -17  183.22   23.29
   3  -1  17  172.03   23.11
  -3   1 -17  172.73   22.36
   2  -3 -17  181.87   22.48
  -3   1 -18  280.53   28.26
  -3   1 -18  288.74   27.87
  -3   2 -18  248.41   25.58
   2  -3 -18  289.02   27.58
   1  -3 -18  245.27   24.87
   1  -3 -18  290.23   29.05
   1  -3 -18  274.06   27.81
  -3   1 -18  278.04   26.15
  -3   3   0 3505.08   48.97
  -3   0   0 3489.45   48.97
  -3   0   0 3522.60   40.43
  -3   0   0 3410.99   36.55
   3  -3   0 3481.67   49.26
   0   3   0 3506.05   49.04
   3  -3   0 3450.39   48.84
  -3   0   0 3442.84   48.84
   0   3   0 3516.22   42.67
   0  -3   0 3413.71   36.56
  -3   3   0 3479.46   49.15
   0  -3   0 3476.42   48.66
  -3   3   0 3538.98   48.72
   3   0   0 3451.29   49.35
   3   0   0 3391.69   28.91
   3  -3   0 3517.21   48.68
   0  -3   0 3439.27   43.52
   3  -3   0 3453.26   48.42
   0   3   0 3479.67   43.94
   3   0   0 3482.54   40.43
   0  -3   0 3407.81   41.89
   0  -3   0 3581.80   39.61
   3   0   0 3502.76   49.35
  -3   0   1    0.28    3.80
   0   3  -1    0.87    6.51
  -3   0   1    0.29    4.05
   0  -3  -1    0.28    4.41
   3   0  -1    0.19    3.80
  -3   0  -1    0.75    5.14
   0   3   1    0.77    4.16
   3   0   1    0.42    4.82
   0   3   1    0.73    4.72
   0   3   1    0.59    6.02
   3  -3   1    0.39    5.60
  -3   3  -1    0.99    7.42
   0  -3   1    0.56    6.37
   0   3  -1    0.18    5.05
   0   3  -1    0.81    5.72
   0  -3   1    0.57    4.44
   3   0   1    0.73    6.63
   0  -3  -1    0.26    4.08
   0  -3  -1    0.21    6.57
   0  -3   1    0.30    3.77
   0  -3  -1    0.30    4.03
  -3   0  -1    0.31    6.51
   3  -3  -1    0.80    5.32
  -3   3   1    0.83    5.97
   0   3  -1    0.88    5.66
  -3   0   1    0.35    5.16
  -3   0   1    0.99    4.71
   3  -3  -1    0.03    6.11
   0  -3   1    0.22    4.42
   3  -3  -1    0.23    6.58
   3  -3   1    0.13    5.38
   3   0  -1    0.43    6.51
   3   0   1    0.33    6.33
   3  -3  -1    0.40    4.99
  -3   0   1    0.34    5.81
  -3   3  -1    0.42    5.65
   3   0  -1    0.61    3.74
  -3   3   1    0.67    6.65
   0  -3   1    0.17    5.30
  -3   3   1    0.50    5.52
  -3   3  -1    0.91    6.14
   0  -3  -1    0.73    5.10
   0  -3   1    0.25    4.68
   3  -3   1    0.43    5.21
  -3   0  -1    0.97    5.23
   3   0  -1    0.41    7.29
  -3   3   1    0.15    9.17
   0  -3   1    0.28    5.92
   3  -3   1    0.55    6.15
  -3   3  -1    0.95    6.42
   3   0   2   66.02    7.70
  -3   3   2   65.79    6.20
  -3   0   2   75.55    5.64
   0   3  -2   60.54    8.53
   0  -3  -2   61.12    7.78
  -3   3   2   71.50    7.32
   3  -3   2   72.90    8.55
  -3   3  -2   61.84    7.64
  -3   3   2   79.46    9.26
   0  -3   2   73.08    5.10
  -3   0  -2   66.38    8.16
  -3   3  -2   75.59    9.00
   0  -3  -2   57.56    5.91
   0   3   2   70.96    6.38
  -3   3   2   72.24   10.27
   0  -3  -2   75.42    6.63
  -3   3  -2   69.01    4.36
   0   3  -2   64.44    7.90
   0   3  -2   58.94    8.10
   0  -3   2   60.55    6.91
   0  -3  -2   64.03    6.10
   0  -3  -2   63.87    8.42
  -3   0   2   72.60    7.52
   0   3   2   68.97    6.63
  -3   0   2   64.02    7.07
  -3   0   2   68.10    8.75
   3   0  -2   65.45    6.52
  -3   0  -2   74.86    8.90
   0   3  -2   84.99    9.12
   0   3   2   73.45    8.87
  -3   3  -2   64.37    8.71
   3  -3  -2   68.77    8.27
   3  -3   2   79.40    9.48
   0  -3   2   67.87    7.93
   0   3  -2   75.36    8.94
   0  -3   2   68.83    8.15
  -3   0   2   69.48    8.31
   3   0   2   74.44    9.10
  -3   3  -2   63.06    9.17
   3   0  -2   56.59    4.84
   3  -3  -2   61.12    9.07
   3   0   2   64.59    8.42
   3  -3   2   73.66    9.24
  -3   0  -2   59.65    8.39
   0  -3   2   70.95    8.12
   0  -3   2   72.35    8.80
   3  -3  -2   65.79    4.03
  -3   3   2   75.98    9.13
   3  -3   2   70.43    8.64
   0  -3   2   58.90    7.35
   3  -3  -2   61.11    8.33
  -3   3   2   71.32    8.98
  -3   0   2  103.76   13.58
   3   0  -2   73.99    9.16
   3   0  -2   68.48    8.77
   3  -3  -2  110.00   11.43
  -3   0   3  112.94   11.14
   3   0  -3  112.54    6.11
  -3   0   3  116.55    6.45
   3  -3   3  117.42   11.76
   3  -3   3  118.01   12.06
  -3   0   3  118.49   11.32
   3   0   3  118.69   11.08
  -3   0   3  111.83   10.65
   3   0  -3  119.22   11.36
   0   3  -3  112.09   14.08
   0  -3  -3  113.00   11.15
   0  -3   3  115.88    9.53
   0   3  -3  110.49   14.17
   0  -3  -3  115.22    6.56
  -3   3  -3  112.08   11.45
  -3   3   3  117.85    9.56
   3   0   3  110.16    7.17
   0  -3   3  112.35   11.73
  -3   3  -3  112.69   12.63
  -3   3  -3  113.13   12.19
   3   0  -3  110.92   11.73
   3  -3  -3  110.48   11.05
   3   0  -3  114.82    9.82
   0   3  -3  110.74   12.04
   0   3   3  115.63   10.67
  -3   3   3  111.41   13.06
   0   3  -3  116.13   11.53
  -3   3   3  115.55   11.43
   3  -3   3  111.94   10.84
  -3   0  -3  118.40   11.39
  -3   3  -3  112.21   10.73
  -3   0   3  110.46   10.09
   0   3   3  117.93    7.58
  -3   0   3  117.69   11.88
   0  -3   3  116.47    4.98
   3  -3  -3  117.38   12.73
   3   0  -3  112.74   12.24
  -3   0  -3  116.16   11.96
   0  -3   3  110.19   11.05
   0  -3   3  116.16   11.17
   0   3  -3  112.15   11.32
   3  -3   3  116.11    7.56
   0  -3  -3  113.20   11.55
  -3   3  -3  113.40    7.25
   0   3   3  110.10    7.75
   0  -3   3  113.27    9.94
  -3   0  -3  114.75   11.04
   3   0   3  110.99   11.77
   0   3   3  110.23    7.98
   0  -3  -3  115.22    7.74
  -3   3   3  117.60   17.02
   3   0  -3  110.26   11.61
   3  -3  -3  111.27    7.36
  -3   3   3  118.53   11.88
   3   0  -3  117.31   10.35
  -3   0   3  112.09   23.71
   3  -3  -3  118.25   14.51
  -3   3   3  111.27    7.48
  -3   3   4 5261.05   49.54
   0  -3  -4 5298.19   59.28
   3   0   4 5293.41   59.28
   3  -3   4 5220.26   48.33
  -3   3  -4 5204.20   63.78
  -3   3  -4 5203.37   64.59
   0  -3   4 5233.42   48.30
   0  -3  -4 5238.24   63.68
  -3   3  -4 5263.51   48.43
   3  -3  -4 5209.86   63.56
  -3   3   4 5227.55   65.84
  -3   3   4 5260.01   67.95
   3   0   4 5269.72   62.20
   0   3  -4 5282.97   61.97
   3   0  -4 5281.79   59.48
   0   3  -4 5239.61   62.40
   0   3   4 5254.75   37.62
  -3   3   4 5260.36   45.58
   3   0   4 5263.06   38.02
  -3   0   4 5294.55   61.03
   3  -3   4 5238.93   64.03
  -3   0   4 5218.04   68.07
   0   3  -4 5239.23   59.10
   3   0  -4 5280.66   52.22
   3  -3   4 5298.64   64.38
   3  -3  -4 5254.25   65.02
   0   3  -4 5207.89   64.23
   0   3  -4 5256.76   65.19
   3  -3  -4 5280.02   47.22
   0   3  -4 5237.75   49.84
   3   0  -4 5272.38   63.58
  -3   0   4 5226.06   50.71
  -3   0  -4 5227.40   60.19
  -3   3   4 5229.72   58.64
   3  -3   4 5286.03   58.60
  -3   0  -4 5215.53   63.68
  -3   0   4 5271.19   64.65
   3   0  -4 5246.02   61.28
  -3   3   4 5257.06   47.18
   0   3   4 5245.34   58.65
   3  -3  -4 5210.95   58.70
  -3   0  -4 5206.17   59.24
   3   0  -4 5227.21   59.29
  -3   3   4 5217.01   65.31
   0   3   4 5249.18   62.15
  -3   3  -4 5257.41   58.80
  -3   0   4 5265.09   59.29
   3   0  -4 5299.38   65.03
   0  -3  -4 5273.27   41.32
  -3   0   4 5228.64   59.22
   0   3   4 5225.94   59.49
   0   3   4 5246.27   46.30
   0  -3   4 5228.88   58.60
  -3   3  -4 5201.15   58.46
   0  -3   4 5217.35   62.41
   0  -3   4 5216.81   58.88
  -3   3   4 5283.07   46.32
   3  -3  -4 5230.16   65.77
  -3   0   4 5205.26   66.53
   0  -3   4 5213.42   64.42
   0  -3  -5   33.52    8.24
  -3   3   5   33.99    6.82
  -3   3   5   33.22    7.66
  -3   0  -5   33.02    7.68
  -3   3   5   33.11    7.29
  -3   3  -5   33.23    6.48
   3  -3   5   33.09    6.24
   0  -3   5   33.63    4.93
   0  -3  -5   33.99    4.45
   3   0  -5   33.50    6.76
   0   3   5   33.00    5.05
  -3   3   5   33.78    5.02
  -3   0  -5   33.41    3.78
   3  -3  -5   33.39   10.91
  -3   3  -5   33.37    8.56
   3  -3  -5   33.83   10.85
  -3   3   5   33.00    5.92
  -3   0   5   33.77    6.67
   3   0  -5   33.11   10.95
  -3   0   5   33.53   12.02
   3   0  -5   33.25    7.61
   3   0   5   32.39    3.74
   3  -3   5   39.35    7.10
   3   0   5   34.58    7.69
  -3   3  -5   34.04    5.86
   3   0  -5   33.79    7.55
   0   3   5   37.31    8.00
   0   3  -5   31.13    7.21
  -3   0   5   39.54   14.95
   3   0  -5   36.89    7.38
   3   0  -5   39.48    6.35
  -3   3  -5   38.95    6.33
   3  -3  -5   34.62    6.90
   0   3  -5   37.39    9.66
   3  -3  -5   34.05    6.52
  -3   3   5   32.57    5.31
   0   3  -5   38.85   12.90
  -3   0   5   31.19    6.16
   0  -3   5   33.39    6.18
  -3   3   5   39.29    4.82
   0   3   5   30.44    6.51
   0   3   5   37.73    7.08
  -3   3   5   34.50    8.21
   0   3  -5   38.60   10.46
   0  -3   5   31.91    7.29
   3  -3   5   33.84    5.82
   3   0  -5   39.56    5.75
  -3   0  -5   36.11    6.32
   0   3  -5   35.89    6.21
  -3   0  -5   37.63    6.10
   3  -3  -5   36.52    5.25
  -3   0   5   38.20    7.31
  -3   0   5   39.21    7.22
   3  -3   5   33.58    8.16
  -3   3  -5   34.81    7.02
   3  -3  -5   38.89    7.12
   0  -3  -5   37.44    6.00
   0  -3   5   36.77    8.17
   0   3  -5   36.26    7.93
   3   0   5   39.64    6.64
   0  -3   5   39.82    8.09
   0   3   5   39.38    2.90
  -3   0   5   38.36    5.20
  -3   3  -6   52.98    7.45
  -3   0  -6   48.62    7.18
   3   0  -6   46.88    6.60
   3   0  -6   41.83    7.14
  -3   0   6   57.01    7.06
   3  -3  -6   63.80    8.50
   3  -3  -6   46.10    8.63
   3   0  -6   50.13    9.11
   0   3  -6   53.32    7.42
  -3   3  -6   50.33    7.17
   3   0  -6   90.70   12.86
  -3   3  -6   43.94    8.43
  -3   0  -6   52.57    9.80
   3  -3  -6   63.23    8.02
   0  -3   6   43.76    5.73
  -3   0  -6   56.35    7.95
   0   3  -6   50.33    6.56
   3   0   6   49.10    4.96
  -3   3  -6   56.52    9.76
  -3   0   6   60.99    8.77
   3  -3   6   49.66    8.51
   3  -3  -6   39.67    8.47
  -3   3   6   57.19    9.99
   3  -3   6   55.24    7.84
  -3   0   6   49.28    7.34
   0  -3  -6   53.17    7.66
   0   3   6   55.95    9.01
   0   3   6   41.18    8.78
   0   3  -6   54.09    9.13
   3  -3   6   53.43    9.09
  -3   0   6   57.07   10.11
   3  -3  -6   66.87    8.50
   0   3   6   49.47    6.73
   3   0  -6   53.26    9.09
   0  -3   6   53.54    9.12
  -3   3  -6   50.98    8.66
   3  -3  -6   60.11    9.69
   3  -3  -6   52.70    7.44
   0   3  -6   53.30    8.80
   0  -3   6   43.81    8.86
  -3   3   6   44.27    5.56
   3   0   6   44.43    4.53
  -3   3   6   54.84    7.68
  -3   3   6   52.37    7.44
   0   3  -6   56.84    9.62
  -3   3  -6   61.78    8.18
   3  -3   6   57.82    7.72
   0   3  -6   49.25    9.22
  -3   0  -6   51.10    5.19
   0  -3   6   44.52    9.61
  -3   3   6   52.51    6.47
   3   0  -6   40.67   10.98
  -3   0   6   57.29   10.10
  -3   3   6   48.47    9.09
   3   0  -6   54.34    8.63
  -3   3   6   50.00    6.97
   3   0   6   49.14    7.60
  -3   0   6   53.28    9.56
   0  -3   6   43.18    7.09
   3   0  -6   52.34    9.03
   0  -3  -6   55.19    9.78
   0  -3  -6   55.39    5.31
   3   0   6   49.59    8.97
   0   3   6   51.08    7.29
  -3   3   6   44.46    9.36
   0  -3  -7    0.99    4.36
   3  -3  -7    0.99    7.25
   0   3  -7    0.50    6.21
   3  -3  -7    0.84    7.09
   3   0  -7    0.73    9.39
  -3   3   7    0.02    5.39
   0   3   7    0.31    6.62
  -3   0  -7    0.54    4.45
   0   3  -7    0.50    6.38
   3  -3  -7    0.48    4.69
  -3   0   7    0.85    7.87
  -3   3   7    0.22    5.73
   3   0   7    0.96    3.91
   3   0  -7    0.04    4.36
   3   0  -7    0.69    7.09
   3  -3   7    0.05    6.14
  -3   0  -7    0.04    8.66
  -3   3  -7    0.49    6.43
  -3   3  -7    0.64    7.06
   0   3  -7    0.03    5.72
   3   0  -7    0.97    6.15
  -3   3   7    0.88    6.83
  -3   0   7    0.40    5.90
   3   0  -7    0.37    6.18
   0   3  -7    0.28    7.44
   3   0  -7    0.54    6.66
   0   3  -7    0.47    4.65
  -3   3   7    0.27    6.52
   3   0  -7    0.11    7.19
   3  -3  -7    0.92    5.52
   0   3   7    0.06    6.64
   3   0   7    0.98    7.50
  -3   0   7    0.52    6.92
   0  -3   7    0.50    4.48
  -3   0   7    0.53    4.23
   3   0   7    0.17    2.71
  -3   3   7    0.05    5.27
   0  -3   7    0.55    6.72
   3   0   7    0.10    5.55
  -3   3  -7    0.28    6.61
  -3   3  -7    0.92    5.45
   0  -3  -7    0.26    6.01
  -3   0  -7    0.20    2.95
  -3   3   7    0.60    4.43
   0   3  -7    0.81    7.01
   0  -3  -7    0.01    6.30
   3  -3   7    0.76    6.05
  -3   3   7    0.83    4.90
  -3   0   7    0.18    7.80
   3   0  -7    0.52    4.26
  -3   3   7    0.20    3.73
  -3   3  -7    0.78    4.57
   0   3  -7    0.78    6.26
  -3   0  -7    0.91    5.17
  -3   0  -7    0.99    3.52
   3  -3   7    0.71    5.14
   3   0  -7    0.64    9.92
   3  -3  -7    0.81    6.73
   3  -3  -7    0.87    8.23
   3  -3   7    0.84    4.81
   0   3   7    0.71    5.38
   0   3  -7    0.89    7.50
   0  -3   7    0.61    3.87
   3  -3  -7    0.82    3.83
   3  -3  -7    0.03    6.05
   0  -3   7    0.14    7.01
  -3   0   7    0.64    4.26
   0  -3  -7    0.51    3.62
   0  -3   7    0.13    7.71
   3  -3   8 2119.93   46.53
   0   3   8 2120.96   38.27
   3  -3  -8 2146.03   50.33
   3   0  -8 2112.81   18.43
   0  -3  -8 2137.79   31.84
  -3   3   8 2174.66   38.44
  -3   0   8 2192.12   51.63
   0   3  -8 2132.78   35.04
   3   0  -8 2196.89   19.23
   0  -3  -8 2159.73   42.51
   3   0  -8 2152.75   38.38
   0   3   8 2210.74   50.04
  -3   3  -8 2133.06   45.31
  -3   3   8 2141.97   41.83
  -3   3   8 2187.39   40.25
  -3   3  -8 2171.52   45.46
   3  -3  -8 2306.78   46.74
   3   0   8 2166.32   29.68
   0   3   8 2235.54   47.95
   3   0   8 2312.38   51.65
   0  -3  -8 2096.51   38.28
  -3   3   8 2251.57   45.89
  -3   0   8 2169.75   50.45
   3  -3  -8 2297.61   53.18
   3   0  -8 2238.81   47.59
  -3   3  -8 2260.38   48.60
   0  -3  -8 2181.80   42.71
   0  -3   8 2167.90   51.16
   3   0   8 2146.79   36.08
   3  -3  -8 2101.74   40.65
   0   3  -8 2186.27   50.23
  -3   0   8 2194.84   47.49
  -3   3   8 2174.50   31.31
   3   0  -8 2304.61   52.47
  -3   0  -8 2240.85   43.08
  -3   0  -8 2097.87   29.04
  -3   3   8 2176.78   52.13
   3  -3   8 2326.63   48.84
   0  -3   8 2078.93   34.76
  -3   0   8 2058.76   37.30
   3  -3  -8 2174.55   31.53
  -3   3  -8 2243.87   49.61
   3  -3   8 2182.94   38.44
  -3   3  -8 2201.22   38.43
  -3   0   8 2239.38   51.24
   3  -3  -8 2034.42   41.13
   0  -3  -8 2261.28   51.79
  -3   0  -8 2105.94   51.12
   0   3  -8 2149.86   38.19
   3   0   8 2197.57   38.98
   3   0  -8 2203.71   39.12
   0  -3   8 2172.63   38.66
  -3   0  -8 2122.83   35.69
   3  -3  -8 2194.89   38.85
   0  -3   8 2164.88   49.70
   3  -3   8 2137.29   48.47
   3  -3  -9   88.12   11.67
   0   3   9   90.59   12.17
   0  -3  -9   85.92   11.17
   3  -3  -9   81.89    7.20
   0  -3   9   86.98    8.52
  -3   0   9   89.50   13.07
   3  -3  -9   78.45    8.25
   3   0  -9   89.54    8.93
  -3   0  -9   70.09    8.58
  -3   3   9   79.43   12.98
   0  -3   9   79.29   13.13
  -3   0   9   87.80    9.10
   0  -3  -9   71.27    7.18
   3  -3  -9  100.05   14.61
   3   0  -9   85.75   13.28
   3  -3   9   92.51   12.04
   3   0   9   79.41    6.88
   3   0   9   89.28   12.90
  -3   3   9   91.98   10.79
  -3   3  -9   93.70   11.84
  -3   3  -9   74.55   10.80
   3  -3  -9   62.75    9.93
   0  -3   9   94.00   13.39
   0   3  -9   79.08   12.54
  -3   0   9   74.85   12.67
   0   3  -9   65.31    3.53
  -3   3   9   76.91    6.84
   3   0  -9   87.24    9.42
  -3   3  -9   65.63   10.92
   3  -3   9   93.40   12.45
  -3   0  -9   84.38   13.03
   0  -3   9   86.27    8.59
  -3   3  -9   71.10   12.08
  -3   0   9   95.20   13.53
   3   0  -9   84.22   11.76
  -3   0   9   87.14   11.21
   3   0   9   80.05    8.51
  -3   0  -9   88.39   10.05
   0   3  -9   76.24    8.40
   3  -3   9   78.56    8.27
   3   0  -9  118.72    6.71
   3   0  -9   78.50    4.68
   0  -3  -9   83.10   13.09
  -3   0  -9   81.47    7.14
   0   3  -9   84.59    8.65
   3  -3  -9   93.54   13.03
   0   3   9   95.74   13.44
   0   3   9   75.19    8.33
   0   3  -9   60.20    3.48
   0  -3  -9   79.27   10.07
  -3   3   9   75.61   11.59
   3  -3  -9  205.21   17.82
   0  -3  -9   82.69    8.75
   0  -3  10    4.19    8.61
   0   3  10    4.31    7.42
   3  -3 -10    4.06    8.32
   3  -3  10    4.02    4.55
  -3   0 -10    4.26    4.18
   3   0 -10    4.84    8.69
   0  -3 -10    4.34    8.01
   0   3 -10    4.61    5.25
   3  -3  10    4.60    7.84
   0   3  10    4.81    9.16
   3  -3 -10    4.83    5.09
   0   3 -10    4.88    2.25
  -3   3 -10    4.85    8.55
   0  -3  10    4.03    4.78
   0  -3 -10    4.10    4.55
  -3   0  10    4.31    8.78
  -3   0 -10    4.47    9.18
   3   0 -10    4.10    4.34
   3   0  10    4.24    4.79
   3   0 -10    4.72    4.53
   3   0  10    4.43    8.32
  -3   3  10    4.36    7.34
  -3   0  10    4.07    6.00
  -3   0  10    4.16   10.85
  -3   0 -10    4.91    5.52
  -3   3  10    4.74    6.73
  -3   3  10    4.72    4.05
   3   0  10    4.90    4.53
   3  -3 -10    4.44   11.47
   3  -3 -10    4.34   12.36
   3  -3  10    4.29    7.49
   0   3  10    4.31    5.05
   3  -3 -10    4.73    9.68
   3  -3  10    4.55    4.56
  -3   3  10    4.69    8.45
   0  -3 -10    4.60    7.51
   0  -3  10    4.22    7.74
  -3   0 -10    4.84    6.24
   0  -3 -10    4.46    6.49
   0  -3  10    4.45    4.82
   3   0 -10    4.82    2.99
   0  -3 -10    4.79    6.21
   0   3 -10    4.88    4.65
  -3   0  10    4.66   10.79
   0   3 -10    4.91    8.57
   3   0 -10    4.87    9.23
   3   0 -10    4.86    4.44
   3  -3 -10    4.97    4.25
   0   3 -10    4.94    2.22
   3   0  10    4.90    4.32
   0  -3 -10    4.34    4.45
   3   0 -10    4.20    6.74
  -3   0  11    1.05    8.66
   3  -3 -11    1.38    9.90
   3  -3 -11    1.17    7.56
  -3   3  11    0.91    6.67
  -3   3  11    0.76    8.41
   0   3 -11    1.12    2.30
   0  -3 -11    0.96    7.86
  -3   0 -11    1.39    3.86
  -3   0  11    0.91    5.48
  -3   3 -11    0.89    7.76
   0   3 -11    0.53    5.01
  -3   3  11    0.69    7.05
   3  -3  11    1.17    7.46
  -3   0 -11    0.70    8.82
   3   0 -11    1.29    3.02
  -3   0  11    0.56    9.75
   3  -3 -11    1.22    3.87
   3   0 -11    0.88    3.93
   3  -3  11    1.10    8.24
   0  -3  11    1.25    3.49
   0   3  11    0.74    8.52
   3   0  11    0.38    8.67
  -3   0 -11    0.41    6.23
   3   0  11    0.76    3.81
   0  -3  11    0.87   10.22
   0   3 -11    1.29    4.22
   3   0 -11    0.66    5.18
   0  -3  11    1.01    8.36
   0   3  11    0.56    4.04
   3  -3 -11    0.88    4.13
   0  -3 -11    0.37    3.93
   0  -3 -11    0.99    4.06
   3   0 -11    0.94    3.99
   3   0 -11    0.60    3.83
   3  -3  11    0.45    4.19
   3  -3 -11    0.97    3.92
   0  -3 -11    1.27    6.93
   0   3  11    1.39    7.78
   3  -3 -11    0.85   10.73
   3   0  11    1.10    4.03
   3   0 -11    0.43    7.38
   0   3 -11    0.90    8.92
   0  -3 -11    0.31    5.90
  -3   0  11    0.75    8.85
   3  -3  11    1.13    3.62
   3   0 -11    0.64    9.36
   3   0  11    1.24    4.03
  -3   0 -11    0.74    5.97
   3   0 -12 1011.08   42.56
   3  -3  12 1010.71   23.01
   3  -3 -12 1025.60   24.10
   0  -3 -12  976.96   40.94
  -3   0 -12 1023.27   32.66
   0  -3 -12 1055.55   38.28
   3  -3  12 1060.89   23.64
  -3   0 -12 1073.65   42.56
  -3   3 -12 1063.80   39.57
   0   3 -12 1018.34   29.41
   0  -3  12 1087.24   43.78
   0   3  12 1172.35   44.71
   3   0 -12 1013.60   21.34
  -3   0  12 1084.81   44.45
   0   3 -12 1062.51   41.19
   3  -3 -12 1080.92   40.83
  -3   3  12 1057.07   40.58
   3   0  12 1041.76   23.63
   0  -3  12 1043.33   42.74
   3   0  12 1049.69   42.39
  -3   0  12 1058.51   42.83
   3  -3  12 1020.67   38.39
  -3   0  12 1014.80   41.64
   0  -3  12 1031.35   23.48
   0   3 -12 1046.95   23.58
   0   3 -12  995.82   20.14
   3   0 -12 1047.13   31.86
   3   0  12 1034.20   23.45
   3  -3  12 1093.05   41.45
   0   3  12 1051.14   40.02
   3   0 -12 1078.61   37.70
  -3   3  12 1060.95   43.82
   3   0 -12 1053.67   24.04
   3  -3 -12 1061.62   43.26
  -3   0 -12  950.09   32.63
   0   3  12 1058.60   23.89
   3  -3 -12 1053.08   22.69
   0   3  13    8.26    9.22
  -3   3  13   10.88    9.01
  -3   3 -13    9.78    9.79
   0   3 -13    2.91    8.97
   0   3 -13    8.40    5.43
   3   0 -13    9.18    8.21
  -3   0 -13    8.54    9.99
  -3   0 -13    7.12    9.23
   3  -3  13    9.91    9.25
   3   0 -13    9.06   11.07
   3   0  13   15.17   11.23
  -3   0  13    2.53    8.76
   0  -3  13   -2.21    8.15
   0  -3  13   13.97   11.42
   3   0 -13    3.50    5.98
  -3   3  13   24.71   11.85
   0  -3 -13   -0.25    7.79
   3  -3  13   12.21    8.63
   3  -3 -13    0.88    7.50
  -3   0  13   13.90   10.38
  -3   0 -13    3.34    7.79
   3  -3 -13   16.34   11.61
   0   3  13    0.45    8.06
   0  -3 -13    4.43    8.94
   0   3  14    0.20    9.91
   0   3  14    0.12    9.24
   3  -3  14    0.52    9.58
  -3   3 -14    0.92   10.37
  -3   3  14    0.81   10.80
  -3   0  14    0.35    9.69
   0  -3 -14    0.21    9.56
  -3   0 -14    0.02   10.24
   0  -3 -14    0.14    8.99
  -3   0 -14    0.20    9.55
   3   0  14    0.36   11.13
  -3   3 -14    0.97    7.15
  -3   3  14    0.01   11.07
   0  -3 -14    0.77    9.89
   3   0 -14    0.58    9.34
   3  -3 -14    0.53    8.51
   3   0 -14    0.60    7.10
   0   3 -14    0.28    8.97
   3  -3  14    0.43    8.63
  -3   3 -14    0.18    7.66
   0   3 -14    0.71   10.54
   3  -3 -14    0.44   11.08
   3   0 -14    0.74   11.72
  -3   0 -14    0.21    8.40
   0  -3  14    0.96   10.20
   0   3 -15    0.29   10.21
  -3   0 -15    0.59    9.71
  -3   0 -15    0.22   10.72
  -3   3 -15    0.94    7.13
  -3   3  15    0.95   11.85
  -3   0 -15    0.59   11.06
   3   0  15    0.45   10.86
   3   0 -15    0.70   12.47
   0   3  15    0.30   13.20
   0  -3 -15    0.17    9.12
   0  -3 -15    0.96    9.16
  -3   0  15    0.87   11.94
   0  -3 -15    0.36   10.42
   3  -3 -15    0.37   11.20
   0   3  15    0.98   12.32
  -3   3 -15    0.67    8.92
   3  -3  15    0.64   10.45
   3  -3 -15    0.34    9.65
   0  -3  15    0.19   11.33
  -3   3 -15    0.70    9.67
   0   3 -15    0.94   10.97
   3   0 -15    0.31    8.75
  -3   0 -16  646.33   39.16
  -3   3 -16  662.19   36.36
   0   3 -16  673.18   41.46
   0   3  16  611.24   38.71
   3   0  16  612.55   39.17
   0  -3 -16  667.98   37.54
  -3   0  16  613.85   39.29
   3  -3  16  598.53   34.73
   0  -3 -16  678.64   39.76
   0  -3 -16  624.48   38.20
   3   0 -16  594.58   39.77
   0   3 -16  671.65   37.51
  -3   3 -16  635.34   35.29
   3  -3 -16  581.56   35.33
  -3   0 -16  648.85   36.72
  -3   3  16  678.71   41.96
   3  -3 -16  643.26   32.60
   3  -3 -16  672.21   41.07
   0   3  16  644.01   38.17
  -3   0 -16  645.16   37.43
   0  -3  16  625.79   39.25
  -3   0 -17   13.31   11.04
  -3   3 -17    7.05    9.54
   0  -3 -17   -6.65   10.11
   0  -3 -17    5.79   11.42
   3  -3  17    3.94    9.16
   0   3 -17   -3.88   10.37
  -3   3 -17   -1.96    8.70
  -3   0 -17    1.80    9.80
   3  -3 -17    0.62   10.31
   0  -3 -17    0.76   10.26
  -3   0 -17   -7.32   11.40
   0   3  17    1.24   10.56
   3  -3 -18   10.12   11.78
  -3   0 -18    5.34   11.33
   0   3 -18    8.48   10.36
   0   3  18   19.35   13.06
  -3   3 -18    4.39   10.72
   0  -3 -18    8.36   11.32
   3  -3  18   16.56   10.93
   0  -3 -18    5.19   10.49
  -3   0 -18    3.54   10.06
  -2   4 -18   15.66   10.56
  -2   4 -17   -3.37   10.25
  -2  -2 -17   -8.24    9.90
  -2  -2 -17    2.39   10.53
   2  -4  17    0.10    9.97
   2   2  17    9.50   11.05
   2   2  16 1138.87   45.93
   4  -2 -16 1216.22   56.70
  -4   2  16 1141.24   50.41
  -2  -2 -16 1142.02   52.69
  -2   4 -16 1125.55   49.65
  -4   2  16 1184.65   55.50
   4  -2 -16 1187.32   46.40
  -2  -2 -16 1240.29   54.13
  -2  -2 -16 1180.76   47.04
   2  -4  16 1068.09   50.36
   2   2  16 1135.24   53.51
   2   2  15    5.23    8.02
   4  -2 -15   13.50   12.32
  -2  -2 -15   -1.83    9.72
  -4   2  15    5.88    9.43
  -2  -2 -15   13.23   11.26
   4  -2 -15    1.97    8.45
   2  -4  15    9.87   10.77
  -2   4 -15   20.23   10.54
  -2  -2 -15    0.39    8.09
   2   2  15   12.70   11.60
  -4   2  15   -3.21   10.43
  -2   4 -15    3.47    7.67
  -2   4 -14   10.42    9.91
  -4   2  14   12.55   11.13
   2  -4  14   27.50   11.98
  -2   4 -14   13.20    7.88
   4  -2 -14   18.10    7.56
   2   2  14    9.47    9.76
   4  -2 -14   12.12   11.79
  -2  -2 -14    7.89   10.21
  -2  -2 -14   28.02   11.92
  -4   2  14   10.35   10.41
   2   2  14   18.84    8.70
   4  -2 -14   12.47    9.21
  -2  -2 -14   24.68    9.50
  -4   2  13   -1.13   10.06
  -2  -2 -13    3.92    9.93
   4  -2 -13   16.51   12.42
  -2  -2 -13    0.02    9.45
  -4   2  13   -1.48    8.97
  -2  -2 -13    3.69    7.03
   4  -2 -13    6.46    8.13
   2   2  13    3.10   10.19
  -2   4 -13   -4.53    8.73
   4  -2 -13   -0.22    6.18
  -2   4 -13   -1.72    6.91
   2  -4  13   11.31   10.97
  -4   2  13    4.32    8.78
   2   2  13    9.55    7.31
  -4   2  12  162.75   17.59
   4  -2 -12  140.09   18.16
  -2   4 -12  140.21   14.95
  -2  -2 -12  143.94   17.69
  -4   2  12  152.91   18.48
  -2   4 -12  156.67   11.09
   2   2  12  181.48   20.01
   2  -4  12  155.13   18.31
   4  -2 -12  152.57   16.43
   2   2  12  154.25   15.10
   4  -2 -12  152.12   13.85
  -2  -2 -12  166.40   15.16
   4  -2 -12  156.75   11.20
  -2  -2 -12  166.06   18.89
  -2   4 -12  143.05   10.91
  -2   4 -12  139.43   17.10
   2   2  12  153.02   11.08
  -4   2  12  156.72   17.00
  -4   2  11    2.83    7.06
   2   2  11    1.21    7.32
   4  -2 -11    2.30    6.53
  -2  -2 -11   -2.55    8.24
  -2  -2 -11    0.18    3.75
  -2   4 -11   -0.62    6.58
  -2   4 -11    2.71    4.00
   4  -2 -11   10.87    7.66
  -4   2  11    2.70    8.05
  -4   2  11   -0.02    5.08
  -2   4 -11    3.33    4.37
  -4   2  11    2.64    7.68
  -2  -2 -11    1.35    8.40
  -2  -2 -11   -5.26    6.00
   2  -4  11    7.78    7.82
   4  -2 -11    0.08    4.48
   2   2  11    1.13    4.40
   4  -2 -11    3.38   10.30
  -2  -2 -11    2.67    4.62
   4  -2 -11   -1.73    4.27
   2   2  11   -0.93    5.52
   2  -4  11    4.70    4.70
  -2   4 -11   10.30    8.37
  -2  -2 -11    3.88    7.03
   4  -2 -11   -1.10    6.77
  -4   2  10   62.07   11.50
  -4   2  10   62.23   10.60
   2   2  10   62.09    7.73
   2   2  10   61.74    8.79
  -2   4 -10   61.76    6.75
   4  -2 -10   62.17   10.30
  -4   2  10   62.13    8.32
  -2   4 -10   61.52    9.47
  -2   4 -10   61.50   10.99
   4  -2 -10   61.61    9.58
   4  -2 -10   61.84    7.98
  -2  -2 -10   61.96    6.87
  -2  -2 -10   61.68   10.33
   2   2  10   62.40   11.81
  -4   2  10   62.05   10.98
   4  -2 -10   62.05   14.77
  -2  -2 -10   61.51   11.00
  -2  -2 -10   62.03    8.76
   4  -2 -10   62.24    9.47
  -2   4 -10   61.44    8.01
   4  -2 -10   61.58    7.56
   2  -4  10   62.28    7.06
   2  -4  10   62.23   11.63
  -2  -2 -10   62.06    6.63
  -4   2   9    9.54    8.04
   2   2   9    2.68    6.47
  -2   4  -9   10.08    5.02
  -4   2   9   11.03    7.71
  -2  -2  -9    9.31    8.16
   2   2   9   18.28    9.60
   4  -2  -9    4.31    7.45
   4  -2  -9    9.32    6.86
  -2  -2  -9   11.91    8.67
  -2   4  -9    9.31    7.80
   2  -4   9   10.32    9.29
   4  -2  -9   14.84    7.92
  -4   2   9   14.01    8.59
   4  -2  -9    6.70    5.43
  -4   2   9   13.85    6.89
   4  -2  -9   21.28   12.39
  -2  -2  -9    8.51    6.45
   4  -2  -9    7.92    5.85
   2   2   9    4.38    5.20
  -4   2   9   11.66   10.05
   2  -4   9    3.10    5.02
   2  -4   9    2.75    6.45
  -2   4  -9   11.78    9.30
  -2  -2  -9    1.25    5.01
  -2  -2  -9   11.52    4.88
  -2   4  -9    5.29    5.73
   4  -2  -8 4073.19   67.64
  -2  -2  -8 4241.54   73.75
   2  -4   8 4185.26   63.84
  -2   4  -8 4241.99   66.38
  -4   2   8 4101.65   66.49
  -2  -2  -8 4308.93   52.90
  -2   4  -8 4172.51   63.43
  -4   2   8 4206.68   67.57
  -2   4  -8 4246.99   58.00
   4  -2  -8 4246.41   61.70
   4  -2  -8 4185.48   58.30
  -2  -2  -8 4103.14   58.11
  -2   4  -8 4317.02   73.12
  -4   2   8 4215.01   61.39
   4  -2  -8 4108.46   66.02
   2   2   8 4100.13   72.44
   4  -2  -8 4066.49   57.45
   2  -4   8 4272.95   73.55
   2   2   8 4272.08   57.86
  -4   2   8 4323.91   73.10
   4  -2  -8 4067.79   51.58
   4  -2  -8 4383.31   76.37
  -2  -2  -8 4359.28   74.81
   2  -4   8 4197.51   57.67
  -2   4  -8 4018.31   46.53
  -4   2   8 4065.03   65.62
   4  -2  -8 4475.30   68.14
   2   2   8 4046.30   57.76
   4  -2  -8 4037.94   66.52
  -4   2   6   44.48    9.50
   4  -2  -6   42.87    8.40
   4  -2  -6   55.15   10.15
  -2   4  -6   27.13    7.59
  -4   2   6   54.04   10.44
  -2   4  -6   32.28    8.78
  -2  -2  -6   17.21    4.37
  -2   4  -6   23.51    6.30
  -2   4  -6   23.12    7.56
   2   2   6   24.94    8.55
  -2   4  -6   17.81    6.02
   4  -2  -6   26.27    7.64
   2  -4   6   51.96    9.91
  -4   2   6   65.49    9.18
   4  -2  -6   31.59    6.44
   2  -4   6   19.77    6.20
   2  -4   6   31.76    7.38
  -4   2   6   58.40    9.97
  -4   2   6   58.69    9.52
  -2   4  -6   23.15    6.29
  -4   2   6   78.29   10.69
   4  -2  -6   26.56    7.62
  -2  -2  -6   16.87    5.85
  -2  -2  -6   27.04    4.54
   2   2   6   23.96    7.07
   2   2   6   26.28    5.72
   4  -2  -6   36.41    8.24
  -2   4  -6   28.16    5.20
   4  -2  -6   51.94   10.09
  -4   2   5   -2.23    5.41
  -4   2   5   -1.41    5.90
   2   2   5   -0.15    4.10
   4  -2  -5    2.08    5.67
  -4   2   5    2.52    5.35
   2  -4   5    6.00    5.39
  -2   4  -5    2.40    4.46
  -2   4  -5   -1.22    5.20
  -2   4  -5    3.94    3.60
  -2   4  -5   15.45    7.58
   2   2   5    4.21    7.22
  -2   4  -5    1.75    4.91
   2  -4   5   -2.17    6.29
   4  -2  -5   -1.73    5.22
  -4   2   5  -16.46   10.10
  -4   2   5    6.52    6.26
   4  -2  -5   -1.10    4.12
  -2  -2  -5    1.36    4.73
  -2  -2  -5   -2.17    3.76
   2  -4   5   -0.15    4.77
  -2   4  -5    1.94    5.10
   4  -2  -5    0.57    5.35
   4  -2  -5    4.13    5.90
  -4   2   5   -4.25    8.93
   2   2   5    0.38    4.14
   4  -2  -5    6.28    5.24
  -2   4  -5   -0.73    5.04
   4  -2  -5    4.07    4.61
   2   2   5    5.15    5.71
  -2  -2  -5    2.51    2.37
  -4   2   4 3929.96   52.86
  -4   2   4 3925.89   53.51
  -4   2   4 3929.49   53.61
   2  -4   4 3923.72   54.23
   4  -2  -4 3929.19   53.68
  -2   4  -4 3928.45   53.89
  -2  -2  -4 3925.30   54.17
  -2  -2  -4 3926.21   45.18
   2  -4   4 3926.20   58.42
  -4   2   4 3923.59   52.98
  -2   4  -4 3921.31   44.95
  -2   4  -4 3925.27   57.70
   2  -4   4 3927.92   41.40
   4  -2  -4 3928.15   53.31
   2   2   4 3928.35   53.95
   4  -2  -4 3923.51   56.15
  -2   4  -4 3926.68   51.63
  -4   2   4 3929.98   56.70
  -2   4  -4 3920.80   41.39
  -4   2   4 3920.88   57.60
   4  -2  -4 3926.62   47.41
   2   2   4 3924.47   46.67
  -2   4  -4 3928.96   53.39
  -4   2   4 3926.54   45.54
   2   2   4 3920.49   40.91
   4  -2  -4 3921.41   53.63
  -2   4  -4 3924.19   47.41
   4  -2  -4 3928.92   53.59
   2  -4   4 3929.27   53.76
   4  -2  -4 3923.50   45.28
   4  -2  -2 2167.43   41.87
  -2  -2  -2 2217.44   42.54
  -4   2   2 2277.72   43.34
  -2  -2  -2 2152.13   37.85
  -4   2   2 2151.09   35.21
  -2   4  -2 2276.25   42.86
   4  -2  -2 2216.28   42.21
   2  -4   2 2153.65   42.38
  -2   4  -2 2210.21   43.07
  -2   4  -2 2107.69   29.45
   2  -4   2 2185.16   41.35
  -4   2   2 2199.63   42.60
   4  -2  -2 2159.29   42.04
  -2   4  -2 2191.32   41.73
   2   2   2 2084.15   37.31
  -4   2   2 2164.97   41.24
  -4   2   2 2211.26   37.56
   2   2   2 2156.53   41.73
  -2   4  -2 2175.11   33.79
   2  -4   2 2157.29   34.71
   4  -2  -2 2165.14   36.28
   4  -2  -2 2126.81   40.86
   4  -2  -2 2201.52   36.20
   2   2   2 2134.02   24.87
   2  -4   2 2175.78   41.94
  -2   4  -2 2126.11   34.37
  -2  -2  -1    1.96    3.62
  -4   2   1    6.65    4.02
  -2   4  -1    0.98    2.59
   2  -4   1    2.71    6.68
   2  -4   1   -2.39    5.18
   2  -4   1    2.43    4.81
  -2   4  -1  -11.90    9.84
  -2  -2  -1    3.24    4.81
  -2  -2  -1   -2.13    5.09
  -2   4  -1    2.43    5.34
  -4   2   1    1.80    5.22
  -4   2   1    0.27    4.72
  -2   4  -1    7.24    6.44
   2  -4   1   29.26    8.44
   2   2   1   -0.51    3.21
   4  -2  -1   -1.13    4.61
   4  -2  -1   -0.10    6.60
   2   2   1   -1.42    6.08
  -4   2   1    5.49    6.10
  -2   4  -1    0.86    3.40
  -2   4  -1    0.46    4.51
   4  -2  -1    3.92    6.12
   2   2   1    2.74    5.10
   4  -2  -1   -0.11    5.32
   4  -2  -1    0.05    5.22
   2   2   0 2786.71   36.42
   2  -4   0 2785.07   44.86
   2  -4   0 2798.90   46.67
   4  -2   0 2768.66   42.74
  -2   4   0 2784.56   46.69
  -4   2   0 2780.97   43.11
  -2   4   0 2783.29   27.89
   2  -4   0 2784.74   46.83
   2   2   0 2789.59   46.53
   4  -2   0 2788.67   46.72
  -2   4   0 2786.50   41.98
  -2   4   0 2785.99   46.05
  -2   4   0 2782.82   44.94
  -2   4   0 2784.36   20.38
  -2  -2   0 2783.80   47.00
   2   2   0 2788.29   22.35
  -4   2   0 2784.26   33.04
  -4   2   0 2784.10   46.85
  -2  -2   0 2788.10   44.43
  -4   2   0 2783.88   46.99
   2   2   0 2787.11   44.42
  -2  -2   0 2783.36   36.39
   4  -2   0 2780.22   47.20
   2  -4   0 2788.31   42.63
  -2  -2   0 2784.30   44.47
   4  -2   0 2793.44   46.78
   2  -4  -1    0.86    6.05
   2   2  -1   -0.36    6.07
  -2   4   1    1.01    5.12
  -2  -2   1    3.54    5.66
  -4   2  -1   -3.62    6.28
   4  -2   1    2.67    5.22
   2  -4  -1   52.38   13.66
  -4   2  -1    2.09    3.24
   4  -2   1   -0.03    5.33
   2   2  -1    5.01    4.49
   2   2  -1   11.04    3.48
   4  -2   1    1.65    5.42
   4  -2   1    0.43    5.31
  -2  -2   1   -1.62    5.71
  -2   4   1    0.60    5.10
  -2   4   1    1.62    5.45
  -4   2  -1    0.36    5.13
  -2  -2   1    0.34    4.86
   2   2  -1    1.25    5.47
  -2  -2   1   57.23   16.57
   2  -4  -1    0.69    5.12
  -4   2  -1   -1.80    4.94
   2  -4  -1   -1.67    5.38
   4  -2   2 2407.88   43.40
  -2   4   2 2378.56   32.22
  -4   2  -2 2317.94   43.23
   2   2  -2 2345.57   43.41
   4  -2   2 2302.34   40.24
  -2  -2   2 2469.65   44.63
  -2  -2   2 2429.56   45.16
   2  -4  -2 2359.94   41.15
  -4   2  -2 2332.48   44.61
   4  -2   2 2291.35   32.54
   2   2  -2 2348.28   44.43
   2  -4  -2 2651.64   49.01
   4  -2   2 2402.82   43.95
   2  -4  -2 2412.90   43.26
   2  -4  -2 2396.88   43.82
  -2   4   2 2329.81   42.96
  -2   4   2 2409.53   42.87
  -2  -2   2 2383.08   44.34
  -4   2  -2 2437.77   26.99
   2   2  -2 2294.00   31.76
   2   2  -2 2329.61   40.03
  -2  -2   2 2370.24   40.12
  -2  -2   2 2320.14   44.13
  -4   2  -2 2415.88   45.43
   4  -2   2 2419.64   44.21
  -2   4   3   12.95    8.40
  -2  -2   3   -1.35    3.82
   4  -2   3   16.58    6.67
   2  -4  -3   15.07    6.83
   4  -2   3    7.48    6.26
   2   2  -3   23.65   11.76
  -4   2  -3   12.00    7.86
  -2  -2   3   11.39    6.46
   2  -4  -3   -0.75    8.07
   2   2  -3   10.96    5.28
  -2  -2   3    6.60    6.18
  -2  -2   3   -4.40   10.57
  -2   4   3    4.29    4.48
   4  -2   3    8.06    5.70
   4  -2   3    3.97    4.12
   2   2  -3   17.96    6.67
  -4   2  -3    6.86    6.64
  -2  -2   3    5.24    5.38
  -4   2  -3    2.69    6.19
  -2   4   3    9.59    6.67
   2   2  -3   25.47    8.72
   2  -4  -3    8.68    6.18
  -2  -2   3   11.18    3.56
   4  -2   3    5.55    6.86
   2  -4  -3    3.24    6.46
   2   2  -3   14.67    7.05
  -2   4   3    9.79    6.65
  -2  -2   4 2050.18   40.80
  -2   4   4 2054.69   43.42
   4  -2   4 2004.90   43.05
   4  -2   4 1978.06   40.01
   4  -2   4 1987.00   40.00
  -4   2  -4 1982.94   43.20
   2   2  -4 1981.29   36.78
  -2   4   4 2004.75   40.43
   2  -4  -4 2014.99   43.89
   4  -2   4 2013.92   37.44
  -2   4   4 1885.59   33.46
   4  -2   4 2105.61   35.56
   2  -4  -4 1858.25   17.80
   2  -4  -4 1946.83   37.91
   2  -4  -4 1993.50   40.12
  -4   2  -4 1937.54   42.62
  -4   2  -4 2032.33   43.18
   2   2  -4 1954.85   44.33
  -2  -2   4 1991.42   43.60
   2   2  -4 1988.27   43.46
  -2   4   4 2040.58   40.36
  -2  -2   4 2045.48   42.62
   2  -4  -4 2000.86   43.22
   2   2  -4 2007.23   42.02
   2   2  -4 1955.38   40.17
  -2  -2   4 1717.77   21.84
  -2   4   4 1916.60   43.29
  -2  -2   4 1904.91   41.76
  -2  -2   4 2048.36   44.23
   2   2  -4 2052.69   41.87
   2  -4  -5    5.39    5.82
  -2   4   5    1.25    2.00
  -4   2  -5    6.11    5.40
   2  -4  -5    1.65    6.74
  -4   2  -5    0.14    7.22
  -2   4   5    8.52    7.55
   2   2  -5   -0.94    5.62
  -2   4   5    5.05    5.42
  -2   4   5    3.66    5.22
   4  -2   5    0.79    4.99
   2   2  -5    0.85    6.13
  -2  -2   5    2.90    6.32
   4  -2   5    2.83    4.67
   2   2  -5   31.42   10.94
  -4   2  -5    4.65    3.41
  -2  -2   5    2.00    6.99
   2  -4  -5    2.01    2.56
  -2   4   5    0.96    5.28
  -2  -2   5    3.10    4.97
   4  -2   5    0.32    4.87
   2   2  -5    0.46    5.00
  -2  -2   5    6.62    6.15
  -2   4   5   -1.35    5.32
  -2  -2   5    0.13    1.65
  -2  -2   5    4.12    6.69
   4  -2   5    2.69    5.56
   2   2  -5    5.86    6.96
   2  -4  -5    4.60    5.01
   2   2  -5   13.33   11.71
   4  -2   5   -1.29    4.73
   2   2  -5    3.09    5.52
   2   2  -6   -2.86    7.71
   2  -4  -6   -2.17    6.74
  -4   2  -6    4.31    5.27
  -2   4   6   -0.16    5.52
   2  -4  -6    4.89    3.15
   2   2  -6    1.51    5.79
  -2   4   6    4.22    6.12
   2   2  -6    6.50    5.51
  -2   4   6    2.83    7.61
   4  -2   6    4.64    6.41
  -2  -2   6    9.55    6.99
  -2  -2   6    1.92    6.96
   2  -4  -6    9.71    5.56
  -2   4   6    5.20    5.56
   4  -2   6    4.97    5.52
   2   2  -6   17.40    9.87
   2  -4  -6    5.45    3.32
   4  -2   6    8.11    5.67
  -2  -2   6    3.84    7.61
   4  -2   6    5.21    5.36
  -2  -2   6    1.17    5.89
   2   2  -6    8.24    7.74
  -4   2  -6    6.39    7.18
  -4   2  -6   -0.25    3.35
   4  -2   6    1.02    4.49
  -2   4   6    4.26    5.73
   2   2  -6    1.08    5.03
  -2  -2   6    4.52    4.81
   2   2  -6    7.75    6.07
   2  -4  -6   13.68    6.69
   2  -4  -7    0.95    4.79
  -2  -2   7    3.49    4.84
  -2  -2   7    7.16    8.73
  -4   2  -7    8.90    5.88
  -2  -2   7    5.09    6.73
   2  -4  -7   16.35    8.23
  -2   4   7    9.47    7.25
  -2  -2   7   11.53    8.20
   4  -2   7    8.33    5.86
   2  -4  -7    4.56    4.32
  -4   2  -7   17.61    8.04
   4  -2   7    5.71    6.65
  -2   4   7    3.55    6.07
   4  -2   7    3.78    6.37
   2   2  -7   19.23    9.58
   2  -4  -7   23.37    8.46
  -4   2  -7    1.76    3.74
   4  -2   7    9.50    5.60
   2   2  -7    7.98    7.45
   2  -4  -7    7.81    5.37
   2   2  -7    8.15    5.54
  -2   4   7   14.47    9.55
  -2   4   7    8.57    5.86
  -4   2  -7   15.88    9.16
  -2   4   8 5359.96   64.94
  -2   4   8 5361.98   77.40
   4  -2   8 5047.21   72.66
  -4   2  -8 5235.73   81.14
   2  -4  -8 5646.95   84.77
  -4   2  -8 5050.46   64.99
   2  -4  -8 5212.13   50.57
   2  -4  -8 5385.04   75.43
   2  -4  -8 5109.77   58.46
  -2  -2   8 5182.77   81.73
   2   2  -8 5308.88   65.26
  -4   2  -8 5316.96   75.47
   2  -4  -8 5168.49   64.44
   4  -2   8 5028.49   64.56
  -2  -2   8 5294.50   83.72
   4  -2   8 5273.51   64.91
   4  -2   8 5213.26   64.33
  -2  -2   8 5234.59   65.25
   2   2  -8 5273.36   80.59
  -4   2  -8 5152.43   58.17
   2   2  -8 5264.79   78.40
  -2   4   8 5260.06   81.85
  -2  -2   8 5221.29   82.57
  -2   4   8 5514.29   75.30
  -2  -2   9    7.15    9.43
  -4   2  -9    3.98    4.92
  -2   4   9    9.93    8.02
   2  -4  -9    5.55    8.40
   4  -2   9    7.70    7.73
  -2  -2   9   -2.84    8.42
  -2  -2   9    5.36    5.48
  -4   2  -9    7.87    7.59
   2   2  -9   -0.81    7.36
  -2   4   9   -2.25    6.76
  -2  -2   9    3.98    8.47
   4  -2   9    0.48    5.08
   2   2  -9    5.91    4.92
   4  -2   9    1.60    5.35
  -4   2  -9    5.76    5.97
   4  -2   9    0.30    4.37
   2  -4  -9   -0.91    5.46
   2  -4  -9   -0.08    5.30
  -2   4   9    5.02    5.26
   2   2  -9    2.54    2.05
   2   2  -9    0.22    7.07
   4  -2  10  939.87   35.40
  -2   4  10  914.38   26.71
  -2   4  10  940.65   35.17
  -4   2 -10  868.14   29.41
   2  -4 -10  898.23   28.98
  -2  -2  10  969.76   38.77
   2   2 -10  975.50   37.35
   2   2 -10  880.83   15.73
  -2   4  10  915.34   37.68
   4  -2  10  903.54   29.72
   2  -4 -10  923.17   37.68
   2   2 -10  867.23   26.17
   2  -4 -10  888.95   26.68
   4  -2  10  882.10   26.17
  -4   2 -10  899.37   28.35
  -2  -2  10  914.42   38.32
  -4   2 -10  919.63   37.68
  -2  -2  10  898.50   26.74
  -2  -2  10  890.18   37.87
   4  -2  10  918.02   26.94
   2  -4 -10  866.91   25.63
   2   2 -10  868.30   36.25
   2  -4 -11    2.88    5.82
  -4   2 -11    2.81    5.48
  -2   4  11   -3.67    7.62
   2   2 -11    2.21    7.75
   2   2 -11    0.82    4.37
  -4   2 -11    1.79    5.57
  -4   2 -11    2.90    8.24
  -2  -2  11    1.39    3.95
   2   2 -11    1.20    2.36
  -2   4  11   -3.41    6.77
   2  -4 -11    5.18    9.20
   2  -4 -11    2.07    4.32
  -2   4  11   -0.68    4.46
   2  -4 -11   -0.84    6.24
  -2  -2  11    4.19    8.53
   2   2 -11   -4.49    8.36
   2  -4 -11   -6.10    5.80
   2  -4 -11    0.77    9.11
   4  -2  11    6.60    8.12
   4  -2  11    5.51    5.95
   4  -2  11    0.13    3.81
  -2  -2  11   15.52   10.51
   4  -2  11    2.81    4.60
  -2   4  12  334.35   23.86
   2  -4 -12  369.97   25.79
  -2   4  12  345.48   25.54
  -2  -2  12  375.91   27.18
   4  -2  12  376.18   25.43
   2   2 -12  363.35   25.00
  -2   4  12  352.31   16.03
  -4   2 -12  376.91   26.23
   4  -2  12  362.83   16.32
   4  -2  12  372.45   21.19
   2   2 -12  331.27   15.65
   2   2 -12  377.49   26.82
  -2  -2  12  365.16   27.16
   2  -4 -12  389.79   27.18
  -4   2 -13   12.16    9.31
   2  -4 -13   23.41   12.07
   4  -2  13    3.36    7.22
   2   2 -13   15.10   11.88
   2   2 -13    9.31   10.11
   2  -4 -13    7.87    9.80
   4  -2  13   10.20   10.41
  -2  -2  13    5.42   10.22
  -2   4  13   13.76    9.78
  -2   4  13   12.54   10.51
   4  -2  14  319.10   26.01
  -2   4  14  326.04   26.46
  -2  -2  14  344.50   28.52
   2   2 -14  337.48   28.26
   2  -4 -14  352.52   27.70
  -2   4  14  370.09   29.35
   2   2 -14  341.87   25.86
  -4   2 -14  347.51   27.43
   2  -4 -14  330.10   27.38
   4  -2  14  334.30   21.43
  -2   4  15   -6.04   11.11
   4  -2  15    7.08    7.51
  -4   2 -15   10.95   11.28
   2   2 -15    3.30    8.82
  -2   4  15    4.69   10.24
   4  -2  15    2.02    9.69
   2  -4 -15   -0.70    9.45
  -2  -2  15   -0.66   10.16
   2   2 -15    8.66   11.57
   2  -4 -15   -8.87   10.84
   2  -4 -16  555.96   36.94
  -2   4  16  617.46   38.48
  -2   4  16  609.74   39.39
  -2  -2  16  592.25   39.13
   2  -4 -16  630.63   39.33
   2   2 -16  617.52   40.84
  -4   2 -16  541.03   33.82
   2   2 -16  533.16   33.64
   4  -2  16  527.99   36.08
  -4   2 -16  567.82   36.62
  -4   2 -17   -3.76   11.64
  -4   2 -17   -4.74   10.44
  -4   2 -17    7.86   10.79
   2  -4 -17   -7.89   12.05
   2  -4 -17  -11.60   10.64
   2  -4 -17   -1.29   11.07
   2   2 -17    5.20    9.58
   2  -4 -18   54.45    5.59
   3  -4  18  255.28    5.33
  -3   4 -18  254.35    5.79
  -1   4 -18  252.39    5.50
   3  -4  17  176.29   22.44
  -1  -3 -17  171.40   22.77
  -1   4 -17  178.97   21.90
  -3   4 -17  175.95   22.53
   4  -3 -17  175.44   21.57
  -3  -1 -17  178.53   26.48
  -3  -1 -17  173.71   21.48
   1  -4  17  172.84   24.64
   1   3  17  171.15   21.20
  -3   4 -16  262.04   23.39
   1   3  16  238.33   25.58
  -1  -3 -16  247.78   25.60
   4  -3 -16  285.96   29.11
  -3  -1 -16  275.28   23.73
  -1  -3 -16  271.88   23.85
  -3  -1 -16  247.50   25.45
   1   3  16  262.47   24.76
   4  -1 -16  257.16   27.57
  -3   4 -16  225.19   23.25
  -1  -3 -16  244.15   25.85
  -1   4 -16  249.75   24.97
  -1   4 -16  250.31   27.16
   4  -3 -16  224.65   22.71
  -3  -1 -16  270.34   27.04
  -4   1  16  213.24   24.21
  -4   3  16  251.88   27.41
   3  -4  16  265.45   25.55
   1  -4  16  230.52   25.45
   3   1  16  239.68   26.14
  -3  -1 -15  211.74   20.20
   3   1  15  211.53   23.82
  -1  -3 -15  212.51   23.40
   1   3  15  189.65   22.97
  -3  -1 -15  200.94   22.66
   1   3  15  179.46   20.17
  -3   4 -15  182.95   21.05
  -1  -3 -15  208.60   19.99
   4  -1 -15  208.50   24.39
   1  -4  15  209.21   23.88
  -4   1  15  188.13   22.01
  -1   4 -15  208.14   22.44
   4  -1 -15  206.07   18.95
   4  -3 -15  206.95   21.52
  -3  -1 -15  198.61   22.93
  -3   4 -15  199.39   20.56
  -4   3  15  203.79   23.82
   3  -4  15  210.38   22.17
   4  -3 -15  218.53   25.07
  -1  -3 -15  230.77   24.50
  -4   1  15  204.77   24.49
  -1   4 -14  733.96   29.95
  -1  -3 -14  758.67   40.41
  -4   1  14  733.34   38.80
  -3   4 -14  749.24   36.20
   3   1  14  763.09   32.56
   4  -3 -14  533.94   31.55
   4  -1 -14  775.11   42.37
  -4   1  14  725.97   38.55
  -4   3  14  752.57   36.45
   3   1  14  713.91   39.88
  -3   4 -14  762.11   38.60
  -1   4 -14  753.10   38.93
  -3  -1 -14  716.33   39.32
   4  -1 -14  761.25   32.50
   4  -1 -14  782.70   33.92
  -3  -1 -14  766.81   40.53
  -1  -3 -14  778.18   35.35
   1   3  14  740.87   40.64
   3  -4  14  752.71   38.57
   1  -4  14  764.89   40.78
  -3  -1 -14  767.27   34.67
  -1  -3 -14  781.14   41.17
  -4   1  14  778.36   42.23
  -3   4 -14  754.83   29.80
   1   3  14  721.13   35.62
  -4   3  14  812.26   43.00
   4  -3 -14  816.79   43.53
   4  -3 -13    2.73    7.03
   1   3  13    6.76    7.97
   4  -3 -13   22.43   12.51
  -1  -3 -13   16.33   11.15
  -1  -3 -13   12.16    7.78
  -3  -1 -13   15.09   11.21
  -1  -3 -13   18.72   10.28
  -3   4 -13    7.14    8.04
  -1   4 -13   12.00    7.35
  -3   4 -13   11.55    9.77
  -3  -1 -13    4.83    7.31
  -4   1  13   16.12   10.69
  -4   3  13   22.10   11.95
  -4   3  13   16.66    9.66
   3   1  13   15.44   10.79
  -3  -1 -13   12.82   10.05
  -1   4 -13   22.85   12.05
   4  -1 -13   11.46    8.41
   3   1  13   10.77    7.54
   3  -4  13    4.05    8.38
   1   3  13   14.92   10.80
  -4   1  13   20.92   10.03
   1  -4  13   12.26   10.57
   4  -1 -13    8.24   11.23
   4  -1 -13    9.11    6.76
  -4   1  13   20.73   12.46
   1   3  12    7.67    8.41
  -1   4 -12    7.96    6.17
  -4   3  12    3.12   10.23
  -3  -1 -12    3.84    6.69
   4  -1 -12    1.44    3.40
   4  -3 -12    6.05    4.86
  -4   3  12    9.08    8.08
   3  -4  12    1.89    8.61
  -3  -1 -12   -4.98    8.93
  -1   4 -12   11.09    5.28
  -3  -1 -12   11.20   10.68
  -3   4 -12   10.08    8.48
   4  -1 -12    3.61    5.10
   1   3  12    7.92    9.03
   3   1  12    5.87    9.60
   4  -1 -12    9.44    8.05
   3   1  12   11.02    7.14
  -1   4 -12   -3.68    9.18
  -3   4 -12    3.10    8.92
  -4   1  12    7.23    8.83
   4  -1 -12    9.54    7.53
  -4   1  12    3.10    8.00
   3   1  12    6.05    5.03
  -1  -3 -12   -0.56    6.83
   1  -4  12    9.60   10.37
   1   3  12    4.75    4.68
   4  -1 -12    2.27    9.79
   4  -3 -12    3.73    4.67
  -1  -3 -12   10.84   10.28
   4  -3 -12   11.00   10.29
   4  -3 -12    6.11    7.88
  -4   1  12    2.08    9.12
   4  -3 -11  327.10   20.57
  -3  -1 -11  275.23   22.96
  -3   4 -11  291.54   20.86
  -1   4 -11  279.38   17.49
   4  -1 -11  306.71   19.20
  -1  -3 -11  255.73    9.12
  -3  -1 -11  284.83   15.50
   1  -4  11  278.43   15.32
  -1  -3 -11  281.08   18.49
  -4   3  11  273.04   19.49
   4  -1 -11  243.12   21.93
   4  -3 -11  286.16   15.52
  -4   1  11  293.80   22.76
  -4   3  11  269.58   19.83
  -1   4 -11  279.28   15.32
  -3   4 -11  284.83   15.54
  -1  -3 -11  269.17   22.63
   4  -1 -11  275.63   15.40
  -1  -3 -11  262.25   15.13
  -3   4 -11  275.24   17.32
  -4   3  11  298.18   23.81
  -1   4 -11  276.92   22.02
   4  -1 -11  271.96   15.36
   4  -1 -11  285.18   19.97
  -1   4 -11  258.81    9.25
   4  -3 -11  227.22   19.46
  -3  -1 -11  264.25   15.96
   3  -4  11  285.03   22.17
  -4   1  11  233.15   16.80
   3  -4  11  262.33   14.84
   3   1  11  263.03   14.94
   1   3  11  282.54   15.36
  -4   1  11  277.07   23.41
  -4   1  11  275.96   22.01
   4  -3 -11  277.24   15.36
   1  -4  11  280.12   23.11
   3   1  11  264.41   22.78
   3   1  11  290.98   17.51
   4  -3 -11  284.34   15.58
   1   3  11  269.77   19.73
   4  -3 -11  321.31   25.64
  -4   3  11  280.54   15.47
   4  -1 -11  252.46   11.38
  -3  -1 -11  286.39   18.35
   1   3  11  323.32   24.87
  -3  -1 -11  274.50   17.24
   1  -4  11  256.60   16.63
  -3  -1 -10  284.06   14.29
  -4   1  10  284.64   16.86
  -1   4 -10  286.64   21.52
   1  -4  10  286.31   21.03
  -3  -1 -10  287.89   21.74
   1  -4  10  289.83   15.32
  -3   4 -10  288.81   15.16
   1   3  10  284.60   22.03
   4  -3 -10  289.66   23.25
  -1   4 -10  285.44   14.69
   4  -3 -10  284.32   16.60
  -3  -1 -10  287.10   16.34
  -1   4 -10  287.15    8.14
   3   1  10  284.86   21.86
   4  -1 -10  289.11   14.66
  -1  -3 -10  282.89    7.88
  -1  -3 -10  289.82   16.81
   4  -1 -10  283.78   14.99
   3  -4  10  288.06   14.76
   4  -1 -10  280.60   21.57
   4  -3 -10  281.08   15.11
  -4   3  10  282.90   18.53
   1  -4  10  281.08   19.78
  -4   1  10  287.36   19.64
   4  -3 -10  281.52   19.69
  -3   4 -10  284.49   14.87
   4  -3 -10  288.82   14.57
   1   3  10  282.23   17.92
  -4   3  10  286.00   13.88
   4  -1 -10  286.92   16.89
  -1  -3 -10  284.77    7.59
   4  -1 -10  284.81   18.29
  -3  -1 -10  283.50   14.70
  -4   3  10  284.17   20.85
   3  -4  10  288.10   19.85
   1   3  10  280.16   15.07
   3   1  10  285.39   14.87
  -1  -3 -10  280.56   14.43
   4  -1 -10  280.47   11.39
   4  -3 -10  282.05   14.41
  -4   1  10  287.82   20.40
   3   1  10  289.35   15.14
  -1   4 -10  285.55    8.34
   4  -3 -10  283.69   21.01
  -1  -3 -10  285.54   19.87
  -3   4 -10  280.99   19.38
  -1   4 -10  285.52   16.27
  -4   3  10  287.87   17.56
  -3  -1 -10  288.43   15.36
   1  -4  10  286.89   14.70
  -4   1  10  282.81   19.51
   4  -1  -9 1215.38   32.28
  -1   4  -9 1223.53   31.90
  -3   4  -9 1247.62   32.31
   1   3   9 1259.29   32.65
  -3  -1  -9 1188.09   42.54
   1  -4   9 1237.66   32.81
   3  -4   9 1303.34   41.79
  -4   1   9 1239.56   37.80
  -4   3   9 1180.07   30.06
   4  -1  -9 1208.81   22.18
  -1   4  -9 1264.14   33.26
  -1  -3  -9 1132.08   15.72
   4  -3  -9 1290.65   33.11
   1   3   9 1295.32   42.93
  -1  -3  -9 1201.89   31.96
   4  -1  -9 1275.51   43.40
   4  -3  -9 1229.60   37.60
  -3  -1  -9 1290.63   32.82
  -4   1   9 1243.51   40.91
  -4   3   9 1240.44   36.30
   1  -4   9 1170.95   40.28
  -4   1   9 1248.56   42.06
  -3   4  -9 1243.01   32.63
  -1   4  -9 1206.79   41.64
   1  -4   9 1221.84   42.19
   1  -4   9 1253.07   32.58
  -3   4  -9 1284.82   39.76
   4  -1  -9 1247.02   35.40
  -1  -3  -9 1073.48   13.87
   4  -1  -9 1227.75   37.86
   4  -3  -9 1171.93   39.27
  -3  -1  -9 1202.55   31.74
   4  -3  -9 1207.19   34.33
   3   1   9 1261.04   42.62
   3   1   9 1239.46   29.97
   3  -4   9 1237.64   32.41
   3   1   9 1246.02   32.60
   4  -1  -9 1165.68   31.61
   4  -3  -9 1237.11   30.69
  -4   1   9 1247.25   35.32
  -4   3   9 1266.80   43.12
  -1   4  -9 1097.55   15.60
   4  -3  -9 1399.38   39.14
  -1  -3  -9 1198.35   32.26
   4  -3  -9 1212.38   32.15
  -3  -1  -9 1230.92   32.38
  -1  -3  -9 1254.78   42.55
  -1   4  -9 1177.26   16.76
   1   3   9 1268.20   37.18
  -3  -1  -9 1261.67   30.86
  -4   3   9 1230.26   35.49
  -4   1   9 1268.24   41.55
  -4   3   8   38.77    7.90
  -4   1   8   42.21   10.16
  -4   3   8   31.15    8.33
  -4   3   8   32.67    9.80
  -1  -3  -8   40.84    3.92
   1   3   8   40.10    9.06
  -1   4  -8   38.08    3.10
   4  -3  -8   42.09    7.55
   4  -1  -8   41.04    7.37
   4  -3  -8   43.30    7.61
  -3  -1  -8   43.65    7.74
  -1  -3  -8   35.88   10.24
  -1   4  -8   45.52   10.90
   4  -1  -8   46.35    9.84
  -3   4  -8   42.24    9.97
  -1   4  -8   57.59    9.04
   4  -3  -8   48.17    8.49
  -3   4  -8   48.63    9.16
  -4   1   8   39.08    8.22
   1   3   8   32.13    9.29
   3   1   8   31.00    8.97
  -4   1   8   33.45    9.43
   1  -4   8   41.59   10.18
   3   1   8   43.78    6.37
   3  -4   8   37.35    7.15
   3  -4   8   39.36   10.23
  -1   4  -8   38.88    3.32
  -1  -3  -8   41.34    7.61
  -4   3   8   43.39    7.11
   1  -4   8   46.24   10.83
   4  -1  -8   44.98   11.15
  -3   4  -8   43.99    7.51
   1   3   8   46.44    7.32
  -1   4  -8   43.72    7.98
   1  -4   8   41.16    7.33
  -3  -1  -8   49.05    7.38
  -1  -3  -8   47.48    8.07
   4  -3  -8   44.04   13.06
  -3   4  -8   45.24    7.99
   4  -3  -8   49.68    8.14
  -4   1   8   43.35    9.50
   1  -4   8   42.15    7.39
   3   1   8   49.79    7.68
   4  -1  -8   44.66    7.20
  -3  -1  -8   43.55    9.96
   4  -1  -8   46.35    9.19
   4  -1  -8   47.20    4.53
   4  -3  -8   46.19   10.04
  -4   1   8   41.61   10.06
  -4   1   7  608.15   27.31
  -1   4  -7  604.72   22.75
  -1   4  -7  607.36   25.13
  -3  -1  -7  602.94   27.88
   4  -3  -7  605.01   20.96
  -4   1   7  608.94   22.95
  -1  -3  -7  607.29   18.67
   1  -4   7  607.13   21.31
   4  -1  -7  605.16   25.97
  -3   4  -7  602.39   25.84
  -4   3   7  601.25   25.76
   4  -3  -7  605.99   22.95
  -3   4  -7  608.90   22.96
   4  -1  -7  602.96   29.05
   4  -1  -7  602.74   14.54
  -4   1   7  601.51   26.86
   1   3   7  605.71   26.66
  -1   4  -7  606.58   28.06
   3   1   7  605.86   27.65
   1   3   7  601.80   22.72
  -4   1   7  607.90   26.57
  -1   4  -7  600.68   25.33
  -4   3   7  605.42   22.78
  -4   1   7  606.74   25.10
   1  -4   7  602.47   25.46
  -4   3   7  604.29   27.21
   3  -4   7  600.03   22.98
  -1  -3  -7  606.78   22.96
   3   1   7  601.15   17.48
  -1   4  -7  603.51   10.56
  -3   4  -7  602.32   26.18
   3   1   7  602.97   23.40
  -3   4  -7  609.99   21.99
  -1  -3  -7  607.46   13.74
   4  -1  -7  602.99   23.85
  -4   3   7  606.52   20.55
   3  -4   7  605.72   26.59
   4  -3  -7  605.46   23.13
   4  -1  -7  605.36   25.06
  -3   4  -7  604.48   22.68
  -1  -3  -7  607.01   26.57
   4  -1  -7  600.87   22.31
   1  -4   7  605.02   22.64
   1  -4   7  606.54   28.10
  -3  -1  -7  600.94   21.75
   3  -4   7  602.07   26.17
   4  -1  -7  601.15   22.97
   1   3   7  605.45   23.82
  -1   4  -7  608.75   22.77
  -3  -1  -7  601.62   22.84
  -4   3   7  602.65   22.62
   4  -3  -7  609.18   22.03
   4  -3  -7  609.50   27.26
  -4   3   6 2136.65   48.33
   3  -4   6 2143.29   47.25
   1  -4   6 2130.77   49.76
   1   3   6 2139.44   41.76
   1   3   6 2132.51   42.40
   1  -4   6 2147.61   39.54
   4  -1  -6 2136.07   45.41
   4  -1  -6 2144.29   27.55
  -3   4  -6 2132.11   46.99
  -1   4  -6 2134.24   40.14
   4  -3  -6 2137.21   41.28
   4  -1  -6 2131.88   42.61
  -4   3   6 2137.22   48.79
  -3   4  -6 2139.14   42.78
   1   3   6 2133.73   29.09
   1   3   6 2127.16   48.22
   3   1   6 2133.12   47.67
  -4   1   6 2138.96   47.35
  -4   3   6 2163.35   40.47
  -3   4  -6 2164.22   44.43
   1  -4   6 2147.04   44.10
  -1  -3  -6 2148.99   42.59
  -3   4  -6 2144.86   49.33
  -1   4  -6 2066.69   21.18
  -4   1   6 2136.34   48.01
  -1   4  -6 2147.58   48.95
  -3   4  -6 2151.63   39.45
  -1   4  -6 2206.54   47.30
  -1  -3  -6 2092.65   28.59
  -1  -3  -6 2093.21   48.07
  -4   1   6 2173.14   46.24
   3  -4   6 2061.55   47.52
   4  -3  -6 2214.95   39.98
  -4   3   6 2136.46   39.20
   4  -3  -6 2211.72   48.60
   4  -1  -6 2144.53   45.82
  -3  -1  -6 2073.24   39.99
   3   1   6 2157.41   29.43
   4  -1  -6 2073.99   47.80
   3   1   6 2119.23   42.84
  -1   4  -6 2132.72   42.19
   3  -4   6 2177.59   43.01
   1  -4   6 2180.31   42.74
  -3   4  -6 2126.73   39.35
  -1   4  -6 1933.34   43.04
   4  -1  -6 2148.18   42.64
  -3  -1  -6 2121.86   42.32
  -4   3   6 2168.15   40.53
  -4   1   6 2086.52   45.76
  -3  -1  -6 2163.50   48.88
   4  -3  -6 2101.92   42.46
   4  -3  -6 2203.95   49.33
   4  -3  -6 2147.60   39.13
   4  -1  -6 2194.62   46.79
  -4   1   6 1897.58   40.19
   4  -1  -6 2107.28   42.16
  -4   1   6 2131.68   47.97
  -1   4  -6 2088.27   43.87
  -4   1   5  166.09   14.80
  -4   3   5  196.48   12.33
   4  -3  -5  209.11   13.89
   4  -1  -5  196.12   14.77
   3   1   5  223.66   16.56
  -3  -1  -5  216.53   16.13
  -3  -1  -5  204.54   14.01
   4  -1  -5  207.94   14.22
   3  -4   5  204.43   15.06
  -3   4  -5  203.57   15.40
   1  -4   5  197.68   12.62
  -1   4  -5  200.38   13.90
   4  -3  -5  181.75   11.12
  -3   4  -5  195.50   11.39
   3   1   5  207.61   14.02
  -3   4  -5  195.20   13.04
  -1  -3  -5  140.72    8.36
  -4   1   5  198.38   14.04
   1   3   5  183.91   15.08
  -4   1   5  178.89   15.00
   1  -4   5  197.86   13.74
  -4   3   5  170.38   11.86
   4  -1  -5  179.62    8.70
  -1   4  -5  211.53   15.64
  -1   4  -5  193.56   15.66
   4  -1  -5  207.93   13.67
   3  -4   5  214.78   15.82
  -3   4  -5  218.56   13.19
  -4   3   5  190.96   15.27
  -4   1   5  211.39   15.09
   4  -3  -5  163.60   14.07
   4  -3  -5  196.25   14.88
  -4   3   5  186.59   12.41
  -3  -1  -5  204.85   13.13
   4  -1  -5  202.32   13.95
   1   3   5  185.63    9.71
   4  -3  -5  191.90   12.37
   3   1   5  200.39    8.25
  -1   4  -5  199.27   13.63
  -3   4  -5  192.06   13.71
   1  -4   5  207.73   16.00
  -4   3   5  217.51   15.79
   4  -3  -5  204.21   13.64
   3  -4   5  206.40   13.69
  -1   4  -5  190.94   13.62
  -3   4  -5  180.44   14.65
  -1   4  -5  187.29    7.16
  -4   3   5  198.20   15.24
  -1  -3  -5  209.66   14.18
  -4   1   5  201.58   13.44
   1  -4   5  203.52   14.05
   4  -1  -5  229.70   16.67
  -1  -3  -5  206.62   15.87
  -4   1   5  201.15   14.91
  -1  -3  -5  177.02    5.27
   1   3   5  200.88   13.26
  -1   4  -5  187.60   13.89
   1   3   5  202.57   14.07
  -4   1   4 1045.86   22.48
  -4   3   4 1048.62   26.23
  -1  -3  -4 1044.11   32.00
   3  -4   4 1044.74   32.28
   4  -1  -4 1041.11   22.14
   3  -4   4 1044.79   33.50
   1  -4   4 1045.73   29.27
  -3   4  -4 1044.83   33.82
   4  -3  -4 1043.52   30.87
  -1   4  -4 1040.68   31.31
   4  -3  -4 1049.77   23.73
   1   3   4 1042.68   24.67
  -1   4  -4 1042.02   30.73
  -1   4  -4 1042.94   32.01
  -4   3   4 1040.43   35.46
  -4   1   4 1049.05   32.82
  -3   4  -4 1040.83   34.39
   1  -4   4 1044.85   28.16
  -3   4  -4 1041.30   28.53
  -4   1   4 1049.46   30.55
  -1   4  -4 1040.81   34.37
   3   1   4 1040.52   17.43
   1  -4   4 1045.28   19.20
  -4   3   4 1043.30   32.32
  -3  -1  -4 1046.76   33.02
  -4   1   4 1048.39   32.38
   1  -4   4 1047.99   33.72
   4  -1  -4 1047.44   30.78
  -1   4  -4 1047.89   33.73
   1   3   4 1049.53   32.05
  -3   4  -4 1042.32   29.32
   4  -3  -4 1043.53   34.23
  -4   1   4 1044.81   33.18
  -4   1   4 1047.13   31.83
  -3  -1  -4 1049.62   29.98
  -4   3   4 1048.79   29.63
  -3   4  -4 1048.63   31.82
   4  -1  -4 1049.43   32.87
  -1  -3  -4 1042.43   16.16
  -4   3   4 1050.98   31.84
   1  -4   4 1047.54   32.00
   1   3   4 1043.09   30.23
  -1   4  -4 1042.48   18.69
   4  -3  -4 1048.33   32.14
  -4   3   4 1043.70   34.69
   4  -1  -4 1040.54   31.62
  -3  -1  -4 1045.92   32.07
  -1  -3  -4 1044.48   32.70
   3   1   4 1048.35   13.01
   3   1   4 1045.92   30.51
   4  -1  -4 1044.33   30.47
  -4   3   4 1042.20   29.03
  -1   4  -4 1045.78   27.95
   4  -3  -4 1049.22   29.18
   3  -4   4 1044.13   34.58
   3   1   4 1047.10   32.26
  -3   4  -4 1048.95   24.52
   4  -3  -4 1048.55   33.11
  -4   1   4 1045.30   34.94
  -1  -3  -3  283.92   16.24
   3   1   3  284.68    8.51
  -4   3   3  284.36   17.44
  -4   3   3  283.23   16.34
   4  -1  -3  289.52   11.79
  -3   4  -3  289.18   13.36
   4  -3  -3  282.62   15.59
   1  -4   3  284.21   14.90
  -3   4  -3  282.44   19.63
  -4   1   3  285.73   14.22
   4  -3  -3  283.32   10.56
  -3   4  -3  263.25   10.84
  -1   4  -3  261.19   20.81
  -3  -1  -3  275.75   16.13
   1   3   3  279.93    9.91
  -4   3   3  270.27   15.86
  -4   1   3  276.20   24.16
  -4   3   3  274.28   17.85
   3  -4   3  276.84   17.72
  -4   3   3  278.89   18.80
   1  -4   3  270.88   13.97
   3   1   3  272.48   15.68
   4  -3  -3  272.15   16.51
   1  -4   3  276.20   16.94
  -1   4  -3  278.65   17.44
   3  -4   3  271.33   17.80
  -4   3   3  273.62   17.86
   1   3   3  270.15   16.43
   3  -4   3  274.97   15.37
  -4   1   3  273.97   16.07
   4  -1  -3  270.78   16.00
  -1   4  -3  276.07   16.87
  -1  -3  -3  279.20   13.00
  -4   1   3  275.04   16.21
   1   3   3  277.27    7.56
   1  -4   3  277.12   11.01
   4  -3  -3  278.81   17.33
  -3   4  -3  273.10   15.55
  -3   4  -3  270.79   17.84
   1  -4   3  277.16   16.75
   1   3   3  276.08   13.37
  -3  -1  -3  274.47   15.73
  -1   4  -3  277.18   10.84
  -1   4  -3  278.83   16.53
   4  -1  -3  277.50   17.69
  -1  -3  -3  275.31   16.68
  -1  -3  -3  274.21    9.76
  -1   4  -3  272.06   14.09
   3  -4   3  275.75   16.81
   4  -1  -3  273.51   14.29
  -4   1   3  273.93   16.91
   3   1   3  278.96   16.65
   3   1   3  271.84    8.87
   4  -1  -3  276.20   16.99
  -3   4  -3  276.12   16.67
  -3  -1  -3  272.77   16.59
  -4   1   3  272.97   14.94
  -4   3   3  274.63   16.04
  -1   4  -3  276.67   15.52
  -4   1   3  277.68   28.37
  -4   3   3  270.07   18.52
   3  -4   2 3452.70   55.19
  -3  -1  -2 3399.28   50.88
   4  -1  -2 3436.94   42.26
   1   3   2 3440.70   55.62
  -1   4  -2 3433.36   54.94
  -1  -3  -2 3437.65   50.35
   3   1   2 3427.52   55.52
   4  -1  -2 3340.01   53.88
   4  -3  -2 3342.54   52.16
  -4   1   2 3402.46   43.16
  -4   3   2 3350.14   52.08
  -3  -1  -2 3429.47   25.27
   1   3   2 3337.38   24.14
  -1  -3  -2 3401.90   36.88
   1  -4   2 3384.05   55.40
   1  -4   2 3336.02   54.45
  -3   4  -2 3395.39   56.41
   1  -4   2 3411.40   39.77
  -1   4  -2 3417.41   42.80
  -4   1   2 3386.57   51.84
   4  -1  -2 3350.98   43.40
   1  -4   2 3359.96   51.70
   4  -3  -2 3361.35   30.76
   1  -4   2 3377.33   40.92
   1   3   2 3447.42   37.30
   1  -4   2 3399.36   44.97
  -3   4  -2 3409.15   40.00
   3  -4   2 3397.20   56.88
   3   1   2 3350.17   35.53
  -1   4  -2 3397.06   55.07
  -1   4  -2 3370.39   53.77
   3  -4   2 3415.57   49.73
  -1  -3  -2 3422.93   45.69
   4  -3  -2 3420.90   55.51
   4  -3  -2 3352.95   56.87
  -4   1   2 3410.45   52.41
   1   3   2 3365.76   47.11
  -3  -1  -2 3392.37   53.37
  -4   1   2 3408.47   56.68
  -3   4  -2 3383.97   50.12
  -4   3   2 3399.76   56.55
   3   1   2 3434.69   52.47
   4  -1  -2 3388.88   56.41
  -4   3   2 3431.02   54.14
  -1  -3  -2 3426.37   55.44
  -4   3   2 3443.20   50.79
  -3  -1  -2 3433.93   55.43
  -4   3   2 3367.25   52.49
  -4   1   2 3391.19   43.38
   4  -1  -2 3426.35   55.34
  -3   4  -2 3351.40   30.77
  -1   4  -2 3348.39   45.38
  -1   4  -2 3418.60   40.45
  -3   4  -2 3434.45   56.33
   3  -4   2 3351.08   56.21
  -3   4  -2 3393.41   54.41
   3  -4   1 1542.40   33.74
  -4   1   1 1545.23   23.22
   4  -1  -1 1514.34   33.74
  -3  -1  -1 1518.74   28.83
   4  -1  -1 1519.56   26.69
   4  -3  -1 1520.19   15.28
  -4   1   1 1518.85   27.55
  -4   1   1 1516.42   30.19
   4  -3  -1 1514.41   32.32
  -3   4  -1 1517.71   14.61
  -4   3   1 1515.43   31.96
   1  -4   1 1512.43   32.20
   4  -3  -1 1514.59   34.02
  -4   3   1 1516.01   33.23
   1  -4   1 1517.78   26.33
  -1   4  -1 1516.93   33.40
   3  -4   1 1536.18   33.96
  -3  -1  -1 1538.55   16.60
   3  -4   1 1534.26   33.45
  -1   4  -1 1535.86   32.56
  -4   3   1 1531.11   29.37
  -3   4  -1 1530.91   33.25
   1  -4   1 1513.19   24.19
  -1  -3  -1 1515.75   34.21
   1  -4   1 1521.05   22.08
  -4   3   1 1518.60   33.93
   1   3   1 1516.07   24.49
  -1   4  -1 1522.01   30.67
  -3   4  -1 1521.86   35.96
   4  -3  -1 1518.42   33.31
   4  -3  -1 1520.70   34.17
  -1  -3  -1 1517.76   28.68
  -4   1   1 1522.58   31.59
   1  -4   1 1515.84   31.15
   3  -4   1 1517.18   31.41
  -4   3   1 1519.33   32.58
   1   3   1 1522.36   29.50
  -3   4  -1 1539.31   34.09
  -3  -1  -1 1536.34   32.56
  -4   1   1 1545.58   33.92
  -3  -1  -1 1543.15   33.67
  -1  -3  -1 1539.66   28.17
  -1  -3  -1 1545.88   30.87
   1   3   1 1544.25   33.71
   3   1   1 1539.52   32.30
  -3   4  -1 1541.19   31.48
   4  -1  -1 1541.66   33.51
  -1   4  -1 1536.13   24.59
  -1  -3  -1 1538.06   24.28
   1  -4   1 1534.92   34.10
   3   1   1 1543.54   33.61
  -1   4  -1 1540.14   26.30
  -4   1   1 1533.46   33.45
   3   1   1 1541.73   23.97
   4  -1  -1 1533.66   23.50
  -3   4   0  131.15    4.31
   4  -3   0  140.17   12.62
  -1   4   0  141.02   12.26
  -3  -1   0  138.17    9.62
  -4   1   0  145.48   10.86
   3  -4   0  164.60   13.24
  -4   3   0  170.15   13.44
   1  -4   0  181.14   15.26
  -4   1   0  148.94   12.24
   4  -3   0  135.43    4.74
   4  -1   0  141.50    7.16
   3  -4   0  134.93   12.27
   1  -4   0  132.43    6.76
   4  -1   0  139.33    9.96
  -4   3   0  150.54   12.62
  -4   3   0  149.22   12.11
   1  -4   0  147.82   12.48
  -1  -3   0  207.50   14.54
  -1   4   0  127.00   10.01
  -4   1   0  134.26   11.76
   4  -3   0  153.66   13.04
   1  -4   0  141.58   11.30
  -1   4   0  148.84   10.94
  -4   3   0  142.26   10.50
  -1  -3   0  136.53   10.94
   1   3   0  143.82    9.89
  -1  -3   0  141.85    9.74
  -4   1   0  142.36    6.97
   1   3   0  159.26   11.82
   3  -4   0  163.00   12.80
  -4   3   0  155.12   12.83
   1   3   0  144.75   12.61
   1  -4   0  141.82   10.51
   3   1   0  163.58   13.07
  -4   1   0  141.54   11.97
  -3   4   0  152.09   11.87
   4  -3   0  144.04   12.21
  -3   4   0  149.27   12.25
   3  -4   0  154.86   12.56
  -3  -1   0  141.35   11.81
  -3  -1   0  137.62    6.90
  -3  -1   0  150.04   12.75
   3   1   0  149.38   12.71
  -3   4   0  137.29   11.57
  -1  -3   0  152.19   12.53
   4  -1   0  139.63   12.26
  -1  -3   0  131.11    9.46
  -3   4   0  167.53   18.72
   4  -1   0  159.91   13.48
   3   1   0  148.12    9.63
   4  -3   0  142.31   11.82
   1  -4   0  140.87    7.85
  -1   4   0  164.56   11.91
  -1   4   0  138.96   11.06
  -1   4   1 2093.59   37.13
   1  -4  -1 2166.15   38.19
   4  -1   1 2103.00   42.27
  -3  -1   1 2052.93   30.38
   4  -1   1 2086.45   38.26
  -1   4   1 2179.68   42.46
   4  -3   1 2185.63   42.51
  -1  -3   1 2433.48   41.09
   3  -4  -1 2153.15   43.23
   4  -3   1 2104.53   41.90
  -3   4   1 2066.87   42.88
   1  -4  -1 2059.01   41.34
  -1  -3   1 2108.23   40.36
  -1  -3   1 2023.13   37.38
  -3  -1   1 2183.06   43.03
   4  -3   1 2088.51   19.74
   4  -3   1 2144.76   42.08
  -1   4   1 2139.12   37.85
   3  -4  -1 2117.57   42.09
   1  -4  -1 2157.06   21.87
  -3   4   1 2032.94   18.29
  -1  -3   1 2082.68   36.44
   1  -4  -1 2092.81   37.00
  -4   1  -1 2044.70   41.60
   4  -3   1 2119.10   42.44
  -1   4   1 1975.18   33.79
  -4   3  -1 2053.62   41.34
   1   3  -1 2129.67   42.30
   1   3  -1 2068.24   36.57
  -4   3  -1 2171.39   43.03
   1   3  -1 2123.10   40.63
  -3  -1   1 2150.53   42.79
   3  -4  -1 2133.78   41.34
   1  -4  -1 2068.95   22.64
   3   1  -1 2082.93   42.10
  -4   1  -1 2112.65   38.77
  -4   1  -1 2196.98   43.48
  -1  -3   1 2149.15   42.70
  -3   4   1 2118.20   41.39
  -4   3  -1 2171.78   42.34
  -3   4   1 2111.99   41.74
   3  -4  -1 2120.25   42.13
  -4   3  -1 2142.46   41.94
   1  -4  -1 2157.86   42.36
  -1  -3   1 1986.18   29.35
   3   1  -1 2162.82   42.76
  -4   1  -1 2119.31   42.30
   3   1  -1 2100.86   36.40
   3   1  -1 2080.83   32.03
   4  -1   1 2169.64   42.66
  -4   1  -1 2065.72   19.19
  -3  -1   1 2062.74   28.38
  -3  -1   1 2070.09   44.41
  -1  -3   2 1677.06   35.21
   3   1  -2 1683.34   29.28
   4  -1   2 1694.48   37.79
   3   1  -2 1679.44   34.79
   4  -1   2 1655.75   38.02
   4  -1   2 1682.18   36.13
  -4   1  -2 1659.13   36.18
   4  -3   2 1713.62   38.51
  -4   3  -2 1697.12   37.72
   4  -3   2 1681.26   21.40
  -4   3  -2 1696.48   38.72
  -1  -3   2 1721.36   24.03
   3  -4  -2 1706.42   37.01
   1  -4  -2 1710.68   36.03
  -1   4   2 1642.10   37.18
   1  -4  -2 1635.89   18.50
  -4   1  -2 1684.45   38.47
  -3  -1   2 1739.11   24.16
  -3   4   2 1704.06   14.61
  -1  -3   2 1750.23   33.37
   1  -4  -2 1687.47   32.38
   3   1  -2 1659.77   38.70
   3  -4  -2 1735.98   38.24
   3   1  -2 1724.66   31.01
   4  -3   2 1725.44   37.94
  -1  -3   2 1684.75   37.49
  -1   4   2 1663.80   29.08
  -1   4   2 1679.46   32.72
  -4   3  -2 1721.68   38.41
   1   3  -2 1749.31   38.43
   1   3  -2 1717.14   35.34
   3  -4  -2 1699.14   38.54
   4  -1   2 1673.53   30.75
   3   1  -2 1690.69   38.01
  -3   4   2 1693.01   38.41
  -3   4   2 1706.21   20.69
   1  -4  -2 1707.66   37.85
  -3  -1   2 1758.45   31.56
  -1  -3   2 1699.08   37.91
   1   3  -2 1711.50   38.08
  -3   4   2 1706.33   38.71
  -3  -1   2 1669.22   37.78
  -1   4   2 1685.44   35.59
  -1  -3   2 1706.27   28.77
  -3  -1   2 1695.79   42.17
  -3  -1   2 1711.35   39.03
   3  -4  -2 1702.68   39.04
   1  -4  -2 1666.85   15.65
   4  -3   2 1729.72   37.50
  -1  -3   2 1674.13   35.73
   1   3  -2 1730.61   37.65
  -3   4   2 1660.51   37.05
  -1  -3   3  443.59   20.50
   4  -1   3  440.83   20.92
  -4   1  -3  449.59   21.01
   4  -3   3  446.50   21.73
  -3  -1   3  443.83   10.74
  -4   3  -3  445.07   22.41
  -1  -3   3  449.80   17.16
   3  -4  -3  442.32   24.61
   4  -3   3  448.40   13.84
  -3   4   3  447.42   20.96
   4  -1   3  442.30   17.01
  -4   3  -3  442.26   20.55
  -4   1  -3  442.70   21.55
  -1   4   3  440.53   19.29
   4  -1   3  441.48   19.84
  -1  -3   3  448.99   19.95
   4  -3   3  443.47   20.50
  -3   4   3  446.18    9.10
   1  -4  -3  446.75   17.68
   3   1  -3  440.75   17.41
   3   1  -3  440.96   21.16
  -3  -1   3  440.43   20.74
  -3   4   3  446.55   21.94
  -1   4   3  441.37   20.57
  -1  -3   3  441.95   21.43
  -4   3  -3  444.68   21.48
  -3  -1   3  443.80   16.70
  -1   4   3  440.77   14.40
   1   3  -3  441.06   21.67
  -3  -1   3  448.94   22.43
   1  -4  -3  444.58   20.79
   4  -3   3  446.63   20.52
   1   3  -3  442.08   19.82
   3  -4  -3  447.13   21.81
   1   3  -3  447.16   20.73
  -1  -3   3  446.61   20.81
   3  -4  -3  441.05   20.22
   1  -4  -3  446.92   21.24
  -3   4   3  440.59   13.48
   4  -1   3  448.89   20.64
  -1  -3   3  440.65   10.44
   3   1  -3  446.05   20.07
   3   1  -3  445.44   18.57
  -4   3  -3  440.68   20.97
   1   3  -3  449.71   25.53
   3   1  -3  440.51   22.11
  -1  -3   3  444.55   20.61
  -3   4   3  443.58   22.27
   3  -4  -3  443.30   21.14
  -3   4   3  441.11   11.00
  -1   4   3  447.61   20.55
   1   3  -4  149.76   14.10
  -3   4   4  146.82    6.11
  -4   1  -4  145.41   13.26
  -3   4   4  147.64   13.44
  -4   3  -4  140.52   13.43
  -1  -3   4  142.09    7.98
  -3   4   4  145.19    8.81
   1   3  -4  128.76   11.65
   3  -4  -4  141.53   13.54
   3   1  -4  123.68   12.29
  -3   4   4  136.48   13.03
   4  -1   4  142.17   11.67
   3  -4  -4  154.47    9.31
  -4   3  -4  144.66    9.42
  -3  -1   4  151.07   14.28
   1  -4  -4  152.51   13.00
   4  -1   4  154.93   10.01
  -1  -3   4  133.28   11.90
   4  -3   4  135.82   12.58
  -3  -1   4  124.60   12.80
  -1   4   4  144.55    7.29
   4  -3   4  133.21   12.05
   1   3  -4  136.60   13.17
  -1   4   4  153.89   11.86
   3   1  -4  131.13   11.19
  -4   3  -4  149.32   12.50
   3   1  -4  120.02   10.67
  -1  -3   4  147.86   13.01
   4  -1   4  145.19   12.67
  -4   3  -4  137.13   11.90
   1   3  -4  132.74   12.60
  -3  -1   4  121.07    8.64
  -3   4   4  145.31    9.03
   1   3  -4  160.21   13.15
  -4   3  -4  142.90   11.88
  -3   4   4  152.46   12.51
   3  -4  -4  145.20   13.36
  -3   4   4  125.31   12.31
   4  -3   4  130.84   11.31
   3  -4  -4  143.78   11.94
   1  -4  -4  151.26   12.24
  -1  -3   4  139.37   12.36
  -3   4   4  134.15    6.16
  -4   1  -4  155.29   13.00
   1  -4  -4  146.55   10.28
  -3  -1   4  125.75   11.13
   3   1  -4  159.90   13.03
   4  -1   4  144.16   12.06
  -3  -1   4  145.09   12.89
  -1   4   4  147.00   12.44
  -1  -3   4  131.87   11.56
  -1   4   4  139.35   10.37
   4  -3   4  142.83    8.80
  -1   4   4  134.41   12.77
   3   1  -4  154.96   12.43
  -1   4   4  142.81   12.03
  -1  -3   4  127.28   12.12
   3  -4  -4  140.87   12.46
  -4   1  -5  725.60   27.90
  -1   4   5  800.96   28.92
   3  -4  -5  761.46   27.98
   3  -4  -5  756.75   25.52
   4  -3   5  796.12   28.92
  -4   3  -5  767.66   29.02
  -1  -3   5  665.47   15.81
  -3   4   5  737.41   21.03
   4  -3   5  792.33   21.99
   3  -4  -5  774.40   29.26
   3   1  -5  778.43   28.41
  -3  -1   5  778.04   29.68
  -3   4   5  771.58   14.95
  -3   4   5  740.64   28.09
  -1   4   5  768.85   25.67
  -4   3  -5  766.73   26.38
   3  -4  -5  798.02   22.18
  -4   3  -5  725.13   21.49
  -1   4   5  764.95   28.26
   1   3  -5  726.65   27.21
  -3  -1   5  734.24   28.39
   3   1  -5  759.24   26.44
  -1  -3   5  749.16   26.72
  -1   4   5  773.17   23.70
  -3   4   5  741.24   16.42
   4  -1   5  727.53   20.27
  -4   1  -5  746.73   26.83
   4  -3   5  791.18   26.95
  -4   1  -5  652.39   10.03
  -4   3  -5  754.29   26.82
  -1  -3   5  765.09   28.57
   1   3  -5  768.30   28.88
  -1   4   5  727.04   12.81
   3   1  -5  792.24   26.12
   3   1  -5  757.54   28.41
   4  -3   5  773.64   25.50
  -3  -1   5  750.36   19.23
   1   3  -5  799.46   28.73
  -3   4   5  737.53   18.23
  -3   4   5  765.61   25.62
  -3   4   5  785.58   29.04
   1  -4  -5  771.12   21.73
  -1   4   5  760.94   25.70
   1  -4  -5  791.78   28.79
   1  -4  -5  758.48   25.68
  -3  -1   5  769.73   28.62
  -1  -3   5  770.33   25.79
   3   1  -5  753.54   25.79
   1  -4  -5  745.07   17.10
   4  -1   5  749.75   25.63
  -3  -1   5  777.13   25.98
  -1  -3   5  711.30   27.32
   1  -4  -5  698.73   11.89
   4  -1   5  751.90   28.29
   1   3  -5  771.84   25.73
  -3   4   5  756.52   28.82
  -1  -3   5  798.55   28.75
   1   3  -5  796.16   29.60
   4  -1   5  790.82   26.23
   3   1  -5  769.01   30.50
  -3  -1   6 1159.16   36.83
  -4   3  -6 1196.72   36.70
  -1   4   6 1144.47   35.12
   4  -1   6 1177.41   31.78
   3  -4  -6 1217.35   35.61
  -1  -3   6 1183.43   31.77
   3   1  -6 1136.10   35.90
   1  -4  -6 1217.69   27.45
  -4   3  -6 1102.60   28.92
  -4   3  -6 1191.72   33.24
   3  -4  -6 1133.97   23.48
   1   3  -6 1308.02   37.02
  -3  -1   6 1231.32   37.25
  -3   4   6 1133.93   35.38
   4  -3   6 1144.58   28.99
   4  -3   6 1144.78   35.88
  -3   4   6 1167.86   23.47
   1  -4  -6 1149.65   23.71
  -1   4   6 1172.89   31.61
   3  -4  -6 1146.59   31.19
   4  -1   6 1166.65   25.66
   4  -3   6 1162.18   33.01
   1   3  -6 1193.74   37.05
   3   1  -6 1159.30   34.54
   3   1  -6 1225.99   36.68
  -3   4   6 1136.19   20.86
   3   1  -6 1177.29   34.22
  -1  -3   6 1208.55   36.78
   1   3  -6 1171.55   36.09
   4  -1   6 1152.57   31.19
  -4   1  -6 1216.46   34.71
  -3  -1   6 1125.80   23.74
  -3   4   6 1146.02   31.36
  -1   4   6 1132.54   30.22
  -3   4   6 1075.48   27.77
  -1  -3   6 1173.18   35.51
   3  -4  -6 1130.03   28.74
   4  -3   6 1161.04   31.16
   3   1  -6 1179.90   31.85
  -3  -1   6 1201.99   32.11
  -1  -3   6 1109.10   35.70
   1  -4  -6 1189.29   36.41
  -3  -1   6 1171.32   36.18
   1   3  -6 1201.11   31.87
  -4   1  -6 1123.08   35.83
   1  -4  -6 1174.96   31.70
  -1   4   6 1203.32   33.45
  -1  -3   6 1146.33   20.03
  -4   1  -6 1171.62   17.88
  -3   4   6 1170.15   36.78
  -4   3  -6 1216.88   34.93
   1  -4  -6 1092.70   18.27
   1   3  -6 1182.12   36.77
   4  -1   6 1064.91   32.01
   3  -4  -6 1238.18   37.71
  -1  -3   7  873.16   17.28
   3   1  -7  928.24   28.59
  -4   1  -7  906.06   34.08
  -1  -3   7  954.27   34.77
  -3   4   7  897.86   27.72
   4  -3   7  870.10   27.43
   3  -4  -7  918.39   32.46
  -4   1  -7  921.49   18.99
  -1   4   7  923.23   31.31
   4  -1   7 1016.98   33.13
   3  -4  -7  933.65   28.55
  -4   3  -7  878.25   27.78
  -4   3  -7  904.33   30.22
   3  -4  -7 1015.20   25.52
   1  -4  -7  956.55   25.09
   4  -1   7  850.99   22.60
  -3  -1   7  863.31   32.91
  -1  -3   7  935.74   33.28
   1  -4  -7  894.73   23.40
  -3   4   7  908.77   23.20
  -4   3  -7  903.38   31.20
   3   1  -7  866.39   20.77
  -1  -3   7  936.33   28.70
  -3   4   7  908.03   28.11
   4  -3   7  936.14   30.69
   1   3  -7  939.92   34.44
  -3   4   7  897.72   17.10
   3   1  -7  890.41   32.58
   1   3  -7  897.35   27.78
  -4   1  -7  923.48   30.91
   4  -3   7  879.19   27.59
   3  -4  -7  904.62   28.06
  -1   4   7  946.98   29.02
  -3  -1   7  791.94   20.00
   1  -4  -7  890.21   27.86
   1  -4  -7 1003.50   35.32
  -3  -1   7  923.64   28.23
  -4   3  -7  878.68   26.17
   4  -1   7  925.78   28.59
  -1  -3   7  925.78   34.40
  -4   3  -7  921.80   33.85
   3   1  -7  899.92   32.01
  -1   4   7  910.56   27.99
  -3   4   7  909.06   34.24
   3  -4  -7  958.92   34.55
   1  -4  -7  899.89   19.27
  -1   4   7  879.34   32.38
  -3  -1   7  916.21   34.22
   4  -1   7  922.11   28.01
  -3  -1   8  736.37   31.58
  -1   4   8  671.87   26.28
  -4   1  -8  660.75   30.22
   1  -4  -8  682.32   24.43
  -3   4   8  687.58   31.08
  -4   3  -8  686.22   30.49
   3  -4  -8  685.54   30.65
  -4   1  -8  673.31   20.70
   4  -3   8  674.51   25.91
  -1   4   8  719.83   29.41
   1   3  -8  703.79   16.46
   1  -4  -8  685.23   22.17
   1   3  -8  689.44   24.29
   1  -4  -8  687.23   22.48
   3  -4  -8  699.50   26.77
  -4   3  -8  692.52   26.79
   4  -1   8  687.62   24.37
  -1  -3   8  670.23   30.63
   3   1  -8  700.28   24.72
  -4   3  -8  677.57   27.05
  -1  -3   8  713.24   30.41
  -3   4   8  732.50   26.72
   3   1  -8  717.53   19.56
  -3   4   8  664.06   13.17
   1   3  -8  738.26   31.51
   4  -3   8  691.37   27.13
   3   1  -8  752.18   30.74
   1  -4  -8  693.25   19.16
   3   1  -8  702.72   29.76
   4  -1   8  755.27   30.18
  -1   4   8  722.09   24.95
  -4   1  -8  693.14   18.93
  -4   3  -8  671.17   24.23
   3  -4  -8  691.17   22.81
   3  -4  -8  723.03   22.61
  -1  -3   8  665.50   24.15
   4  -1   8  715.40   25.03
   4  -3   8  690.80   24.45
  -1  -3   8  686.56   15.62
   4  -3   8  678.26   23.96
   4  -1   8  770.78   21.90
  -3  -1   8  684.37   24.39
  -3  -1   8  732.99   19.61
  -1  -3   8  708.50   31.59
  -4   1  -8  676.73   27.10
  -3  -1   8  710.75   31.56
  -3   4   8  719.08   24.95
   3  -4  -8  695.85   24.58
  -1   4   8  696.46   30.17
   1  -4  -8  736.19   31.63
   1  -4  -9   29.77    6.06
  -3  -1   9   30.08    9.77
  -3   4   9   36.35   10.40
  -1   4   9   41.02   10.11
  -1   4   9   27.34    8.73
  -4   1  -9   32.62    6.16
  -1  -3   9   32.57   10.01
  -3  -1   9   27.41    5.29
  -4   3  -9   35.51    9.09
  -4   1  -9   37.12   10.83
   3   1  -9   47.78   11.25
  -4   3  -9   48.29   12.04
   1   3  -9   36.36    5.80
   4  -1   9   37.06    7.33
   3  -4  -9   30.49   10.20
  -3   4   9   34.67    8.85
   4  -3   9   27.31    8.31
  -4   1  -9   33.84    6.38
   4  -3   9   41.23    7.53
  -1   4   9   35.49   10.15
   4  -1   9   46.64   11.27
  -4   3  -9   36.38    7.73
   4  -3   9   38.46    7.02
   3  -4  -9    5.25    8.83
  -3  -1   9   37.80   10.75
   1  -4  -9   36.96    7.09
  -1  -3   9   22.16    9.54
  -3   4   9   24.77    2.44
  -4   1  -9   38.43    9.17
   4  -3   9   30.51    8.09
   4  -1   9   36.82    6.51
   3   1  -9   45.01   11.06
   1   3  -9   37.73   10.96
   1   3  -9   31.82    6.93
   1  -4  -9   47.72    8.05
  -1  -3   9   38.29    7.24
   3  -4  -9   37.10    7.19
   4  -1   9   40.69    7.32
  -3   4   9   33.13    7.24
  -1   4   9   46.87    8.29
  -3  -1   9   31.89    7.01
   3   1  -9   34.09    7.31
   3   1  -9   38.16    5.99
   1  -4  -9   45.87   11.53
   1  -4  -9   38.82    7.45
   3  -4  -9   71.99   11.69
  -1  -3   9   41.34   12.16
   4  -1  10 1473.90   34.63
   3  -4 -10 1412.97   34.64
   4  -3  10 1472.38   34.70
  -4   1 -10 1506.05   48.40
  -3  -1  10 1463.38   29.30
  -4   3 -10 1505.85   46.95
   4  -3  10 1533.66   43.94
  -3   4  10 1467.71   48.18
   4  -1  10 1557.20   47.43
   3  -4 -10 1445.52   37.42
   1  -4 -10 1490.59   48.34
  -4   1 -10 1467.39   32.72
   3   1 -10 1483.72   35.12
   3   1 -10 1460.33   47.08
  -3   4  10 1476.45   34.75
   1   3 -10 1458.45   25.12
  -3  -1  10 1466.68   47.84
   1  -4 -10 1387.72   36.57
  -1  -3  10 1440.93   47.31
  -1  -3  10 1482.72   34.96
   3   1 -10 1505.25   30.05
   1   3 -10 1502.57   47.33
   4  -3  10 1462.25   34.50
   3   1 -10 1468.46   45.15
  -3  -1  10 1478.62   34.99
   4  -1  10 1450.67   32.56
   4  -3  10 1510.55   42.16
   3  -4 -10 1517.95   48.12
   1   3 -10 1491.69   34.91
   1  -4 -10 1407.88   34.22
   3  -4 -10 1463.29   34.72
   4  -1  10 1518.01   35.51
  -4   3 -10 1409.89   38.52
  -1   4  10 1538.68   47.23
  -3   4  10 1529.11   43.70
  -1  -3  10 1426.63   47.99
  -4   1 -10 1470.46   33.51
  -1  -3  10 1528.90   49.59
   1  -4 -10 1434.91   34.26
  -1   4  10 1518.78   35.25
  -3  -1  10 1582.33   50.46
   1  -4 -10 1422.43   32.63
  -1   4  10 1335.16   43.62
   4  -3  11  146.02   11.48
  -4   1 -11  168.27   18.94
  -3   4  11  112.34   13.92
   4  -3  11  166.44   16.85
  -1   4  11  163.38   12.18
   4  -1  11  171.66   18.22
  -4   1 -11  155.05   12.50
  -1   4  11  180.72   18.52
   3   1 -11  154.82   18.48
   1  -4 -11  158.83   12.17
  -4   1 -11  153.49   11.79
  -1  -3  11  157.64   11.98
   1   3 -11  162.50   18.17
   1   3 -11  150.59    9.64
   4  -1  11  155.20   11.99
   3  -4 -11  158.88   17.58
   1   3 -11  164.76   12.21
   3   1 -11  187.14   18.00
  -1  -3  11  173.31   18.95
   1  -4 -11  153.57   16.26
   4  -1  11  157.62   11.91
   3   1 -11  167.23   12.34
   4  -3  11  166.43   16.16
   3  -4 -11  143.06   11.64
  -4   3 -11  164.60   18.12
   1   3 -11  178.61   18.75
   4  -3  11  162.76   12.28
  -3   4  11  171.07   12.56
   3   1 -11  168.02   11.47
  -3  -1  11  182.08   19.51
   1  -4 -11  174.45   19.41
   4  -1  11  166.21   12.32
  -3   4  11  176.05   19.20
  -1   4  11  147.57   17.33
   1  -4 -11  147.41   12.40
  -1  -3  11  151.44   18.45
  -3  -1  11  162.09   18.97
   1  -4 -11  158.05   12.70
   3  -4 -11  184.14   15.60
   3  -4 -12   89.44   14.49
  -1   4  12   90.89   14.73
   1  -4 -12   77.05   14.95
   4  -3  12  101.97   13.57
  -3  -1  12   99.96   15.72
  -1   4  12   80.33    8.50
  -4   1 -12   81.68   14.30
   1   3 -12   61.68    7.00
  -3   4  12   77.63   12.79
   4  -3  12   73.71   12.83
   4  -1  12   85.00   14.38
   1  -4 -12   89.18   13.86
   3   1 -12   75.40   12.85
  -3  -1  12   75.96   14.65
  -1   4  12  107.67   15.43
  -1  -3  12  100.81   15.81
   1   3 -12   86.30    9.10
   3   1 -12   75.81    8.82
  -3   4  12   82.33   15.48
  -4   3 -12  113.63   16.06
   3   1 -12  103.01   16.29
   1   3 -12   93.02   14.56
   4  -1  12   94.06   10.00
   4  -1  12   82.92    8.85
   4  -3  12   95.59    9.36
  -1  -3  12   90.42   15.21
   3   1 -12   86.24    9.06
   1   3 -12   79.28   14.31
  -4   1 -13  671.99   36.80
   3  -4 -13  746.29   38.55
   1  -4 -13  701.98   34.30
  -4   3 -13  647.08   34.79
  -3   4  13  714.34   35.33
   4  -3  13  691.51   35.22
  -1   4  13  657.52   35.57
   1   3 -13  673.91   37.30
   4  -1  13  714.72   36.95
  -3  -1  13  719.74   38.78
  -1  -3  13  694.06   38.05
  -1   4  13  696.03   36.39
   1   3 -13  684.36   35.89
   1  -4 -13  679.61   37.01
   3   1 -13  703.15   34.48
   3   1 -13  720.23   38.74
   3  -4 -13  679.21   36.49
   4  -3  13  687.26   32.33
  -3   4  13  681.62   37.76
  -3  -1  13  727.98   38.80
   4  -1  13  663.11   25.17
  -1  -3  13  705.68   38.18
   1  -4 -14  269.06   23.50
   3  -4 -14  272.49   24.47
  -4   3 -14  251.51   23.77
   4  -3  14  274.36   24.54
  -1   4  14  270.05   24.71
   4  -1  14  242.56   23.71
   1   3 -14  253.66   23.57
  -3  -1  14  260.23   25.42
  -1  -3  14  237.97   24.21
   3   1 -14  232.61   21.25
   3   1 -14  263.76   25.71
   1   3 -14  233.96   24.37
  -3   4  14  267.50   25.62
  -1   4  14  253.85   23.84
   1  -4 -14  273.26   25.51
   3  -4 -14  261.36   25.28
  -4   1 -14  229.20   23.60
  -1  -3  14  249.53   24.55
   4  -3  14  265.86   21.48
  -3   4  14  222.81   22.18
   1   3 -15  249.33   26.54
   3  -4 -15  223.46   24.51
  -4   1 -15  196.75   23.01
  -4   3 -15  229.27   23.18
   1  -4 -15  221.82   22.41
  -1   4  15  216.37   23.32
   4  -1  15  207.92   23.55
   1  -4 -15  244.42   25.10
  -3  -1  15  235.58   25.60
  -1  -3  15  262.09   26.95
   1   3 -15  184.33   20.86
   3   1 -15  223.70   21.84
   3   1 -15  226.38   25.57
   3  -4 -15  215.19   23.01
   4  -3  15  267.30   22.49
  -4   1 -15  213.12   22.62
  -3   4  15  230.87   25.14
   4  -3  15  234.92   24.23
  -1   4  15  224.85   24.06
  -3   4  15  201.93   22.25
  -1   4  16   18.30   11.15
   3  -4 -16    3.67   10.90
   1  -4 -16   -6.12    9.98
  -3   4  16    4.67   10.64
  -4   1 -16   15.04   10.76
   1  -4 -16   -0.02    9.44
  -4   1 -16   -0.75   10.02
   4  -3  16   15.12   11.20
  -1   4  16   -2.09   10.52
   4  -1  16    8.19   10.47
   3   1 -16   -4.83   11.24
   1   3 -16    5.47   10.88
   3  -4 -16    8.61   11.91
  -3  -1  16    0.76   11.90
   1  -4 -16   -6.86   12.04
  -4   1 -16   26.05   12.80
   1   3 -16    8.49   10.36
   3   1 -16   -1.93    8.49
  -3   4  16   10.36   11.79
  -4   3 -16    9.63   10.90
   4  -3  16   10.20    8.49
  -4   3 -16    4.18    7.35
  -4   3 -16    9.37    8.77
   3  -4 -17   18.64   12.56
  -4   1 -17   11.45   10.27
   1  -4 -17   10.20   10.30
  -4   3 -17   12.99   11.95
  -3   4  17   10.44   10.69
  -4   1 -17   19.11   10.94
   1  -4 -17   24.37   12.48
  -4   3 -17   19.40    9.63
   1   3 -17   14.14   11.22
  -4   1 -17   15.66   12.41
  -1   4  17   14.56   11.45
   1  -4 -18  330.09   30.74
  -4   1 -18  327.59   29.72
   1   3 -18  376.01   31.08
   0  -4   0  121.89   11.91
   0  -4   0  129.35   10.25
  -4   0   0  105.20    8.23
   4  -4   0  116.62   12.54
   0  -4   0  141.84   13.42
   4   0   0  110.25    9.22
  -4   0   0  111.80    9.50
   0  -4   0  139.57    9.58
   0   4   0  123.90   10.75
  -4   4   0  106.57   11.54
  -4   0   0  113.56   11.22
   0  -4   0  123.11   10.81
   4  -4   0  114.64   12.20
  -4   4   0  117.90   11.90
   0   4   0  128.98   11.16
   4   0   0   94.13    6.17
  -4   0   0  117.39   12.09
   0  -4   0  142.08   11.06
   4   0   0  108.20   11.84
   0   4   0  140.94   13.47
   4  -4   0  115.30   11.79
  -4   0   0   98.87   11.27
   4   0   0  130.64   12.81
   0  -4   0  104.79    9.82
   4  -4   0  115.23   11.76
  -4   4   0  206.91   19.24
   4  -4   1 1382.82   36.38
  -4   0  -1 1311.02   25.32
   4   0  -1 1216.59   25.88
  -4   0  -1 1383.64   31.68
  -4   0   1 1352.53   27.33
   4  -4  -1 1406.69   36.08
   0  -4   1 1448.78   37.03
  -4   4  -1 1564.93   40.26
  -4   4   1 1367.14   37.26
   0   4  -1 1336.59   29.99
   4   0   1 1353.90   35.83
   4  -4  -1 1402.43   37.03
  -4   4  -1 1386.28   36.00
   0  -4  -1 1309.81   25.47
   0  -4   1 1454.01   33.39
   4  -4   1 1371.07   36.56
   0  -4   1 1425.41   28.54
   0   4   1 1341.71   29.35
   0  -4  -1 1409.18   36.44
   0   4  -1 1370.46   32.63
  -4   0  -1 1359.42   35.94
   0  -4  -1 1321.88   30.58
   0  -4  -1 1348.32   30.31
  -4   0   1 1327.16   32.81
  -4   0   1 1263.42   27.21
   4   0   1 1394.93   36.53
   4  -4   1 1387.80   35.43
   0   4  -1 1374.21   34.07
   0   4   1 1387.31   31.14
   4  -4  -1 1387.96   36.53
   0  -4  -1 1374.91   29.27
  -4   0   1 1393.87   36.59
  -4   4  -1 1387.93   35.50
  -4   4   1 1411.28   36.74
   4   0  -1 1390.71   36.88
   0  -4   1 1354.29   32.47
   0   4   1 1405.26   36.30
  -4   4   1 1389.86   36.20
   0  -4   1 1332.20   28.56
   4  -4  -1 1393.04   36.08
   4  -4   1 1400.24   36.09
  -4   0  -1 1427.95   36.73
   0  -4   1 1414.36   26.89
   0   4  -1 1383.31   36.10
   4   0  -1 1375.12   36.36
  -4   0   1 1369.15   36.12
   0  -4  -1 1393.08   25.83
   4   0  -1 1353.27   24.39
   4   0   1 1230.96   15.11
  -4   4   1 1428.93   34.95
   0  -4  -2 3334.68   56.04
   0  -4   2 3294.26   52.53
   4   0   2 3272.40   55.09
   0  -4  -2 3376.32   51.21
   0  -4   2 3346.76   56.00
   4  -4  -2 3451.26   56.00
  -4   4  -2 3315.60   57.21
   4  -4  -2 3292.71   56.83
   0  -4   2 3302.90   47.92
  -4   4   2 3333.40   55.88
   0   4   2 3274.50   55.14
  -4   4   2 3283.21   49.84
   4   0  -2 3266.81   42.74
   4  -4   2 3259.57   56.40
   0   4   2 3337.94   44.03
   0  -4   2 3389.52   46.15
   0  -4  -2 3250.67   37.01
  -4   0   2 3373.41   56.28
   4  -4   2 3339.93   57.12
   0   4  -2 3335.63   52.98
  -4   4  -2 3360.77   54.79
  -4   0   2 3401.05   51.28
   0   4  -2 3291.01   54.59
  -4   0  -2 3384.76   51.76
   0  -4  -2 3278.93   43.08
   0   4   2 3332.77   45.34
   4  -4  -2 3295.91   57.00
  -4   0   2 3363.88   57.78
   4  -4   2 3317.83   54.06
  -4   0  -2 3395.21   55.88
  -4   4   2 3337.78   54.23
   4   0  -2 3397.40   57.83
   4  -4   2 3411.36   56.25
  -4   4   2 3288.04   55.15
   0  -4   2 3423.27   37.76
   4  -4  -2 3416.90   56.46
  -4   4   2 3385.24   57.73
   0   4  -2 3229.35   54.90
  -4   4  -2 3334.01   56.90
  -4   0  -2 3298.50   55.84
  -4   0   2 3197.89   57.79
   0  -4  -2 3226.80   44.08
   4   0  -2 3342.25   56.40
   4   0   2 3315.68   55.88
  -4   0   2 3335.00   39.20
   0  -4   2 3378.38   48.28
  -4   4  -2 3362.37   55.87
   0   4  -2 3343.02   49.22
  -4   0   2 3339.49   46.66
   4  -4  -3 1594.05   37.55
  -4   0   3 1594.90   23.96
  -4   0  -3 1590.18   36.24
   0   4   3 1590.53   25.88
  -4   4  -3 1592.03   39.21
   4   0  -3 1599.20   38.09
   0  -4   3 1598.33   31.85
   4  -4  -3 1591.37   39.47
   0  -4   3 1597.76   32.82
  -4   4   3 1598.06   37.13
   4   0   3 1597.80   26.75
   0   4   3 1591.08   27.61
   4  -4  -3 1592.71   20.66
   4  -4   3 1597.70   37.27
   0   4  -3 1599.79   33.92
  -4   0   3 1592.12   38.45
  -4   4   3 1591.13   24.91
   4  -4   3 1599.09   38.21
  -4   4   3 1599.61   39.59
  -4   0   3 1594.23   38.02
  -4   4   3 1590.37   33.29
   4   0  -3 1590.91   31.65
   0   4  -3 1599.80   37.45
   0  -4   3 1594.02   38.16
   0  -4  -3 1593.33   27.68
   0   4  -3 1593.66   38.87
  -4   0   3 1590.73   33.40
  -4   4  -3 1592.55   36.86
   0   4   3 1598.85   29.15
  -4   0   3 1594.88   39.59
   4  -4  -3 1597.08   39.62
   0  -4  -3 1592.96   37.85
   4   0  -3 1593.16   39.46
  -4   0  -3 1590.27   37.45
   0  -4   3 1595.27   21.74
  -4   4   3 1593.78   37.81
  -4   4   3 1591.64   38.01
   4  -4   3 1599.50   39.54
   0  -4  -3 1597.39   36.47
   0   4   3 1597.56   38.09
  -4   0  -3 1590.21   37.44
   4  -4  -3 1592.20   37.83
   4   0   3 1599.49   37.96
   0   4  -3 1594.10   38.09
   0  -4   3 1595.37   34.78
  -4   4  -3 1595.12   39.15
   4   0  -3 1596.81   37.88
   0  -4   3 1593.42   37.33
   0   4  -3 1596.07   36.08
  -4   4  -3 1599.80   21.48
   4   0   3 1592.50   37.80
  -4   0   3 1599.62   40.73
   0  -4  -3 1597.57   24.72
  -4   0   3 1593.58   33.31
  -4   4   3 1596.84   28.10
  -4   4  -3 1593.64   38.06
   4   0  -4  691.76   13.98
  -4   0  -4  699.20   26.81
   4  -4   4  771.20   28.79
   0  -4   4  698.03   21.61
   4  -4  -4  751.49   27.23
  -4   4  -4  679.95   17.55
  -4   4  -4  745.07   26.54
   4  -4  -4  715.55   17.45
  -4   4  -4  722.09   27.74
   0   4  -4  749.35   26.70
   4   0   4  689.22   26.07
   0  -4   4  719.67   25.91
   4   0   4  659.44   17.19
   4   0   4  753.42   27.34
  -4   0  -4  723.56   26.46
   0   4  -4  602.69   23.82
  -4   4   4  702.94   28.42
  -4   0   4  710.17   24.77
  -4   0   4  678.37   22.55
  -4   4  -4  755.96   28.63
   0   4   4  672.56   18.60
  -4   0   4  712.37   28.20
   4  -4   4  696.26   27.24
   4  -4  -4  764.14   27.18
   0  -4  -4  740.11   19.04
   4  -4   4  708.23   26.11
   0   4  -4  731.74   27.54
   0   4  -4  717.78   27.95
   0  -4   4  676.77   10.74
  -4   4  -4  744.25   26.27
  -4   0   4  758.71   28.64
  -4   0  -4  794.82   27.62
   0   4   4  719.40   18.82
   4  -4  -4  719.36   28.34
   4   0  -4  701.53   27.65
  -4   4   4  741.05   22.96
   0   4   4  727.93   26.62
  -4   4   4  735.96   26.56
  -4   4   4  751.26   28.97
  -4   4   4  739.24   27.73
   0   4   4  778.29   27.37
  -4   4   4  748.08   18.58
   4   0  -4  760.93   28.03
   0  -4  -4  787.32   27.63
   0  -4   4  774.47   27.27
  -4   0   4  683.23   14.14
   4   0  -4  735.39   24.36
   4   0  -4  703.47   26.38
   4   0  -4  720.78   25.45
  -4   0   4  727.86   26.60
   0  -4  -4  738.36   27.24
   0  -4   4  732.76   27.69
   0  -4   4  708.10   24.47
   0   4  -4  709.60   25.82
  -4   4   4  702.17   19.50
  -4   0   4  687.46   28.68
   0   4   4  753.58   27.21
   4   0  -5   95.93   10.47
   0   4  -5   91.68   12.47
  -4   0   5   90.96   12.63
   4  -4   5  114.70   11.58
   0  -4  -5  107.76   12.24
   4  -4  -5  115.94   12.73
  -4   0   5  114.06   11.40
  -4   4  -5   94.80   10.76
  -4   4  -5   99.48   11.97
   4  -4  -5  105.05   11.44
  -4   4  -5   90.28    8.14
   0   4  -5   83.97   11.19
   0   4   5  111.48   12.42
   4   0   5  121.60   12.92
   0   4  -5  104.44   12.21
  -4   0  -5   94.16   12.14
  -4   4   5  101.95    8.30
   0  -4   5  112.15   11.28
  -4   4  -5   92.89   12.44
   4   0   5  106.96    7.02
   0  -4  -5  105.13    7.70
  -4   4   5   98.71   11.02
   4   0  -5  107.99    9.75
   4  -4   5   96.46   11.84
  -4   4  -5  112.05   11.47
   0   4  -5  112.14   12.56
  -4   0   5  109.54   11.94
  -4   4   5  105.45   12.93
   0   4   5  108.43    6.98
  -4   0   5  104.86    9.73
   0  -4   5  114.47   12.29
  -4   4   5  101.87    9.09
  -4   0  -5  108.24   11.67
  -4   4   5  108.10   12.31
   4   0  -5  124.82   12.40
   4  -4  -5  110.78    8.53
   0  -4   5  104.59    8.74
   0   4   5  105.20    8.48
  -4   0   5  118.38   13.71
   0  -4   5  105.38   12.92
   0  -4  -5  103.32   11.14
   0  -4   5  110.85   11.44
   4   0   5  104.86   11.35
   0   4  -5  105.47   11.61
  -4   4   5  122.33    9.25
   4  -4  -5   92.18   11.73
   4   0  -5  105.46   12.39
   4  -4   5  119.54   12.89
   4   0  -5  109.41   12.14
  -4   0  -5  103.44   11.10
   4   0  -5  109.84   11.51
   0   4   5  108.17   11.26
   0   4   5  101.93   11.88
  -4   0   5  104.79   11.46
  -4   0   6  110.80   10.23
   0   4   6   99.51   12.03
   0  -4   6  111.00   13.41
   0  -4   6  114.98    9.27
   4  -4   6  127.49   10.38
   0  -4  -6  127.86   12.11
   0   4  -6   96.22   10.01
  -4   0  -6  102.12   13.30
   0   4   6  125.85   12.04
   4  -4  -6  120.78    9.83
  -4   4  -6  107.42    9.64
   0   4   6  107.00   12.65
   4   0   6  133.29   14.35
   4   0  -6  115.59   12.90
  -4   4   6  104.25    8.87
   4  -4  -6  114.85   13.82
  -4   0   6  113.91   12.48
  -4   4  -6  112.27   12.54
  -4   0   6  158.93   16.63
   0  -4   6  126.37   13.03
   0   4   6  106.25    9.01
   4   0  -6  126.22   12.39
  -4   0   6  124.36   12.54
   0  -4  -6  120.99    7.95
  -4   4  -6  101.87   11.37
   0   4  -6  100.47   12.43
   4   0  -6  131.49   13.94
   0   4  -6  108.32   13.72
  -4   4  -6  120.58   13.59
   4   0  -6  133.49   10.76
  -4   4  -6  112.85   11.73
   4   0   6  109.86    6.60
   4  -4   6  126.51   13.83
  -4   0   6  119.46   11.64
  -4   4   6  119.19    9.57
  -4   0  -6  108.38   11.74
   0   4   6  115.75    5.91
  -4   4  -6  113.24   11.56
  -4   4   6  121.34   14.09
   4  -4  -6  101.74   10.74
   0   4  -6  108.64   11.45
  -4   4   6  116.99   11.74
   0  -4   6  136.93   14.10
   0  -4  -6  118.84   13.55
   0  -4   6  130.95   11.98
   4  -4   6  100.61   10.96
   4   0   6  118.01   12.10
   4   0  -6  125.76   12.41
  -4   0  -6  110.76   11.52
  -4   4   6  107.25    8.72
   0   4  -6  178.27   16.16
  -4   0   6  140.76   16.07
   4  -4  -6  113.82   13.48
  -4   0   7   69.17   14.37
  -4   4   7   67.66   10.52
  -4   4   7   65.19   13.23
   0   4   7   68.65   10.35
   0   4   7   63.50   11.03
   0  -4   7   61.17    8.24
   0  -4  -7   64.19   12.07
  -4   4   7   68.86    9.95
   4  -4   7   64.94   10.03
  -4   4  -7   65.00   10.25
   0   4   7   68.36    8.60
   4   0   7   64.38   10.71
   0   4  -7   68.41   10.69
  -4   0  -7   68.63   12.24
   0  -4   7   60.43   12.82
   0   4  -7   66.14   13.02
  -4   4  -7   69.21   13.15
   4  -4  -7   62.57   14.03
   0  -4  -7   69.15    6.73
  -4   4   7   60.77    9.16
   4  -4  -7   65.39    9.22
  -4   4  -7   66.98    8.66
   0   4   7   65.07   11.18
   4   0   7   67.23   11.78
   4  -4   7   61.79   11.43
  -4   0   7   61.26   14.34
   4  -4  -7   61.36   10.04
   0  -4   7   63.92   11.57
   4   0  -7   64.85    9.24
   0  -4  -7   61.74   10.22
  -4   4   7   61.12    7.97
   4   0   7   67.74    5.33
   4   0  -7   61.70   10.10
   4   0  -7   67.77   11.94
   4   0  -7   60.87   12.26
  -4   0  -7   65.39   10.87
  -4   0   7   66.04   10.26
  -4   0  -7   61.83   10.26
   4  -4   7   67.57   10.25
   0   4  -7   65.07   10.07
  -4   0   7   63.53    9.53
   0  -4   7   63.33    9.60
  -4   4  -7   63.07   10.54
   4  -4  -7   63.54   12.73
  -4   4   7   63.89    8.58
  -4   0   7   63.70   11.88
   0  -4   7   63.98   12.76
  -4   4   8   23.97    6.71
  -4   0  -8   27.94    5.33
  -4   0   8   21.73   10.25
   0  -4   8   15.86    9.56
   0  -4  -8   18.74   10.12
   0   4   8   31.72    9.91
   0  -4  -8   19.72    4.83
  -4   4   8   24.26    7.40
  -4   0  -8   21.55   10.26
   0  -4   8   19.97    5.50
   0   4  -8   31.62    8.38
  -4   4   8   21.56    6.81
   4  -4  -8   50.47   11.29
   4  -4   8   30.37    7.82
  -4   4   8   20.71    6.68
   0   4   8   25.94    9.16
   4  -4  -8   15.77    6.71
   4   0   8   29.25   10.25
   4   0  -8   27.39    9.16
  -4   4  -8   18.66    7.12
  -4   0   8   17.03    9.85
   0  -4   8   11.35    7.47
   0  -4  -8   27.18    7.18
   4  -4   8   21.29    9.01
  -4   4  -8   22.08    7.51
  -4   4  -8   21.23    7.24
   4   0   8   17.95    3.54
  -4   4   8   23.62    5.89
  -4   4   8   19.30    8.65
  -4   4  -8   22.08    9.93
   0   4  -8   12.72    6.40
   0   4  -8   19.79    9.61
   4  -4  -8   24.78    7.04
   4  -4   8   17.71    7.08
   0   4   8   18.97    7.15
   4   0  -8   16.93    6.60
   4   0  -8   24.11    6.81
   0  -4   8   21.88    6.76
   4   0   8   23.60    7.55
  -4   0   8   19.84    6.18
   0  -4  -8   17.65    6.75
   4   0  -8   12.29    9.57
  -4   0  -8   11.80    6.01
  -4   0   8   28.70    7.19
  -4   0  -8   14.64    7.40
  -4   0   8   18.88    9.44
   4  -4  -8   21.38    9.58
   0  -4  -9  298.31   22.73
   0  -4   9  275.40   14.22
  -4   0  -9  289.54   22.39
  -4   4   9  278.91   18.48
   4  -4   9  266.21   18.10
  -4   4  -9  282.58   21.42
   4   0   9  279.58   17.08
   0   4  -9  295.45   15.71
   0   4   9  300.14   21.68
   4   0   9  253.75   20.45
   4  -4  -9  293.52   18.40
  -4   4  -9  273.28   18.54
  -4   0   9  275.89   15.66
   4  -4  -9  279.97   16.99
   0  -4  -9  285.96   12.14
  -4   0   9  288.68   21.78
   4   0  -9  286.82   17.10
   0  -4   9  299.57   21.76
   0  -4  -9  273.83   16.85
   0   4  -9  303.76   17.72
  -4   4   9  288.20   16.96
  -4   4  -9  275.65   18.23
   4   0  -9  296.24   16.27
   0   4  -9  278.53   21.55
  -4   4   9  283.92   13.24
   4  -4  -9  298.27   18.66
  -4   0  -9  272.56   13.15
   4   0  -9  287.63   20.68
   4  -4   9  305.03   21.05
   4  -4  -9  299.65   22.49
  -4   0  -9  272.62   17.99
  -4   4  -9  296.49   17.23
  -4   4   9  276.30   16.90
   0   4   9  276.58   20.05
   4  -4   9  290.15   17.17
   0   4   9  300.94   17.51
   0  -4   9  258.72   21.62
   0  -4   9  275.43   16.94
   0  -4  -9  269.96   17.06
  -4   0   9  277.26   21.52
   4   0   9  264.53   10.17
  -4   4   9  271.45   21.77
   0  -4  -9  279.62   12.09
  -4   4   9  283.43   16.07
   4   0  -9  309.51   22.55
   0  -4  10  731.50   26.50
   0  -4  10  682.41   22.24
  -4   0 -10  743.50   35.41
   0  -4 -10  697.60   34.23
   4   0  10  714.86   17.25
  -4   4  10  726.11   30.48
   4  -4  10  746.07   31.00
  -4   4 -10  693.34   32.93
   0   4 -10  683.53   22.71
   0   4  10  679.01   32.96
   4   0  10  745.11   34.65
   4  -4  10  706.71   25.75
   0  -4 -10  708.86   19.27
   4  -4 -10  675.72   27.92
  -4   0  10  713.26   34.53
   0  -4 -10  703.95   27.84
   0  -4  10  735.87   34.16
  -4   4  10  717.49   27.68
   4   0 -10  731.66   34.67
   4  -4 -10  707.29   27.66
   4   0 -10  696.28   25.72
   0  -4 -10  660.73   25.42
   4  -4  10  744.81   32.79
  -4   4  10  671.92   19.38
   4   0 -10  703.37   25.25
   0   4 -10  722.29   34.68
   4   0 -10  699.03   31.76
   4  -4 -10  766.02   34.59
  -4   0 -10  708.64   28.49
  -4   0  10  711.07   25.34
   0   4  10  757.02   26.73
   0   4 -10  697.70   25.78
   0   4  10  731.38   32.29
   4   0  10  743.56   26.72
   4   0 -10  687.86   25.70
   4  -4 -10  722.66   26.43
   0  -4  10  701.62   35.05
   0  -4 -10  695.27   19.15
   0  -4 -10  654.34   23.67
  -4   4  10  672.17   33.96
  -4   0  10  735.68   35.18
  -4   0 -10  706.09   22.47
  -4   4  11  928.68   41.24
  -4   0  11  910.35   40.06
  -4   0 -11  874.36   39.66
   4  -4  11  934.54   36.67
   4   0 -11  890.53   28.77
   4   0  11  918.44   40.13
   0  -4 -11  960.65   23.24
   4  -4 -11  852.25   28.33
  -4   0  11  886.70   39.92
  -4   4 -11  925.38   38.58
   0  -4  11  941.83   40.15
  -4   4  11  931.75   33.29
   4   0 -11  892.20   28.68
   4   0 -11  872.86   39.91
   4   0 -11  912.29   36.70
   0   4  11  962.31   40.79
   4   0  11  898.10   28.51
   0   4 -11  919.77   40.15
   4   0  11  935.83   29.32
   4  -4 -11  907.02   39.10
   4  -4  11  951.70   29.52
   4  -4  11  894.39   37.15
   0   4  11  962.36   29.63
   0   4 -11  915.62   28.94
   4  -4  11  881.18   28.35
   0   4  11  894.34   37.12
   0  -4 -11  924.72   40.76
   0  -4  11  919.87   29.19
   0  -4 -11  898.16   29.82
  -4   0  11  924.89   29.34
   0  -4 -11  876.06   28.78
   0  -4  11  894.61   40.56
   0   4 -11  842.49   25.89
   4   0  11  905.61   20.39
   4   0 -11  925.32   29.59
   4  -4 -11  943.92   33.25
   0  -4 -12  249.49   19.47
  -4   0 -12  207.67   21.59
  -4   4 -12  245.96   21.83
   0   4  12  262.18   23.42
   4   0  12  244.03   22.61
  -4   4  12  216.85   22.42
   0   4 -12  194.34   13.65
   4  -4 -12  232.32   21.51
  -4   0  12  219.07   21.76
   0  -4  12  231.95   22.27
  -4   4  12  235.41   18.55
   0   4 -12  232.97   14.84
   0   4  12  227.03   14.72
   4   0 -12  227.26   22.40
   0   4 -12  210.18   21.40
   4   0 -12  216.88   15.53
   4   0 -12  225.99   20.04
   4  -4  12  236.35   20.84
   4   0  12  229.82   14.88
   4   0 -12  232.16   14.98
   0  -4  12  252.97   24.02
   4  -4  12  230.90   14.67
   4  -4 -12  237.65   15.34
   0   4  12  232.51   20.80
   0  -4 -12  246.77   23.74
  -4   0  12  207.11   21.75
  -4   0 -13  289.16   25.47
   0  -4 -13  296.31   22.65
  -4   4 -13  284.49   23.99
   0   4  13  318.67   26.57
   4   0  13  266.77   24.51
  -4   4  13  291.16   26.29
  -4   0  13  284.06   25.50
  -4   0 -13  264.10   20.84
   0  -4  13  305.67   26.39
   4   0 -13  261.54   25.17
  -4   0  13  300.71   26.04
   0   4 -13  291.26   25.47
   4   0 -13  284.09   17.99
   4   0 -13  304.71   23.35
   4  -4 -13  282.35   24.17
   0  -4 -13  303.63   26.56
   0  -4  13  298.73   26.25
   0   4  13  270.39   23.30
   4  -4  13  277.12   22.95
   4   0  14  924.92   44.84
   0  -4 -14  817.90   43.22
  -4   0 -14  885.17   44.12
   0  -4 -14  851.55   37.81
  -4   4 -14  861.56   41.21
   0   4  14  838.78   40.40
   0   4  14  823.32   42.66
  -4   4  14  893.25   45.66
  -4   0 -14  905.79   38.40
  -4   0  14  856.74   43.51
   0  -4  14  848.65   44.58
   4   0 -14  909.72   45.79
   0   4 -14  899.79   45.48
   0   4 -14  837.91   42.58
   4   0 -14  854.86   38.40
   4  -4 -14  846.35   41.81
   4  -4  14  815.51   39.24
  -4   0  14  904.08   45.06
  -4   0 -14  907.90   44.09
   0  -4  14  910.13   45.47
  -4   4  15   61.42   16.34
   0   4  15   65.12   15.47
   0   4 -15   47.38   15.53
  -4   0 -15   45.49   11.62
   0  -4 -15   69.36   16.30
  -4   0 -15   54.38   14.82
   0  -4 -15   72.25   15.71
  -4   0 -15   81.94   17.25
  -4   4 -15   45.01   13.07
   0   4 -15   68.75   15.82
   0   4  15   60.03   16.21
   4   0  15   67.97   15.87
   4  -4  15   61.27   13.79
  -4   0  15   57.86   15.01
   0  -4 -15   41.27   12.16
  -4   4 -15   66.96   14.61
   4   0 -15   50.50   12.18
   4   0 -15   61.80   16.76
   0  -4  15   74.18   16.57
   4  -4 -15   48.74   14.15
   0   4  16   74.62   16.12
   0  -4 -16   58.14   15.81
  -4   0 -16   65.40   15.38
   0  -4 -16   92.44   18.25
  -4   0 -16   82.13   17.79
  -4   4 -16   75.07   15.86
   0   4  16   58.79   16.37
  -4   0  16   60.87   15.12
   0  -4 -16  107.49   17.32
  -4   0 -16   64.71   15.05
  -4   4 -16   58.10   14.48
   0   4 -16   82.21   16.52
   4  -4  16   83.24   15.54
   0  -4  16   74.68   16.99
   4  -4 -16   41.38   13.09
   4  -4 -17   45.11   13.72
  -4   4 -17   40.57   12.73
   0   4 -17   40.30   14.02
  -4   4 -17   42.19   13.26
   4  -4  17   54.29   14.25
   0   4  17   55.75   14.59
  -3   5 -16   54.77   15.44
   5  -3 -16   18.94   10.62
  -5   3  16   38.91   13.16
   3  -5  16   43.53   14.77
  -2   5 -16   34.24   13.54
   2  -5  16   29.65   13.52
  -5   2  16   24.35   12.57
  -5   2  15  175.29   23.85
   2   3  15  154.45   21.54
   3   2  15  156.90   21.71
  -2  -3 -15  133.49   20.48
  -3  -2 -15  155.96   21.73
  -2   5 -15  151.44   21.26
  -3   5 -15  132.29   17.34
   5  -2 -15  172.08   24.18
  -5   3  15  156.65   19.92
  -5   3  15  188.46   24.23
  -5   2  15  142.08   19.80
  -3   5 -15  164.01   21.47
  -2  -3 -15  139.79   20.07
   5  -3 -15  162.25   19.14
   5  -2 -15  134.70   17.03
   2  -5  15  138.24   20.35
   3  -5  15  139.17   20.60
   2   3  15  170.36   18.81
  -3  -2 -15  153.22   21.03
   5  -3 -15  203.84   25.88
   5  -3 -14  426.66   33.73
  -2  -3 -14  404.94   31.42
  -3  -2 -14  426.51   32.40
  -3   5 -14  384.15   26.77
  -2   5 -14  420.66   25.53
   5  -2 -14  424.30   33.55
   2   3  14  423.48   32.35
   3   2  14  410.36   31.96
  -2  -3 -14  429.78   25.32
  -5   2  14  405.51   31.94
  -5   2  14  387.38   29.16
  -5   3  14  394.61   28.19
  -3   5 -14  420.20   31.34
  -2   5 -14  427.48   31.41
  -3  -2 -14  398.30   24.40
   5  -2 -14  374.92   25.65
   5  -3 -14  401.89   27.77
   5  -2 -14  413.96   25.21
  -3  -2 -14  377.70   30.24
   2   3  14  374.64   25.11
   3  -5  14  381.66   29.99
   2  -5  14  354.09   29.43
   3   2  14  419.42   24.72
  -5   3  14  429.83   33.16
  -5   2  14  392.29   29.64
  -2  -3 -14  447.65   33.00
   5  -3 -13  186.62   22.78
  -3  -2 -13  170.38   21.42
  -3   5 -13  183.74   18.98
  -2   5 -13  192.72   17.32
   5  -2 -13  194.20   23.47
  -3  -2 -13  167.96   20.59
   3   2  13  175.43   21.71
  -2  -3 -13  178.61   16.03
  -5   2  13  167.93   19.39
  -5   3  13  169.56   18.66
  -5   3  13  173.72   18.39
  -2  -3 -13  188.64   21.92
  -3   5 -13  168.62   20.28
  -2   5 -13  201.89   22.10
  -2  -3 -13  162.87   20.37
   5  -2 -13  163.49   17.25
  -3  -2 -13  163.47   15.59
   5  -3 -13  121.36   15.82
   5  -2 -13  178.59   17.13
   3  -5  13  192.66   21.45
   2  -5  13  159.20   20.62
  -5   2  13  159.01   20.44
  -5   3  13  190.11   22.24
   2   3  13  177.99   17.23
   3   2  13  174.07   15.71
   2   3  13  180.82   21.58
  -5   2  13  187.18   20.35
  -2   5 -12  136.33   12.49
   3   2  12  143.56   12.70
  -3   5 -12  138.45   16.47
  -2  -3 -12  148.70   19.03
  -2   5 -12  145.77   15.25
  -3  -2 -12  132.14   18.31
   3   2  12  150.50   19.39
  -3   5 -12  142.03   12.51
  -2  -3 -12  149.80   14.19
  -5   2  12  129.29   17.22
   2   3  12  139.28   18.93
  -5   2  12  130.35   16.82
  -5   3  12  137.22   18.49
  -5   3  12  119.51   15.49
  -3   5 -12  145.22   18.10
   5  -2 -12  136.18   19.59
   3  -5  12  125.84   17.36
   5  -2 -12  137.35   15.66
   5  -3 -12  124.04   15.87
  -3  -2 -12  152.89   14.32
   5  -2 -12  154.30   15.81
  -2   5 -12  118.09   17.19
  -2  -3 -12  120.69   17.62
   5  -2 -12  143.09   13.00
   5  -3 -12  130.64   12.52
   3   2  12  136.68   13.46
  -3  -2 -12  135.06   19.02
   2   3  12  150.31   15.52
  -5   3  12  129.36   15.78
   5  -3 -12  122.94   13.07
   2   3  12  152.38   13.19
  -5   2  12  140.57   18.82
   2  -5  12  132.88   17.91
   2  -5  11  115.52   12.13
   2   3  11  112.38   12.02
   3   2  11  124.82   12.52
  -2  -3 -11  104.51   16.75
  -2   5 -11  135.58   14.64
  -3  -2 -11  112.21   16.35
   5  -3 -11  117.61   12.82
  -2  -3 -11  105.00   11.52
   2   3  11  116.88   17.84
   3   2  11   91.79   16.24
  -2  -3 -11  109.00   16.14
  -5   2  11  113.80   16.03
  -5   3  11   83.94   13.60
  -3   5 -11  106.74   14.11
   5  -2 -11  116.54   17.83
   5  -3 -11   88.00   13.62
  -3  -2 -11  108.35   11.57
   5  -2 -11  112.41   13.81
  -3  -2 -11  136.16   18.09
   3  -5  11  111.58   16.15
  -2   5 -11  116.61   16.24
   3  -5  11  117.49   12.20
   5  -3 -11   97.63   11.58
  -2   5 -11  108.79   11.90
   2  -5  11  122.59   16.96
   5  -2 -11  115.93   12.34
   3   2  11  116.81   12.20
   2   3  11  122.10   13.78
  -5   3  11   83.64   15.93
   5  -2 -11  105.54   13.86
  -5   3  11  120.67   14.70
  -5   2  11   89.75   14.56
  -3   5 -11  122.24   12.21
  -3   5 -11  116.78   16.95
  -5   2  11  101.10   16.11
  -2  -3 -10  345.11   25.73
  -3  -2 -10  357.37   26.28
   2  -5  10  353.71   19.81
  -2  -3 -10  341.62   19.58
  -3   5 -10  336.02   22.53
  -2   5 -10  366.90   22.04
   5  -3 -10  331.10   19.01
   5  -3 -10  342.58   18.97
   5  -3 -10  360.16   20.23
  -2  -3 -10  351.88   17.64
   3   2  10  340.76   25.39
   2   3  10  354.92   25.59
  -5   2  10  323.05   22.94
  -5   3  10  336.02   22.26
   5  -2 -10  381.74   27.17
   2  -5  10  338.57   24.85
  -3   5 -10  339.03   24.57
  -2   5 -10  356.69   25.69
  -5   3  10  340.91   19.63
  -3   5 -10  337.11   16.84
   5  -2 -10  334.33   21.81
   5  -3 -10  262.96   20.27
  -3   5 -10  339.28   19.31
  -3  -2 -10  321.68   16.62
   5  -2 -10  335.14   21.45
   5  -2 -10  334.71   19.69
  -2   5 -10  340.20   19.43
   3  -5  10  361.51   25.47
   5  -2 -10  337.64   19.25
   2   3  10  348.69   19.58
   3  -5  10  369.66   19.95
   3   2  10  370.00   19.97
  -5   2  10  342.41   25.25
   5  -3 -10  353.99   19.72
   5  -2 -10  330.01   15.04
  -2  -3 -10  333.08   24.96
  -3  -2 -10  358.72   25.70
   3   2  10  352.77   18.25
  -5   3  10  389.06   26.66
   2   3  10  337.06   20.37
  -3  -2 -10  333.08   19.49
  -3  -2 -10  355.11   17.50
  -5   3  10  339.38   21.97
  -5   2  10  334.12   23.24
  -5   3   9  111.19   14.69
  -5   2   9  114.62   14.27
   5  -3  -9  113.96   12.73
   5  -2  -9  132.07   17.92
   5  -2  -9  104.54    8.77
  -3   5  -9  127.79   15.03
  -2   5  -9  135.31   15.06
   5  -3  -9  127.58   13.06
  -2  -3  -9  112.89   15.45
  -2  -3  -9  125.41   10.53
  -3  -2  -9  103.27   15.00
  -3  -2  -9  120.93   12.35
  -2  -3  -9  118.83   12.55
  -3  -2  -9  122.26   10.16
   5  -2  -9  123.07   12.83
  -5   3   9  118.07   13.67
   2   3   9  105.52   15.65
   3   2   9  110.36   15.71
  -5   2   9  103.83   14.37
  -5   3   9  124.55   12.65
  -3   5  -9  108.01   10.08
   5  -2  -9  110.71   13.24
  -2  -3  -9  109.21    8.45
  -2   5  -9  112.98   11.85
   5  -2  -9  120.56   12.28
   5  -3  -9  135.08   15.39
   3  -5   9  128.44   16.02
  -3  -2  -9  104.80   10.32
  -2   5  -9  113.78    7.65
   5  -2  -9  121.37   13.77
   2  -5   9  108.42   15.59
  -3   5  -9  131.13   12.70
  -2   5  -9  127.39   16.07
   2   3   9  121.25   12.77
   5  -3  -9  126.66   12.47
   2  -5   9  110.09   12.16
   3   2   9  116.29   12.04
   3  -5   9  118.67   12.56
   5  -3  -9  127.92   12.84
   3   2   9  119.62   10.75
  -5   2   9  122.50   15.61
   2   3   9  120.62   12.26
  -5   3   9  119.06   13.40
   5  -3  -8  139.30   13.24
   2   3   8  136.32   12.80
  -2  -3  -8  168.66   10.57
  -3   5  -8  124.92   12.81
  -3  -2  -8  132.09   15.83
   5  -2  -8  139.78   10.25
   5  -3  -8  144.10   12.63
  -3   5  -8  140.68   13.42
  -2   5  -8  142.56   13.57
   2  -5   8  143.71   13.83
  -5   2   8  137.50   14.91
  -5   3   8  141.19   14.06
  -5   2   8  141.37   15.61
   2   3   8  132.40   15.48
   3   2   8  116.50   15.05
  -2  -3  -8  138.18   13.68
  -2   5  -8  144.94   16.76
   5  -2  -8  143.44   13.38
   5  -2  -8  147.32   14.38
  -2  -3  -8  133.16    9.44
  -5   3   8  142.36   13.10
  -3   5  -8  136.86   11.01
   5  -3  -8  125.48   14.51
  -3   5  -8  136.73   14.90
  -3  -2  -8  146.17   11.86
  -3  -2  -8  145.32    9.62
  -2   5  -8  141.26    8.50
   3  -5   8  143.46   13.24
   5  -2  -8  155.20   15.02
   3  -5   8  137.84   16.40
   5  -3  -8  150.93   13.88
   2  -5   8  139.77   16.19
   2  -5   8  138.33   13.04
   3   2   8  157.31   13.82
   5  -2  -8  125.33   13.08
   5  -3  -8  141.17   13.58
  -2   5  -8  182.38   16.38
  -2  -3  -8  153.65   16.80
  -3  -2  -8  134.50   13.07
  -5   3   8  138.55   15.72
   3   2   8  132.99   10.65
   5  -3  -8  148.45   13.67
   2   3   8  154.48   13.11
  -5   2   8  139.88   15.60
  -5   3   8  148.03   14.55
   5  -3  -7  441.56   19.42
  -3  -2  -7  445.40   20.90
   5  -2  -7  449.62   22.34
  -3   5  -7  447.05   21.05
   5  -2  -7  448.82   15.72
   5  -2  -7  443.59   21.00
  -2   5  -7  447.66   20.84
   5  -3  -7  442.04   18.66
  -3   5  -7  446.16   23.98
  -2   5  -7  441.42   20.87
  -3   5  -7  442.34   19.54
   3   2   7  440.10   24.92
   5  -3  -7  442.62   20.33
   5  -3  -7  448.72   21.12
  -5   2   7  448.97   23.58
  -5   3   7  441.54   21.18
  -2   5  -7  445.67   21.42
  -5   3   7  440.19   22.02
  -3  -2  -7  449.91   24.85
  -3   5  -7  447.24   21.34
   2  -5   7  449.94   21.36
   2  -5   7  441.16   21.35
  -5   2   7  446.60   21.22
  -5   2   7  441.72   23.19
   5  -2  -7  445.21   21.66
  -2   5  -7  445.35   23.94
   2   3   7  447.54   20.00
   5  -2  -7  447.16   21.94
  -3  -2  -7  446.64   13.29
  -5   2   7  442.34   22.15
   5  -3  -7  443.78   24.03
  -5   3   7  443.88   20.70
  -3   5  -7  442.93   17.56
  -3  -2  -7  447.99   18.24
   3  -5   7  447.03   24.88
   5  -2  -7  440.58   20.58
  -2   5  -7  446.53   13.69
  -2  -3  -7  440.63   15.90
   5  -3  -7  442.24   20.75
  -2   5  -7  441.14   20.41
   3  -5   7  449.53   21.36
   2   3   7  446.73   21.15
   3   2   7  446.30   20.57
   3   2   7  449.47   16.17
  -2  -3  -7  446.82   21.09
  -2  -3  -7  448.98   24.02
  -5   3   7  449.79   23.61
   2   3   7  448.42   24.39
   2  -5   7  449.61   25.29
  -5   2   7  442.65   24.75
  -3   5  -6 1965.97   47.61
  -2  -3  -6 1969.84   49.68
  -3  -2  -6 1874.83   48.31
   5  -2  -6 1923.65   43.22
   5  -2  -6 1894.31   34.18
  -2   5  -6 1831.36   41.63
  -2   5  -6 1869.74   29.89
   5  -3  -6 1839.11   39.18
   5  -3  -6 1955.82   39.78
  -3   5  -6 1751.78   37.66
  -2   5  -6 1840.42   44.09
   5  -3  -6 1882.32   43.31
   3   2   6 1946.21   32.79
   5  -2  -6 1983.21   45.67
   2   3   6 1849.54   49.44
   3   2   6 1858.17   49.63
  -3   5  -6 1994.28   46.70
  -5   2   6 1798.28   45.55
  -5   3   6 2033.13   44.27
  -3   5  -6 1921.78   42.53
   2  -5   6 1932.48   44.27
   5  -2  -6 1931.24   45.38
  -3  -2  -6 1790.45   22.46
  -2   5  -6 1966.22   50.02
   5  -2  -6 2059.49   47.10
  -5   2   6 1836.26   45.16
  -2  -3  -6 1803.52   34.70
   5  -3  -6 1956.94   48.48
   3  -5   6 1811.95   48.77
  -5   2   6 1927.77   46.35
  -5   3   6 1915.43   43.45
  -3  -2  -6 1849.75   39.22
  -3   5  -6 1899.04   36.85
  -2   5  -6 1856.30   44.21
   2  -5   6 1845.86   49.30
   5  -2  -6 1996.92   46.76
  -2   5  -6 1865.60   42.21
   2   3   6 1882.06   35.46
  -3  -2  -6 1895.62   45.09
   3  -5   6 1999.09   45.70
   2  -5   6 1921.67   44.70
   5  -3  -6 1948.93   45.46
   3   2   6 1963.80   45.65
  -2  -3  -6 1833.46   45.02
   2   3   6 1847.34   38.30
  -5   2   6 1966.09   46.60
   5  -3  -6 1930.44   45.20
  -5   3   6 1944.58   47.32
   3   2   6 1888.27   39.61
   2   3   6 1953.94   45.18
   5  -2  -6 1959.74   46.81
  -2   5  -6 1849.06   45.47
  -3   5  -6 1900.19   44.04
  -5   3   6 1799.82   42.98
  -5   2   6 1843.30   46.68
  -3  -2  -5 1241.98   39.64
  -3  -2  -5 1244.41   38.73
  -2   5  -5 1248.29   33.56
   3  -5   5 1241.21   39.32
   5  -2  -5 1240.93   29.34
   2  -5   5 1245.31   37.63
   3   2   5 1245.87   34.14
   5  -3  -5 1248.34   33.96
  -3   5  -5 1246.29   30.85
  -3   5  -5 1240.25   40.97
  -2   5  -5 1249.07   39.59
  -5   2   5 1243.61   29.39
   5  -2  -5 1244.76   37.44
   2   3   5 1243.15   42.10
   3   2   5 1249.97   42.68
   3   2   5 1240.40   38.59
  -5   3   5 1247.94   34.87
  -2   5  -5 1247.42   33.18
  -2   5  -5 1246.59   38.05
   2   3   5 1242.55   37.60
  -2   5  -5 1247.81   40.21
   5  -2  -5 1242.75   39.31
   3  -5   5 1249.73   41.44
   5  -3  -5 1240.83   40.14
  -2  -3  -5 1248.26   30.82
  -3  -2  -5 1242.54   33.63
  -5   2   5 1248.95   38.40
  -5   3   5 1242.58   37.21
   2  -5   5 1240.08   40.69
  -3   5  -5 1247.16   31.17
  -5   2   5 1244.94   38.52
   2   3   5 1240.25   31.04
   5  -2  -5 1242.36   38.93
   5  -2  -5 1249.69   38.22
  -3   5  -5 1244.75   37.48
   3  -5   5 1244.27   38.41
   2  -5   5 1249.42   38.56
   5  -3  -5 1243.14   30.35
   5  -3  -5 1246.87   36.51
  -2  -3  -5 1243.82   39.05
  -3   5  -5 1245.02   33.64
  -5   3   5 1244.12   37.72
   5  -3  -5 1243.11   38.60
   5  -3  -5 1243.34   38.56
  -2  -3  -5 1249.01   39.83
  -2   5  -5 1243.33   27.16
  -5   2   5 1245.93   36.29
   3   2   5 1246.28   25.79
   5  -2  -5 1248.91   37.15
  -3   5  -5 1244.76   36.71
  -5   2   5 1240.70   35.14
   2   3   5 1246.78   31.80
  -2   5  -5 1241.78   36.68
   5  -3  -5 1248.78   38.64
  -5   3   5 1241.48   37.83
  -5   2   5 1244.34   39.73
   5  -3  -4  217.50   17.01
  -3  -2  -4  218.94   16.92
  -2  -3  -4  217.60   16.67
  -2   5  -4  216.11   17.36
   2   3   4  211.26   16.71
   5  -2  -4  215.73   12.57
   3  -5   4  210.62   17.22
   5  -3  -4  217.75   14.68
   2  -5   4  213.73   15.91
  -3   5  -4  215.13   11.85
  -3   5  -4  210.54   17.45
  -5   2   4  211.33   14.76
  -5   2   4  214.71   14.54
  -2   5  -4  212.02   17.67
  -5   3   4  216.99   15.73
   5  -2  -4  214.37   17.08
   2   3   4  199.79    5.91
  -5   3   4  214.48   18.54
  -5   2   4  214.41   20.44
   3   2   4  219.21   11.08
  -3   5  -4  217.06   16.20
  -5   2   4  214.55   17.64
  -5   3   4  212.03   16.64
  -2   5  -4  213.19   13.30
  -3   5  -4  210.75   13.28
   5  -3  -4  218.38   12.18
  -5   2   4  211.51   18.00
  -5   3   4  215.00   18.00
   3  -5   4  217.67   14.11
  -2   5  -4  210.07   17.49
   2  -5   4  210.46   12.02
   5  -2  -4  215.54   16.86
   3  -5   4  212.01   17.69
   5  -3  -4  215.73   17.16
  -2  -3  -4  215.19   13.92
   2  -5   4  213.10   17.97
  -3  -2  -4  210.34   14.72
  -5   2   4  213.38   16.53
  -5   3   4  213.22   16.24
  -5   2   4  213.97   17.46
  -3   5  -4  212.83   13.63
   2   3   4  212.85   14.20
  -5   3   4  217.08   17.57
   3   2   4  218.20   15.35
   5  -3  -4  210.20   16.33
  -2   5  -4  214.34   12.42
   5  -2  -4  213.71   16.91
   3  -5   4  214.92   17.16
  -3  -2  -4  210.33   16.01
   5  -2  -4  212.84   17.13
   2  -5   4  213.35   17.07
  -5   3   4  214.64   15.94
   5  -3  -4  218.96   16.96
   5  -3  -4  212.63   16.83
  -3   5  -4  215.67   14.39
   5  -2  -4  226.96   15.12
  -2   5  -4  229.25   14.66
   2   3   4  253.34   14.31
   3   2   4  219.46   16.63
  -3  -2  -3  954.83   30.43
   5  -2  -3  949.49   25.76
   5  -3  -3  970.77   22.17
  -3   5  -3  933.92   21.73
   5  -3  -3  949.36   28.26
  -5   3   3  988.19   33.71
   3  -5   3 1005.55   32.70
   2  -5   3  970.36   30.79
  -5   2   3  933.64   25.99
  -3   5  -3  958.16   32.70
  -5   3   3  920.91   28.35
  -2   5  -3  966.43   31.21
  -3  -2  -3  955.34   32.03
   5  -2  -3  952.46   31.76
  -5   3   3  916.01   28.63
  -5   2   3  944.37   31.29
   5  -3  -3  990.10   32.23
  -3   5  -3  965.56   33.02
  -2   5  -3  934.03   23.62
  -3   5  -3  906.17   22.84
  -2   5  -3  989.55   33.17
   2   3   3  923.47   17.27
   5  -2  -3 1009.31   32.70
  -2   5  -3  970.29   31.68
   3  -5   3  953.45   33.02
   5  -2  -3  986.58   31.82
  -2   5  -3  907.18   30.92
   3  -5   3  931.16   26.96
   5  -3  -3  897.94   31.59
   2  -5   3  947.52   24.15
   2  -5   3  923.62   32.05
  -2  -3  -3  938.29   27.00
  -3  -2  -3  946.23   28.97
   2  -5   3  951.64   31.62
  -5   2   3  970.52   31.77
   3   2   3  919.91   16.34
  -5   2   3  973.87   32.34
   2   3   3  955.47   27.55
  -5   3   3 1007.09   33.51
  -5   3   3  979.30   31.16
   3   2   3  948.32   29.15
  -3   5  -3  960.64   27.24
   5  -2  -3  928.24   31.38
  -3   5  -3  942.95   31.26
   5  -3  -3  949.40   30.71
  -2   5  -3  959.35   23.98
   3  -5   3  999.40   32.35
   2   3   3  947.46   31.38
   3   2   3  987.97   32.32
  -2  -3  -3  992.73   32.50
   5  -3  -3  983.05   31.96
  -5   2   3  960.04   26.98
  -5   3   3  982.76   28.83
  -3   5  -3  971.20   26.98
   5  -2  -3  929.04   26.64
  -2  -3  -3  950.57   17.22
  -2   5  -3  961.92   26.64
   5  -3  -3 1014.72   30.28
  -5   2   3  952.95   32.63
  -3  -2  -2 1908.85   41.26
  -3   5  -2 1918.49   45.23
   5  -2  -2 1914.39   38.06
   5  -3  -2 1908.91   41.39
   3  -5   2 1918.93   45.79
   2  -5   2 1910.33   43.93
  -5   2   2 1912.54   43.77
   5  -2  -2 1914.10   45.08
  -5   3   2 1916.95   41.67
  -2  -3  -2 1919.76   29.40
  -3   5  -2 1913.90   45.26
  -2   5  -2 1911.64   43.82
   5  -3  -2 1915.43   45.84
  -3   5  -2 1917.80   46.70
  -2   5  -2 1910.14   45.98
  -5   2   2 1910.88   38.65
   5  -2  -2 1913.02   45.90
   3   2   2 1915.62   28.59
   3  -5   2 1912.44   46.21
  -2  -3  -2 1913.98   46.00
   5  -2  -2 1910.78   44.82
   2   3   2 1913.89   29.09
  -2   5  -2 1911.44   42.96
   5  -3  -2 1918.21   45.63
   2  -5   2 1915.99   45.60
   3  -5   2 1916.74   39.90
  -2  -3  -2 1911.79   40.47
  -5   2   2 1914.52   45.51
  -3  -2  -2 1919.22   42.14
   2  -5   2 1919.06   36.17
  -5   3   2 1916.17   46.87
   2   3   2 1917.29   40.57
  -5   2   2 1910.70   45.72
   3   2   2 1914.37   42.42
  -5   3   2 1911.48   45.02
   2  -5   2 1917.38   46.08
   3   2   2 1911.47   45.51
  -2   5  -2 1910.60   44.92
   3  -5   2 1912.41   46.39
   2   3   2 1913.46   45.41
  -3  -2  -2 1919.18   46.04
   5  -3  -2 1913.00   45.64
  -3   5  -2 1916.14   34.50
   5  -2  -2 1918.31   46.67
  -5   2   2 1914.25   35.47
  -5   3   2 1919.63   38.58
  -2   5  -2 1911.37   35.95
  -3   5  -2 1911.47   40.14
   5  -2  -2 1912.55   36.11
  -2   5  -2 1917.94   34.51
  -2   5  -1  435.12   19.26
   3   2   1  448.75   13.18
  -3  -2  -1  344.17   15.90
   5  -2  -1  430.66   19.51
   5  -3  -1  423.64   17.52
  -5   2   1  443.74   16.31
   3  -5   1  431.57   19.23
   2  -5   1  451.61   19.88
  -3   5  -1  441.65   19.79
  -3   5  -1  439.83   17.19
  -3   5  -1  434.44   19.31
  -2   5  -1  439.65   10.72
  -2   5  -1  431.59   18.47
  -3   5  -1  437.58    9.41
   3  -5   1  438.34   19.06
   3  -5   1  438.89   18.58
   5  -3  -1  439.76   19.45
  -2   5  -1  434.97   17.88
   2  -5   1  433.42   17.88
  -2  -3  -1  434.77   17.42
   2   3   1  434.46   13.45
  -5   2   1  435.63   19.26
   5  -2  -1  437.20   19.52
   3  -5   1  442.65   17.41
  -3  -2  -1  442.01   17.88
  -5   3   1  437.57   20.10
   2   3   1  445.54   17.44
   2  -5   1  436.73   16.43
   3   2   1  440.30   17.80
  -5   2   1  437.89   18.90
  -2  -3  -1  442.73   18.50
   5  -3  -1  439.56   18.68
  -5   3   1  432.15   18.54
   5  -2  -1  430.65   16.03
   5  -3  -1  438.73   19.00
   5  -2  -1  439.60   18.31
  -3   5  -1  433.89   18.73
  -2   5  -1  437.45   15.78
   3   2   1  438.33   19.01
  -3  -2  -1  438.88   19.25
  -5   3   1  437.33   18.33
  -5   2   1  435.50   13.17
  -5   3   1  434.63   15.30
   2  -5   1  440.71   19.41
  -3   5  -1  434.62   13.07
  -2  -3  -1  438.59   13.49
   2   3   1  430.06   19.52
  -2   5  -1  432.65   14.73
  -2  -3  -1  438.69   18.74
  -2  -3   0   94.00   10.75
  -2  -3   0   89.96   12.08
  -3  -2   0   99.66   14.28
  -3  -2   0   85.09    8.64
   5  -3   0   87.30   10.54
  -5   2   0  100.65   10.69
  -5   3   0  101.70   11.14
   3  -5   0  112.49   12.85
   5  -3   0  106.24   12.43
  -3   5   0  104.18   11.84
  -2   5   0   99.79   11.26
  -3   5   0  100.02   14.32
  -3   5   0   94.25    6.58
   3  -5   0   99.63   11.97
   2   3   0   98.01   11.44
   2  -5   0   99.01   11.49
  -2   5   0   92.50   10.01
  -5   2   0  101.14   12.01
  -2  -3   0  111.89   11.54
  -3  -2   0   87.07   10.51
   2   3   0   96.93    8.65
   3  -5   0   97.03   10.80
   2   3   0   99.40   11.27
   3   2   0  112.34   12.11
   2  -5   0   95.65   10.05
  -5   2   0  107.62   11.81
  -5   3   0   94.70   11.48
   5  -2   0   99.93   11.28
  -3  -2   0   94.77   11.41
  -3   5   0   93.53   11.09
   3  -5   0   99.31   11.14
   2  -5   0   89.99   11.27
   3   2   0   91.37    8.36
  -3   5   0   98.18   10.60
   3   2   0  103.53   12.20
   5  -2   0  101.82   10.52
   5  -2   0   90.59   11.35
   5  -2   0  107.34   12.53
   2  -5   0  184.90   16.46
  -2   5   0   88.78   11.24
  -2   5   0   67.98    5.82
   5  -3   0   92.41   11.71
   5  -3   0   95.83   11.53
  -2  -3   0   89.04    8.61
  -5   2   0   93.01    7.11
  -2   5   0  101.81   10.03
   2   3   0   86.02    4.84
  -5   3   0   89.24   11.00
  -5   3   0   97.39    8.48
  -3   5   0   91.40    4.25
   5  -3   0   84.36   10.82
   5  -3   1  273.28   18.18
  -2   5   1  274.52   16.29
  -3  -2   1  270.68   14.11
   2   3  -1  273.44   10.94
   5  -2   1  279.73   17.42
   3   2  -1  275.87   18.43
   5  -3   1  272.44   18.16
  -5   2  -1  275.50   17.76
   3   2  -1  270.61   11.21
  -5   3  -1  278.37   18.61
   3  -5  -1  270.53   19.67
   5  -3   1  279.87   17.88
   2  -5  -1  272.06   19.88
   5  -2   1  276.57   17.90
   5  -3   1  279.39   18.68
   5  -2   1  270.67   19.10
  -2   5   1  278.81   17.04
  -2  -3   1  276.56   15.25
  -3   5   1  271.55   10.86
   5  -3   1  278.93   11.40
  -2  -3   1  275.80   19.03
   3  -5  -1  270.93   18.27
   2  -5  -1  270.91   18.27
   2  -5  -1  267.18   17.06
  -2   5   1  269.89   15.38
  -5   2  -1  269.23   18.93
  -2  -3   1  273.87   17.70
  -5   3  -1  271.15   19.33
  -3  -2   1  272.48   18.90
   2   3  -1  272.65   18.55
   3   2  -1  267.75   18.71
   3  -5  -1  269.87   18.21
   2   3  -1  268.20   15.56
  -5   2  -1  275.95   18.87
   2  -5  -1  275.23   17.11
   5  -2   1  274.38   18.85
  -5   3  -1  266.24   19.16
  -5   2  -1  265.08   10.49
  -3   5   1  269.88   18.94
   3  -5  -1  273.89   19.12
  -2  -3   1  277.88   19.11
  -2   5   1  268.57   18.23
  -3  -2   1  274.68   19.70
  -3   5   1  274.03   17.95
   2   3  -1  275.59   18.09
   3   2  -1  279.74   15.21
  -3   5   1  270.09   18.29
  -3   5   1  275.92    9.04
  -5   3  -1  274.07   13.16
  -2  -3   1  274.88   18.82
  -3  -2   1  274.78   21.40
  -2   5   1  274.64    8.63
  -5   2  -2  540.54   20.98
   5  -2   2  542.48   20.41
   5  -3   2  537.42   21.88
  -5   3  -2  539.77   21.44
  -2   5   2  538.86   19.67
   3  -5  -2  534.65   22.56
   2  -5  -2  537.36   22.40
   2   3  -2  538.61   14.69
   5  -2   2  534.92   20.22
  -3   5   2  540.11   13.18
   5  -3   2  544.25   13.84
   5  -3   2  542.26   20.64
   3   2  -2  537.25   19.04
  -3  -2   2  541.57   22.10
  -2  -3   2  536.22   20.82
   3  -5  -2  538.71   21.05
   2   3  -2  541.29   21.50
   3   2  -2  536.55   14.70
   2  -5  -2  542.70   19.99
  -3   5   2  538.85   21.45
  -2  -3   2  533.70   22.39
  -2   5   2  539.81   16.80
  -5   2  -2  535.67   22.45
  -3  -2   2  534.53   14.32
  -2  -3   2  535.21   21.99
  -5   3  -2  537.91   22.66
  -3  -2   2  539.85   22.57
   2   3  -2  533.28   21.41
   3   2  -2  537.65   22.29
   3  -5  -2  536.08   21.05
   2   3  -2  535.03   19.59
  -5   2  -2  535.29   21.63
   5  -2   2  537.75   21.17
   2  -5  -2  535.63   20.65
   3   2  -2  533.09   21.87
   2  -5  -2  533.63   21.68
  -3   5   2  537.41   21.02
   3  -5  -2  539.08   21.75
  -5   3  -2  536.24   22.34
  -2   5   2  535.48   20.75
  -3  -2   2  537.36   21.48
   5  -2   2  538.04   21.63
  -2  -3   2  536.38   19.96
   5  -3   2  530.26   21.97
  -2  -3   2  534.11   19.34
  -2   5   2  532.35   21.31
  -5   2  -2  536.49   10.31
   5  -3   2  533.54   21.76
  -5   3  -2  531.05   14.73
  -3  -2   2  539.96   23.66
  -3  -2   3  172.70   16.06
   3  -5  -3  214.10   15.76
   5  -2   3  188.44   14.94
   5  -3   3  212.26   16.34
  -5   2  -3  202.62   15.58
  -5   3  -3  199.97   15.88
   3  -5  -3  202.69   16.64
  -5   2  -3  178.46   15.10
  -2  -3   3  191.40   10.16
   2  -5  -3  191.80   16.59
  -3  -2   3  197.17    8.65
   2  -5  -3  198.48   15.14
  -3   5   3  195.65   15.42
  -3   5   3  201.08   10.41
   5  -3   3  200.24   10.65
   5  -2   3  189.03   13.81
  -5   2  -3  182.05    5.96
   2   3  -3  194.20   11.53
  -2   5   3  199.92   12.45
   5  -2   3  197.35   12.57
   3  -5  -3  195.36   15.27
   2   3  -3  204.11   14.55
  -3  -2   3  209.69   17.23
   5  -3   3  210.49   15.07
  -2  -3   3  192.41   15.23
   2  -5  -3  213.06   15.55
   2  -5  -3  199.86   14.13
  -5   2  -3  197.03   15.65
  -3  -2   3  182.53   10.76
  -2  -3   3  222.11   16.98
  -2   5   3  187.96   10.75
  -5   3  -3  198.87   16.12
  -2  -3   3  193.90   15.66
   3   2  -3  198.90   11.83
  -3  -2   3  198.87   15.82
   2   3  -3  191.76   15.90
   3   2  -3  178.90   15.58
  -5   3  -3  199.66   16.06
   3  -5  -3  190.89   15.63
   5  -2   3  201.74   15.42
   5  -3   3  190.78   14.92
  -3   5   3  191.06   16.29
  -3   5   3  198.72   15.28
  -2   5   3  199.75   15.52
   2   3  -3  206.93   15.88
   3   2  -3  195.06   15.27
   3   2  -3  211.17   14.63
  -2  -3   3  196.69   15.19
  -3  -2   3  199.60   15.34
  -2   5   3  204.89   15.38
   5  -2   3  206.50   15.69
   3   2  -3  193.99   13.56
   5  -3   3  196.60   15.53
  -2  -3   3  189.93   14.25
  -2   5   4  327.76   19.19
  -2   5   4  321.84   18.18
   5  -2   4  286.89   18.62
  -3  -2   4  297.10    8.04
  -5   2  -4  319.51   19.67
   2   3  -4  319.82   18.81
  -5   3  -4  325.69   20.71
  -2  -3   4  317.31   11.74
  -3  -2   4  324.35    8.67
   3   2  -4  301.07   18.24
  -3   5   4  292.80   13.52
   5  -3   4  325.32   14.56
   3  -5  -4  319.40   18.67
  -2   5   4  293.03   15.33
   5  -2   4  304.89   16.06
   3  -5  -4  282.40   17.92
   2   3  -4  305.49   15.54
  -3  -2   4  303.00   20.27
  -2  -3   4  348.32   20.37
   5  -2   4  307.51   16.69
   2  -5  -4  330.13   17.78
   5  -3   4  321.07   18.24
  -5   3  -4  318.35   19.81
  -2   5   4  296.95   18.64
  -2  -3   4  266.44    9.15
  -2   5   4  300.10   12.42
  -3  -2   4  280.79   12.24
   2   3  -4  319.45   20.57
   3   2  -4  293.80   19.55
   3   2  -4  307.23   15.84
   3  -5  -4  305.41   19.78
  -5   2  -4  334.98   20.58
   2  -5  -4  326.85   19.90
  -3  -2   4  247.66   18.97
   2  -5  -4  316.91   18.74
  -2  -3   4  316.84   18.92
   5  -2   4  319.86   19.11
   5  -3   4  299.89   18.62
  -3  -2   4  324.85   19.17
  -5   2  -4  274.84    6.93
   3   2  -4  323.69   18.22
  -2  -3   4  302.96    9.57
   5  -2   4  330.00   19.12
  -2  -3   4  312.00   18.87
   2   3  -4  331.46   19.13
  -5   2  -4  281.87    7.02
  -3   5   4  320.35   20.71
  -2   5   4  341.01   21.34
  -2  -3   4  320.46   19.94
  -3   5   4  314.67   18.83
   5  -3   4  275.97   17.68
   3   2  -4  322.05   19.15
   2   3  -4  352.48   22.58
   2  -5  -5  420.85   21.56
   3   2  -5  409.02   21.28
  -5   3  -5  402.02   23.13
  -2  -3   5  378.03   10.53
  -3   5   5  404.27   22.15
   5  -3   5  443.24   18.27
   3  -5  -5  403.89   23.04
  -2   5   5  407.55   20.24
   3  -5  -5  417.06   21.30
  -2   5   5  367.40   17.96
  -2   5   5  401.13   21.00
   5  -2   5  415.89   19.39
   2   3  -5  398.40   19.31
   5  -2   5  433.72   21.93
   2  -5  -5  398.49   19.00
  -3  -2   5  391.15   23.21
   2  -5  -5  411.27    8.95
  -2  -3   5  385.46   21.92
   5  -2   5  392.82   18.47
   5  -3   5  392.32   20.31
  -2  -3   5  359.21    7.32
  -2   5   5  427.46   12.82
   2   3  -5  407.56   23.55
   3   2  -5  418.39   23.41
  -3  -2   5  401.84   13.52
   5  -2   5  412.53   21.17
   5  -3   5  425.20   21.58
  -3   5   5  425.19   21.58
   2  -5  -5  410.74   22.95
   3  -5  -5  420.76   21.72
  -5   2  -5  382.62   22.64
   2   3  -5  402.84   21.04
  -3   5   5  422.79   17.48
   3   2  -5  396.69   21.08
  -2  -3   5  437.22   22.10
  -3  -2   5  420.12   21.56
  -3   5   5  390.37   13.95
   5  -3   5  397.61   21.17
  -5   2  -5  384.87    9.13
  -2  -3   5  382.69   22.15
   3   2  -5  384.00   19.27
  -3   5   5  404.87   23.56
  -2   5   5  419.50   23.80
  -2  -3   5  414.02   23.10
  -3  -2   5  419.86   24.54
  -5   2  -6 1923.21   49.88
  -5   3  -6 1878.29   49.43
  -3   5   6 1885.18   38.75
   3  -5  -6 1942.75   50.41
  -5   3  -6 1863.56   43.10
   3  -5  -6 1902.56   44.63
  -2   5   6 2009.30   43.12
   5  -2   6 1913.99   42.56
   2   3  -6 1843.76   43.01
   2  -5  -6 1887.80   40.63
   5  -3   6 1915.82   44.94
  -3  -2   6 1983.02   50.19
  -2   5   6 1797.89   20.00
   2  -5  -6 1886.93   24.84
  -2  -3   6 1868.25   47.60
  -2   5   6 1813.69   43.18
  -2  -3   6 1919.92   45.34
   5  -2   6 1865.87   39.15
   5  -3   6 1756.06   42.14
   5  -3   6 1890.27   39.48
   3   2  -6 1957.49   44.39
  -2   5   6 1825.83   20.18
   2   3  -6 1898.19   49.75
   3   2  -6 1869.37   49.31
  -3   5   6 1900.36   26.81
  -3  -2   6 1848.80   26.72
   5  -2   6 1952.69   44.96
   5  -3   6 1913.82   44.85
  -3   5   6 1956.12   45.00
  -2   5   6 1966.83   45.08
   2  -5  -6 1884.93   44.62
   3  -5  -6 1887.56   44.79
   3   2  -6 1904.69   44.76
   2   3  -6 1889.83   44.45
  -3  -2   6 1895.03   44.85
   5  -2   6 1910.96   44.80
  -5   2  -6 1857.72   23.01
  -2  -3   6 1888.59   48.95
  -3   5   6 1931.31   50.31
  -2   5   6 1901.53   49.38
  -2  -3   6 1945.31   49.73
  -3  -2   6 1900.58   50.58
   2  -5  -6 1962.35   50.36
  -3  -2   7  578.42   14.11
  -5   2  -7  661.44   30.97
   2  -5  -7  609.08   16.82
  -5   3  -7  590.75   29.57
   3  -5  -7  681.87   31.76
  -5   3  -7  603.13   19.98
  -3   5   7  613.41   24.00
   5  -3   7  573.44   23.63
   3  -5  -7  609.48   26.55
   2   3  -7  613.26   26.55
  -5   3  -7  576.52   24.96
   2  -5  -7  649.39   24.67
   3  -5  -7  617.14   17.03
   5  -2   7  623.03   25.91
   5  -3   7  604.26   25.48
  -3  -2   7  619.70   30.06
  -5   2  -7  589.92   15.08
  -2  -3   7  612.30   29.31
  -2  -3   7  644.29   30.59
  -3   5   7  618.96   25.69
   5  -2   7  612.85   23.01
   5  -3   7  593.74   25.25
   5  -2   7  648.53   26.81
   3   2  -7  617.79   25.85
   2   3  -7  645.95   30.87
   3   2  -7  651.35   30.41
  -3   5   7  577.04   12.12
  -2   5   7  628.15   26.69
  -2   5   7  623.87   25.89
   2  -5  -7  720.85   32.12
   3  -5  -7  628.44   26.13
  -2   5   7  668.50   26.61
  -2  -3   7  617.24   26.26
  -3  -2   7  629.46   26.28
   5  -2   7  623.00   26.18
   5  -3   7  624.75   25.92
   2  -5  -7  622.26   26.16
   2   3  -7  636.64   26.18
  -2  -3   7  600.30   29.50
  -3   5   7  591.28   29.54
  -2   5   7  628.61   29.80
  -3  -2   7  589.38   29.68
   3   2  -7  596.26   26.66
  -5   2  -8  317.57   23.28
  -5   3  -8  331.48   23.57
  -3   5   8  295.36   18.18
   2   3  -8  322.36   20.75
   5  -3   8  320.51   19.24
  -5   2  -8  308.19   17.09
   3  -5  -8  328.90   20.58
  -2   5   8  328.42   20.26
   5  -2   8  328.38   20.47
   2  -5  -8  318.37   18.26
  -5   3  -8  339.01   19.77
   3  -5  -8  304.02   13.98
   2  -5  -8  316.41   13.93
  -3  -2   8  286.27   21.62
  -2  -3   8  322.80   22.63
  -3  -2   8  310.28   18.82
   5  -2   8  304.15   18.53
  -5   3  -8  313.61   15.37
   5  -3   8  297.06   18.75
   5  -2   8  346.02   17.74
   2   3  -8  322.08   22.99
   3   2  -8  329.70   23.23
   5  -3   8  317.35   18.79
   5  -2   8  316.52   18.82
   3  -5  -8  310.86   22.93
  -3   5   8  322.48   18.95
   2  -5  -8  302.23   22.38
   2  -5  -8  314.71   18.73
   3   2  -8  313.97   19.10
  -2  -3   8  346.32   24.05
  -5   2  -8  295.81   12.32
  -2  -3   8  310.86   18.82
  -3  -2   8  294.25    9.60
   5  -3   8  293.86   18.27
   3   2  -8  315.44   21.07
   3  -5  -8  320.66   18.95
  -2   5   8  315.05   18.70
  -2  -3   8  332.79   23.44
  -3   5   8  316.38   23.28
  -2   5   8  312.49   22.40
   2   3  -8  313.63   18.94
  -3  -2   8  312.14   23.13
   2  -5  -8  311.88   10.44
  -5   3  -9  685.26   33.56
   2  -5  -9  750.10   35.28
  -2  -3   9  685.39   27.34
  -5   2  -9  680.70   33.77
   2   3  -9  625.10   29.87
  -2  -3   9  686.40   34.54
  -3   5   9  689.08   28.54
   5  -3   9  741.67   29.99
  -2   5   9  693.80   30.42
   5  -2   9  667.54   30.06
   3  -5  -9  723.48   34.59
   2  -5  -9  689.04   26.32
  -5   2  -9  662.56   24.93
   5  -3   9  689.33   27.48
   3  -5  -9  635.87   21.69
  -2   5   9  684.20   33.33
   2  -5  -9  614.22   21.22
  -3  -2   9  681.63   33.40
  -2  -3   9  644.33   32.47
  -3   5   9  624.92   32.50
   2   3  -9  670.57   33.68
   3   2  -9  672.45   32.78
   5  -3   9  654.50   27.82
   5  -2   9  669.93   24.94
   5  -2   9  668.46   26.84
   2  -5  -9  652.72   26.54
  -2   5   9  693.57   27.20
   3  -5  -9  659.89   26.65
   2   3  -9  667.93   26.77
   3   2  -9  671.82   27.18
   5  -3   9  668.19   26.82
  -3  -2   9  674.29   26.74
   3   2  -9  602.91   29.93
  -5   3  -9  641.30   23.18
  -5   2  -9  637.18   19.74
  -2  -3   9  723.68   35.01
  -3  -2   9  653.41   33.53
   2  -5  -9  620.58   16.90
  -3   5   9  696.50   27.39
   5  -2   9  670.74   27.14
   2   3 -10  591.10   31.09
  -5   2 -10  622.51   33.13
  -5   3 -10  630.21   33.29
  -3   5  10  629.39   33.65
  -3   5  10  596.92   28.25
  -2   5  10  474.09   26.42
   2  -5 -10  608.99   25.76
  -5   2 -10  569.38   23.58
   3  -5 -10  574.95   22.35
  -2  -3  10  600.99   33.51
  -2   5  10  677.30   26.66
  -5   3 -10  588.49   23.50
   2  -5 -10  611.99   23.17
  -2  -3  10  630.31   33.14
   2   3 -10  617.42   32.95
   3   2 -10  659.26   33.03
   5  -3  10  629.13   27.85
   5  -2  10  610.61   30.07
   5  -2  10  597.79   24.21
  -3   5  10  653.28   26.30
   5  -2  10  629.50   25.66
   3  -5 -10  632.58   33.65
   5  -3  10  607.67   25.26
  -3  -2  10  659.77   34.24
   2  -5 -10  665.13   34.58
  -2   5  10  622.45   32.88
   2   3 -10  617.73   25.74
   3  -5 -10  613.35   25.66
   3   2 -10  630.85   25.90
   5  -2  10  646.81   26.46
  -2  -3  10  642.08   26.24
   5  -3  10  655.02   26.45
   2  -5 -10  611.40   25.64
  -3  -2  10  626.85   25.83
   5  -3  10  557.48   27.66
   3   2 -10  704.35   33.87
  -5   2 -10  611.10   21.21
  -2  -3  10  638.89   33.96
  -3  -2  10  662.67   34.89
   2   3 -11  349.91   25.47
   5  -2  11  389.95   20.30
  -5   2 -11  368.84   27.24
  -5   3 -11  367.72   27.14
  -2   5  11  384.62   25.34
   5  -3  11  388.51   24.78
   5  -3  11  374.16   22.41
   5  -2  11  430.03   26.84
   2  -5 -11  373.80   21.21
   3  -5 -11  424.02   29.23
   5  -3  11  400.50   20.72
  -2  -3  11  378.56   27.38
  -2   5  11  391.59   20.36
  -3   5  11  404.94   28.47
   3   2 -11  367.08   19.93
  -2  -3  11  398.39   20.64
   2   3 -11  384.38   27.18
   3   2 -11  357.98   25.69
  -3  -2  11  384.40   27.84
  -3   5  11  384.85   20.30
   5  -3  11  400.96   20.54
   2  -5 -11  398.26   27.97
   5  -2  11  381.25   20.19
   2   3 -11  373.03   20.02
   5  -2  11  393.63   20.77
  -3  -2  11  373.71   19.99
  -2  -3  11  397.95   28.53
  -2   5  11  409.12   28.27
  -3   5  11  277.43   20.91
  -2  -3  11  403.81   28.88
  -3  -2  11  395.74   28.86
   3   2 -11  379.79   26.91
   3  -5 -12   21.22   12.29
  -2  -3  12   10.61    8.38
  -2   5  12   25.22   11.50
   2  -5 -12   20.28   11.89
  -5   2 -12    9.12   10.36
  -5   3 -12   27.91   11.72
  -3   5  12    4.37    6.73
   5  -3  12   12.04    9.82
  -2   5  12   16.04    9.46
   5  -2  12   12.31   10.23
   5  -3  12   17.25    7.35
  -3  -2  12   13.29   11.22
  -2  -3  12   18.45   11.34
   5  -3  12    6.39    6.93
  -3   5  12    8.91   10.68
   3   2 -12   14.19   10.83
   2   3 -12   21.51   11.43
   2   3 -12   13.40    6.34
   5  -2  12   14.62    7.27
   2   3 -12   11.81   10.79
   3   2 -12    5.68    9.59
  -2   5  12    3.54    5.09
   3   2 -12   14.52    6.74
  -3   5  12    5.36    6.01
   5  -2  12    6.33    5.76
   2  -5 -12   14.23    7.73
  -2  -3  12   13.41    9.83
  -3  -2  12    7.44    9.96
  -3   5  13   47.50   13.79
  -2   5  13   44.56   13.01
   2  -5 -13   58.44   13.94
  -5   2 -13   49.42   14.30
  -5   3 -13   48.77   13.95
  -3   5  13   35.38   10.57
   5  -3  13   53.82   12.64
   2   3 -13   46.94   13.61
  -2   5  13   53.47   13.48
   5  -2  13   48.32   13.15
   2   3 -13   44.26   12.71
  -3  -2  13   49.59   14.68
  -2  -3  13   67.48   15.65
   3  -5 -13   46.53   13.52
   5  -3  13   47.75   10.85
   3   2 -13   40.19   12.86
   5  -2  13   61.12   10.52
   3   2 -13   41.33   13.17
  -3  -2  13   52.73   13.77
  -3  -2  14  301.94   29.82
  -5   2 -14  301.51   30.29
  -5   3 -14  300.31   27.21
  -3   5  14  300.89   26.46
   5  -3  14  300.48   27.31
  -2   5  14  300.23   26.75
   5  -2  14  300.45   28.53
   2  -5 -14  300.12   29.70
  -3  -2  14  300.34   28.33
  -2  -3  14  300.96   30.89
   2   3 -14  300.79   27.84
   3   2 -14  300.80   27.38
   3  -5 -14  300.79   29.76
   3   2 -14  301.08   28.15
  -3   5  14  301.06   29.99
  -2   5  14  301.73   28.26
   2   3 -14  302.14   30.62
   5  -3  14  301.92   24.39
  -2   5  15   47.75   12.80
   3  -5 -15   53.79   14.95
   2  -5 -15   52.92   15.99
   2   3 -15   68.71   16.56
  -5   2 -15   64.69   16.09
  -5   3 -15   69.30   16.52
  -3   5  15   64.01   14.74
   5  -3  15   64.39   15.25
  -2   5  15   80.32   16.93
   5  -2  15   61.03   14.53
  -3  -2  15   53.63   14.89
  -2  -3  15   61.35   16.53
   3   2 -15   53.82   15.26
   3   2 -15   57.66   14.84
   2   3 -15   68.14   15.21
  -3   5  15   43.99   14.73
  -2   5  16  101.73   18.80
  -5   2 -16   98.88   18.44
  -5   3 -16  115.70   19.40
   3   2 -16   98.73   17.60
  -3   5  16  100.17   17.95
   5  -3  16  106.68   18.47
  -2   5  16   74.66   16.59
   5  -2  16  107.03   18.96
   2   3 -16   93.23   17.18
   3  -5 -16  110.98   19.46
  -5   2 -17   84.35   17.39
   3   2 -17  120.29   19.25
   2   3 -17  110.26   18.76
  -5   3 -17   88.32   16.94
   4  -5  17   17.23   10.28
   5  -4 -17   16.54   12.96
  -4   5 -16  455.99   32.10
  -4   5 -16  452.09   34.18
  -1   5 -16  467.13   35.58
   5  -4 -16  459.55   33.71
   4  -5  16  447.44   33.90
   1   4  16  427.23   31.22
  -1  -4 -15    7.54   11.14
  -4  -1 -15    3.18    9.07
  -1  -4 -15   -1.06    9.64
  -4  -1 -15    2.71   10.15
   1   4  15   -4.29   10.07
   4   1  15   13.12   12.59
  -5   1  15   -2.55   10.15
   5  -4 -15    8.20   10.70
  -4   5 -15   -0.38    9.56
   5  -1 -15    5.59    8.80
  -1   5 -15    1.12   10.44
   4  -5  15   12.22   11.46
   1   4  15   10.49   11.28
   5  -1 -15   -5.53   12.59
  -4   5 -15    5.80    9.95
   1  -5  15   -7.15   10.10
  -5   1  15  -10.76   11.02
  -5   4  15   -0.27   10.08
  -5   4  14  105.19   18.86
   1   4  14   83.85   14.68
  -4  -1 -14   93.11   13.30
   4  -5  14   70.70   15.09
  -1  -4 -14   92.39   17.59
  -4  -1 -14  107.25   18.63
  -1  -4 -14   94.80   17.48
  -4  -1 -14   77.83   16.72
  -4   5 -14   91.18   15.11
   1   4  14   96.56   17.94
   4   1  14  120.64   19.57
  -1  -4 -14  105.66   14.88
  -5   1  14   96.04   16.82
  -5   4  14   81.60   14.16
  -1   5 -14   91.66   17.05
   5  -1 -14   96.56   15.14
   5  -4 -14   96.92   17.16
   1  -5  14   75.14   16.65
   5  -1 -14   75.91   18.35
  -4   5 -14  108.16   16.97
  -5   1  14   72.26   15.84
  -5   1  14   75.60   16.19
  -5   4  13    5.11    9.15
  -5   1  13   14.88   12.96
   5  -1 -13   -1.42   10.93
   5  -1 -13   12.66    9.84
  -1  -4 -13   12.62   11.60
  -4  -1 -13    6.58    9.22
  -4  -1 -13   11.82   11.52
  -4   5 -13   10.46   10.15
  -4  -1 -13    1.16    6.88
   1   4  13   10.03   11.52
   4   1  13    9.54   11.07
  -5   1  13    4.42   10.38
  -5   4  13    7.36    8.13
   4  -5  13   13.36    9.88
  -1   5 -13    5.18    9.50
   1   4  13    7.48    8.76
   1  -5  13   11.53   10.63
   5  -1 -13    5.76    7.17
   5  -4 -13   -0.97    9.45
  -5   1  13    4.05   10.21
  -4  -1 -12 1861.13   61.65
  -4   5 -12 1842.79   56.17
  -1   5 -12 1715.43   43.79
   5  -1 -12 1865.53   62.13
   1   4  12 1696.64   58.66
   4   1  12 1831.84   60.84
   5  -4 -12 1794.92   43.81
  -5   1  12 1716.82   57.40
  -5   4  12 1746.22   50.04
  -1   5 -12 1769.39   43.05
  -1   5 -12 1899.34   61.45
   5  -1 -12 1802.11   48.21
   5  -4 -12 1708.28   56.03
   5  -1 -12 1809.36   53.34
   1  -5  12 1816.87   61.20
  -4   5 -12 1806.93   43.40
   1   4  12 1846.29   44.13
   4  -5  12 1826.59   58.28
   4   1  12 1838.33   44.12
   5  -1 -12 1877.62   45.06
  -1  -4 -12 1819.12   60.92
  -5   1  12 1879.73   61.68
  -5   4  12 1906.31   62.70
   1   4  12 1715.26   51.96
  -5   1  12 1776.49   58.59
  -5   4  12 1815.91   49.37
  -4  -1 -12 1914.71   46.92
  -5   1  11   12.42    9.20
  -5   4  11   18.80    7.65
  -5   4  11   37.93   13.08
  -1  -4 -11   22.02   10.97
  -4  -1 -11   32.08   12.71
  -1   5 -11   29.49   10.30
   1   4  11   32.62   12.48
   4   1  11   24.33   11.14
  -1   5 -11   19.88    9.96
  -5   1  11   28.62   11.16
  -5   4  11   21.22    8.25
   1  -5  11   40.53   12.15
   4  -5  11   17.41    9.99
   5  -1 -11   31.89   12.41
  -4   5 -11   21.02    7.31
   1  -5  11   23.44   11.67
  -1   5 -11   18.39    7.02
   1   4  11   21.88    7.29
   4   1  11   26.35    7.52
  -4   5 -11   27.64   11.17
   5  -1 -11   18.26    7.59
   5  -1 -11   23.42    8.43
   5  -1 -11   34.23   10.44
   5  -4 -11   25.71    7.88
   1   4  11   26.36    9.60
   5  -4 -11   43.22   12.72
  -5   1  11   30.89   11.70
  -4  -1 -11   28.19    7.92
  -5   4  10   19.11   10.63
  -4   5 -10   13.65    6.81
  -1  -4 -10    7.98    9.32
  -5   1  10   18.61    9.98
  -4  -1 -10    9.07   10.23
   1  -5  10   12.65    6.21
  -4   5 -10   19.67    9.53
  -1   5 -10   19.46    8.94
   1   4  10   16.61   10.60
   4   1  10   18.34   10.58
   5  -1 -10   19.98    9.30
  -5   1  10   20.65   10.32
  -5   4  10   10.63    6.97
   1  -5  10   20.58    9.53
  -1  -4 -10   18.63    7.12
   4  -5  10   13.17    8.90
   5  -1 -10   17.88   10.62
  -4  -1 -10   15.70    6.20
   5  -4 -10   13.97    6.95
  -5   4  10   18.78    7.47
  -1   5 -10   15.76    9.34
  -5   4  10   16.09    6.36
   4  -5  10    9.51    6.61
   1  -5  10   18.64    9.34
  -4  -1 -10   19.18    7.52
   5  -4 -10   11.07    7.51
   5  -1 -10   24.40    7.74
  -1   5 -10   20.86    7.33
   1   4  10   17.46    7.64
   4   1  10   14.78    7.20
   1  -5  10   23.31    7.35
  -4   5 -10   12.61    6.99
   5  -1 -10   14.72    7.32
   5  -1 -10   24.08    8.28
  -4  -1 -10   24.15    7.36
   5  -4 -10   26.64   10.29
   4   1  10   18.45    5.72
   1   4  10   20.51    8.84
  -5   1  10   13.37    8.91
  -5   4   9    0.21    6.04
  -4  -1  -9    0.86    5.90
  -5   1   9    0.85    7.90
  -5   4   9    0.30    8.39
   1   4   9    0.27    7.11
  -5   1   9    0.86    5.86
  -1  -4  -9    0.95    8.49
  -4  -1  -9    0.90    8.75
   1  -5   9    0.79    6.18
   5  -1  -9    0.11    1.79
  -4   5  -9    0.40    9.14
  -1   5  -9    0.53    9.06
  -5   4   9    0.66    4.87
   5  -1  -9    0.30    6.38
  -4  -1  -9    0.58    5.11
   5  -4  -9    0.87    6.95
   4   1   9    0.58    3.93
   1   4   9    0.37    9.41
   4   1   9    0.24   10.09
  -5   1   9    0.17    8.54
  -5   4   9    0.44    6.72
   1  -5   9    0.66    7.75
   5  -4  -9    0.56    8.34
   4  -5   9    0.19    8.26
   5  -1  -9    0.89    7.71
   5  -1  -9    0.54    9.16
   1   4   9    0.30    5.98
   1  -5   9    0.11    8.00
  -4  -1  -9    0.29    6.24
  -1   5  -9    0.56    6.29
   5  -1  -9    0.49    5.64
  -4   5  -9    0.37    5.81
   1  -5   9    0.74    6.07
   4   1   9    0.70    6.56
  -1  -4  -9    0.88    7.22
  -4   5  -9    0.17    5.64
  -1   5  -9    0.79    7.69
   5  -4  -9    0.27    6.46
   5  -1  -9    0.64    7.65
   4  -5   9    0.54    5.61
  -5   1   9    0.00    7.45
  -4  -1  -8  596.05   26.27
  -5   1   8  615.16   30.93
  -4  -1  -8  657.83   31.98
  -1  -4  -8  638.35   32.02
   5  -1  -8  567.75   12.81
   1  -5   8  593.73   23.95
  -4   5  -8  587.53   29.56
   5  -4  -8  603.03   26.89
  -1   5  -8  610.42   25.01
   5  -4  -8  580.93   25.98
   5  -4  -8  625.49   25.10
  -4   5  -8  615.99   24.91
   1   4   8  544.15   29.25
   4   1   8  536.11   29.15
  -5   1   8  572.01   25.61
  -5   1   8  609.25   30.45
  -5   4   8  594.13   24.72
   1  -5   8  605.59   28.19
   5  -1  -8  630.46   26.92
   4   1   8  593.34   16.59
  -1  -4  -8  584.19   14.02
   5  -1  -8  638.47   26.41
   1  -5   8  582.37   25.78
  -1   5  -8  591.02   30.86
  -4   5  -8  578.29   24.38
  -5   4   8  598.65   23.38
   4  -5   8  651.57   31.61
   5  -4  -8  628.97   31.13
  -5   1   8  602.56   29.55
  -4  -1  -8  589.87   25.25
   5  -1  -8  580.45   28.51
   5  -1  -8  585.17   26.04
  -1   5  -8  621.22   26.50
   4  -5   8  604.31   26.26
   1  -5   8  619.89   31.86
   4   1   8  602.58   26.42
  -1  -4  -8  599.77   26.47
  -5   4   8  638.37   31.40
   1   4   8  610.86   26.48
   5  -1  -8  624.92   31.27
   1   4   8  598.80   27.22
  -5   4   8  651.06   25.26
  -4   5  -8  601.69   26.58
  -5   4   7  117.24   10.41
  -5   4   7  116.37   13.27
   1   4   7  119.24   12.14
   5  -1  -7  116.53    5.83
  -1   5  -7  118.98   11.63
  -1  -4  -7  118.67   14.13
   5  -4  -7  118.59   13.67
  -1   5  -7  115.37   16.43
   5  -1  -7  117.25   11.82
  -4  -1  -7  111.54   13.49
   5  -4  -7  114.63    9.82
  -4   5  -7  117.15    9.87
   1  -5   7  110.31    9.65
  -4   5  -7  115.77   13.16
  -5   1   7  118.91   15.77
   5  -1  -7  112.07   14.67
   1   4   7  119.41   13.27
   4   1   7  118.01   13.86
  -5   4   7  118.37   10.49
   4  -5   7  119.60   12.52
   5  -4  -7  117.63   13.92
   1  -5   7  111.38   12.22
  -1  -4  -7  111.92    6.74
  -4   5  -7  111.29   11.53
   5  -1  -7  111.36   12.84
   5  -1  -7  113.39   11.01
   1  -5   7  110.37   13.30
  -5   1   7  112.41   11.43
   1   4   7  110.43    7.02
  -1   5  -7  115.11   13.98
   1   4   7  115.11   12.06
   4   1   7  111.95    5.79
   1  -5   7  118.82   11.70
  -5   4   7  111.79    9.99
  -4  -1  -7  114.25   11.14
  -4   5  -7  114.42   11.75
   5  -4  -7  113.98   10.91
   4  -5   7  112.49   11.59
   4   1   7  115.18   11.41
  -1  -4  -7  111.28   11.41
   5  -1  -7  111.75   11.62
  -4  -1  -7  111.01   11.04
  -5   1   7  114.89   17.68
  -5   1   7  115.77   12.00
  -5   1   6   23.73   15.29
   5  -1  -6   79.23    6.26
   1  -5   6   85.98   10.15
   5  -4  -6   87.40   11.75
  -1   5  -6   87.78   11.70
  -1  -4  -6   86.73   13.08
   5  -4  -6   77.31    8.89
  -4   5  -6   72.11    8.47
  -5   4   6   88.03   12.99
   4   1   6   76.96   11.06
   5  -1  -6   75.25   11.35
  -4   5  -6   79.14   13.03
   4  -5   6   80.75   12.73
  -4  -1  -6   77.98   12.44
  -5   1   6   43.19   12.76
  -1   5  -6   96.81   14.20
  -1   5  -6   64.88    3.60
   1   4   6   95.10   13.66
   4   1   6   95.17   14.02
  -4   5  -6   71.67   10.13
   1  -5   6   92.24   11.67
   5  -1  -6   88.68   11.24
  -1  -4  -6   77.83    7.33
  -4   5  -6   93.86   11.15
  -5   4   6   82.95   10.04
   1  -5   6   92.22   14.09
   1   4   6   79.91    7.67
  -1   5  -6   89.75   13.51
   4  -5   6  104.28   12.03
   4   1   6   76.50    4.75
  -1  -4  -6   94.65   11.80
  -5   4   6   70.64    8.97
   5  -1  -6   85.89   12.87
  -1  -4  -6   67.64    4.04
  -4  -1  -6   92.35   11.91
  -4   5  -6   76.49   10.78
   5  -4  -6   81.71   11.45
   1   4   6   87.87   11.55
   1  -5   6   87.89   11.36
   5  -1  -6   88.40   11.77
   5  -4  -6   78.32   12.80
   1   4   6   98.89   11.91
  -5   4   6  109.76   11.64
  -4  -1  -6   69.94   10.59
  -5   1   6   92.02   11.76
  -5   1   6   83.79   10.88
   4   1   5    3.57    1.54
  -5   4   5   -6.87    9.73
  -5   4   5   -0.65    6.78
   5  -1  -5    1.54    5.74
  -4  -1  -5   -1.01    6.30
   1   4   5    2.87    6.43
  -1  -4  -5    1.68    6.90
  -4  -1  -5    5.35    6.97
  -1   5  -5    1.71    2.17
   5  -1  -5    4.26    3.54
   1  -5   5    4.56    5.45
  -4   5  -5    9.18    8.94
  -5   1   5    8.33    5.37
  -1   5  -5   27.30    9.42
   4  -5   5   12.42    9.19
   5  -4  -5    3.38    4.04
  -4   5  -5    6.39    4.59
  -5   1   5    0.01   11.31
  -1   5  -5   -2.19    7.98
  -5   4   5   19.33    7.31
   1  -5   5    0.84    6.09
  -4   5  -5    4.75    6.71
   1   4   5    6.63    8.82
   4   1   5    0.76    8.61
  -4   5  -5    0.27    5.19
  -1  -4  -5    1.86    5.55
  -1   5  -5   15.77    8.42
  -5   4   5    1.79    5.10
   1  -5   5    2.55    7.00
  -1  -4  -5    2.63    2.34
  -5   1   5   13.59   12.98
   1   4   5   -0.01    4.13
   5  -1  -5   11.47    8.44
   4   1   5    2.79    1.47
  -5   4   5    3.64    6.02
   4   1   5    0.20    6.93
   5  -4  -5    3.39    6.68
  -1   5  -5    1.87    6.40
  -1  -4  -5    4.23    3.96
   4   1   5    6.76    7.22
   4  -5   5    4.03    6.60
   5  -4  -5    4.62    6.48
   5  -1  -5   -1.31    6.38
  -4  -1  -5    9.72    7.01
   1   4   5    7.72    7.00
   5  -4  -5   12.14    8.97
  -4   5  -5    1.29    5.56
  -1   5  -5   16.46    8.43
  -5   1   5    3.59    5.88
  -5   1   5   -0.36    5.67
   5  -1  -5    5.25    6.39
   1  -5   5   -3.10    5.58
  -5   1   5   -2.96    5.91
  -1  -4  -4 1281.56   35.59
  -5   4   4 1284.08   36.10
  -4  -1  -4 1266.15   36.19
  -4   5  -4 1218.60   38.97
   5  -1  -4 1283.54   32.22
   1   4   4 1217.10   17.55
   1  -5   4 1236.52   32.29
   5  -4  -4 1208.88   35.11
  -5   1   4 1293.24   25.68
  -5   4   4 1238.06   34.84
   1   4   4 1245.86   21.29
   5  -4  -4 1228.74   22.81
  -4   5  -4 1249.88   23.00
   4   1   4 1223.41   19.23
  -5   1   4 1235.86   35.87
  -5   1   4 1229.99   39.19
  -1   5  -4 1287.77   30.37
  -5   4   4 1200.68   29.81
   1  -5   4 1261.91   30.49
  -4   5  -4 1264.52   29.87
   4  -5   4 1205.14   38.49
   5  -1  -4 1217.91   34.37
  -1   5  -4 1231.92   36.74
  -1  -4  -4 1225.07   27.28
   1  -5   4 1202.19   21.91
   5  -4  -4 1295.87   38.44
  -4   5  -4 1201.54   33.72
  -5   1   4 1235.91   34.98
  -4  -1  -4 1263.83   34.68
   1   4   4 1249.52   28.02
  -5   4   4 1201.82   33.81
   5  -1  -4 1242.79   37.28
   1  -5   4 1226.99   38.18
  -5   4   4 1206.17   35.95
   4   1   4 1243.39   34.50
  -4   5  -4 1270.43   36.02
   5  -4  -4 1244.82   35.74
  -1  -4  -4 1251.98   21.08
   4  -5   4 1252.10   35.65
  -1   5  -4 1288.95   36.21
   1  -5   4 1270.92   36.05
   1   4   4 1259.29   36.20
  -1   5  -4 1242.58   21.01
  -1  -4  -4 1206.68   36.78
   4   1   4 1281.34   36.48
   5  -1  -4 1205.34   36.65
  -4  -1  -4 1267.10   36.19
  -5   1   4 1208.22   32.15
   4   1   4 1249.48   18.91
  -1   5  -4 1269.16   34.69
  -5   1   4 1231.07   40.63
  -5   4   4 1326.23   33.67
  -5   1   3    2.73   17.12
   4  -5   3    2.69    7.00
   4   1   3    2.02    1.91
   1   4   3    2.51    4.25
  -1  -4  -3    2.97    6.27
  -1   5  -3    2.00    3.69
  -1   5  -3    2.74   10.94
  -4  -1  -3    2.28    6.53
   5  -1  -3    2.71    3.91
  -5   1   3    2.83    7.10
   5  -4  -3    2.52    6.07
  -1   5  -3    2.77    7.68
  -5   1   3    2.45    6.98
   1  -5   3    2.62    6.71
  -4   5  -3    2.01    8.50
   4  -5   3    2.95    8.91
  -5   4   3    2.53   12.44
   5  -1  -3    2.84    5.09
   5  -4  -3    2.17    2.90
  -4   5  -3    2.49    2.85
   1   4   3    2.10    2.35
  -5   4   3    2.88    8.93
  -1   5  -3    2.05    8.32
  -1   5  -3    2.92    7.83
   1  -5   3    2.67    5.18
  -4   5  -3    2.25    4.91
  -4  -1  -3    2.74    2.77
   1   4   3    2.02    5.10
   1  -5   3    2.33    7.25
  -1  -4  -3    2.76    3.74
  -1  -4  -3    2.43    4.96
  -5   4   3    2.05    6.38
  -4  -1  -3    2.64    7.17
  -5   4   3    2.58    5.27
   5  -1  -3    2.74    8.15
   4   1   3    2.48    7.51
  -5   4   3    2.96    6.77
  -4   5  -3    2.77    7.48
   5  -4  -3    2.27    7.31
  -1   5  -3    2.09    6.85
   4  -5   3    2.67    6.79
   1   4   3    2.62    6.99
   1  -5   3    2.67    6.64
  -1  -4  -3    2.05    7.04
   4   1   3    2.80    3.39
   5  -1  -3    2.14    7.86
   5  -4  -3    2.22    7.70
  -4  -1  -3    2.14    7.12
  -5   1   3    2.05    6.59
   1  -5   3    2.57    4.00
  -4   5  -3    2.14    6.82
   4   1   3    2.65    7.86
  -5   1   3    2.82    5.77
  -4  -1  -2  201.25   16.25
   5  -1  -2  206.64   13.42
   4  -5   2  202.96   18.46
   5  -4  -2  205.69   17.49
  -5   1   2  209.91   14.51
   1  -5   2  208.66   16.94
  -4   5  -2  203.31   18.91
  -5   4   2  203.58   19.36
   5  -4  -2  201.90   19.94
  -4   5  -2  206.35    6.80
  -4   5  -2  208.76   17.96
   5  -4  -2  204.85   17.63
  -5   1   2  208.49   13.81
   1   4   2  200.95   12.54
   1  -5   2  203.31   13.18
  -5   1   2  203.95   15.88
  -1   5  -2  207.69   16.43
  -4   5  -2  208.77   10.62
   4  -5   2  204.15   18.75
  -4  -1  -2  209.40    8.36
   4  -5   2  204.30   16.89
  -1  -4  -2  209.04   14.63
  -1   5  -2  201.69   17.61
   5  -4  -2  207.35   18.16
  -5   1   2  204.20   17.77
   1   4   2  206.85   15.50
  -4  -1  -2  203.44   17.69
   1  -5   2  207.87   17.39
  -5   1   2  205.19   17.89
   1  -5   2  209.24   13.17
  -4   5  -2  204.46   17.65
  -4   5  -2  209.27   16.68
  -5   4   2  201.44   18.97
   4   1   2  200.00   18.08
   5  -1  -2  204.37   18.63
  -5   4   2  203.03   17.53
  -5   4   2  208.97   19.09
   1   4   2  200.90   17.89
   1  -5   2  202.50   17.63
  -1  -4  -2  202.60   18.68
   4   1   2  204.86   18.87
  -1   5  -2  203.51   18.51
   5  -1  -2  210.21   18.45
  -4  -1  -2  205.88   17.11
  -1  -4  -2  207.21   16.38
  -1   5  -2  206.22   12.68
  -5   1   2  202.13   18.22
  -1  -4  -2  202.11   12.32
   4   1   2  206.91    8.39
   4   1   2  207.32   11.92
   4  -5   2  203.67   18.42
   5  -1  -2  202.61   13.55
   1  -5   2  203.35   13.96
  -5   4   2  206.99   16.57
  -1   5  -2  205.38   13.86
  -1  -4  -2  207.19   15.86
  -4   5  -1   61.91   11.81
  -1  -4  -1   59.48    8.88
  -4  -1  -1   61.53    9.54
  -5   4   1   61.27    9.55
   1  -5   1   56.09    7.66
   5  -1  -1   61.93   11.22
   4  -5   1   61.56   12.33
   1  -5   1   60.16   12.62
  -1   5  -1   61.67   11.04
   4  -5   1   61.25   12.94
  -5   1   1   57.78    8.72
   5  -4  -1   58.65   10.27
   4  -5   1   61.54   11.35
   1   4   1   59.40    7.64
  -5   4   1   61.77   11.93
  -4   5  -1   60.49   14.45
   5  -1  -1   63.90    8.26
  -5   1   1   57.99    8.73
   1  -5   1   59.23    6.91
   5  -4  -1   62.76   11.06
   1  -5   1   63.20   10.67
  -1  -4  -1   64.63   10.62
   1  -5   1   67.35   12.39
  -1   5  -1   63.59   10.69
  -5   4   1   57.36   10.26
  -1  -4  -1   60.25    8.82
   1  -5   1   57.55    8.44
  -4  -1  -1   56.42    4.98
  -1  -4  -1   56.10    8.03
  -4  -1  -1   64.59   11.22
   5  -1  -1   54.82    6.53
   1   4   1   61.42    9.89
  -4  -1  -1   60.93    9.88
   5  -4  -1   60.18   10.72
  -5   1   1   60.40   10.57
   4   1   1   60.66   11.11
  -1  -4  -1   64.55    8.94
   5  -1  -1   59.49   11.78
  -5   4   1   64.26   10.10
   1   4   1   68.11   11.89
  -5   1   1   64.63    6.66
  -4   5  -1   85.46   12.10
   4   1   1   60.00    5.54
   5  -4  -1   75.70   11.21
  -5   1   1   58.27    9.75
  -1   5  -1   53.32   10.80
   4   1   1   58.58    7.26
   4  -5   1   74.75   11.42
   4   1   1   58.12   10.79
  -5   1   1   58.56   11.05
  -5   4   1   57.92   10.19
  -1   5  -1   64.71    9.26
  -4   5  -1   69.92   10.91
  -1   5  -1   67.01    8.47
  -5   1   0 7288.26   75.08
   5  -1   0 7715.15   77.91
  -4  -1   0 7761.40   72.62
   4   1   0 7661.21   73.32
   1  -5   0 8096.76   77.66
  -5   4   0 7689.14   90.96
  -5   1   0 7524.11   77.46
   5  -4   0 7741.45   89.80
   4  -5   0 7702.49   91.62
   4  -5   0 8000.02   93.28
  -5   1   0 7603.23   92.03
  -5   4   0 7854.06   90.05
   1  -5   0 7709.92   86.70
  -4   5   0 7476.13   91.43
   5  -4   0 7586.18   91.27
  -1  -4   0 7746.38   92.51
  -1  -4   0 7529.73   74.96
  -1   5   0 7768.69   83.93
   4  -5   0 7841.69   92.60
   1  -5   0 7743.17   55.06
  -4  -1   0 7991.94   93.26
   1   4   0 7497.96   74.12
   5  -4   0 7857.16   92.06
  -5   1   0 8082.63   91.14
  -1  -4   0 7765.93   83.71
  -1   5   0 7756.57   80.67
   1  -5   0 7751.20   82.61
   4  -5   0 7679.88   88.21
   1   4   0 7742.14   84.08
  -4  -1   0 7880.76   91.54
  -5   4   0 7958.20   93.33
  -5   1   0 7790.42   92.65
   4   1   0 7517.27   89.89
  -4   5   0 7845.88   88.84
   5  -1   0 7707.66   92.39
  -5   4   0 7985.88   90.27
   4   1   0 7669.09   92.18
  -4   5   0 7860.32   91.74
   5  -4   0 7945.98   92.34
  -1   5   0 7722.04   91.46
   1  -5   0 8015.39   93.04
  -1  -4   0 7755.54   74.81
   5  -1   0 7803.72   92.32
  -1  -4   0 7432.24   70.76
  -1   5   0 7699.87   75.11
   4   1   0 7694.36   58.93
   1   4   0 7803.47   91.73
   1  -5   0 7785.83   59.73
   5  -1   0 7323.87   50.90
  -5   4   0 7571.65   77.60
  -4  -1   0 7538.94   55.23
  -1  -4   0 7841.15   76.70
  -4   5   1    1.19    6.77
   5  -1   1    1.16    8.31
   1  -5  -1    1.17    6.39
  -4  -1   1    1.20   11.07
   5  -4   1    1.20    8.53
  -1  -4   1    1.42    5.52
  -1  -4   1    1.33    4.46
   4  -5  -1    1.25    7.71
  -1   5   1    1.24    5.56
   5  -1   1    1.17    5.97
  -4  -1   1    1.22    4.53
  -5   1  -1    1.23    6.52
   5  -4   1    1.19    7.05
   4  -5  -1    1.19    7.79
  -5   4  -1    1.18    9.14
  -5   1  -1    1.18    6.48
   1  -5  -1    1.19    7.76
   1   4  -1    1.18    5.27
   1  -5  -1    1.16    5.82
  -5   4  -1    1.16    6.92
  -4   5   1    1.17    7.86
   1  -5  -1    1.18    3.07
  -4  -1   1    1.18    3.63
   5  -4   1    1.20    8.00
  -1  -4   1    1.22    7.34
   4   1  -1    1.16    5.27
  -1  -4   1    1.22    5.40
  -1   5   1    1.23    5.39
   1   4  -1    1.16    7.61
  -1   5   1    1.13    5.68
   1   4  -1    1.24    7.55
  -5   1  -1    1.22    7.46
  -4  -1   1    1.17    7.22
   4   1  -1    1.28    7.90
   5  -1   1    1.29    7.61
  -5   4  -1    1.17    7.96
   5  -4   1    1.18    8.26
   4  -5  -1    1.19    6.57
  -4  -1   1    1.18    6.50
  -1   5   1    1.24    6.71
   4   1  -1    1.23    4.15
   1  -5  -1    1.22    6.49
  -1  -4   1    1.16    6.39
   1  -5  -1    1.18    3.24
   4   1  -1    1.16    6.77
  -4   5   1    1.12    8.64
   4  -5  -1    1.18    7.41
  -5   1  -1    1.23    6.81
  -5   4  -1    1.19    7.34
  -4  -1   1    1.20    6.47
  -1  -4   1    1.23    6.94
   5  -1   2  275.63   17.26
  -4  -1   2  271.85   12.23
  -5   1  -2  273.92   17.99
   5  -4   2  279.87   20.09
  -4   5   2  272.42    6.66
   5  -4   2  273.16    7.59
  -5   4  -2  275.40   20.26
   4  -5  -2  271.65   20.21
  -1  -4   2  273.84   17.05
  -1  -4   2  272.39   15.54
   1  -5  -2  277.05   20.83
  -4   5   2  279.67   18.84
  -1   5   2  275.41   16.37
  -4  -1   2  270.89   22.82
   4  -5  -2  270.76   19.64
  -1  -4   2  275.41   17.15
  -4   5   2  271.19    7.48
   1  -5  -2  272.13    9.34
   5  -4   2  275.61   18.76
   4   1  -2  277.47   16.73
   5  -4   2  271.88   19.52
  -5   1  -2  279.67   19.57
   1  -5  -2  274.56   15.61
  -4  -1   2  278.14   15.67
  -1  -4   2  275.44   18.36
   1   4  -2  277.88   17.14
  -1   5   2  273.37   15.09
   1   4  -2  271.89   19.25
  -5   4  -2  279.84   18.79
  -4  -1   2  279.69   19.68
   4  -5  -2  278.43   19.77
   4   1  -2  270.59   19.57
  -5   1  -2  276.51   19.49
  -5   4  -2  276.51   19.22
  -4   5   2  270.65   18.37
   5  -1   2  278.71   19.92
   5  -4   2  271.53   18.72
  -4   5   2  272.93   19.27
   4  -5  -2  274.49   18.51
  -1   5   2  275.39   19.30
   1  -5  -2  276.13    8.78
  -1  -4   2  279.56   18.63
  -1  -4   2  274.89   11.94
   4   1  -2  278.23   19.33
   5  -1   2  276.21   18.35
  -5   1  -2  271.61   19.27
  -4  -1   2  271.38   19.15
  -1   5   2  278.20   16.91
   1  -5  -2  278.43   17.98
   4   1  -2  273.47   14.35
   1   4  -2  273.67   19.81
   1  -5  -2  277.87   18.48
  -1  -4   2  274.78   16.04
  -4   5   2  273.97   20.00
   4   1  -3   33.29    6.81
  -1  -4   3   35.77    8.30
   5  -1   3   35.39    7.34
  -4  -1   3   32.04   13.82
   4  -5  -3   31.46    7.74
   1  -5  -3   29.20    7.69
  -1  -4   3   35.87    4.48
   4  -5  -3   37.83    9.83
  -4   5   3   28.57    8.90
   5  -4   3   38.55    9.49
   5  -1   3   35.97    7.97
  -4  -1   3   28.84    7.32
  -5   1  -3   30.55    8.19
  -4  -1   3   34.62    4.66
  -5   4  -3   36.45    9.95
  -1  -4   3   34.38    7.93
   1  -5  -3   27.79    6.48
  -4   5   3   30.08    3.76
   5  -4   3   34.27    4.23
  -4   5   3   27.58    2.83
   1  -5  -3   28.45    4.98
  -4  -1   3   82.63   16.37
   1   4  -3   28.88    7.17
  -1  -4   3   30.96    8.54
  -1  -4   3   26.87    7.89
   4   1  -3   31.30    6.93
  -1  -4   3   32.03    8.75
   4   1  -3   34.81    9.38
  -4   5   3   44.82    6.62
  -1   5   3   33.30    6.23
   1   4  -3   23.87    8.63
  -5   1  -3   31.88    8.14
  -1  -4   3   29.86    7.81
   4  -5  -3   35.84    9.84
   1  -5  -3   34.61    8.67
  -5   4  -3   28.09    8.45
  -4   5   3   37.23    7.03
   4   1  -3   44.95   10.50
  -4   5   3   34.13    8.82
   5  -4   3   28.96    8.16
  -1   5   3   42.47    9.11
   4   1  -3   34.87    7.99
   1   4  -3   31.59    8.85
  -4  -1   3   28.09    6.77
   5  -1   3   30.78    8.04
  -5   4  -3   32.66    8.23
  -1   5   3   35.32    8.48
   1  -5  -3   27.71    2.57
  -1   5   3   24.45    6.45
  -5   1  -4 1412.49   40.19
   4   1  -4 1413.65   39.72
  -5   4  -4 1393.31   41.68
  -4   5   4 1411.65   24.72
  -1  -4   4 1392.51   29.07
  -1   5   4 1408.20   32.97
  -5   4  -4 1456.44   40.51
   4   1  -4 1394.47   34.59
   4  -5  -4 1395.89   40.31
  -4   5   4 1431.99   21.03
  -1   5   4 1470.05   37.54
   5  -1   4 1475.76   38.21
   5  -1   4 1451.85   31.57
  -4  -1   4 1454.86   42.40
  -1  -4   4 1308.96   15.94
  -1  -4   4 1337.22   36.32
  -4   5   4 1361.62   18.47
   5  -4   4 1486.96   40.67
   5  -4   4 1368.81   25.25
   1  -5  -4 1376.94   31.73
  -5   4  -4 1444.67   40.56
   1   4  -4 1373.00   41.10
  -1   5   4 1444.50   27.52
  -4  -1   4 1300.19   30.79
   1   4  -4 1411.88   39.70
   4   1  -4 1344.82   40.97
   4  -5  -4 1515.81   43.09
  -5   4  -4 1406.93   39.10
  -4   5   4 1395.76   31.64
   5  -4   4 1374.55   38.92
   4  -5  -4 1451.14   39.97
  -1   5   4 1412.00   39.40
   1  -5  -4 1433.89   39.98
   1   4  -4 1449.85   39.77
   1  -5  -4 1398.85   39.43
  -1  -4   4 1434.46   40.03
   5  -1   4 1409.02   40.09
  -4  -1   4 1427.95   39.85
  -1  -4   4 1435.22   39.91
   4   1  -4 1431.53   39.57
  -4  -1   4 1352.71   17.86
   4   1  -4 1398.28   35.43
  -1   5   4 1389.05   39.25
  -4   5   4 1410.67   39.48
  -4   5   4 1471.52   42.29
  -1  -4   4 1372.40   38.11
  -4  -1   4 1337.67   42.97
   1   4  -4 1445.28   41.03
   4   1  -5   28.45    7.63
  -4  -1   5  -25.86   18.44
   1  -5  -5   33.88    8.37
  -4   5   5   29.25    9.42
  -1  -4   5   28.79    8.64
  -1   5   5   34.12   10.07
   5  -1   5   27.49    5.98
  -5   1  -5   32.78   10.11
   1  -5  -5   33.75    7.28
   1   4  -5   22.84    8.60
  -5   4  -5   25.07   10.18
  -1  -4   5   26.26    5.51
   5  -4   5   37.06    9.29
  -4   5   5   31.62    6.47
   5  -4   5   32.82    8.36
  -4   5   5   23.35    5.12
   5  -4   5   32.82    5.91
  -4  -1   5    8.40   12.88
  -4   5   5   24.79    3.53
   4  -5  -5   23.71    7.29
  -1   5   5   32.90    8.79
   5  -1   5   34.45    8.89
  -1  -4   5   27.30    8.86
   4  -5  -5   43.64   10.89
  -4   5   5   28.61    4.02
   1  -5  -5   35.17    8.52
  -1   5   5   27.99    4.58
   4   1  -5   35.81    9.83
   4   1  -5   28.01    8.13
  -1  -4   5   29.29    9.58
  -5   4  -5   38.45    8.89
  -4   5   5   30.30    8.39
  -1   5   5   35.39    9.04
   1   4  -5   39.43    9.06
  -1  -4   5   30.73    8.44
   4   1  -5   40.02    9.25
   5  -1   5   41.68    9.46
  -1   5   5   21.24    6.66
  -4  -1   5   23.54    7.27
  -4  -1   5   33.30    6.46
   4  -5  -5   29.63   10.10
   1  -5  -6   13.13    2.21
  -4  -1   6   60.98   14.84
  -4   5   6   16.72    8.90
   1  -5  -6   17.07    7.92
  -1   5   6   13.19    8.43
   4   1  -6   16.36    7.64
   1  -5  -6   19.99    6.53
  -5   1  -6   23.59    9.17
  -1  -4   6   19.82    4.80
  -5   4  -6   15.92    9.07
   5  -1   6   17.38    5.48
   5  -4   6   17.67    8.56
  -4   5   6   22.91    6.40
   5  -4   6   18.61    6.08
  -1   5   6   13.54    6.51
   1  -5  -6   17.55    7.35
  -1   5   6   17.69    7.65
   5  -1   6   12.16    7.32
  -4  -1   6   55.23   12.78
  -1  -4   6   13.53    7.68
   4  -5  -6   19.79    6.37
  -5   4  -6   20.67    6.82
   1  -5  -6   18.99    4.82
  -4   5   6   20.17    4.49
  -1   5   6   17.43    7.43
  -4  -1   6   12.89    7.22
   1   4  -6   12.72   10.05
   4   1  -6   25.22   10.69
  -1   5   6   15.19    2.76
  -4   5   6   16.67    5.15
  -1  -4   6   18.54    9.34
  -4   5   6   19.07    7.88
   5  -4   6   20.30    7.65
   1   4  -6   20.63    7.69
   4  -5  -6   15.04    7.40
  -1  -4   6   19.15    7.63
   5  -1   6   27.29    8.44
  -1  -4   6   27.85    9.54
   4   1  -6   18.18    7.55
   4  -5  -6   30.60   10.97
  -4  -1   6   13.65    5.21
   4  -5  -6   28.28    9.78
  -4   5   6   14.88    3.63
  -1  -4   7   20.20    9.78
   1  -5  -7   19.57    3.22
  -4  -1   7   35.86   12.37
  -4   5   7   35.73   11.26
   1  -5  -7   23.47   10.07
  -1   5   7   22.56    9.65
   1  -5  -7   24.77    6.28
  -5   1  -7   20.04    9.76
  -1  -4   7   19.85    4.49
  -5   4  -7   21.91    9.92
  -4   5   7   27.33    7.46
   5  -4   7   24.81    6.79
   5  -1   7   19.25    5.41
   5  -4   7   22.28    8.34
  -1   5   7   14.47    8.24
   5  -1   7   26.77    9.03
  -4  -1   7   39.46   12.51
   4  -5  -7   25.92    7.62
  -5   4  -7   26.25    7.62
  -1  -4   7   21.89    8.91
   1  -5  -7   20.63    5.24
  -4   5   7   22.71    5.29
  -4  -1   7   21.41    5.74
   1   4  -7   16.01    7.83
   4   1  -7   13.37    8.56
  -4   5   7   24.20    5.08
   1  -5  -7   22.02    7.68
   5  -1   7   25.86    7.94
   4  -5  -7   22.09    7.87
  -4   5   7   34.11    8.85
  -1   5   7   23.54    7.26
   5  -4   7   26.70    8.06
  -1  -4   7   29.50   10.27
  -1   5   7   27.39    8.36
   1   4  -7   24.13    8.09
   4   1  -7   19.56    7.77
  -1  -4   7   29.86    8.42
   5  -1   7   22.21    7.84
  -4  -1   7   18.34    7.14
   4  -5  -7   21.70    9.63
   4   1  -7   13.77    8.66
  -4  -1   8  444.35   17.55
  -1  -4   8  448.85   14.30
  -5   1  -8  441.24   27.24
  -5   4  -8  476.69   27.71
  -4   5   8  448.61   21.30
   5  -4   8  449.91   21.50
  -1   5   8  427.62   24.07
   5  -1   8  479.85   25.80
   4  -5  -8  456.04   21.86
  -5   4  -8  468.80   22.68
   1  -5  -8  474.66   19.14
  -4  -1   8  461.48   27.77
  -1  -4   8  464.16   26.25
   1  -5  -8  463.99   18.23
  -4   5   8  468.89   23.54
   4   1  -8  470.83   26.10
   5  -4   8  468.93   25.13
   1   4  -8  459.33   27.51
   5  -1   8  478.06   17.73
  -4   5   8  462.17   14.78
   4   1  -8  472.11   27.08
   4  -5  -8  471.02   28.20
   5  -1   8  462.43   23.28
   5  -4   8  462.20   22.87
  -1   5   8  466.26   23.48
   4  -5  -8  454.58   22.87
   1   4  -8  466.22   23.43
   1  -5  -8  486.04   28.16
   1  -5  -8  480.59   23.93
   4   1  -8  466.63   23.55
  -1   5   8  480.69   26.98
  -1  -4   8  467.91   23.42
   5  -1   8  459.38   23.29
  -4  -1   8  460.06   23.39
  -1  -4   8  445.91   27.30
  -4   5   8  469.14   28.13
  -1  -4   8  480.43   28.19
   1  -5  -8  433.32   13.39
  -4  -1   8  467.66   27.94
  -5   1  -8  433.41   11.00
  -1   5   8  438.77   21.80
   1  -5  -9    0.17    3.69
  -4  -1   9    0.10    8.70
  -4   5   9    0.16    7.75
   5  -1   9    0.15    5.67
  -1   5   9    0.14    8.28
   1  -5  -9    0.11    9.29
  -5   1  -9    0.11    2.88
  -4  -1   9    0.17    4.23
   1  -5  -9    0.11    5.47
  -1  -4   9    0.19    2.81
  -5   1  -9    0.16    8.79
  -5   4  -9    0.19    8.97
   1   4  -9    0.12   10.44
  -4   5   9    0.19    6.96
   5  -4   9    0.18    6.20
  -1   5   9    0.18    6.70
   5  -1   9    0.16    7.74
   4  -5  -9    0.11    8.70
   4   1  -9    0.18    7.14
  -4  -1   9    0.17    8.45
  -1  -4   9    0.15    9.31
   1  -5  -9    0.19    5.09
   5  -4   9    0.16    7.18
  -1   5   9    0.16    5.88
   5  -1   9    0.11    4.00
  -1  -4   9    0.11    8.49
  -4   5   9    0.17    2.56
   4   1  -9    0.18    8.50
  -4   5   9    0.10    5.76
   5  -4   9    0.11    5.78
  -1   5   9    0.10    5.83
   4  -5  -9    0.11    6.52
   1   4  -9    0.10    6.05
   1  -5  -9    0.13    5.69
   4   1  -9    0.11    6.00
  -1  -4   9    0.10    7.90
  -1  -4   9    0.11    6.20
   5  -1   9    0.11    5.76
  -4  -1   9    0.15    5.71
   5  -4   9    0.16    6.26
  -5   4  -9    0.10    5.81
   4  -5  -9    0.15    9.46
  -4  -1  10   21.11   10.62
  -4   5  10   14.36    9.96
   1  -5 -10   26.11   10.91
   1  -5 -10    7.95    5.59
   5  -1  10    5.66    6.45
  -4  -1  10    4.07    4.14
   4   1 -10    4.61    9.16
  -4   5  10    9.82    6.73
  -5   1 -10   10.09   10.06
  -5   4 -10   12.63   10.08
  -4  -1  10    3.47    5.76
  -4   5  10    4.44    6.54
   5  -4  10   10.04    7.89
   1   4 -10    8.38    6.10
  -1   5  10    3.34    7.66
   5  -1  10    5.27    8.32
   4  -5 -10   27.87   10.36
  -4  -1  10   11.33    9.06
   1  -5 -10    9.82    6.02
  -1  -4  10   10.14    9.34
   5  -4  10    5.37    7.81
   5  -1  10    6.13    4.47
   5  -4  10    9.70    6.60
   4  -5 -10   17.32   11.37
   4   1 -10   13.95    9.28
   5  -1  10    7.92    6.23
  -1   5  10   13.56    6.50
   4   1 -10    8.03    5.12
   4  -5 -10    2.38    5.64
  -1   5  10    4.55    7.89
   4   1 -10    9.74    7.00
   1  -5 -10    8.19    6.37
  -1  -4  10    2.56    5.85
  -1  -4  10    8.84    8.86
   5  -4  10   10.70    7.05
   1   4 -10    2.37    8.93
  -1  -4  10    4.82    8.93
  -4  -1  11   15.22   11.36
  -4   5  11   43.13   12.89
  -1   5  11   24.42   10.79
   1  -5 -11   27.21   12.64
   1  -5 -11   23.78    6.52
   4   1 -11   29.86   11.40
  -5   1 -11   19.60   11.07
  -5   4 -11   30.19   11.99
  -4   5  11   40.49   10.01
   5  -4  11   29.40    9.63
  -1   5  11   23.20   10.52
   5  -1  11   28.95   10.90
  -4  -1  11   20.20   11.54
  -1  -4  11   15.65   10.34
   5  -4  11   23.72    9.91
   1   4 -11   26.68   11.63
   4   1 -11   27.14   10.54
   5  -1  11   21.71    5.76
  -4   5  11   27.21    7.97
  -1   5  11   38.34    8.71
   1   4 -11   29.92    7.80
   4   1 -11   27.72    6.11
   4   1 -11   32.44    8.34
   5  -1  11   18.37    7.70
   5  -4  11   33.27    8.50
  -1  -4  11   26.76   10.73
   4  -5 -11   28.18   12.31
   1   4 -12 2196.08   47.91
  -5   1 -12 2211.44   66.93
  -4   5  12 2071.33   56.93
   5  -4  12 2013.06   56.39
  -1   5  12 2223.55   63.87
   5  -1  12 2134.98   63.31
   5  -4  12 2162.22   58.31
  -4   5  12 2160.51   47.54
  -5   4 -12 2089.18   63.24
   1   4 -12 2119.49   64.03
  -4  -1  12 2132.34   65.76
  -1  -4  12 2180.07   65.65
   4   1 -12 2139.77   64.73
   5  -1  12 2157.29   47.86
   1   4 -12 2135.73   64.74
   4   1 -12 2050.24   60.54
  -1   5  12 2158.95   47.38
   4  -5 -12 2060.55   63.69
  -1  -4  12 2112.03   66.47
   1  -5 -12 2145.30   66.23
   4   1 -12 2119.77   47.48
   5  -4  12 2197.51   48.17
  -4   5  12 2239.09   67.99
  -1   5  12 2130.46   62.74
  -4  -1  12 2093.09   66.37
  -4  -1  13   26.52   12.89
  -4   5  13   20.46   12.61
  -1   5  13   27.06   12.78
   1   4 -13   16.63   11.38
   1  -5 -13   19.16   13.73
   4   1 -13   20.77   11.83
   5  -4  13    8.31    8.73
  -5   1 -13    4.96   10.25
  -5   4 -13   18.16   11.59
   4   1 -13   20.53   11.19
  -4   5  13    6.49    8.18
   5  -4  13   26.36   10.89
  -1   5  13    7.44   10.00
   5  -1  13   15.38   11.30
  -1  -4  13    3.35    8.88
   1   4 -13    8.31   10.10
  -4  -1  13   30.09   12.77
  -1  -4  13   11.48   11.62
   4  -5 -13   11.80   10.02
  -4   5  14   27.58   13.45
  -1   5  14   14.05   10.25
   1  -5 -14   -2.34   10.40
   4   1 -14   10.21   12.09
  -5   1 -14   24.83   12.89
  -5   4 -14   13.97   11.53
   1   4 -14    6.86   11.16
  -4   5  14    8.30    9.98
   5  -4  14    9.96   10.15
  -1   5  14   17.72   11.74
   5  -1  14   16.34   10.61
  -1  -4  14   19.26   11.86
  -4  -1  14    1.65   10.10
  -1  -4  14   10.63    9.60
   4   1 -14    5.91    8.98
   1   4 -14    9.14   10.92
  -4  -1  14   15.29   12.36
   5  -4  14   10.29    9.31
   4  -5 -14   19.86   13.06
  -4   5  15    0.27   11.71
  -1   5  15   12.16   11.94
   4   1 -15   -0.53   10.69
   1  -5 -15   -4.10   10.55
  -5   1 -15    8.65   11.66
  -5   4 -15    5.77   11.03
  -4   5  15    3.15   10.27
   5  -4  15   14.23   12.25
   1   4 -15    9.45   10.77
  -1   5  15    3.24   11.19
   5  -1  15    9.33    9.60
  -1  -4  15    0.38    9.33
  -4  -1  15  -13.13   12.08
  -1  -4  15    1.55   11.21
   5  -4  15   -3.18    8.14
   4   1 -15    1.09    9.17
   1   4 -15   -4.33   10.63
  -4  -1  15   12.79   11.18
   4  -5 -15   18.98   12.57
  -5   4 -16  205.92   24.35
  -5   1 -16  217.37   22.81
   1   4 -16  247.75   26.73
   4   1 -16  240.67   24.21
   4  -5 -16  256.48   27.64
  -5   1 -16  205.31   24.38
  -1   5  16  209.60   24.25
   5  -4  16  242.43   23.04
  -5   4 -17  -12.25   11.38
  -5   0   0  766.47   25.33
  -5   5   0  801.33   34.87
   0  -5   0  733.59   28.60
   5  -5   0  693.32   29.99
   0  -5   0  697.16   21.18
   0   5   0  709.21   29.91
   0   5   0  707.78   26.03
  -5   0   0  708.42   21.69
  -5   0   0  729.62   28.51
   5  -5   0  713.36   29.64
  -5   5   0  741.15   30.28
   0   5   0  686.74   26.53
   5   0   0  760.33   31.21
   0  -5   0  711.46   25.34
   0  -5   0  729.22   24.10
   5   0   0  751.84   30.98
   5   0   0  684.88   16.22
   0  -5   0  721.80   22.26
  -5   0  -1 1627.22   38.37
  -5   0   1 1600.32   34.06
  -5   5  -1 1628.14   45.96
  -5   5   1 1568.91   44.55
   0  -5   1 1691.70   40.95
  -5   0  -1 1610.80   30.85
   0  -5  -1 1592.57   30.77
   5  -5  -1 1677.19   45.94
   0  -5  -1 1710.51   32.69
   5  -5   1 1654.00   45.28
   0  -5   1 1664.25   33.76
   0   5   1 1623.37   36.86
   0   5  -1 1660.60   40.43
  -5   0  -1 1692.99   43.90
  -5   0   1 1633.34   41.10
   5  -5   1 1627.19   43.49
   5  -5  -1 1641.59   44.90
   0   5  -1 1626.40   41.69
   5   0   1 1639.40   44.66
   0   5   1 1658.55   38.63
  -5   0   1 1676.53   34.49
  -5   5  -1 1668.52   44.79
   0  -5  -1 1570.32   35.65
   5   0  -1 1668.76   45.93
  -5   5   1 1688.30   44.99
   0  -5   1 1605.55   39.42
  -5   5   1 1669.02   41.69
   0  -5   1 1766.11   34.31
   0   5  -1 1652.57   44.73
   0  -5  -1 1657.87   38.04
   5   0  -1 1621.36   44.68
   5   0  -1 1591.28   28.77
   0   5   1 1648.51   44.82
   0  -5   1 1604.61   34.58
  -5   5   1 1565.89   41.11
   5   0   1 1698.66   45.82
  -5   5   2 4120.81   70.22
  -5   0  -2 4169.66   64.17
  -5   0   2 4167.64   50.92
  -5   5  -2 4263.46   72.66
   0  -5   2 4104.87   61.49
  -5   5   2 3969.20   69.17
   5  -5  -2 4181.71   72.30
   5   0  -2 4107.90   70.94
   0   5   2 4021.00   55.50
   0  -5  -2 3644.16   47.32
   0  -5   2 4081.03   55.89
   5  -5   2 4105.81   71.39
   0   5  -2 4273.36   66.83
   5  -5   2 4072.60   68.05
  -5   0   2 4399.48   66.18
   0   5  -2 4147.53   68.58
   5  -5  -2 4214.03   72.31
   0   5   2 4169.99   58.71
   0  -5  -2 4200.12   55.74
   5   0  -2 4266.77   73.37
  -5   5  -2 4072.83   70.07
  -5   5   2 4324.94   65.26
   0  -5   2 4333.23   49.89
   0   5   2 4159.91   70.86
   0   5  -2 4178.36   70.71
   0  -5  -2 4213.96   63.18
   5   0   2 4114.58   71.10
  -5   0   2 3944.93   55.92
   0  -5   2 4211.54   65.94
   5   0  -2 4040.42   51.01
   5   0   2 4065.48   69.60
   0  -5   2 4228.98   59.42
  -5   5   2 4261.29   68.20
   5   0  -2 4220.97   65.62
   0  -5  -2 4180.08   46.97
   0   5  -2 4275.13   61.82
  -5   0   2 4091.15   74.23
   0   5   3  751.39   20.64
  -5   0  -3  772.48   29.45
  -5   0   3  784.12   20.60
  -5   5  -3  769.50   32.73
   0  -5   3  771.18   26.74
  -5   5   3  716.18   30.74
   5   0   3  729.45   21.99
  -5   5   3  773.90   30.47
   0   5   3  710.60   22.64
  -5   0   3  809.98   34.08
   5   0   3  781.29   31.07
   0   5  -3  788.17   31.29
  -5   5   3  712.82   19.41
   0  -5   3  730.66   25.35
   5  -5   3  761.29   31.95
   0   5  -3  874.05   30.66
   0   5   3  794.13   31.37
   5   0  -3  741.46   24.24
   5  -5   3  724.83   29.45
   0   5  -3  766.13   30.67
  -5   0   3  758.89   27.57
   5  -5  -3  752.38   31.70
   0  -5  -3  703.94   22.21
   0   5   3  745.80   23.86
   5  -5  -3  785.16   32.40
   5   0  -3  735.57   31.60
   0  -5   3  768.18   18.79
  -5   5   3  773.11   27.53
  -5   5  -3  787.40   31.20
  -5   5   3  792.02   31.37
   0  -5   3  757.01   29.60
   0  -5  -3  782.29   29.41
   5   0   3  776.64   31.52
  -5   0   3  757.17   26.21
   5   0  -3  810.09   32.13
   5   0  -3  755.24   29.56
   0  -5   3  753.32   26.98
   0  -5  -3  727.12   19.50
  -5   0   3  880.83   37.04
   0  -5   4   47.04    9.51
   5  -5  -4   54.80   11.98
   5   0  -4   43.06    8.19
  -5   0   4   49.63    8.81
   5   0   4   56.83    7.08
  -5   5   4   47.13   10.92
   0  -5  -4   49.80   10.05
  -5   0   4   56.70    6.23
  -5   0  -4   56.49   11.13
  -5   5   4   58.30    9.79
   0  -5   4   45.74    8.06
  -5   5  -4   56.03   12.23
   5  -5   4   42.45   10.88
   0   5  -4   48.28   11.27
   5  -5  -4   54.69    5.46
  -5   5   4   55.70    7.12
  -5   0   4   40.30   13.89
   0  -5  -4   38.35    6.59
   0   5   4   42.03    6.07
   0  -5   4   58.65    9.65
   0  -5   4   52.42    4.63
   5   0   4   52.22   10.29
   0  -5   4   36.19    9.69
  -5   0   4   58.31   15.07
   0   5   4   50.50    7.29
   5   0  -4   60.64   12.31
   5   0   4   54.08   10.41
  -5   5  -4   52.90   10.72
  -5   5   4   53.50   10.28
  -5   0   4   42.19    8.33
   0   5   4   49.62   10.32
   0   5  -4   53.93   10.51
   5   0  -4   42.16    9.92
  -5   5   4   59.61    9.47
   5  -5  -4   62.38   11.43
   0   5  -4  122.75   17.46
   0  -5  -4  105.43   11.91
   0   5  -5   54.23   10.62
  -5   5   5   29.24    6.77
   5   0  -5   52.06    9.05
  -5   0   5   16.14   14.85
   0  -5  -5   59.09    8.03
  -5   5   5   31.63    9.59
   0  -5  -5   57.92   11.47
   0   5   5   59.59   11.35
   0   5  -5   55.04   12.02
  -5   0  -5   56.08   11.84
   0  -5   5   42.36    7.32
  -5   5  -5   58.20   11.83
   5  -5  -5   58.86    6.66
  -5   0   5   42.60    4.48
   5  -5   5   58.54   12.25
   5   0   5   55.07    6.50
   0  -5  -5   51.67    6.98
   0   5  -5   68.25   12.53
  -5   0   5   38.23   13.95
  -5   5  -5   47.68    6.68
  -5   5   5   50.26    6.88
   0   5   5   80.31   12.79
   5   0   5   65.48   11.87
   0  -5   5   48.41    9.47
   0  -5   5   54.05   11.43
   0   5   5   59.68    7.35
  -5   5  -5   46.23   10.04
   0   5   5   43.95    6.38
  -5   0   5   53.14    9.74
   5   0  -5   68.23   13.24
  -5   5   5   56.05    8.87
  -5   5   5   54.90   10.36
   0   5   5   54.58   10.84
   5   0   5   48.88   10.35
   5   0  -5   45.15   10.17
   5  -5  -5   54.65   12.14
  -5   0   5   50.88    8.93
   5  -5  -5   69.26   12.25
   0  -5   5   52.44   10.75
  -5   0   6  -35.96   19.07
   0   5   6    3.67    7.58
   0  -5  -6    0.55    7.98
   0  -5   6    2.81    8.26
   5   0  -6    6.07    8.60
   0   5   6    2.79    4.28
  -5   0  -6    5.01    8.48
   0  -5   6    0.62    4.89
  -5   5  -6   13.27   10.39
   5   0   6    7.48    3.83
   5  -5   6    9.66    9.24
   0  -5  -6    7.31    4.44
  -5   0   6  -30.72   15.65
   5  -5  -6    7.18    4.77
  -5   5  -6    2.31    5.12
   0   5   6   20.88    9.93
   5   0   6    5.73    9.14
  -5   5   6   -1.48    5.05
   5   0  -6    4.84    8.67
   0  -5   6    6.99    7.55
   0   5   6    3.26    6.62
   5   0  -6   -5.74    8.10
   5  -5  -6    7.25    8.24
  -5   5   6    6.20    8.12
  -5   5   6    4.95    5.15
   0   5  -6    2.05    8.11
   5   0   6    0.22    6.83
  -5   5   6    0.96    4.87
   0   5   6    1.56    3.47
  -5   5  -6    4.40    6.53
  -5   5   6    3.29    6.94
   0   5  -6    1.97    6.91
  -5   0   6    4.41    5.96
   0  -5   6    0.28    7.46
  -5   0   7   10.41    6.19
  -5   5   7   19.85    5.79
  -5   5   7   14.68    9.25
   0   5   7   28.76    9.69
   0  -5  -7   14.63    9.84
  -5   0  -7   36.42   11.56
   0  -5   7   26.15    6.47
   0   5  -7   17.35    7.96
  -5   5  -7   13.75    9.97
   0  -5  -7   20.92    4.86
   0   5   7   16.76    5.29
   5  -5   7   17.67    9.30
   0   5  -7   27.98   10.79
   5  -5  -7   20.31    6.22
   0   5   7   26.42   10.24
   5   0   7   19.29    9.48
  -5   5  -7   20.83    6.42
  -5   0   7   28.69   11.89
   5   0   7   21.20    3.79
  -5   5   7   16.49    6.03
   0  -5   7   19.68    8.71
   5   0  -7   26.11   10.06
  -5   0   7   44.97   13.34
   0  -5   7   20.62    9.47
  -5   5   7   16.92    5.93
   5   0  -7   21.95   10.89
   0   5   7   15.46    2.90
  -5   5  -7   19.74    8.38
  -5   5   7   19.49    8.51
   0   5   7   27.61    9.03
   5   0   7   24.13    8.39
   5   0  -7   21.32    8.24
   5  -5  -7   19.35    9.26
   0  -5   7   24.00    9.27
  -5   5   8   20.02    6.38
  -5   0   8   38.75   12.90
  -5   0   8    9.29    5.79
   0   5   8   14.59    8.23
   0  -5  -8   14.99    8.95
  -5   5   8   12.48    9.69
  -5   0  -8   12.58    9.04
   0  -5   8   11.32    5.01
  -5   5  -8   13.35    8.81
   0  -5  -8   14.89    4.17
   0   5   8   10.83    8.80
   5   0   8   16.82    8.40
   5  -5  -8    7.98    5.44
  -5   5  -8   19.87    6.84
  -5   0   8   13.52    9.71
   5  -5   8   12.78    8.65
  -5   5   8   16.02    6.15
   0  -5   8   14.22    8.23
   5   0   8   13.94    2.81
   5   0  -8   16.95    9.24
   0   5  -8   16.12    9.96
  -5   5  -8   14.60    7.24
   5   0  -8   17.50    9.53
   0  -5   8   21.51   10.40
  -5   5   8   24.17    8.33
   5   0  -8   11.65    6.03
   0   5   8   24.70    8.34
   0   5  -8   17.66    7.84
   5   0   8    5.03    6.77
   5   0  -8   17.67    8.06
   5  -5  -8   28.93   11.42
  -5   5   8   21.86    5.77
  -5   0  -9  414.66   27.82
   0  -5   9  360.74   17.15
  -5   5  -9  380.51   26.47
   5   0  -9  401.86   23.05
   5   0  -9  406.22   26.64
   0   5   9  443.44   27.37
   5   0   9  371.96   25.47
   5  -5  -9  382.80   21.04
  -5   5  -9  391.87   21.24
  -5   0   9  364.15   25.83
   0  -5   9  382.83   25.36
  -5   5   9  397.66   19.67
   0  -5  -9  382.07   19.73
   0  -5  -9  390.15   13.53
   5   0  -9  405.11   20.29
   0   5  -9  380.05   27.22
  -5   5   9  377.16   17.15
   5  -5   9  402.93   25.74
   5  -5  -9  372.99   26.63
   5   0  -9  388.25   25.94
  -5   5  -9  395.70   22.80
   0   5   9  389.40   22.47
   0   5  -9  409.56   23.10
  -5   0   9  423.11   20.83
   0  -5  -9  379.66   26.36
   5   0   9  409.50   23.27
   0  -5   9  403.11   27.90
  -5   5   9  376.45   22.28
  -5   5   9  402.63   27.37
   0   5   9  394.90   24.83
  -5   5   9  415.84   19.00
  -5   0   9  420.75   28.00
  -5   5 -10 1035.20   43.03
   0   5  10 1012.40   42.17
   5   0  10 1071.42   43.40
   5   0 -10 1014.71   42.59
  -5   0 -10 1031.95   43.89
  -5   0  10  963.77   31.07
   0   5 -10 1020.28   28.81
  -5   0  10  948.05   42.13
   0  -5  10 1054.59   42.70
  -5   5  10  981.53   32.17
   5   0 -10 1046.91   36.36
   5   0 -10 1034.02   32.22
   0   5 -10  997.95   35.27
   0   5 -10 1082.85   45.46
   5  -5 -10 1055.75   44.22
   5   0 -10 1046.22   41.78
   5  -5  10 1033.53   41.43
   0   5  10 1044.18   35.92
  -5   5  10 1065.57   44.90
   0  -5 -10 1035.80   44.12
   5   0  10 1046.86   36.30
   0  -5  10 1002.25   44.03
   0   5  10 1049.81   40.88
  -5   5  10 1021.48   30.76
  -5   0  10 1018.52   44.09
  -5   0 -11  659.25   37.06
  -5   5 -11  618.90   34.56
   0   5  11  629.31   34.75
   5   0  11  672.61   36.25
   5   0 -11  644.79   35.99
   0  -5  11  644.56   36.65
  -5   0  11  638.82   36.35
   0  -5  11  635.66   34.90
  -5   5  11  645.79   27.70
   5   0 -11  630.62   25.64
   0   5 -11  578.65   34.75
   0   5  11  628.57   33.12
   5   0 -11  614.70   33.53
   5  -5 -11  692.29   37.35
   5  -5  11  627.79   33.53
   0   5  11  637.58   28.03
   0   5 -11  628.04   27.83
   0  -5 -11  638.47   36.62
   5   0  11  663.46   28.95
   5   0 -11  616.87   27.80
  -5   5  11  626.93   36.39
  -5   0  11  652.20   36.90
  -5   0 -12  269.87   25.38
  -5   5 -12  240.03   23.08
   0   5  12  309.67   26.15
   5   0  12  257.61   24.88
   5   0 -12  282.89   26.01
   5   0 -12  269.75   18.72
  -5   0  12  290.35   25.84
   0  -5  12  289.63   25.49
  -5   5  12  284.56   19.92
   0   5  12  284.49   18.90
   0   5 -12  301.88   26.59
   5   0 -12  268.09   23.17
   5  -5 -12  289.71   25.33
   5  -5  12  301.48   19.60
   5  -5  12  269.26   23.55
   0   5 -12  259.48   18.25
   0  -5 -12  285.15   26.80
   5   0  12  294.34   19.46
   5  -5 -12  291.24   19.56
   0  -5  12  273.75   26.48
  -5   5  12  295.81   26.67
   0   5  12  279.24   23.65
  -5   0  12  300.47   26.64
   0  -5 -13  250.02   26.10
  -5   0 -13  237.68   25.08
  -5   5 -13  251.86   24.23
   0   5  13  246.59   24.43
   5   0  13  207.26   22.85
   5   0 -13  259.79   25.87
  -5   0 -13  235.22   19.23
  -5   0  13  222.30   24.32
   0  -5  13  232.56   24.45
   0   5 -13  257.75   25.87
   5   0 -13  245.00   22.86
   5  -5 -13  231.57   23.70
  -5   5  13  231.85   25.70
   5  -5  13  271.58   24.67
   0  -5  13  247.40   25.68
   0   5  13  264.55   23.99
  -5   0  13  237.59   25.63
  -5   0 -14  808.08   44.93
  -5   5 -14  836.56   42.88
   0   5  14  779.05   43.24
   5   0  14  807.73   44.04
   5   0 -14  839.53   45.73
  -5   0  14  852.33   44.99
   0  -5  14  861.25   45.69
   0   5 -14  826.34   44.86
   5   0 -14  764.91   39.21
   5  -5 -14  815.75   43.64
   0  -5 -14  855.05   46.07
  -5   5  14  796.49   45.20
   0   5  14  806.03   41.37
   5  -5  14  779.74   40.55
   0  -5  14  830.09   46.17
  -5   0  14  817.14   44.72
   0   5  15   52.17   14.43
  -5   0 -15   69.50   16.75
  -5   5 -15   51.41   15.43
   0   5  15   83.24   18.31
   5   0  15   84.95   17.56
   0   5 -15   41.81   13.83
   5  -5  15   60.51   14.25
   5   0 -15   73.97   15.17
   5  -5 -15   63.91   15.64
  -5   0  15   59.11   16.32
   0   5  16   35.79   11.76
  -5   5 -16   62.77   16.50
  -5   5 -16   26.45   11.35
   5  -5  16   42.36   13.12
  -6   3  16  102.37   17.86
  -3   6 -15    0.53    9.34
  -6   3  15   -1.06    9.90
   3  -6  15   17.25   12.99
   6  -3 -15    7.10   10.38
  -6   3  15   -4.53   12.27
  -3   6 -14  138.47   17.83
  -3  -3 -14  127.05   20.79
  -3   6 -14  120.65   19.43
   3  -6  14  121.69   19.96
   3   3  14  123.63   20.53
  -6   3  14  112.59   17.52
  -3  -3 -14  118.78   19.77
   6  -3 -14  121.48   17.24
  -6   3  14  121.58   20.08
  -6   3  14  107.29   17.27
  -3  -3 -13    0.69    9.84
  -3  -3 -13    6.38   10.28
  -3   6 -13   21.94   12.31
   3   3  13   -0.50    9.56
  -6   3  13   -1.79    9.15
  -3   6 -13    7.17   10.46
   3  -6  13    3.71   10.87
  -6   3  13   11.16   10.36
   6  -3 -13    0.93    8.89
  -6   3  13    2.75   10.68
  -3  -3 -12 1225.77   51.93
  -3   6 -12 1190.67   43.61
   3   3  12 1211.64   51.75
  -3   6 -12 1169.40   38.63
  -6   3  12 1066.83   44.15
  -3   6 -12 1130.58   49.78
   6  -3 -12 1128.15   40.16
   3   3  12 1176.50   38.95
   3  -6  12 1179.50   50.52
  -3  -3 -12 1181.00   51.17
  -6   3  12 1156.84   50.15
   3   3  12 1157.89   37.63
   6  -3 -12 1171.70   38.90
  -6   3  12 1174.06   46.02
  -6   3  11   -4.92    9.06
   3   3  11    1.19    5.68
  -3   6 -11   -7.11   10.56
  -3  -3 -11   -6.03    8.65
  -3  -3 -11   -1.31   10.28
  -3   6 -11   43.31   12.63
   3   3  11   13.14   10.60
  -6   3  11   -5.01    9.15
   3  -6  11   -5.82    8.81
   3   3  11    7.23    6.77
   6  -3 -11    3.75    7.36
  -3   6 -11    5.41    6.66
   6  -3 -11   -0.15    6.12
   6  -3 -11    1.32    7.28
  -6   3  11   10.42    9.93
  -3  -3 -10  954.32   42.94
  -3  -3 -10 1010.89   25.68
   3   3  10  936.53   34.92
  -3   6 -10 1042.93   39.81
   3   3  10  890.45   41.89
  -6   3  10  910.06   41.06
  -6   3  10  902.78   38.12
   3   3  10  922.75   30.74
  -3   6 -10 1011.78   44.12
  -3   6 -10  942.58   34.91
   3  -6  10  960.75   43.17
   6  -3 -10  929.98   36.14
  -3  -3 -10  936.08   42.97
  -6   3  10  950.81   38.95
   6  -3 -10  901.92   34.81
  -6   3   9   -4.20    8.24
  -6   3   9    1.88    7.55
   3   3   9    3.18    6.07
  -3  -3  -9   -5.73    9.36
  -3  -3  -9   -1.09    9.27
  -3   6  -9  -34.98   13.89
   3   3   9   -4.52    7.86
  -6   3   9   10.48    8.01
   3  -6   9   -6.89    9.38
   6  -3  -9   -3.03    6.57
  -3   6  -9   13.11    8.98
  -3   6  -9   -0.80    6.42
   6  -3  -9   -2.48    7.52
   6  -3  -9   -4.60    8.48
   3   3   9    8.07    7.30
  -3  -3  -8 1189.01   44.63
   6  -3  -8 1111.46   38.56
   6  -3  -8 1117.08   31.39
  -3   6  -8 1108.38   40.14
   3   3   8 1088.33   43.79
  -6   3   8 1075.47   38.53
   6  -3  -8 1133.98   38.46
  -3   6  -8 1184.26   44.89
   6  -3  -8  938.88   37.34
  -3  -3  -8 1054.30   30.43
  -3   6  -8 1118.95   27.85
   3  -6   8 1119.79   43.78
  -3   6  -8 1138.70   38.29
   3   3   8 1180.62   39.27
  -3  -3  -8 1132.31   43.64
  -6   3   8  906.66   37.25
   3   3   8 1140.31   31.37
  -6   3   8 1140.41   40.28
   3   3   7   13.17    6.02
  -3  -3  -7   -1.34    8.08
   3   3   7    4.62    6.00
   6  -3  -7    3.09    5.58
  -3   6  -7    4.66   11.60
   6  -3  -7    9.35    6.73
  -3   6  -7    2.63    5.48
  -6   3   7    7.48    8.31
  -6   3   7   27.67   10.53
   3   3   7    6.00    9.04
   3  -6   7    7.28    9.99
   6  -3  -7   -1.66    7.95
  -3   6  -7    7.05    8.36
  -3  -3  -7    9.51    6.05
   6  -3  -7    5.81    8.24
  -3   6  -7    3.90    6.65
   3   3   7    6.81    7.09
   6  -3  -7    5.97    7.56
  -3   6  -7    5.75    4.85
  -6   3   6  194.38   17.95
   6  -3  -6  200.17   15.29
   6  -3  -6  200.08   15.48
  -3   6  -6  204.47   14.94
   6  -3  -6  205.88   17.78
  -3   6  -6  204.04   23.52
   3   3   6  209.18   20.07
  -6   3   6  198.71   18.30
  -3   6  -6  208.49   15.28
   6  -3  -6  201.12   18.58
  -3   6  -6  206.06   17.83
  -3  -3  -6  208.25   15.43
   3  -6   6  191.64   18.53
  -3   6  -6  197.57   12.52
   3   3   6  201.86   15.89
   3   3   6  203.38   18.81
   6  -3  -6  207.60   17.99
  -6   3   6  203.81   18.69
   3   3   6  203.94   14.31
  -3   6  -5   -0.95    6.33
  -6   3   5   -3.58    6.56
  -3   6  -5    3.52    4.92
  -6   3   5   13.55   13.39
   3   3   5    0.67    5.06
   6  -3  -5    4.93    6.40
  -3   6  -5   18.30   12.38
  -6   3   5   22.45   12.01
   6  -3  -5    1.38    5.54
  -3   6  -5    0.20    5.47
  -6   3   5    5.51   10.82
  -3   6  -5   -4.12    6.04
   3  -6   5    2.41    7.92
   6  -3  -5   -0.11    8.41
  -3  -3  -5    4.91    5.88
   3   3   5    6.27    6.55
   6  -3  -5   -0.30    7.53
  -3   6  -5   -3.02    8.01
   3   3   5    3.37    7.54
   6  -3  -5   -0.37    7.80
   6  -3  -4 4053.99   54.72
   6  -3  -4 4058.02   60.00
  -3   6  -4 4022.39   51.60
  -6   3   4 4081.09   59.46
  -3   6  -4 4090.11   68.78
  -3   6  -4 4055.18   53.78
  -6   3   4 4060.60   63.71
  -3   6  -4 4047.66   52.40
  -3   6  -4 4017.88   69.85
   3  -6   4 4006.52   56.23
   6  -3  -4 4085.10   70.43
   3  -6   4 4037.14   74.10
  -3  -3  -4 4037.48   62.69
   3   3   4 4079.25   62.37
   6  -3  -4 4023.43   68.26
   3   3   4 4097.08   71.16
   6  -3  -4 4000.31   70.42
  -3   6  -4 4059.44   60.18
  -6   3   4 4039.60   62.85
   6  -3  -4 4027.71   63.25
   3   3   4 4000.45   53.37
  -6   3   4 4050.53   69.05
  -3   6  -2  777.90   26.62
   6  -3  -2  764.03   27.63
  -6   3   2  826.81   29.43
  -3   6  -2  744.96   31.69
  -3   6  -2  786.00   31.81
  -3   6  -2  656.52   17.80
   6  -3  -2  776.50   31.72
   3  -6   2  787.14   32.18
   3   3   2  768.25   20.25
  -3  -3  -2  761.87   29.01
   3  -6   2  771.75   26.83
   3   3   2  728.77   28.48
   3   3   2  819.13   32.61
   6  -3  -2  784.79   31.96
  -6   3   2  758.68   24.65
  -3   6  -2  770.96   23.02
  -3   6  -1   -0.58    4.07
  -6   3   1    6.00    4.89
  -3  -3  -1    7.10   12.71
  -3   6  -1   -0.89    5.85
   6  -3  -1    4.21    6.50
  -6   3   1   15.37    8.05
   3  -6   1    5.84    8.69
  -3   6  -1    5.33    4.01
   3   3   1    2.55    4.67
  -3  -3  -1    3.36    6.15
   3   3   1    7.89    7.72
  -3   6  -1   12.91    7.86
   6  -3  -1    3.77    8.37
   3   3   1    3.03    7.10
   6  -3  -1    2.19    6.55
   3  -6   1   -0.22    6.24
   6  -3   0  105.25   12.13
  -6   3   0  107.22   12.83
   6  -3   0  103.52   13.17
   3  -6   0  126.29   14.23
   3  -6   0  110.73   12.26
   3   3   0  113.15   10.07
  -3   6   0  104.23   13.10
  -3   6   0  107.28   11.84
   3   3   0  122.49   14.46
   3   3   0  108.30   12.98
   6  -3   0  109.27   13.21
  -6   3   0  110.10    9.05
  -3   6   0  120.89    7.67
  -3  -3   0  168.42   19.43
   6  -3   1    9.21    8.13
  -3   6   1    1.31    3.38
  -3  -3   1   38.05   14.68
  -6   3  -1    3.67    4.24
  -3   6   1   10.01    6.93
   3  -6  -1   17.69    9.35
  -6   3  -1    3.28    7.59
  -3  -3   1   24.24   13.08
   3   3  -1   10.97    5.95
   3   3  -1    6.55    3.61
   3   3  -1   -1.33    7.40
  -3   6   1    9.79    7.89
   3   3  -1   10.00    7.52
   6  -3   1   13.54    8.28
   3  -6  -1    8.85    8.29
  -6   3  -2  624.65   18.04
  -6   3  -2  623.39   30.05
   6  -3   2  623.48   28.68
  -3   6   2  623.86   21.00
   6  -3   2  623.76   21.33
  -3  -3   2  623.51   32.67
   3  -6  -2  623.37   28.42
   6  -3   2  623.27   30.22
   3   3  -2  623.01   19.25
   3   3  -2  623.26   30.29
   3  -6  -2  623.53   28.30
   3   3  -2  622.26   26.21
  -3   6   2  623.42   30.52
   3   3  -2  623.78   30.51
  -3  -3   2  622.91   26.58
  -3  -3   2  623.55   30.62
  -3  -3   3   -0.18    6.04
  -6   3  -3   -0.29    3.71
   6  -3   3    9.74    8.08
   3  -6  -3   -1.12    7.50
  -6   3  -3    1.70    7.73
  -3   6   3   -1.67    4.80
   6  -3   3   -0.31    4.61
   3   3  -3    1.02    4.62
   3   3  -3   -2.03    6.18
   3   3  -3    0.20    7.36
  -3   6   3   -2.58    7.69
  -3  -3   3    1.04    3.95
   3   3  -3    0.30    7.11
   6  -3   3    1.61    8.30
   3  -6  -3    2.36    7.43
  -3  -3   4 3973.38   39.38
  -6   3  -4 3985.97   72.61
  -3   6   4 4070.04   53.93
   6  -3   4 3787.21   53.22
  -3   6   4 3961.30   70.18
  -3  -3   4 4310.07   74.10
   6  -3   4 3915.83   65.10
   3  -6  -4 3867.17   65.90
  -3   6   4 3845.58   50.30
  -3  -3   4 3970.84   44.77
   3   3  -4 3823.04   72.62
   3   3  -4 3837.67   69.90
   3  -6  -4 3940.10   71.51
   3   3  -4 3881.50   55.50
   6  -3   4 4028.30   71.23
   3   3  -4 3965.96   67.11
  -6   3  -4 3837.28   37.31
  -3   6   4 4004.73   74.96
  -3  -3   4 3889.69   72.18
  -3  -3   4 3896.15   67.84
  -3  -3   4 3710.82   38.33
  -3  -3   5    8.14    8.81
   3  -6  -5    6.58    8.12
  -3  -3   5    1.76    1.64
   6  -3   5    6.97    7.06
  -6   3  -5    2.26    8.81
  -3  -3   5   -0.20    1.70
  -3   6   5    2.71    5.61
   6  -3   5    8.28    6.25
   3   3  -5    7.42    9.47
  -3  -3   5   23.22   12.57
  -3   6   5    2.53    9.27
  -3  -3   5   18.79   11.15
  -3   6   5    4.36    4.33
   3  -6  -5    1.02    8.95
   3   3  -5    2.32    5.86
  -3   6   5    4.22    7.22
   3   3  -5   -2.47    7.64
   6  -3   5    0.75    7.26
  -3  -3   5    3.88    3.24
   3   3  -6  411.56   21.61
   3  -6  -6  413.21   26.12
  -6   3  -6  430.73   26.55
  -3   6   6  415.58   20.13
   6  -3   6  421.90   20.49
   3  -6  -6  434.16   23.26
  -3  -3   6  421.13   25.65
   6  -3   6  403.21   21.56
  -3   6   6  427.89   13.81
   3   3  -6  394.26   25.78
  -3  -3   6  354.21   10.08
  -3   6   6  405.42   13.69
  -3   6   6  402.28   23.16
  -6   3  -6  401.34   12.88
   3   3  -6  375.55   22.84
   6  -3   6  381.73   23.05
  -3   6   6  372.72   25.16
  -3  -3   6  402.06   25.86
  -3  -3   6  414.89   25.34
   3  -6  -7    3.48    8.45
  -3   6   7   -8.85   10.76
   3   3  -7    5.91    7.16
   3  -6  -7    7.65    7.29
  -3  -3   7   -2.96    8.51
  -6   3  -7   -6.17    9.70
   6  -3   7    1.81    6.08
  -3   6   7   -2.31    5.99
   6  -3   7   -3.51    6.12
  -3  -3   7   -6.74    8.15
  -3   6   7   -0.30    1.62
   3   3  -7   11.31   10.58
  -3   6   7   -0.70    1.69
  -3   6   7   -3.36    6.95
   6  -3   7   -9.68    7.86
  -3  -3   7   -2.28    9.17
   3   3  -7   -2.64    7.03
  -6   3  -7   -0.20    3.01
  -6   3  -8 2232.38   61.54
  -3   6   8 2201.60   50.32
   6  -3   8 2248.44   50.51
   3  -6  -8 2290.36   51.26
   3  -6  -8 2211.29   28.68
  -3  -3   8 2219.93   58.99
   6  -3   8 2296.55   48.75
   3   3  -8 2268.32   61.67
   3  -6  -8 2287.39   61.99
  -3   6   8 2297.69   52.97
   3   3  -8 2292.76   53.07
   6  -3   8 2292.06   53.31
   3   3  -8 2201.18   53.35
  -6   3  -8 2258.63   33.52
  -3   6   8 2297.20   61.25
  -3  -3   8 2220.01   60.30
  -3  -3   9    7.66   10.42
   3  -6  -9   21.88    8.93
  -3   6   9   13.12   10.57
  -6   3  -9   24.50   12.15
   3  -6  -9   17.90   10.31
  -3   6   9    7.80    7.24
   6  -3   9   15.19    8.70
   6  -3   9   12.60    7.81
  -3  -3   9   12.77   10.05
   3   3  -9    8.26    8.40
   3   3  -9   30.28   12.81
   6  -3   9    4.85    7.02
  -3   6   9    6.49    7.71
   3   3  -9    9.57    8.49
  -6   3 -10  756.87   38.92
  -3   6  10  759.95   33.08
   3  -6 -10  756.50   31.87
  -3  -3  10  751.20   38.52
   3   3 -10  759.65   38.32
   6  -3  10  765.22   33.41
   6  -3  10  773.43   30.89
  -3   6  10  786.54   32.09
   3  -6 -10  780.90   39.48
   3   3 -10  745.77   31.34
   6  -3  10  737.03   31.27
   3   3 -10  693.58   34.42
  -3   6  10  764.89   38.86
  -3  -3  10  787.43   39.93
  -3  -3  11   -5.27    9.07
   3  -6 -11    6.26   10.43
   3  -6 -11    0.24    7.32
  -3   6  11   19.98   11.00
  -6   3 -11    6.19   10.00
  -3   6  11    6.34    7.82
   6  -3  11    4.14    8.41
  -3  -3  11    9.51   10.33
   6  -3  11    5.19    6.84
   3   3 -11    8.94   11.18
  -3   6  11   10.06    7.51
   3   3 -11    5.96   10.30
   3   3 -11    7.66    7.03
   6  -3  11    1.21    6.38
   3  -6 -12  144.13   20.07
  -3   6  12  115.05   18.27
   3  -6 -12  122.65   14.71
  -6   3 -12  115.28   18.12
  -3   6  12   88.87   13.44
   6  -3  12  130.64   16.47
  -3  -3  12  130.30   19.08
  -3   6  12  123.69   13.74
   6  -3  12  124.68   13.82
   3   3 -12  123.88   13.50
   3   3 -12  130.91   18.58
   6  -3  12  141.90   14.34
   3   3 -12  114.87   17.46
  -3  -3  12  121.67   18.76
  -3   6  13   17.99   11.60
  -6   3 -13    4.32    9.33
  -3   6  13   -2.05    8.79
   6  -3  13   -0.74   10.45
   6  -3  13    5.17    6.59
  -3  -3  13    0.02   10.64
   3  -6 -13   -0.95    7.37
   3   3 -13    2.50    9.11
   3   3 -13    5.26   11.39
   3  -6 -13   -0.91   10.55
  -3  -3  13    0.64    9.58
  -6   3 -14  229.25   25.07
  -3   6  14  199.48   22.04
   6  -3  14  225.73   23.67
  -3  -3  14  224.59   25.86
  -3  -3  14  232.69   25.54
   3  -6 -14  241.55   26.47
  -3   6  14  215.24   24.65
   3   3 -14  226.50   24.92
   3   3 -14  208.83   23.78
  -3   6  15   -3.22    9.70
   6  -3  15    1.42    9.90
   3   3 -15    3.66   10.31
  -3   6  16  658.42   40.49
  -6   4  16    7.90   10.58
   6  -4 -16   -4.88   10.86
  -4   6 -15  123.01   18.46
  -6   2  15  141.23   20.52
  -6   4  15  141.04   18.95
  -4   6 -15  123.76   19.42
   4  -6  15  123.25   19.47
   6  -4 -15  118.37   18.85
  -6   2  15  141.49   21.19
   6  -2 -14  302.84   29.97
  -2  -4 -14  280.73   28.31
  -4  -2 -14  316.06   29.81
  -4   6 -14  286.37   25.53
   2   4  14  319.65   29.75
   4   2  14  287.84   28.70
  -6   2  14  290.33   27.07
  -6   4  14  352.34   31.52
  -6   4  14  303.77   25.16
   2   4  14  314.21   24.03
  -4   6 -14  346.48   30.24
  -2   6 -14  340.27   30.52
   6  -4 -14  282.80   26.02
   4  -6  14  305.31   28.09
  -2  -4 -14  292.45   28.83
   2  -6  14  292.36   29.25
  -6   2  14  350.74   31.03
  -4  -2 -14  306.19   29.24
  -6   2  14  308.28   28.16
  -6   4  13   67.46   15.73
  -6   2  13   78.80   17.46
   2   4  13   58.41   11.73
  -2   6 -13   77.98   15.86
  -2  -4 -13   57.84   15.58
  -4  -2 -13   97.97   18.42
  -2  -4 -13   67.29   16.20
  -4  -2 -13   79.85   17.04
  -4   6 -13   60.80   13.65
   2   4  13   73.85   17.22
   4   2  13   63.02   15.78
  -6   2  13   64.13   13.84
  -6   4  13   57.35   13.33
  -4   6 -13   82.65   17.43
   4  -6  13   77.72   15.95
   6  -2 -13   66.20   13.07
   2  -6  13   64.28   16.04
   6  -2 -13   67.34   12.81
   6  -4 -13   63.13   14.93
  -6   2  13   54.49   14.91
  -6   4  13   66.20   13.17
  -6   4  12   67.21   12.48
  -6   2  12   77.05   15.38
   2  -6  12   96.94   16.75
   2   4  12   71.46   12.42
  -2  -4 -12   78.10   16.19
  -4  -2 -12   83.04   17.55
  -2  -4 -12  101.30   17.93
  -4  -2 -12   81.02   16.99
  -4   6 -12   92.34   15.57
  -2   6 -12   83.75   14.14
   6  -2 -12   87.61   12.97
  -6   4  12   83.95   15.87
   2   4  12   80.73   15.80
   4   2  12   92.46   16.87
  -6   2  12   57.69   13.49
  -6   4  12   83.62   14.06
   4  -6  12   80.28   15.24
   6  -4 -12   78.40   11.87
  -4   6 -12   83.50   16.15
  -2   6 -12   87.37   17.11
   6  -2 -12   92.09   15.09
  -4   6 -12   83.22   11.81
  -2   6 -12   74.20   11.66
   2   4  12   84.72   12.84
   4   2  12   89.96   12.27
   6  -2 -12   90.43   14.04
   6  -4 -12   82.29   14.92
  -6   2  12  112.84   18.47
  -4  -2 -11  221.30   23.53
  -4   6 -11  223.49   21.76
  -2   6 -11  240.10   20.30
   2   4  11  238.11   23.75
   4   2  11  218.73   23.02
  -6   2  11  198.17   20.68
  -6   4  11  189.12   18.49
  -2   6 -11  222.30   23.02
   6  -2 -11  222.91   19.71
   6  -4 -11  185.44   19.85
   6  -2 -11  211.86   19.69
  -4   6 -11  231.92   18.19
   6  -4 -11  227.99   17.50
  -2   6 -11  223.98   17.87
   4  -6  11  225.29   22.95
   4   2  11  235.71   18.61
   2  -6  11  209.29   22.24
   6  -2 -11  217.64   18.21
   6  -4 -11  209.71   17.35
  -2  -4 -11  247.93   24.42
  -6   2  11  217.81   22.42
  -4  -2 -11  215.48   22.42
   2   4  11  217.22   17.86
  -6   4  11  227.14   22.88
   2   4  11  226.21   18.59
  -6   4  11  232.87   19.63
  -6   2  11  205.34   21.14
  -4   6 -10  910.15   34.86
  -4  -2 -10  899.04   42.93
   6  -2 -10  905.42   35.32
  -2   6 -10  903.04   34.45
  -6   4  10  906.28   35.56
  -4   6 -10  861.14   38.69
  -2   6 -10  899.87   35.27
  -6   4  10  914.73   41.59
   2   4  10  924.38   42.91
   4   2  10  929.18   42.91
  -6   2  10  883.38   39.74
  -6   4  10  871.10   35.04
  -2   6 -10  972.06   43.71
   6  -2 -10  951.78   37.28
  -4  -2 -10  898.80   24.91
   6  -4 -10  737.26   36.57
   6  -2 -10  891.66   37.57
   4  -6  10  952.94   43.14
   2   4  10  902.82   34.21
   6  -4 -10  890.84   32.64
   2   4  10  928.81   35.27
   4   2  10  935.36   35.76
   2  -6  10  984.28   44.40
  -2  -4 -10  891.26   41.56
  -6   2  10  892.50   40.51
   4   2  10  900.04   25.96
   6  -4 -10  890.76   35.09
  -6   2  10  887.21   39.75
   6  -4  -9  159.00   14.85
  -4   6  -9  159.38   15.79
  -4  -2  -9  162.69   18.98
  -4   6  -9  192.41   19.58
  -2   6  -9  171.80   18.12
   2   4   9  170.29   16.12
   2   4   9  162.93   19.21
   4   2   9  170.47   19.46
  -6   4   9  149.60   15.41
  -6   2   9  134.64   16.91
  -2   6  -9  155.43   19.08
   6  -2  -9  138.53   15.56
  -4  -2  -9  154.41    9.57
   6  -4  -9  139.70   17.24
   4  -6   9  151.50   18.22
   6  -2  -9  152.14   16.70
  -2   6  -9  162.02   15.61
   2  -6   9  171.93   19.84
   4   2   9  149.36   15.29
   6  -2  -9  155.65   15.73
  -2  -4  -9  178.01   19.76
  -6   2   9  135.62   16.41
   4   2   9  153.40   10.56
  -6   4   9  150.82   18.09
   2   4   9  161.01   14.92
   6  -4  -9  157.32   15.84
  -6   4   9  157.34   15.73
  -6   2   9  148.62   17.30
  -4  -2  -8  180.35   19.06
   6  -2  -8  173.18   10.71
  -4   6  -8  196.44   19.85
  -2   6  -8  183.63   18.49
   6  -4  -8  172.39   14.46
  -4   6  -8  175.73   14.68
  -2  -4  -8  179.13   18.71
   2   4   8  168.71   18.83
   4   2   8  171.39   19.55
  -6   2   8  193.45   18.73
   2  -6   8  189.88   20.00
  -6   4   8  175.32   15.36
  -4   6  -8  179.04   16.31
  -4  -2  -8  175.80    8.72
  -2   6  -8  185.94   19.31
   6  -2  -8  176.91   16.77
  -2  -4  -8  172.03   11.19
   6  -4  -8  167.76   18.16
  -4  -2  -8  166.86   14.39
  -4   6  -8  169.65   13.76
   4  -6   8  184.46   19.42
   6  -2  -8  173.02   17.70
   4   2   8  184.45   10.66
   6  -4  -8  184.00   15.95
  -2   6  -8  188.63   16.55
   2   4   8  192.05   16.88
   4   2   8  162.22   16.25
   6  -2  -8  183.33   16.87
   6  -4  -8  184.67   16.86
  -6   2   8  143.30   15.69
  -6   4   8  161.04   17.14
  -6   4   8  179.45   15.85
   2   4   8  184.48   15.57
  -6   2   8  200.50   19.71
   4   2   7   22.18    4.66
  -6   4   7   16.15    7.96
  -6   2   7  -12.62   12.42
   2   4   7   16.09    6.86
  -2   6  -7   19.80    3.66
  -2  -4  -7   34.22   10.27
  -4  -2  -7   15.12    9.78
   6  -2  -7   16.70    4.92
  -2  -4  -7   18.15    5.50
   6  -4  -7   17.97    7.37
  -4   6  -7   51.08   13.99
  -2   6  -7   31.45   11.15
   6  -4  -7   12.95    5.85
  -4   6  -7   19.58    6.47
  -6   2   7   50.14   12.95
  -6   4   7   23.26    8.57
   2   4   7   36.82   12.11
   4   2   7   23.27   10.76
   4  -6   7   11.50    9.31
   2  -6   7   20.18    9.54
  -4  -2  -7   23.07    7.52
   6  -2  -7   21.68    8.99
   2   4   7   17.77    5.84
  -4   6  -7   12.80    7.94
  -6   2   7   13.00    8.03
  -2   6  -7   33.10   10.89
  -2   6  -7   18.99    8.29
   2   4   7   20.69    9.07
   6  -2  -7   14.51    8.24
   4   2   7   18.15    7.39
  -4  -2  -7   17.43    2.68
   6  -2  -7   21.57    8.54
   6  -4  -7   25.79   10.87
   6  -4  -7   16.84    8.25
  -4   6  -7   20.08    6.89
  -6   4   7   76.80   13.08
   4   2   6  833.12   32.36
  -4  -2  -6  833.38   36.28
   6  -2  -6  830.01   25.06
  -2   6  -6  834.69   32.78
   6  -4  -6  884.56   31.66
  -4   6  -6  839.11   36.53
   6  -4  -6  832.62   27.10
  -2   6  -6  839.46   34.14
  -4   6  -6  838.32   26.27
   2   4   6  838.40   38.42
   4   2   6  898.87   37.64
  -6   2   6  844.70   35.07
  -2   6  -6  831.75   31.71
  -6   4   6  841.83   31.81
  -4   6  -6  839.37   30.73
   6  -2  -6  837.27   35.16
  -2   6  -6  847.91   38.63
  -2  -4  -6  853.40   26.83
   6  -4  -6  847.64   37.66
   4  -6   6  849.79   38.66
  -4  -2  -6  843.26   32.24
  -4   6  -6  847.69   30.13
   6  -2  -6  848.07   36.49
   2   4   6  850.88   28.02
   2  -6   6  847.73   38.18
  -4   6  -6  843.52   33.31
  -2   6  -6  846.35   32.73
  -2   6  -6  843.32   21.19
   4   2   6  848.22   35.70
   6  -2  -6  849.54   35.22
   6  -4  -6  853.42   35.28
  -2  -4  -6  864.77   37.79
  -6   2   6  859.22   34.04
   2   4   6  851.76   36.06
  -6   4   6  853.27   36.44
   4   2   6  850.16   20.22
   2   4   6  849.40   31.22
  -6   4   6  851.81   31.49
  -6   2   6  849.91   37.28
  -4  -2  -5 1301.42   41.87
   6  -2  -5 1254.09   30.06
   6  -4  -5 1261.18   37.33
  -4   6  -5 1221.78   42.38
   6  -4  -5 1278.99   29.14
  -4   6  -5 1253.20   28.91
  -6   2   5 1280.34   31.76
  -2   6  -5 1197.80   38.63
  -6   2   5 1308.56   42.68
  -6   4   5 1188.85   34.91
  -2   6  -5 1101.35   32.34
  -4   6  -5 1250.25   33.63
   2  -6   5 1238.83   34.03
   2  -6   5 1256.02   27.01
   6  -2  -5 1303.61   40.68
  -2   6  -5 1215.69   42.26
   4  -6   5 1276.97   43.60
  -2  -4  -5 1228.14   32.35
   6  -4  -5 1252.82   42.90
  -4  -2  -5 1265.73   37.74
  -4   6  -5 1229.10   34.66
   2  -6   5 1259.03   43.17
   2   4   5 1238.01   32.80
   6  -2  -5 1259.01   41.78
   4   2   5 1274.06   38.11
  -4   6  -5 1277.23   40.71
   2   4   5 1304.44   41.71
   6  -2  -5 1324.18   41.99
   6  -4  -5 1341.97   41.84
  -2  -4  -5 1280.67   41.28
  -6   2   5 1319.90   37.63
  -2   6  -5 1267.34   26.55
  -6   4   5 1274.21   40.04
   4   2   5 1273.93   41.73
  -2   6  -5 1263.97   40.54
   4   2   5 1355.47   23.69
   6  -2  -5 1313.78   37.96
  -4   6  -5 1311.33   38.12
  -2   6  -5 1310.25   38.02
   2   4   5 1228.57   35.15
  -6   4   5 1220.91   37.93
  -6   2   5 1402.03   46.63
  -2   6  -4    2.16    7.40
   2   4   4    2.31    3.11
  -6   4   4    2.02   15.20
   6  -2  -4    2.96    6.50
   4   2   4    2.28    4.30
  -2   6  -4    2.43    4.99
  -2  -4  -4    2.99    8.66
  -4  -2  -4    2.73    9.78
   6  -2  -4    2.61    5.97
   6  -4  -4    2.15    6.84
  -4   6  -4    2.44   12.23
  -6   2   4    2.48    9.31
  -6   4   4    2.73   10.55
  -2   6  -4    2.90    9.86
  -2   6  -4    2.21    9.51
   6  -4  -4    2.01    4.83
  -4   6  -4    2.78    4.81
   4  -6   4    2.44    9.41
  -6   2   4    2.02   13.76
  -6   4   4    2.15    7.42
  -6   4   4    2.84    9.60
   2  -6   4    2.13    5.78
  -2   6  -4    2.38    7.45
  -4   6  -4    2.71    5.87
   4   2   4    2.20    2.30
   2  -6   4    2.04    6.48
   2  -6   4    2.85   10.13
  -2  -4  -4    2.51    6.45
  -4  -2  -4    2.57    7.63
   2   4   4    2.96    7.35
   4   2   4    2.11    7.73
   6  -2  -4    2.20   10.33
  -4   6  -4    2.40    8.76
  -2   6  -4    2.96   10.49
   6  -2  -4    2.70    8.15
   4  -6   4    2.79    7.33
   2   4   4    2.21    9.14
   4   2   4    2.10    9.52
   6  -4  -4    2.41    9.28
   6  -2  -4    2.90    9.04
   6  -4  -4    2.12    9.23
  -4   6  -4    2.12    5.98
  -2  -4  -4    2.89    3.07
  -4   6  -4    2.28    6.94
  -6   2   4    2.89    6.57
  -4  -2  -3 1634.74   42.54
   6  -2  -3 1583.05   35.97
   6  -4  -3 1653.96   42.89
   6  -4  -3 1583.87   26.52
  -4   6  -3 1576.63   26.14
  -6   2   3 1678.44   37.91
  -4   6  -3 1581.78   47.14
  -6   4   3 1585.78   42.62
  -6   4   3 1537.34   39.41
  -2   6  -3 1574.30   33.57
   2   4   3 1486.81   27.00
  -4   6  -3 1560.09   31.60
   2  -6   3 1659.07   33.14
   4  -6   3 1637.56   47.52
   4  -6   3 1655.21   41.48
  -2   6  -3 1668.87   45.60
   6  -4  -3 1623.41   47.35
  -2  -4  -3 1579.78   38.99
   2  -6   3 1652.97   34.65
   2  -6   3 1618.09   45.90
   6  -2  -3 1660.39   46.88
   2   4   3 1592.97   39.18
   4   2   3 1699.49   44.26
  -4   6  -3 1633.42   40.96
  -6   2   3 1611.85   36.66
   4   2   3 1606.29   26.34
  -4   6  -3 1682.82   46.19
  -2   6  -3 1683.34   46.52
   2   4   3 1595.47   45.57
   4   2   3 1657.26   46.42
   6  -2  -3 1602.08   45.63
   6  -4  -3 1606.27   45.62
  -2  -4  -3 1657.07   43.30
  -2  -4  -3 1625.81   27.74
  -6   4   3 1589.33   40.81
  -2   6  -3 1554.96   33.00
  -4   6  -3 1603.13   37.20
   6  -2  -3 1615.24   36.77
  -2   6  -3 1645.48   37.39
  -6   2   3 1547.56   47.22
  -4  -2  -2  984.17   32.04
   6  -2  -2  975.90   29.18
   6  -4  -2 1023.90   34.04
   6  -4  -2  966.71   18.85
  -4   6  -2  938.31   17.96
  -6   2   2 1001.25   30.20
  -6   4   2 1021.69   35.05
  -4   6  -2 1033.23   38.14
  -2   6  -2  985.81   27.01
   6  -4  -2  999.23   37.06
  -6   2   2  981.24   33.36
  -6   4   2  972.57   30.74
  -4   6  -2  875.93   20.93
   2  -6   2 1033.91   23.49
   2   4   2 1017.64   24.83
  -2  -4  -2 1007.36   32.30
   4  -6   2 1027.30   37.50
   6  -4  -2 1010.00   36.90
  -2   6  -2 1082.31   35.58
   4  -6   2 1015.72   33.02
  -2  -4  -2 1018.55   32.06
   2  -6   2 1024.82   35.91
   2  -6   2 1047.38   29.18
   2   4   2 1031.46   32.54
   4   2   2 1021.01   35.24
  -4   6  -2 1008.10   32.76
   6  -2  -2 1013.53   37.00
  -2   6  -2 1056.03   37.27
   4   2   2  941.88   23.14
   2   4   2 1028.63   36.50
   4   2   2 1007.66   36.52
  -2   6  -2 1023.55   28.23
   6  -2  -2 1007.55   36.47
  -2  -4  -2  993.18   24.44
  -6   2   2 1033.77   27.13
   6  -2  -2  928.35   26.25
  -4   6  -2  996.49   27.21
  -4   6  -2  989.49   35.82
  -2  -4  -2 1031.48   32.67
   6  -4  -1   43.97   11.47
  -4   6  -1   37.69    9.10
  -2   6  -1   22.08    6.89
  -2  -4  -1   45.57   12.93
  -6   4   1   39.52    7.96
  -2   6  -1   29.51    7.43
  -4   6  -1   36.13    3.82
   4   2   1   37.50    6.60
  -2  -4  -1   35.79    8.19
  -4  -2  -1   41.79    8.47
   6  -2  -1   45.94    8.86
   4  -6   1   45.01   11.35
  -6   2   1   40.91    9.29
  -6   4   1   52.18   12.43
   6  -2  -1   45.74   11.96
  -4   6  -1   56.58   14.88
   2   4   1   32.32    7.04
   2  -6   1   37.37    9.75
  -4   6  -1   34.64    4.50
  -6   2   1   47.02   10.42
  -2   6  -1   37.65    9.05
  -2  -4  -1   52.91    9.25
   4   2   1   42.45   10.59
  -4   6  -1   48.19   10.64
  -2   6  -1   40.83   11.08
   6  -4  -1   50.40   11.60
   2   4   1   48.49   11.01
  -2  -4  -1   40.91    7.10
   4   2   1   52.63   11.52
   2   4   1   36.89    9.25
   4  -6   1   40.20    9.55
   6  -2  -1   37.49   10.48
   2  -6   1   46.03    8.80
  -4   6  -1   37.83    6.42
  -6   2   1   37.32    6.44
   2   4   0   55.17    4.55
  -4   6   0   71.52   10.88
  -2  -4   0   73.69   14.06
  -2   6   0   56.48    9.50
  -2   6   0   64.92    7.72
   6  -4   0   63.97   11.73
  -4  -2   0   51.56   15.09
  -6   2   0   51.90    6.06
  -6   4   0   48.37    7.94
  -2   6   0   76.55   11.61
  -2   6   0   47.30    8.27
  -6   4   0   93.85   14.03
  -2  -4   0   47.06    7.87
  -4  -2   0   60.29    8.90
   6  -2   0   59.70    9.50
   4  -6   0   49.34   11.56
  -2   6   0   56.64   11.11
  -6   2   0   63.60   10.18
  -4   6   0   53.02    4.15
   6  -4   0   50.33    4.50
  -4   6   0   74.39   16.56
  -4   6   0   51.38    3.59
   2  -6   0   52.53   10.09
   2   4   0   44.87    7.89
  -2  -4   0   74.90   13.75
  -4   6   0   60.73    6.48
  -2  -4   0   44.95    9.44
   4   2   0   59.39    7.99
   2   4   0   60.23   10.32
   4   2   0   57.60   11.40
   6  -2   0   53.75   10.88
  -4   6   0   63.55   11.32
  -2  -4   0   58.29    8.48
   2   4   0   55.23   10.29
   4   2   0   51.79   10.89
   6  -2   0   67.36   11.32
   4  -6   0   79.03   11.59
   6  -4   0   55.32   11.06
   2  -6   0   63.18    9.53
  -2  -4   1  149.17   14.64
  -2  -4   1  230.89   13.59
  -4  -2   1  243.44   13.77
   6  -2   1  227.67   16.57
  -6   2  -1  265.90   17.71
  -6   4  -1  261.84   19.37
   6  -2   1  242.68   17.32
   2   4  -1  232.59   10.36
  -4   6   1  240.13    8.20
   6  -4   1  241.86    8.90
  -2   6   1  249.18   17.59
   6  -4   1  224.03   18.46
  -2  -4   1  221.33   18.99
   4  -6  -1  223.86   18.29
   4   2  -1  232.22   13.96
   2  -6  -1  241.54   17.19
  -2   6   1  233.08   15.35
   2   4  -1  244.33   15.49
   4  -6  -1  246.86   18.11
   2   4  -1  237.23   18.18
   4   2  -1  230.98   18.61
   2  -6  -1  267.71   17.67
  -4   6   1  255.25   19.48
  -2   6   1  251.27   19.28
   4   2  -1  228.61   18.54
   4   2  -1  243.06   15.21
  -2   6   1  232.32   15.98
   6  -2   1  228.01   18.48
  -6   2  -1  238.30    8.97
  -2  -4   1  237.65   15.41
  -4   6   1  247.04    9.69
  -6   4  -1  253.58   14.56
   2   4  -1  240.37   18.58
  -4  -2   1  249.00   23.26
  -4  -2   2 1235.89   27.28
  -6   2  -2 1269.48   38.34
  -6   4  -2 1249.55   40.57
  -2  -4   2 1297.30   31.83
  -4   6   2 1228.31   20.26
  -2   6   2 1234.50   36.63
   6  -4   2 1301.66   22.10
   6  -2   2 1285.30   36.30
   6  -4   2 1188.25   38.67
  -4  -2   2 1028.23   39.26
  -2  -4   2 1267.31   37.57
   2   4  -2 1230.90   26.54
   4  -6  -2 1267.60   40.23
   2  -6  -2 1295.58   36.93
  -4  -2   2 1175.46   31.56
  -2   6   2 1268.65   32.66
   2   4  -2 1290.05   36.36
   2   4  -2 1214.31   39.28
   4  -6  -2 1261.65   39.78
   4   2  -2 1264.87   41.24
   2  -6  -2 1305.53   38.15
  -4   6   2 1269.03   40.42
  -2   6   2 1278.93   40.90
   2   4  -2 1242.11   40.25
   4   2  -2 1265.36   40.74
   4   2  -2 1229.64   35.07
   6  -2   2 1276.65   40.78
  -2   6   2 1303.91   37.71
  -2  -4   2 1285.77   27.90
  -6   2  -2 1119.33   13.03
   4   2  -2 1242.89   32.32
  -2  -4   2 1229.86   35.52
  -6   4  -2 1333.41   30.69
  -2  -4   2 1324.91   38.95
  -4  -2   2 1269.45   43.18
  -4  -2   3  561.19   16.32
  -6   2  -3  573.45   27.08
  -6   4  -3  563.09   28.09
   4   2  -3  584.11   21.08
  -2  -4   3  555.45   20.01
  -4   6   3  559.44   15.56
   6  -4   3  580.60   16.66
   6  -2   3  534.60   23.40
  -2   6   3  558.21   22.97
   6  -2   3  561.74   23.41
  -4  -2   3  548.73   29.70
   4  -6  -3  557.68   27.21
  -2  -4   3  499.24   24.30
   6  -4   3  530.34   26.41
   2   4  -3  497.24   19.07
   2  -6  -3  531.04   23.81
  -4  -2   3  559.97   21.06
  -2   6   3  561.13   20.75
   2   4  -3  546.98   27.76
   2   4  -3  560.20   25.34
   4  -6  -3  582.96   28.36
   4   2  -3  565.82   28.45
  -4   6   3  545.11   27.07
  -2   6   3  569.52   27.65
   2   4  -3  554.89   27.41
   4   2  -3  572.30   27.94
   4   2  -3  536.56   24.64
   6  -2   3  550.99   27.47
  -2  -4   3  561.60   16.78
   6  -4   3  586.02   28.21
   4   2  -3  560.35   23.24
  -2  -4   3  523.90   24.65
  -2  -4   3  555.93   26.42
  -4   6   3  586.42   29.41
   2  -6  -3  553.46   26.38
  -4  -2   3  558.22   30.07
  -2   6   4  809.90   29.53
  -4  -2   4  811.08   15.86
  -6   2  -4  832.04   33.67
  -6   4  -4  864.99   35.06
  -2  -4   4  816.78   22.35
  -4   6   4  858.33   21.27
   6  -4   4  819.35   21.63
  -2   6   4  801.70   28.02
   6  -2   4  830.22   28.89
   4   2  -4  827.78   26.72
   4  -6  -4  801.95   32.67
   6  -2   4  848.42   28.90
  -4  -2   4  789.13   34.81
  -2  -4   4  963.37   34.13
   6  -4   4  803.45   32.08
   2   4  -4  799.71   25.95
   2  -6  -4  849.81   29.57
   2  -6  -4  830.75   33.34
  -2  -4   4  787.85   17.05
  -2   6   4  827.42   23.37
  -4  -2   4  820.62   24.82
   2   4  -4  829.68   34.75
   4   2  -4  833.16   34.97
   4  -6  -4  856.82   35.07
  -4   6   4  853.06   33.54
  -4   6   4  831.63   25.71
  -2   6   4  843.17   33.44
   2   4  -4  846.17   33.60
   4   2  -4  813.91   33.08
  -2  -4   4  807.26   16.79
   6  -2   4  834.62   33.53
   6  -4   4  838.39   33.28
   4   2  -4  884.57   30.78
  -2  -4   4  800.74   31.89
  -4   6   4  865.67   35.64
  -2  -4   4  824.13   32.98
  -2   6   4  772.31   34.11
  -4  -2   4  771.57   34.26
  -2   6   5  250.10   20.67
  -6   2  -5  209.42   18.60
  -6   4  -5  210.90   19.13
  -2  -4   5  214.69   10.66
  -4   6   5  238.14   12.93
   6  -4   5  227.95   12.95
  -2   6   5  227.90   16.68
  -2   6   5  228.10   16.35
   6  -2   5  247.48   17.13
   4  -6  -5  215.42   18.08
   2   4  -5  224.49   18.51
  -2  -4   5  216.15   18.19
   6  -2   5  243.43   16.23
   2   4  -5  218.55   15.44
  -4   6   5  233.06   13.45
   4   2  -5  247.27   16.43
   2  -6  -5  226.52   16.39
   6  -4   5  227.69   18.51
   6  -4   5  240.58   18.80
  -4  -2   5  188.17   17.25
  -2   6   5  230.59   11.70
   2   4  -5  223.15   19.50
  -4  -2   5  234.42   13.35
   4   2  -5  256.26   21.32
   4  -6  -5  215.17   18.92
  -4   6   5  232.94   18.67
   2  -6  -5  228.53   19.40
  -2   6   5  217.99   18.03
   4   2  -5  229.43   18.57
   6  -2   5  212.84   18.03
  -2  -4   5  228.77   18.60
  -4   6   5  210.55   18.96
  -2  -4   5  227.97   19.05
  -4  -2   5  384.21   26.54
  -6   2  -6 1523.20   48.06
  -2  -4   6 1468.30   23.92
  -6   4  -6 1517.25   48.63
  -4   6   6 1474.59   33.55
   6  -4   6 1559.41   35.07
  -2   6   6 1422.93   39.54
   6  -2   6 1559.90   41.82
   4  -6  -6 1509.59   45.09
   2   4  -6 1525.27   40.79
  -4  -2   6 1401.54   46.70
   2  -6  -6 1337.05   15.92
  -2  -4   6 1523.57   45.93
   2  -6  -6 1486.94   38.52
  -2   6   6 1410.84   39.92
   6  -2   6 1503.72   37.28
   6  -4   6 1536.29   44.31
   4   2  -6 1434.99   40.20
   6  -2   6 1513.19   44.87
  -2   6   6 1512.75   24.08
   2   4  -6 1476.01   48.29
   4   2  -6 1418.78   46.99
  -4  -2   6 1475.02   29.67
   4  -6  -6 1549.91   49.24
  -4   6   6 1457.06   30.14
  -4   6   6 1497.77   44.14
   2  -6  -6 1506.27   47.62
  -2   6   6 1504.78   44.23
   2   4  -6 1345.88   42.18
   6  -4   6 1521.56   44.70
   4   2  -6 1369.67   42.54
  -2  -4   6 1467.61   46.27
  -4   6   6 1478.06   48.32
  -2   6   6 1465.71   47.35
  -2  -4   6 1600.38   48.08
  -4  -2   6 1585.22   50.30
  -2  -4   7  489.57   11.30
  -6   2  -7  514.93   29.66
  -6   4  -7  538.12   30.32
  -4   6   7  555.26   22.45
   6  -4   7  507.48   21.91
  -2   6   7  499.86   24.97
   6  -2   7  561.53   26.86
   4  -6  -7  497.40   26.78
   2   4  -7  531.63   26.00
   2  -6  -7  502.67   29.10
  -4  -2   7  503.51   29.32
   2  -6  -7  533.02   13.54
   2  -6  -7  527.05   23.38
  -2  -4   7  536.06   28.75
   6  -2   7  470.96   21.15
   6  -4   7  526.58   26.47
   4   2  -7  552.99   26.72
   2   4  -7  542.48   30.52
   4   2  -7  522.87   29.88
  -4   6   7  510.67   16.27
   4  -6  -7  511.57   29.77
  -4  -2   7  520.58   16.97
  -4   6   7  558.19   27.46
  -2   6   7  546.54   27.29
   2   4  -7  527.33   27.07
   4   2  -7  514.93   26.48
  -2  -4   7  515.31   29.27
   6  -2   7  513.47   26.73
   6  -4   7  517.30   26.57
  -2  -4   7  530.40   29.62
  -4   6   7  510.08   29.82
  -2   6   7  507.27   29.11
  -4  -2   7  531.87   30.32
  -2  -4   8   28.21   10.79
  -4  -2   8   44.10   12.61
   4  -6  -8   40.78   11.29
   2  -6  -8   40.51   12.29
  -4  -2   8   30.10    4.96
  -4   6   8   32.23   11.74
  -2   6   8   24.24    9.89
   2  -6  -8   40.99    8.39
   4   2  -8   32.74    9.81
  -6   2  -8   38.20   12.11
  -6   4  -8   46.40   12.68
  -4   6   8   45.79   10.19
  -4   6   8   38.73    8.48
   6  -4   8   21.65    7.20
   6  -4   8   43.35   10.14
   6  -2   8   36.74    8.15
  -2   6   8   39.62   10.20
   6  -2   8   37.12   10.11
  -4  -2   8   41.03   12.71
   2  -6  -8   37.10    5.14
  -2  -4   8   41.64   11.90
   2   4  -8   48.66   12.52
  -4   6   8   31.57    4.07
   4   2  -8   31.60   11.31
  -2   6   8   38.00   10.46
   2   4  -8   41.49   10.01
   4   2  -8   40.15   10.25
   2   4  -8   32.37    9.73
   6  -2   8   39.89   10.44
   6  -4   8   33.37    9.48
  -2  -4   8   37.77   12.49
  -6   4  -8   42.33    7.60
   4  -6  -8   25.90   11.26
  -6   2  -9  423.82   28.93
  -6   4  -9  442.04   28.98
  -4   6   9  426.20   22.60
   6  -4   9  407.47   22.65
   2   4  -9  425.32   25.83
  -2   6   9  397.62   24.60
   6  -2   9  398.97   24.90
   4  -6  -9  434.82   26.27
   2  -6  -9  442.54   22.09
  -4  -2   9  433.98   29.34
  -2  -4   9  423.04   27.90
   4   2  -9  437.54   26.88
   6  -4   9  433.05   25.32
   2   4  -9  441.28   29.50
   6  -2   9  441.27   20.67
   4   2  -9  456.58   29.79
   4  -6  -9  448.74   29.69
  -4   6   9  449.45   24.96
  -2   6   9  420.87   24.16
   2  -6  -9  420.62   28.47
   2   4  -9  442.69   24.85
   4   2  -9  431.08   24.60
   6  -2   9  431.31   24.72
   6  -4   9  420.05   24.27
  -4   6   9  420.43   28.99
  -2   6   9  446.46   28.89
  -2  -4   9  418.37   28.41
  -2  -4   9  439.88   29.78
  -4  -2   9  423.53   29.28
  -6   2 -10  407.64   29.39
  -6   4 -10  396.23   28.98
   2   4 -10  283.91   22.81
  -4   6  10  402.38   23.43
   6  -4  10  427.92   24.86
  -2   6  10  376.38   25.00
   6  -2  10  412.68   26.48
   4  -6 -10  433.54   26.62
   2  -6 -10  399.11   21.26
  -4  -2  10  347.75   27.71
  -2  -4  10  424.80   28.96
   2   4 -10  377.34   23.22
   4   2 -10  296.93   23.40
   2   4 -10  388.04   28.74
   4   2 -10  419.85   29.18
   6  -4  10  418.80   25.39
   6  -2  10  443.10   20.92
   4  -6 -10  415.21   29.63
  -4   6  10  406.12   23.66
  -2   6  10  411.70   23.94
   4   2 -10  394.06   23.60
   6  -2  10  389.07   23.66
   2  -6 -10  408.92   29.35
   6  -4  10  435.18   25.01
  -2   6  10  413.38   29.07
  -4   6  10  410.97   30.00
  -2  -4  10  401.71   29.16
  -2  -4  10  445.21   30.83
  -4  -2  10  395.87   29.47
  -4  -2  11  160.19   20.48
   2   4 -11  202.36   20.79
  -6   2 -11  248.84   24.83
  -6   4 -11  219.34   23.15
  -4   6  11  216.78   18.51
   6  -4  11  221.34   19.20
  -2   6  11  154.08   17.39
   6  -2  11  238.93   21.68
   4  -6 -11  209.92   20.12
   2  -6 -11  207.24   15.97
  -4  -2  11  212.18   22.23
  -2  -4  11  195.36   21.55
   4   2 -11  192.82   20.57
   2   4 -11  205.89   22.47
   4   2 -11  211.23   22.25
   6  -4  11  212.87   19.04
   4  -6 -11  211.07   23.06
  -4   6  11  230.93   18.20
  -2   6  11  192.71   16.84
   6  -2  11  217.62   15.24
   2  -6 -11  215.86   22.43
   2   4 -11  196.02   16.85
   4   2 -11  209.54   17.38
   6  -2  11  220.11   17.91
   6  -4  11  205.08   17.30
  -4   6  11  212.58   22.79
  -2   6  11  246.56   23.95
  -2  -4  11  216.14   23.35
  -2  -4  11  191.29   21.89
   4  -6 -12   90.86   16.65
  -4  -2  12   73.62   15.38
  -2  -4  12  107.98   18.11
  -4   6  12   86.37   15.90
  -2   6  12  110.05   18.11
   2  -6 -12   92.98   17.91
  -6   2 -12   84.64   15.50
   4   2 -12   88.28   16.00
  -6   4 -12   90.80   17.46
   4   2 -12   95.40   16.91
  -4   6  12   80.11   13.54
   6  -4  12   94.31   14.57
  -2   6  12   83.68   14.73
   6  -2  12  105.83   16.40
  -4  -2  12   83.52   16.94
  -2  -4  12   72.44   15.45
   6  -4  12   86.26   13.48
   2   4 -12   67.94   14.47
  -4   6  12  108.05   13.07
   4   2 -12   84.18   11.93
   2   4 -12   95.21   16.44
  -2   6  12   91.03   12.48
   2   4 -12   98.43   12.45
   6  -2  12   84.36   12.34
   6  -4  12   82.64   11.85
   4  -6 -12   89.32   14.53
  -2  -4  12   70.43   15.37
  -4  -2  13   98.30   18.26
   4  -6 -13  128.25   20.46
  -2  -4  13   94.48   17.17
  -4   6  13  105.20   18.60
  -2   6  13  120.95   18.87
   2  -6 -13  115.32   18.98
   4   2 -13  130.47   19.79
  -6   2 -13  108.32   18.28
  -6   4 -13  113.89   19.15
  -4   6  13  106.44   15.82
   6  -4  13  113.93   15.86
  -2   6  13  112.82   16.74
   6  -2  13  128.75   18.97
  -4  -2  13  111.72   18.56
  -2  -4  13  125.77   20.08
   2   4 -13  124.49   18.35
   6  -4  13  119.64   15.77
   2   4 -13  133.79   19.92
   4   2 -13  112.15   18.16
   4  -6 -13  113.24   16.57
  -6   2 -14  353.60   31.36
  -6   4 -14  311.99   29.57
  -4   6  14  336.45   26.68
   6  -4  14  350.23   27.50
  -2   6  14  311.53   27.28
   6  -2  14  317.65   27.77
  -4  -2  14  335.25   30.25
  -2  -4  14  319.11   29.68
   4   2 -14  307.82   28.94
   2   4 -14  352.63   30.55
   4   2 -14  326.22   28.54
   4  -6 -14  326.01   30.32
   2  -6 -14  340.13   30.87
  -4   6  14  341.61   30.74
  -2   6  14  360.84   30.74
   6  -4  14  334.11   24.87
  -4  -2  14  364.75   32.21
   2   4 -14  348.99   30.45
  -2   6  15   21.76   13.05
  -4   6  15   39.81   13.19
   6  -4  15   22.30   12.16
  -2   6  15   47.34   14.11
   6  -2  15   54.04   15.50
   2   4 -15   44.72   15.76
   4   2 -15   42.44   14.98
  -4   6  16   90.39   16.93
   6  -4  16  115.14   19.76
   4   2 -16  111.61   19.15
  -5   6 -16   75.82   17.02
   1   5  15   91.30   15.95
  -5   6 -15   95.31   17.87
   5  -6  15   95.59   17.23
   6  -5 -15   92.34   18.38
   6  -1 -14  392.34   34.28
  -5   6 -14  357.21   29.28
   1   5  14  349.85   31.08
   5   1  14  376.07   32.36
  -6   1  14  371.04   31.25
  -5   6 -14  372.30   31.38
  -1   6 -14  390.76   32.78
   6  -5 -14  393.35   31.56
   6  -1 -14  366.37   28.27
   5  -6  14  373.16   30.70
   1   5  14  329.97   26.67
  -6   1  14  364.14   31.40
  -6   1  13   46.90   14.64
  -6   5  13   24.39   13.80
   1   5  13   44.64   12.94
  -1  -5 -13   63.43   16.77
  -5  -1 -13   47.73   14.61
  -5   6 -13   34.71   12.42
   1   5  13   59.75   15.33
   5   1  13   66.38   16.65
  -6   1  13   55.79   15.08
  -6   5  13   53.41   12.11
   6  -1 -13   42.58   15.00
   5  -6  13   50.75   14.41
  -1   6 -13   45.15   14.21
   6  -1 -13   50.56   12.78
   1  -6  13   47.71   15.09
   6  -5 -13   43.62   13.36
  -6   1  12  104.11   17.52
  -6   5  12  129.51   19.00
   1   5  12  116.29   16.12
  -1  -5 -12  111.47   18.05
  -5  -1 -12  132.01   19.71
   6  -1 -12  133.86   15.50
  -5   6 -12  101.41   16.96
  -6   5  12  134.79   15.47
   1   5  12   92.91   16.77
   5   1  12  106.40   17.57
  -6   1  12  114.91   17.64
   6  -1 -12  125.43   19.64
   6  -1 -12  127.25   14.86
   5  -6  12  119.26   18.06
  -1   6 -12  114.56   13.69
   1   5  12  138.06   15.05
  -1   6 -12  104.62   17.89
   5   1  12  126.49   14.66
   6  -5 -12  123.50   14.41
   1  -6  12  124.10   19.16
   6  -1 -12  118.60   16.93
   6  -5 -12  109.11   17.72
  -6   5  12   97.03   12.66
  -6   1  11  145.87   19.47
   6  -1 -11  209.32   23.18
  -5  -1 -11  181.14   21.41
   5  -6  11  172.56   20.15
  -5   6 -11  174.56   20.01
  -1   6 -11  174.85   16.63
   6  -5 -11  180.38   17.06
   1   5  11  183.32   21.09
   5   1  11  199.38   22.39
  -6   1  11  177.31   20.74
  -6   5  11  167.99   16.25
   1  -6  11  181.40   20.19
  -1  -5 -11  167.96   20.60
   6  -1 -11  176.76   16.86
  -1   6 -11  209.84   23.27
   6  -5 -11  176.05   20.82
   6  -1 -11  197.31   20.47
  -5   6 -11  183.71   17.15
  -1   6 -11  184.81   17.18
   1   5  11  175.02   17.37
   5   1  11  175.69   16.93
   6  -1 -11  175.37   16.83
   1  -6  11  185.28   22.17
  -6   5  11  192.76   21.66
   1   5  11  166.94   17.69
  -6   5  11  186.39   16.39
   5   1  10  653.48   30.83
  -5   6 -10  693.15   31.40
   6  -1 -10  719.63   38.19
  -5  -1 -10  678.61   37.53
  -5  -1 -10  671.01   23.58
  -5   6 -10  647.00   35.29
  -1   6 -10  664.49   27.99
   1   5  10  608.39   35.00
   5   1  10  695.34   37.56
  -6   1  10  626.31   35.47
  -6   5  10  637.77   28.28
   1  -6  10  655.55   33.97
   6  -1 -10  652.87   29.50
  -1   6 -10  684.22   38.19
  -1   6 -10  663.35   30.94
   6  -5 -10  685.06   36.74
   6  -1 -10  645.03   34.33
   5  -6  10  663.67   36.07
   1   5  10  659.92   31.02
   6  -1 -10  683.72   32.02
  -1  -5 -10  678.70   37.54
   1  -6  10  688.86   38.13
  -6   1  10  729.48   36.81
  -6   5  10  683.34   37.38
   1   5  10  618.81   31.37
   6  -5 -10  656.75   31.20
  -6   5  10  693.91   28.67
  -6   1  10  622.33   35.83
  -1  -5  -9  655.64   35.83
  -5  -1  -9  743.62   37.14
  -5   6  -9  714.11   36.24
  -1   6  -9  682.83   28.08
   1   5   9  705.16   36.21
   5   1   9  769.50   38.02
  -5  -1  -9  739.56   22.87
  -6   1   9  709.34   36.16
  -6   5   9  692.83   28.07
   1  -6   9  721.00   34.11
   6  -1  -9  703.31   30.24
  -1   6  -9  744.77   38.32
   6  -5  -9  750.00   37.66
   5  -6   9  689.49   35.92
   6  -1  -9  758.46   36.22
  -5   6  -9  681.35   31.17
   1   5   9  746.89   33.08
   5   1   9  690.82   31.83
   1  -6   9  742.69   38.48
   6  -1  -9  717.21   32.53
   6  -5  -9  758.92   33.07
  -6   1   9  625.81   32.57
  -1   6  -9  695.71   31.75
  -6   5   9  750.74   37.88
   1   5   9  753.92   33.67
  -6   5   9  733.86   28.70
  -6   1   9  755.51   37.76
  -6   5   8   59.66    9.60
  -6   1   8   87.00   16.16
  -6   5   8   67.60   14.05
   1   5   8   64.69   11.92
  -1  -5  -8   62.84   14.33
  -5  -1  -8   67.28   14.11
   1  -6   8   78.18   14.46
   1  -6   8   54.77    9.65
  -5   6  -8   55.26   13.24
  -1   6  -8   59.20   11.03
   6  -5  -8   64.94    9.44
  -5   6  -8   62.20    9.15
   1   5   8   54.00   12.71
   5   1   8   82.26   15.29
  -6   1   8   75.10   15.07
  -6   5   8   58.56    9.74
   5  -6   8   51.33   11.93
   1  -6   8   60.89   11.84
   1   5   8   61.50   11.32
  -5   6  -8   73.98   12.90
  -1   6  -8   56.37   13.32
   6  -1  -8   61.66   12.86
  -1   6  -8   46.90   10.48
   6  -1  -8   52.73   10.49
   5   1   8   61.59   11.54
   6  -1  -8   63.63   11.60
  -6   5   8   66.18   10.66
   6  -5  -8   59.77   13.59
  -6   1   8   62.56   12.29
  -6   1   7  292.44   20.77
   1   5   7  297.14   13.39
   6  -1  -7  291.83    9.52
  -5  -1  -7  293.95   22.92
   1  -6   7  299.01   18.04
  -5   6  -7  311.61   24.02
   6  -5  -7  293.67   15.37
  -5   6  -7  290.23   15.56
   1   5   7  303.89   23.82
   5   1   7  298.59   23.10
  -6   1   7  290.83   22.83
  -6   5   7  292.61   16.67
   1  -6   7  295.77   18.98
   6  -1  -7  299.02   19.49
  -1   6  -7  317.14   24.48
   5  -6   7  298.69   22.83
   6  -5  -7  297.30   22.46
  -6   5   7  296.43   17.96
   6  -1  -7  293.84   21.80
  -5   6  -7  299.05   17.99
  -1   6  -7  292.42   18.36
   1   5   7  291.33   21.35
   1  -6   7  290.27   23.15
   5   1   7  295.17   20.93
   6  -1  -7  297.27   18.74
  -1  -5  -7  306.12   23.11
  -6   5   7  298.94   22.71
  -6   1   7  298.53   23.85
   1   5   7  291.19   19.60
  -6   5   7  294.14   17.50
   6  -1  -6  348.89   12.87
  -5  -1  -6  359.20   24.27
   1  -6   6  343.41   19.84
  -5   6  -6  422.40   27.13
   6  -5  -6  361.35   15.75
  -5   6  -6  350.58   15.91
   5   1   6  391.70   24.16
  -1  -5  -6  344.64   23.60
   1   5   6  310.99   23.37
   5   1   6  347.66   24.09
  -6   1   6  331.41   24.46
  -6   5   6  359.60   18.37
   1  -6   6  358.81   20.93
  -1  -5  -6  373.39   16.15
   5  -6   6  375.99   25.29
  -1   6  -6  355.27   24.84
   6  -5  -6  388.88   26.06
  -6   5   6  376.67   21.25
   1   5   6  375.03   16.72
   6  -1  -6  392.21   25.56
  -5   6  -6  341.35   22.70
   1  -6   6  358.38   24.75
   1   5   6  372.07   23.67
   6  -1  -6  334.17   22.53
  -1   6  -6  341.62   22.52
  -6   1   6  358.40   21.83
  -1  -5  -6  347.29   10.95
  -6   5   6  382.13   24.60
   1   5   6  359.75   21.98
  -6   5   6  321.08   18.32
  -6   1   6  330.21   25.24
  -6   5   5   -3.49   10.55
  -6   5   5   11.01    7.72
   6  -1  -5    8.00    6.21
   1   5   5   15.89    8.26
  -1  -5  -5    8.28    8.09
   5   1   5    6.37    2.91
   6  -1  -5    5.25    3.94
  -5  -1  -5   10.11    8.75
   1  -6   5    4.72    6.22
  -5   6  -5   36.60   13.79
  -6   1   5   17.42    7.10
   5  -6   5   17.81   10.47
   6  -5  -5    2.20    3.78
  -5   6  -5    6.91    4.01
  -1   6  -5   40.13   11.37
  -6   1   5   17.12   14.53
  -6   5   5   17.26    7.19
   1   5   5   23.99   10.88
   5   1   5   11.91   10.09
   1  -6   5    4.66    5.76
  -5   6  -5    8.37    6.49
   1  -6   5    1.83    7.88
  -1  -5  -5    6.06    3.61
  -1  -5  -5    9.26    5.45
  -1   6  -5   16.69    9.29
   1   5   5   15.51    6.14
  -6   5   5   10.72    7.39
   6  -1  -5   17.53   10.28
   5   1   5    7.78    2.67
  -6   5   5    8.29    8.50
   5   1   5    6.93    7.55
  -5   6  -5   15.03    9.26
  -6   1   5   11.08   15.28
  -1   6  -5    7.43    7.92
   1  -6   5    5.33    2.74
   1   5   5   10.05    8.10
   5   1   5    4.07    7.88
   6  -1  -5    7.59    8.03
   6  -5  -5   10.70    9.78
  -6   1   5    7.23    6.48
   1   5   4   47.96    6.48
   5   1   4   46.29    5.88
  -1   6  -4   22.00   10.89
  -6   1   4  122.95   21.27
  -6   5   4   85.44   14.03
   5   1   4   39.67    5.08
   6  -1  -4   57.15    9.10
  -6   5   4   41.03   10.67
  -1  -5  -4   50.03   10.57
  -5  -1  -4   46.44    4.54
   6  -1  -4   40.18    6.28
  -5  -1  -4   41.93    9.92
   1  -6   4   49.92    9.29
  -6   1   4   48.25    8.51
  -5   6  -4   42.06   13.72
  -6   5   4   36.13   13.51
   5  -6   4   37.72   10.96
  -1   6  -4   55.75   12.67
  -6   1   4   83.60   19.03
   6  -5  -4   39.69    4.49
  -6   5   4   38.84   10.40
  -5   6  -4   40.32    4.76
   1  -6   4   45.12    8.46
  -5   6  -4   39.61    7.64
   1  -6   4   48.84   10.95
  -6   5   4   47.43   10.63
  -1  -5  -4   43.57    6.14
  -1  -5  -4   37.05    7.11
  -1   6  -4   43.03   11.24
   1   5   4   44.17    8.57
   6  -1  -4   46.52   12.51
   5   1   4   52.46   10.91
  -5   6  -4   45.29   10.89
  -1   6  -4   46.15   10.62
   1   5   4   45.69   10.86
   5   1   4   35.25    9.69
   6  -1  -4   46.52   10.80
   1  -6   4   47.25    6.26
   6  -5  -4   43.63   10.58
   1   5   4   43.99    4.01
  -6   1   4   43.81    8.91
  -1  -5  -4   91.90   13.36
   6  -5  -4   50.73   12.72
  -6   1   3  161.72   20.51
   6  -1  -3  175.31   12.02
  -5  -1  -3  187.63   16.01
  -6   1   3  195.01   12.69
   1  -6   3  192.69   16.41
  -5   6  -3  188.76   20.39
   6  -5  -3  178.77   18.50
   1   5   3  193.54   12.20
  -6   5   3  178.25   18.01
  -5   6  -3  162.74    5.50
  -6   5   3  206.07   15.08
   1  -6   3  193.89   17.54
   1  -6   3  189.98   13.26
  -5   6  -3  179.63   12.41
   5  -6   3  182.03   17.86
  -5  -1  -3  178.63    7.72
   1   5   3  175.84    7.51
   5  -6   3  190.25   16.50
  -1  -5  -3  187.34   13.98
  -1   6  -3  167.56   15.92
   6  -5  -3  185.55   18.25
   1  -6   3  182.13   11.53
   1   5   3  192.31   14.38
  -6   1   3  191.39   15.69
   6  -1  -3  181.95   17.89
  -6   5   3  179.71   16.97
   5   1   3  176.95   16.92
  -1   6  -3  192.25   17.53
   1   5   3  208.00   18.45
  -1  -5  -3  179.59   11.30
   5   1   3  206.02   18.41
  -1  -5  -3  198.15   16.36
   6  -1  -3  183.26   17.53
  -5   6  -3  199.58   17.90
   5   1   3  188.62   10.96
   6  -1  -3  182.94   13.04
  -6   5   3  171.19   15.68
  -1   6  -3  207.97   17.96
  -1  -5  -3  214.23   15.48
  -5  -1  -2  850.52   17.32
   6  -1  -2  904.99   27.10
  -5  -1  -2  890.04   31.10
  -6   1   2  874.83   27.23
  -5   6  -2  893.31   37.53
  -6   5   2  903.31   35.53
   6  -5  -2  921.97   36.82
   1   5   2  855.10   25.74
   1  -6   2  894.12   25.01
  -5   6  -2  864.18   23.79
   5  -6   2  952.64   37.45
  -6   1   2  878.72   30.38
   5  -6   2  949.05   34.32
  -1  -5  -2  859.16   29.45
   6  -5  -2  884.38   35.94
  -1   6  -2  893.16   33.38
   1   5   2  912.09   30.68
   1  -6   2  944.96   26.47
   1  -6   2  869.69   33.13
  -6   5   2  920.07   35.68
   5   1   2  878.39   34.85
   6  -1  -2  929.06   36.88
  -5   6  -2  881.62   35.20
  -1   6  -2  919.03   35.89
   1   5   2  939.81   36.23
  -1  -5  -2  882.53   25.65
  -1  -5  -2  911.66   31.39
   6  -1  -2  909.64   35.97
  -1   6  -2  890.57   25.13
   5   1   2  858.15   24.44
   5   1   2  887.84   35.52
  -6   5   2  864.37   31.71
   6  -1  -2  872.84   24.59
  -1  -5  -2  850.59   27.09
  -1   6  -2  903.48   28.85
   5   1   1 1531.85   31.27
   6  -1  -1 1570.49   33.59
  -5  -1  -1 1506.54   35.75
   1   5   1 1508.77   42.55
  -6   1   1 1501.93   34.63
  -6   5   1 1547.25   43.12
  -5   6  -1 1546.36   44.84
   6  -5  -1 1531.52   42.33
  -1  -5  -1 1561.48   33.68
  -6   1   1 1504.48   35.28
   1  -6   1 1571.83   27.50
   5  -6   1 1545.25   43.92
   1   5   1 1502.04   33.44
  -5   6  -1 1574.33   25.89
  -1  -5  -1 1571.20   36.76
   6  -5  -1 1524.57   43.34
   5  -6   1 1537.10   41.28
  -1   6  -1 1562.51   38.54
   1   5   1 1584.72   37.56
   1  -6   1 1512.01   39.17
   5   1   1 1505.21   42.44
   1  -6   1 1550.67   33.70
  -6   5   1 1525.81   42.65
   6  -1  -1 1508.83   43.34
  -5   6  -1 1598.38   42.39
  -1   6  -1 1570.13   42.05
  -1  -5  -1 1522.31   33.34
   5   1   1 1598.31   42.80
  -1  -5  -1 1544.18   35.70
   6  -1  -1 1555.11   43.72
  -1   6  -1 1571.78   32.13
   5   1   1 1551.56   21.75
  -5  -1  -1 1567.36   23.17
   1  -6   1 1564.56   29.94
   6  -1  -1 1519.04   25.60
  -6   5   1 1524.72   36.20
  -1  -5  -1 1525.97   32.68
  -1   6  -1 1558.69   31.27
   6  -1   0  987.00   31.26
  -5  -1   0  986.68   22.80
  -5  -1   0 1007.09   30.08
  -6   1   0  976.25   31.47
  -6   5   0  962.09   38.33
  -5   6   0 1056.64   40.13
  -6   1   0 1054.88   31.31
   6  -5   0 1030.20   38.64
  -1  -5   0 1062.45   31.46
  -1   6   0 1022.36   34.41
   5  -6   0 1035.12   38.63
   1  -6   0 1017.27   22.71
   1   5   0 1030.19   31.28
  -5  -1   0  994.56   34.14
   6  -5   0  991.37   37.61
  -1   6   0 1005.23   33.52
   5  -6   0 1039.91   37.21
   1   5   0  981.55   33.68
   1  -6   0 1010.37   33.35
   5   1   0 1088.78   38.92
  -6   5   0  988.08   36.97
   6  -1   0 1031.95   38.51
   1  -6   0 1008.15   30.84
  -5   6   0  994.78   37.18
  -1   6   0  990.67   37.15
   1   5   0 1010.97   37.61
  -1  -5   0 1020.46   31.16
  -1  -5   0 1025.36   29.85
   5   1   0 1012.25   38.02
   6  -1   0  963.34   37.07
  -1   6   0 1019.05   30.56
   5   1   0  969.97   29.62
   5   1   0  982.90   22.49
   1  -6   0 1019.09   24.64
  -6   5   0 1028.13   32.86
  -1  -5   0 1063.26   31.33
   6  -1   0  967.61   19.45
   6  -1   1  314.11   18.98
  -6   1  -1  326.00   17.73
  -5  -1   1  318.30   16.20
  -6   1  -1  328.98   19.87
  -6   5  -1  359.02   24.73
  -5   6   1  299.83   22.50
  -1  -5   1  337.54   19.66
  -5  -1   1  310.89   14.14
  -1   6   1  353.04   20.10
   6  -5   1  342.03   23.32
  -1  -5   1  323.71   18.10
   5  -6  -1  346.55   23.47
   1  -6  -1  332.66   12.32
   1   5  -1  314.03   21.82
   1   5  -1  341.77   19.23
   6  -5   1  308.10   21.74
  -5  -1   1  348.04   20.26
  -1   6   1  330.71   18.90
   5  -6  -1  356.91   22.84
   1  -6  -1  327.65   19.13
   1   5  -1  345.98   21.61
   5   1  -1  319.70   22.21
  -6   5  -1  310.07   21.51
  -5   6   1  336.12   22.50
   6  -1   1  312.99   22.11
   1  -6  -1  337.21   19.14
  -1   6   1  314.49   21.61
  -1  -5   1  320.67   15.92
  -1  -5   1  342.85   19.19
   5   1  -1  328.01   22.21
   6  -1   1  322.86   22.31
  -1   6   1  326.30   18.69
   5   1  -1  305.20   18.00
   5   1  -1  314.03   14.44
   1  -6  -1  336.23   12.97
  -1  -5   1  339.52   19.09
  -6   5  -1  336.63   19.46
  -5  -1   1  330.52   25.66
  -5  -1   2 2301.38   38.88
  -6   1  -2 2380.45   52.29
  -6   5  -2 2340.42   57.38
  -1  -5   2 2313.87   46.68
  -5   6   2 2267.61   56.75
  -1   6   2 2355.17   48.64
   5  -6  -2 2328.64   57.05
  -5   6   2 2128.15   23.84
  -1  -5   2 2271.92   47.43
   1  -6  -2 2292.49   29.24
   6  -5   2 2348.89   57.03
   6  -5   2 2285.38   55.99
   1   5  -2 2324.07   51.03
  -5  -1   2 2432.47   49.81
   1  -6  -2 2313.89   47.48
  -1   6   2 2320.77   45.97
   1   5  -2 2335.77   54.58
   5  -6  -2 2407.95   57.34
  -5   6   2 2398.18   56.98
   5   1  -2 2373.83   57.93
  -6   5  -2 2318.58   56.01
   6  -1   2 2379.30   57.58
   1  -6  -2 2404.98   51.64
  -1   6   2 2382.31   56.86
   1   5  -2 2347.70   56.70
  -1  -5   2 2485.70   39.34
   5   1  -2 2395.09   57.63
   6  -1   2 2306.01   56.22
  -1  -5   2 2285.42   50.03
  -1   6   2 2347.80   50.56
   5   1  -2 2328.25   50.42
   5   1  -2 2275.93   41.50
   1  -6  -2 2253.77   28.14
  -1  -5   2 2296.41   48.79
  -5   6   2 2357.28   56.50
  -5  -1   2 2380.64   60.50
  -1   6   3   61.59   10.80
  -1  -5   3   61.92   12.23
  -5  -1   3   61.92   18.59
   1  -6  -3   61.86   13.01
   5  -6  -3   61.76   15.42
  -5   6   3   61.83   13.90
  -5  -1   3   61.41    8.18
  -1  -5   3   61.78   12.31
   6  -5   3   61.82   13.02
   6  -1   3   61.39   10.50
  -6   1  -3   61.01   12.35
  -6   5  -3   61.31   13.77
   5   1  -3   61.39    9.42
   1  -6  -3   61.05    5.90
  -5   6   3   61.31    4.42
   1  -6  -3   61.63    9.79
  -5  -1   3   61.28   19.34
  -1  -5   3   61.28   11.49
  -6   5  -3   61.03   12.25
  -1   6   3   61.85    9.68
  -1  -5   3   61.59    7.49
   1   5  -3   61.74   13.89
  -1  -5   3   61.77   12.12
   5   1  -3   61.92   13.85
  -5   6   3   61.61   10.39
  -5   6   3   61.03   14.03
  -1   6   3   61.27   13.46
   1   5  -3   61.42   12.90
   5   1  -3   61.56   12.26
  -5  -1   3   61.01   10.45
   6  -1   3   61.41   13.19
   1  -6  -3   61.83    4.62
   5  -6  -3   61.85   12.55
  -5   6   3   61.41   10.20
  -1  -5   4    8.67    7.48
   5   1  -4   19.85    7.04
  -5   6   4  -13.65    7.19
  -5  -1   4   -7.85   15.09
   1  -6  -4   17.60    8.51
   5  -6  -4   19.48    9.67
  -5   6   4   15.70    9.92
   6  -1   4   21.29    7.10
  -5   6   4   15.07    7.21
   6  -5   4   10.04    8.39
  -6   1  -4   20.77    9.63
  -5  -1   4   13.18    3.65
  -6   5  -4   14.04    9.98
  -1  -5   4   41.24    9.17
   1  -6  -4   54.89    8.63
   1  -6  -4   17.52    6.79
  -1   6   4   16.79    9.41
  -5  -1   4   20.50    7.06
  -1  -5   4   13.52    7.65
  -1   6   4   31.85   10.53
   6  -1   4   30.96   10.69
  -5   6   4    9.89    2.27
  -1   6   4   20.50    7.35
  -1   6   4   19.11    5.87
   1   5  -4   24.19   10.67
   5   1  -4   23.27   11.52
  -1  -5   4   12.87    7.63
  -6   5  -4   14.07    8.77
  -5   6   4   12.74    8.74
   1   5  -4   11.99    8.66
   5   1  -4   13.81    8.39
   6  -1   4   33.40   10.54
   5  -6  -4   19.53    9.94
  -1  -5   4   11.00    2.92
   5   1  -5  725.10   28.75
  -6   1  -5  726.08   31.11
   6  -5   5  725.72   18.98
  -1  -5   5  728.05   21.94
  -6   5  -5  720.74   33.21
   5  -6  -5  726.26   32.31
  -1   6   5  728.96   30.15
   6  -1   5  720.73   29.00
  -5  -1   5  721.81   31.88
   6  -1   5  720.71   23.53
  -1   6   5  728.26   23.97
  -1  -5   5  722.93   29.27
  -5   6   5  728.26   13.57
   6  -5   5  724.16   31.69
   1  -6  -5  726.99   32.23
   1  -6  -5  722.60   24.31
   1   5  -5  728.84   33.48
  -1   6   5  722.30   20.40
  -5  -1   5  725.07   24.89
   5  -6  -5  729.13   33.35
   5   1  -5  722.86   32.61
  -5   6   5  720.45   24.39
  -6   5  -5  724.50   30.46
  -5   6   5  722.83   31.66
  -1   6   5  727.71   31.24
   1   5  -5  724.33   30.97
   6  -1   5  726.70   32.05
   5   1  -5  727.61   30.99
  -1  -5   5  728.97   32.22
  -5   6   5  727.06   31.83
  -1  -5   5  727.23   27.30
  -5   6   5  720.14   15.60
  -1   6   5  722.89   31.40
  -5  -1   5  728.22   33.01
  -1  -5   6   35.08   10.17
  -5  -1   6   93.64   16.46
   5  -6  -6   41.97   12.19
   1  -6  -6   36.70   11.01
  -5   6   6   37.15   11.63
  -1   6   6   41.13   11.43
  -6   1  -6   45.23   11.81
   6  -1   6   46.34    7.57
  -1  -5   6   31.70    6.46
  -1   6   6   42.72    8.37
  -6   5  -6   45.99   12.53
   1  -6  -6   41.13    7.91
   6  -5   6   36.92    6.35
   6  -5   6   42.47   11.26
  -5   6   6   41.88    4.84
  -5  -1   6    2.29   15.70
  -1   6   6   38.70   10.30
   6  -1   6   44.69   10.54
  -1  -5   6   29.58    9.08
   1  -6  -6   40.22    5.56
   5   1  -6   39.75   10.22
   1   5  -6   30.02   11.21
   5   1  -6   44.96   11.69
  -1   6   6   37.01    5.36
  -5   6   6   41.08    7.63
  -1  -5   6   49.67   11.81
  -5   6   6   36.24   10.11
  -1   6   6   47.31   11.38
   1   5  -6   38.17   10.66
   5   1  -6   45.10   10.38
   6  -1   6   46.78   11.15
  -5   6   6   36.79    4.51
   5  -6  -6   54.47   13.81
  -5  -1   6   45.74    8.22
  -6   1  -7  432.51   27.69
  -1  -5   7  405.85   16.51
  -5   6   7  430.11   18.77
   6  -5   7  434.28   19.21
  -6   5  -7  411.36   27.59
   5   1  -7  411.07   24.45
   5  -6  -7  425.11   27.00
  -1   6   7  307.30   21.25
   6  -1   7  420.94   25.31
  -5  -1   7  436.84   28.39
  -1  -5   7  420.04   25.11
   1  -6  -7  405.81   15.30
   1  -6  -7  411.63   18.79
   6  -1   7  411.03   17.24
   6  -5   7  417.61   25.80
   5   1  -7  312.12   21.62
   1   5  -7  421.12   27.85
   5  -6  -7  378.46   26.73
   5   1  -7  417.21   27.40
  -5   6   7  393.20   17.74
  -5  -1   7  388.81   18.72
  -5   6   7  422.10   25.00
   1   5  -7  310.83   21.41
   1  -6  -7  400.25   26.31
  -1   6   7  409.11   24.71
  -1   6   7  377.41   19.82
   6  -1   7  419.28   25.13
  -5   6   7  396.23   26.98
  -1  -5   7  428.00   27.46
  -1  -5   7  387.98   25.78
  -1   6   7  398.77   25.88
  -5  -1   7  466.20   29.64
  -5  -1   8   45.47   13.41
  -5  -1   8   36.72    7.21
  -5   6   8   56.45   12.75
   1  -6  -8   47.17   12.15
  -1   6   8   52.45   12.02
  -6   1  -8   43.63   12.54
   1  -6  -8   45.25    7.60
  -6   5  -8   32.77   11.05
  -5   6   8   53.87    8.60
  -1   6   8   46.19    8.46
   6  -5   8   54.62    9.19
   6  -5   8   41.68   10.76
  -1   6   8   54.14   11.73
   6  -1   8   40.83   10.37
   6  -1   8   49.22    6.85
  -5  -1   8   47.48   11.81
  -1  -5   8   43.86   10.91
   1   5  -8   41.13   11.95
   5   1  -8   34.40   10.00
   5   1  -8   41.29   11.78
  -5   6   8   51.02   10.83
  -1   6   8   62.74   11.75
  -1  -5   8   46.91   12.70
   1   5  -8   44.75   10.67
   5   1  -8   44.05   10.21
   6  -1   8   43.36   10.40
   5  -6  -8   54.56   13.37
   5  -6  -8   50.33   11.97
  -1  -5   8   54.36   12.81
  -5  -1   9   61.48   15.57
  -5   6   9   61.26   15.25
  -1   6   9   61.52   12.42
  -1   6   9   61.05   12.80
   1  -6  -9   61.06   14.93
  -6   1  -9   61.12   15.32
   1  -6  -9   61.68    8.17
  -6   5  -9   61.55   14.86
  -5   6   9   61.87   10.21
   6  -5   9   61.60   10.45
  -1   6   9   61.98   13.34
   6  -1   9   61.80   13.50
   5   1  -9   61.32   14.13
  -5  -1   9   61.37   13.77
   6  -5   9   61.07   13.02
  -1  -5   9   61.07   13.45
   6  -1   9   61.25    7.60
   1   5  -9   61.01   15.42
   5   1  -9   61.67   13.34
  -5   6   9   61.18   12.09
   1   5  -9   61.87   11.29
  -1  -5   9   61.38   15.11
   5   1  -9   61.55   11.09
   6  -1   9   61.94   12.66
   6  -5   9   61.13   11.64
   5  -6  -9   61.94   14.87
   5  -6  -9   61.49   14.07
  -1  -5   9   61.10   12.22
  -6   1 -10  970.71   44.61
  -5   6  10 1013.41   35.49
   6  -5  10 1042.32   36.51
  -6   5 -10 1044.10   45.47
  -5   6  10 1010.15   37.88
  -1   6  10  995.81   42.00
   6  -1  10  985.92   42.13
   5   1 -10  964.28   41.80
  -5  -1  10 1002.85   45.63
  -1  -5  10  987.33   43.02
   1   5 -10 1041.85   46.63
   6  -5  10 1029.15   42.05
   5   1 -10  999.66   44.11
   5  -6 -10 1011.22   45.61
  -1   6  10 1029.07   38.18
   1   5 -10  986.92   37.47
   1  -6 -10 1015.96   45.47
   5   1 -10  981.97   37.60
   6  -1  10 1018.43   38.47
   6  -5  10  979.05   37.40
  -1  -5  10 1018.11   45.73
  -5   6  10  997.27   45.65
  -1   6  10  943.23   42.03
  -1  -5  10 1036.08   45.22
  -5  -1  10 1041.09   46.63
  -5  -1  11  107.71   17.10
  -5   6  11  120.68   18.94
  -1   6  11  108.84   17.09
   1  -6 -11  110.41   17.78
   6  -5  11  137.79   15.58
  -6   1 -11  107.36   18.13
  -6   5 -11  103.15   16.60
  -1   6  11  119.11   17.06
   6  -1  11  142.00   18.78
  -5  -1  11  114.12   17.56
  -1  -5  11  113.59   16.91
   6  -5  11  104.50   15.03
  -5   6  11  114.41   14.08
   1   5 -11  114.87   18.52
   5   1 -11  113.18   14.00
   5   1 -11  121.36   17.99
   6  -5  11  115.53   14.61
   5   1 -11  109.73   17.27
  -1   6  11  103.29   13.43
   1   5 -11  101.88   13.27
   6  -1  11  104.95   14.04
  -1  -5  11  133.97   18.91
   5  -6 -11  108.72   17.28
  -6   1 -12  263.47   26.36
   6  -5  12  241.35   20.87
  -6   5 -12  262.24   25.74
  -1   6  12  257.14   24.60
   6  -1  12  223.39   23.41
   5   1 -12  212.13   22.64
   1   5 -12  261.60   25.09
  -5  -1  12  244.66   25.44
  -1  -5  12  270.00   25.64
   6  -5  12  266.02   23.18
   1   5 -12  245.53   25.12
   5   1 -12  251.07   24.58
   5  -6 -12  255.35   25.73
  -5   6  12  255.16   19.37
  -1   6  12  269.01   20.02
   1   5 -12  223.75   18.43
   1  -6 -12  245.99   25.18
   5   1 -12  238.55   19.13
   6  -1  12  235.71   19.37
   6  -5  12  255.24   19.58
  -5   6  12  253.55   26.39
  -1   6  12  249.75   24.80
  -1  -5  12  268.12   26.58
  -5  -1  12  237.89   25.63
  -5   6  13  186.73   23.25
   1  -6 -13  141.37   20.81
  -1   6  13  186.68   22.05
  -6   1 -13  149.50   21.45
  -6   5 -13  177.76   22.62
   1   5 -13  182.81   22.02
   5   1 -13  165.49   21.55
   6  -1  13  142.77   19.67
  -1  -5  13  185.31   22.76
  -5  -1  13  168.03   21.55
   1   5 -13  172.74   22.62
   5   1 -13  171.92   21.22
   6  -5  13  168.73   19.99
  -1   6  13  177.59   21.82
  -1  -5  13  182.90   23.25
  -5  -1  13  199.74   24.64
   5  -6 -13  149.04   21.05
  -6   5 -14  326.84   29.89
   1   5 -14  331.71   29.56
  -1   6  14  331.03   29.13
   6  -1  14  313.74   28.94
   5   1 -14  320.45   30.26
  -1  -5  14  316.64   29.72
   1   5 -14  308.13   29.77
   5   1 -14  343.76   29.26
   5  -6 -14  298.81   28.94
   6  -5  14  350.72   27.47
  -1   6  14  330.13   28.83
  -5  -1  14  346.21   31.53
  -1   6  15  101.23   18.42
   6  -5  15  105.13   16.85
   5   1 -15   85.19   16.59
   5   1 -16   19.22   12.15
  -6   0   0 3811.54   61.46
   0  -6   0 3871.17   64.68
  -6   6   0 3924.50   76.95
   6   0   0 4157.08   79.02
   6   0   0 4027.96   77.79
   6  -6   0 3740.09   75.67
   0  -6   0 3952.98   54.41
   0   6   0 3937.17   66.09
   6  -6   0 4014.98   76.33
   0   6   0 3948.77   69.05
  -6   0   0 3720.36   53.24
  -6   6   0 4085.04   77.15
   0  -6   0 3948.49   61.22
   0   6   0 4050.17   77.42
   6   0   0 3738.31   38.67
   0  -6   0 3972.75   56.21
   6   0   0 3947.87   64.54
  -6   6   0 3984.59   71.07
   0  -6   1    3.57    6.64
   0  -6   1    3.68    7.44
   6   0   1    3.89    6.19
   6   0  -1    3.53    5.34
   0  -6  -1    3.75    7.24
  -6   6   1    3.93    9.30
   6  -6  -1    3.30   11.20
   0   6   1    3.52    7.58
   6  -6   1    3.81   10.18
  -6   0  -1    3.74    7.20
  -6   0   1    3.38    6.48
  -6   6   1    3.81   12.81
   0  -6  -1    3.16    5.27
   0  -6  -1    3.56    9.09
   0  -6   1    3.55    7.27
  -6   0  -1    3.56    5.98
   0  -6  -1    3.60    7.61
   0  -6   1    3.28    9.43
  -6   0   1    3.95    6.72
   0   6  -1    3.24   10.53
   0   6   1    3.88    8.81
   6   0  -1    3.17   12.20
   6   0   1    3.02    8.73
  -6   6  -1    3.41   11.32
  -6   6   1    3.52   11.56
   0   6   1    3.65   10.60
   0   6  -1    3.33   12.50
   6  -6   1    3.02    9.84
   6  -6  -1    3.52   10.39
   6   0   1    3.92   10.27
   6   0  -1    3.88   10.11
   0  -6  -2   86.98   12.12
   6  -6  -2   82.62   16.51
  -6   6   2   89.02   13.99
  -6   0   2   85.12   10.20
   6  -6   2   89.75   15.23
  -6   0  -2   89.43   12.49
  -6   0  -2   86.11    9.31
  -6   6  -2   84.36   18.56
   0   6   2   86.15   11.54
  -6   6   2   89.34   16.50
  -6   6   2   86.59   10.66
   0  -6   2   86.90   10.59
   0  -6  -2   86.47   10.20
   0   6   2   82.67   12.31
   0  -6  -2   83.84   10.74
   0  -6   2   86.94   14.47
   0   6  -2   87.27   13.56
   6   0   2   89.47   15.52
   6   0   2   89.15   15.11
  -6   6  -2   86.25   14.47
  -6   6   2   85.11   14.19
   0   6   2   85.76   13.75
   0   6  -2   83.64   15.22
   6  -6   2   88.33   14.74
   6   0  -2   87.90   15.12
  -6   0   2   89.02   25.53
  -6   0   2   88.19   10.40
   6   0  -2   88.78   14.77
   6   0  -2   88.55    9.69
   6  -6  -2   88.03   15.52
   0  -6   2   88.53   11.47
   0  -6   2   88.33    9.87
   0  -6  -2   89.56    9.10
   0  -6   3   11.41    6.74
   0  -6  -3   20.97    5.55
   0   6   3   14.85    6.93
   6   0  -3   11.79    5.60
  -6   0   3   28.61   15.64
   0   6  -3   33.08   11.38
   6  -6  -3   16.67   11.08
   0  -6  -3   10.35    7.25
  -6   6   3   11.51    8.69
  -6   0  -3    7.41    7.27
   6  -6   3    6.80    8.33
  -6   0   3   12.66    5.37
   0  -6   3   44.86   10.78
  -6   6  -3   -0.99   12.29
   6   0   3    5.98    8.91
  -6   6   3   21.49   12.35
  -6   0   3   43.31   15.95
   0  -6  -3   28.93    8.73
  -6   6   3    4.00    6.17
   0  -6   3    2.44    6.45
   0   6   3   15.82    5.57
  -6   0  -3   24.25    6.13
   0  -6  -3    8.72    5.32
  -6   0   3    9.76    6.53
   0  -6   3   17.66    8.70
   0   6  -3   10.64    8.85
   0   6   3   15.97    7.02
   6   0  -3    6.71    9.85
   6   0   3    3.79    8.58
  -6   6  -3   16.93    9.58
  -6   6   3   18.59    9.69
   0   6   3   22.22    9.76
   0   6  -3   11.49    9.05
   6   0  -3   12.04    9.36
   6  -6  -3   16.16    8.97
   0  -6   3   16.94    5.04
   6   0   3   17.35    6.61
  -6   0  -4  587.16   29.34
  -6   0   4  568.91   25.72
   0  -6   4  563.97   25.00
  -6   0   4  594.84   18.47
  -6   6  -4  621.85   33.02
   0  -6   4  584.67   29.99
   6  -6  -4  556.56   30.83
   6   0   4  555.85   20.40
  -6   0   4  643.24   34.90
  -6   6   4  590.40   18.60
   0   6   4  554.42   18.75
   0  -6   4  578.10   25.33
   6  -6   4  566.01   30.66
   0   6  -4  593.19   30.92
   6  -6  -4  580.32   31.54
   0  -6   4  572.54   15.68
   0   6   4  576.30   22.84
   0  -6  -4  563.85   21.70
   6   0  -4  593.07   32.21
  -6   6  -4  585.52   30.22
   0   6  -4  559.61   29.90
   0  -6  -4  589.49   28.87
   6   0   4  617.24   31.66
   0   6   4  604.06   31.01
   6   0  -4  607.36   31.38
   6   0  -4  578.84   24.38
   6   0   4  585.41   30.46
  -6   6   4  604.81   30.16
   0  -6   4  610.78   27.61
   0  -6  -4  587.16   17.70
  -6   0   4  868.63   43.28
  -6   6   4  603.35   22.43
  -6   6   4  620.48   31.09
   6  -6  -5    6.75    9.05
  -6   6   5   -9.95    7.70
   0  -6  -5  -14.79    7.20
  -6   0   5  -17.75   15.67
  -6   6   5   -4.49    9.12
   0  -6  -5    8.76    7.92
   0   6   5    8.73    9.19
   6   0   5    7.80    4.83
  -6   0  -5    4.71    8.71
   0  -6   5    8.69    6.72
  -6   6  -5   40.00   13.61
  -6   0   5    8.62    4.56
   6  -6   5   11.65   10.53
  -6   0   5   29.49   16.02
  -6   6   5    2.48    3.97
   0   6   5   11.12    8.49
   6   0   5   13.18    9.27
   0  -6   5    5.90    7.01
   0  -6  -5    9.62    5.09
   0   6   5   11.26    5.43
   0  -6   5   17.40    9.37
   0   6  -5    8.11    9.44
   0   6   5    7.51    5.32
   6   0  -5   13.91   10.08
  -6   6   5    8.35    6.83
  -6   6  -5    6.94    8.66
  -6   6   5   10.17    8.86
   0   6   5   17.77    9.93
   0   6  -5   19.31    9.58
   6   0   5   14.74    9.77
   6   0  -5    4.59    8.24
   6  -6  -5   10.56    9.13
   0  -6   5    7.00    8.69
   0  -6   6  141.41   16.64
   6   0  -6  134.07   16.17
  -6   0   6   68.13   15.69
   0   6   6  145.45   16.32
  -6   0  -6  162.34   17.87
   0  -6   6  146.67   13.11
  -6   6  -6  174.48   19.70
   6  -6  -6  175.35   19.77
   0   6   6  136.39   16.43
   6   0   6  131.49   16.53
  -6   6   6  148.12   10.32
   0  -6   6  158.70   15.58
   6   0   6  140.11    9.31
  -6   0   6  119.83   17.23
   6  -6   6  139.61   16.70
   0   6  -6  155.70   18.28
   6  -6  -6  156.36   18.83
   0  -6  -6  145.99   10.81
   0   6   6  143.10   10.31
  -6   6   6  138.48   13.56
   6   0  -6  139.85   17.23
  -6   6   6  147.79   17.57
  -6   6  -6  124.38   15.35
  -6   6   6  131.38   15.55
   0   6  -6  142.30   16.16
   0  -6  -6  141.92   16.96
   6   0   6  177.88   18.15
   0   6   6  150.27   10.83
   0  -6   6  125.99   14.97
   0   6   6  144.80   16.69
  -6   6   6  157.35   11.31
   0  -6  -6  237.18   12.83
  -6   6   7    5.61    4.96
  -6   0   7    5.34   14.84
   0  -6  -7    5.70    6.88
  -6   6   7    5.52    9.74
   0   6   7    5.54    8.59
   0  -6  -7    5.30    8.95
  -6   0  -7    5.98    9.62
   0  -6   7    5.54    5.09
  -6   6  -7    5.59   11.10
   6   0   7    5.41    3.16
   6  -6   7    5.90    9.08
  -6   0   7    5.50   12.80
   0   6   7    5.04   10.24
   6   0   7    5.90    9.86
  -6   6   7    5.39    4.60
   0  -6  -7    5.30    4.34
   0  -6   7    5.79    7.49
   0   6  -7    5.83   10.88
   0  -6   7    5.26    8.69
  -6   6   7    5.19    6.96
   6   0  -7    5.35    9.87
  -6   6  -7    5.94    8.22
  -6   6   7    5.21    7.46
   0   6   7    5.53    8.19
   0   6  -7    5.21    7.95
   0   6   7    5.66    3.76
   6   0   7    5.68    7.85
   6   0  -7    5.55    8.78
   6  -6  -7    5.04   10.14
   6  -6  -7    5.99   11.03
   0  -6   7    5.02    7.72
  -6   0  -8 1061.77   44.82
  -6   6  -8 1053.76   44.50
   6  -6  -8 1063.80   44.60
   0   6   8 1059.37   41.15
   6   0   8 1052.57   44.29
  -6   0   8 1058.46   45.60
  -6   6   8 1050.02   29.07
   0  -6   8 1081.56   41.13
   0   6  -8 1113.54   46.71
   6  -6   8 1177.23   45.99
   6  -6  -8 1198.70   48.08
   6   0  -8 1054.79   44.35
  -6   6  -8 1032.87   39.81
  -6   6   8 1086.66   41.05
   0   6   8 1109.98   41.74
   0   6  -8 1066.84   40.82
   0  -6  -8 1076.41   44.91
   6   0   8 1103.29   41.86
   6   0  -8 1079.29   41.30
   0  -6   8 1027.99   44.37
  -6   6   8 1099.62   45.81
   0   6   8 1046.76   41.63
  -6   6   8 1087.93   28.96
  -6   0   8 1079.02   47.02
  -6   0   9   32.74   11.97
  -6   6   9   35.46   13.05
   0   6   9   22.99   10.17
   0  -6  -9   32.62   12.25
  -6   0  -9   36.68   12.16
  -6   6  -9   22.40   11.75
   0   6   9   27.43   10.71
   6   0   9   22.01   10.57
   6   0  -9   40.49   12.41
  -6   0   9   36.61   12.93
   6  -6   9   23.04    9.96
   0  -6   9   34.12   11.20
  -6   6   9   38.57    7.67
   0   6  -9   35.02   12.38
   6   0  -9   17.60   10.16
   0  -6   9   22.26   10.13
  -6   6  -9   31.56   10.29
  -6   6   9   36.31   10.46
   0   6   9   29.44    9.56
   0   6  -9   35.95   10.74
   6   0   9   38.66   11.24
   6   0  -9   22.69    9.32
   6  -6  -9   17.55   10.51
  -6   6   9   32.99    6.79
  -6   0  10   25.44   12.31
  -6   6  10   32.25   11.89
   0   6  10   26.60   10.80
   0  -6 -10   36.14   12.08
  -6   0 -10   32.47   13.10
  -6   6 -10   31.98   13.35
   0   6  10   28.38   10.96
   6   0  10   45.87   13.56
  -6   0  10   51.25   13.45
   0  -6  10   33.23   11.66
   6   0 -10   30.07   12.54
   6  -6  10   45.91   12.87
   0   6 -10   50.21   14.59
   6   0 -10   46.40   13.47
   0  -6  10   36.44   12.94
   0   6  10   54.64   11.84
   0   6 -10   26.50    9.26
   6   0  10   34.95    9.93
   6   0 -10   30.25    9.93
   6  -6 -10   41.41   13.05
  -6   0  11    3.73   11.05
  -6   6  11    3.43    9.62
   0   6  11    3.93    9.39
   0  -6 -11    3.82   12.20
  -6   0 -11    3.13   12.22
  -6   6 -11    3.36   10.69
   0   6  11    3.85   11.14
   6   0  11    3.64   13.20
  -6   0  11    3.02   10.22
   0  -6  11    3.47    9.94
   6   0 -11    3.51   13.47
   6  -6  11    3.10   10.95
   0   6 -11    3.67    9.86
   6   0 -11    3.57   11.32
   0   6  11    3.65    7.95
   0   6 -11    3.68    7.99
   0  -6  11    3.90   13.43
   6   0  11    3.95    9.55
   6   0 -11    3.73    8.17
   6  -6 -11    3.22   12.24
  -6   0 -12  877.66   46.66
  -6   6 -12  865.96   44.78
   6   0 -12  912.78   46.16
   0   6  12  967.12   46.76
   6   0  12  870.41   44.80
  -6   0  12  901.26   46.60
   0  -6  12  920.82   45.05
   0   6 -12  957.66   48.75
   6  -6 -12  961.11   47.73
   6   0 -12  930.65   44.88
   6  -6  12  966.63   45.68
   0   6  12  922.99   37.59
   0  -6 -12  959.72   48.57
   6   0  12  917.37   37.85
   6  -6  12  944.41   38.32
   0  -6  12  924.48   48.09
  -6   6  12  911.49   47.30
   0   6  12  868.53   42.45
  -6   0  12  892.38   46.88
  -6   0  13   -6.96   11.50
  -6   6  13   12.00   12.36
   0   6  13    0.85   10.07
   0  -6 -13    5.16    9.94
  -6   0 -13   11.60   12.14
  -6   6 -13  -14.38   12.43
   0   6  13    2.52   10.27
   6   0  13   12.14   12.10
  -6   0  13   -8.31   12.04
   0  -6  13    9.13   10.81
   6   0 -13   -0.73   12.26
   6  -6  13    7.31   11.55
   0   6 -13  -10.29   11.13
   6   0 -13    1.93    9.36
   0  -6  13    1.84   11.22
   6  -6 -13  -12.02   12.40
   0   6  14   23.74   11.92
  -6   6 -14    3.84   11.14
   6  -6  14    7.93   10.52
   6   0 -14    7.97   10.56
   0   6  15   -9.65   11.18
   6  -6  15   -5.38    9.90
   6   0 -15   -1.20   10.53
  -7   4  15   63.46   14.98
   7  -4 -15   67.60   16.37
  -7   3  15   90.17   18.04
  -7   3  14  120.41   19.43
  -4   7 -14   94.06   18.21
  -7   3  14   94.38   18.22
  -7   4  14  136.77   18.91
   7  -3 -14  109.47   17.43
   7  -4 -14   97.88   17.68
  -7   4  14  121.30   17.97
  -7   4  13  150.14   19.09
  -7   3  13  168.26   21.58
  -4   7 -13  107.41   19.11
  -7   3  13  166.79   21.43
  -7   4  13  134.49   18.32
   7  -3 -13  162.10   19.85
  -4   7 -13  176.86   23.75
   4  -7  13  158.21   22.59
  -3   7 -13  151.59   21.65
   3  -7  13  190.62   24.45
  -7   4  13  163.46   22.70
   7  -4 -13  146.84   20.00
  -7   3  13  150.14   21.52
  -7   4  12   17.10    9.84
  -7   3  12    9.38   10.91
  -3  -4 -12   31.66   13.80
   4   3  12   22.40    9.85
  -4  -3 -12   21.67   12.13
   3   4  12   21.67    8.87
  -3  -4 -12   21.18   11.65
  -4  -3 -12   25.33   13.08
  -4   7 -12  -17.84   15.64
  -3   7 -12   31.81   14.36
   3   4  12   26.72   13.55
   4   3  12   38.94   14.34
  -7   3  12   16.96   11.28
  -7   4  12   22.27   10.32
   4  -7  12   27.67   13.86
  -4   7 -12   24.48   13.25
  -3   7 -12   20.88   13.17
   7  -3 -12   11.93    8.88
   3  -7  12   29.56   13.03
   7  -3 -12   21.89   10.70
   7  -4 -12   18.75   11.22
  -7   3  12   27.23   12.40
  -7   4  12   27.42   11.70
  -7   4  11   94.55   16.18
  -7   4  11   91.68   14.69
  -7   3  11   94.28   15.95
  -3  -4 -11   99.30   17.06
  -4  -3 -11  131.20   20.02
  -3  -4 -11  122.32   19.74
  -4  -3 -11  119.75   19.44
  -3   7 -11  109.21   14.53
  -4   7 -11   76.07   16.14
  -3   7 -11  120.04   19.06
   3   4  11   70.45   16.03
   4   3  11  100.03   18.28
  -7   3  11   86.65   15.24
  -7   4  11   97.24   15.09
  -4   7 -11   90.93   16.51
   7  -3 -11   99.27   14.96
   4  -7  11  117.47   17.84
   3  -7  11   88.98   16.64
  -3   7 -11  120.57   19.12
   7  -4 -11  120.25   14.71
  -4   7 -11  106.04   14.16
   3   4  11  103.35   14.35
   4   3  11  108.18   14.41
   7  -3 -11  105.31   16.23
   7  -3 -11  103.96   14.67
   7  -4 -11  104.66   16.87
   7  -4 -11  108.66   14.62
  -7   3  11  107.97   17.46
  -3  -4 -10  646.43   37.93
  -4  -3 -10  704.52   39.51
  -4   7 -10  638.21   35.21
  -3   7 -10  655.10   33.83
   3   4  10  629.79   37.67
   4   3  10  661.86   38.80
  -7   3  10  623.83   34.49
  -7   4  10  644.85   33.14
  -3   7 -10  684.43   33.40
  -4   7 -10  674.62   38.87
  -3   7 -10  691.27   39.47
   7  -3 -10  486.62   29.38
   7  -4 -10  684.53   36.77
  -4   7 -10  682.70   33.01
   4  -7  10  679.91   38.90
   7  -4 -10  693.28   32.76
   3   4  10  682.79   33.37
   4   3  10  697.01   33.65
   7  -3 -10  651.48   32.76
   7  -4 -10  677.02   33.35
  -3  -4 -10  693.25   39.09
  -4  -3 -10  736.99   40.50
  -7   3  10  687.28   37.17
  -7   4  10  684.86   37.54
   3   4  10  691.02   28.78
   3  -7  10  673.77   38.74
  -7   4  10  660.62   33.61
  -7   3  10  637.00   35.25
   7  -3 -10  674.92   34.34
  -7   4   9   15.69    8.96
  -7   4   9   25.40    9.85
  -7   3   9   13.50   10.06
   3   4   9    5.81    7.07
  -3  -4  -9   30.84   11.92
  -4  -3  -9   27.82   12.41
  -3  -4  -9   16.46   11.08
  -4  -3  -9   11.90    9.93
  -4   7  -9   -0.98   12.66
  -3   7  -9   19.46   12.16
   3   4   9   20.05   11.39
   4   3   9   13.22    9.43
  -7   3   9   17.45   10.12
  -7   4   9    7.15    8.14
   4  -7   9   25.42   11.55
   3  -7   9   20.41    9.97
  -4   7  -9   13.53   11.02
  -3   7  -9   28.89   11.70
   7  -3  -9   35.51   11.51
   7  -4  -9   14.32    8.55
  -3   7  -9   23.38    9.38
   3   4   9   26.39    9.91
   4   3   9   18.86    8.73
   7  -3  -9   18.43    9.26
   7  -4  -9   21.57   10.46
   7  -3  -9   13.05    8.55
   7  -4  -9   18.92    9.21
  -4   7  -9   27.30    9.54
  -7   3   9   18.26   10.31
  -4  -3  -8  620.12   32.35
  -4   7  -8  623.25   34.59
  -3   7  -8  626.61   30.55
   3   4   8  621.89   33.50
   4   3   8  622.69   33.82
  -7   3   8  623.28   30.71
  -7   4   8  623.98   28.79
  -4   7  -8  621.62   33.72
  -3   7  -8  620.05   33.93
   7  -3  -8  620.49   26.97
   7  -4  -8  628.76   33.12
   4  -7   8  628.72   35.66
   7  -3  -8  623.51   30.81
  -4   7  -8  624.18   30.56
   7  -4  -8  621.08   29.56
  -3   7  -8  624.21   29.46
   3   4   8  623.38   30.47
   4   3   8  621.83   31.12
   3  -7   8  620.77   33.82
   7  -3  -8  626.48   30.26
   7  -4  -8  624.95   29.99
  -3  -4  -8  622.97   32.77
  -7   3   8  621.95   27.47
  -7   4   8  628.03   26.65
   4   3   8  622.74   21.10
   3   4   8  620.54   25.18
  -7   4   8  624.02   30.66
  -7   3   8  626.95   33.19
  -7   4   7  170.85   12.92
  -7   3   7  156.97   15.69
  -4  -3  -7  150.60   20.48
   7  -4  -7  168.21   13.94
  -4   7  -7  150.18   23.01
  -3   7  -7  159.69   19.22
   3   4   7  186.92   21.04
   4   3   7  175.46   20.41
  -7   3   7  151.41   19.60
  -7   4   7  177.06   17.38
   7  -3  -7  190.50   18.87
  -3   7  -7  179.28   19.43
   7  -4  -7  172.57   19.06
   4  -7   7  168.96   18.98
   3  -7   7  208.13   20.60
   3   4   7  173.28   14.30
  -4   7  -7  159.79   17.19
   4   3   7  167.69   15.45
   7  -4  -7  165.75   16.90
  -3   7  -7  175.99   18.15
   3   4   7  169.16   17.34
   4   3   7  162.63   17.25
   7  -3  -7  179.45   18.08
   7  -4  -7  160.03   17.20
  -3  -4  -7  170.80   19.03
  -7   3   7  113.14   14.09
  -7   4   7  174.91   18.19
   4   3   7  183.11   11.83
   3   4   7  171.09   14.16
   7  -3  -7  187.38   18.65
  -4  -3  -6 1146.24   43.37
   7  -3  -6 1065.40   31.97
  -3   7  -6 1106.22   34.95
   7  -4  -6 1051.26   31.19
  -4   7  -6 1068.20   31.13
  -4   7  -6 1134.17   43.24
  -3   7  -6 1125.87   41.16
   3   4   6 1177.13   46.56
   4   3   6 1153.89   45.91
  -7   3   6 1045.59   40.02
  -7   4   6 1004.42   36.95
  -3   7  -6 1080.47   34.60
  -4   7  -6 1089.44   34.55
   7  -3  -6 1135.70   42.26
  -3   7  -6 1108.17   44.23
   7  -4  -6 1138.53   43.71
  -3  -4  -6 1050.33   33.61
   4  -7   6 1132.16   45.36
   3  -7   6 1126.16   44.80
   3   4   6 1102.01   34.66
  -4   7  -6 1117.59   33.51
   7  -3  -6 1039.85   40.89
   4   3   6 1065.05   36.39
  -4   7  -6 1037.98   40.62
  -3   7  -6 1149.49   42.44
   3   4   6 1059.78   41.36
   4   3   6 1166.20   42.79
   7  -3  -6 1108.51   42.09
   7  -4  -6 1107.27   41.90
  -3  -4  -6 1119.49   42.80
  -7   3   6 1115.87   38.91
  -7   4   6 1124.16   40.19
   4   3   6 1109.91   27.27
   3   4   6 1106.60   32.80
  -7   4   6 1108.12   40.80
  -7   3   6 1026.94   42.12
  -4  -3  -5  729.37   33.81
   7  -3  -5  693.49   26.54
   7  -3  -5  756.83   28.36
  -3   7  -5  732.23   27.72
   7  -4  -5  744.62   24.55
  -4   7  -5  716.99   23.90
  -4   7  -5  677.08   34.17
  -7   3   5  775.33   29.63
  -3   7  -5  695.16   33.52
  -7   4   5  701.21   29.71
  -7   3   5  801.39   35.03
  -7   4   5  686.85   30.78
  -3   7  -5  711.74   26.08
  -4   7  -5  692.06   25.48
   3  -7   5  737.17   25.07
   7  -3  -5  663.43   32.50
  -3   7  -5  774.07   35.92
   7  -4  -5  765.52   35.61
  -3  -4  -5  735.61   29.28
   4  -7   5  772.22   36.56
   3  -7   5  738.94   35.82
   3   4   5  804.97   30.53
   4   3   5  719.00   30.45
   7  -3  -5  786.64   35.42
  -4   7  -5  714.61   27.58
  -4   7  -5  718.69   33.68
  -3   7  -5  723.80   34.12
  -3   7  -5  710.65   24.20
   3   4   5  776.49   35.09
   4   3   5  758.16   35.04
   7  -3  -5  741.91   34.65
   7  -4  -5  728.14   34.50
  -3  -4  -5  743.59   33.99
  -7   3   5  733.06   30.08
  -7   4   5  752.03   31.61
   4   3   5  753.39   22.53
   3   4   5  747.13   27.07
  -7   3   5  722.37   35.46
  -7   4   5  709.62   33.13
  -4   7  -4   14.78    7.03
  -7   3   4    6.60    7.58
  -3   7  -4   19.20    7.53
  -7   4   4   15.58    8.16
  -4   7  -4   16.18    7.40
   7  -4  -4   23.82   11.51
  -7   3   4   41.83   15.77
  -7   4   4   51.62   16.63
  -3   7  -4   13.20    5.99
   3   4   4   15.28    3.31
   4   3   4   18.33    6.12
   7  -3  -4   26.07    9.40
  -3  -4  -4   11.58    8.20
  -4  -3  -4   13.98    9.40
   7  -3  -4   23.03    7.58
   4   3   4   11.17    2.65
  -7   3   4   20.94   11.21
  -4   7  -4   60.11   15.86
  -7   4   4   15.19   11.05
  -3   7  -4   75.76   16.87
  -7   4   4   65.56   16.23
   7  -4  -4    6.68    4.88
  -4   7  -4   13.64    5.55
   4  -7   4   16.04   11.30
  -7   3   4   37.23   16.13
   7  -3  -4   14.88   10.18
  -3   7  -4    9.58    7.75
  -4   7  -4   11.84    5.64
   3  -7   4   23.84   11.07
   4   3   4   17.26    9.38
  -3   7  -4   14.47    9.30
   3   4   4   20.18    8.29
   4   3   4   22.00    8.97
  -4   7  -4   22.60    9.58
  -3   7  -4   20.13    8.85
   7  -3  -4   15.46    8.86
   4  -7   4   14.39    7.77
   3   4   4   29.80   10.65
   3  -7   4   18.07    6.94
   7  -3  -4   15.83    9.42
   7  -4  -4   18.53    9.89
  -4  -3  -3  391.13   23.17
   7  -3  -3  375.56   20.90
   7  -4  -3  400.68   16.16
  -4   7  -3  384.37   15.51
  -7   3   3  377.85   21.99
  -7   4   3  358.71   23.76
  -4   7  -3  394.22   27.18
  -3   7  -3  429.32   17.62
  -4   7  -3  418.22   16.38
   3   4   3  399.68   14.78
   7  -3  -3  393.75   25.34
   7  -4  -3  408.13   26.44
  -3   7  -3  392.60   24.63
   4  -7   3  379.67   25.37
   4  -7   3  387.06   21.59
   4   3   3  404.51   14.16
   3  -7   3  376.26   19.71
   3  -7   3  423.89   26.43
   3   4   3  412.22   23.22
   4   3   3  392.74   23.69
   7  -3  -3  383.98   25.36
  -4   7  -3  406.19   25.55
  -3   7  -3  379.75   25.05
  -4   7  -3  401.84   22.07
   3   4   3  415.72   26.23
  -3   7  -3  398.19   19.92
   4   3   3  386.94   25.50
   7  -3  -3  420.59   26.39
   7  -4  -3  393.82   25.50
  -3  -4  -3  423.86   24.22
  -7   3   3  407.55   20.24
  -7   4   3  392.82   21.16
  -4   7  -3  387.17   19.32
  -3   7  -3  408.73   19.75
  -7   3   3  409.23   27.56
  -3  -4  -3  393.53   24.50
  -4  -3  -2  317.71   20.00
  -4   7  -2  311.04   13.17
  -7   3   2  343.20   21.67
  -7   4   2  307.89   21.86
  -4   7  -2  311.31   25.13
   7  -4  -2  308.70   23.19
  -4   7  -2  307.46   12.28
   3   4   2  319.33   15.00
   7  -4  -2  332.91   23.97
   4  -7   2  353.57   24.59
  -3   7  -2  323.44   21.83
   3  -7   2  308.31   22.45
   4  -7   2  336.73   21.03
   3  -7   2  319.27   19.00
   4   3   2  324.09   14.80
   3   4   2  323.08   21.20
   4   3   2  344.40   22.98
   7  -3  -2  340.63   23.89
  -3   7  -2  324.65   23.25
   3   4   2  303.02   22.82
   4   3   2  353.73   24.57
  -3   7  -2  287.52   17.96
   7  -3  -2  333.38   23.76
   7  -4  -2  315.22   23.31
  -3  -4  -2  304.93   20.47
  -7   3   2  333.39   17.35
  -7   4   2  325.79   18.41
  -4   7  -2  321.13   16.16
  -4   7  -2  346.67   24.02
  -3   7  -2  329.81   16.56
  -3  -4  -2  344.76   24.83
  -3   7  -1  219.71    9.56
  -4  -3  -1  213.29   14.48
  -7   3   1  217.79   15.83
  -7   4   1  211.25   20.32
  -3   7  -1  217.42   16.88
   7  -4  -1  214.16   18.23
  -4   7  -1  211.90   18.68
  -4   7  -1  214.15    7.15
   4  -7   1  210.92   17.77
   7  -4  -1  217.31   17.96
  -3   7  -1  216.02   14.93
   3  -7   1  219.74   16.89
   3   4   1  216.39   12.12
   4  -7   1  217.70   15.60
   3  -7   1  210.32   14.90
   3   4   1  219.87   16.42
   4   3   1  216.69   11.66
   4   3   1  213.25   16.68
  -4   7  -1  216.82   19.10
   3   4   1  215.98   18.30
   4   3   1  217.16   17.42
  -3   7  -1  216.30   14.03
   7  -3  -1  215.30   18.26
   7  -4  -1  212.36   17.59
  -3  -4  -1  213.98   14.49
  -7   3   1  214.87   11.51
  -7   4   1  216.41   12.65
  -4   7  -1  216.35   10.39
  -3  -4  -1  216.80   19.72
  -4  -3  -1  212.87   21.87
  -7   3   0   23.02    5.93
  -4   7   0   14.98    4.54
   7  -4   0   38.45   11.83
  -3  -4   0   42.49   14.63
  -3   7   0   28.23    6.21
  -4  -3   0   63.45   18.82
  -7   4   0   12.82    6.09
  -3  -4   0   21.84    7.92
  -4  -3   0   16.64    6.91
  -7   3   0    7.48    8.22
  -7   4   0   50.13   12.16
   4  -7   0   26.22   11.10
  -3  -4   0   93.11   19.75
   3  -7   0   25.17   10.23
   3   4   0   20.63    7.11
  -4   7   0   20.43    5.14
   7  -4   0   23.12    5.72
   4   3   0   13.74    5.71
  -3   7   0   30.34    9.26
   3   4   0   31.00   10.69
   4   3   0   23.50   10.95
  -4   7   0   23.43   10.65
  -3   7   0    3.14    8.17
   3   4   0   15.49    9.58
   4   3   0   20.37    9.66
   7  -3   0   25.78   10.69
   7  -4   0   24.16   11.23
   4  -7   0   30.06    9.75
   3  -7   0   20.52    8.92
   7  -3   0   21.84   10.42
  -3  -4   1  165.20   18.29
  -4  -3   1  217.48   14.56
  -7   3  -1  213.80   18.08
  -7   4  -1  224.71   19.31
   7  -3   1  239.35   19.18
   7  -4   1  231.77   19.80
  -4   7   1  214.90   10.76
   7  -4   1  230.24   11.55
   3   4  -1  216.20    9.23
  -4  -3   1  237.13   23.81
  -3  -4   1  326.87   25.23
   4  -7  -1  201.41   18.39
   3  -7  -1  220.75   18.56
  -3   7   1  225.78   16.72
   3   4  -1  211.28   15.47
   4  -7  -1  215.71   18.29
   3   4  -1  239.17   19.59
   3  -7  -1  243.28   18.72
   4   3  -1  212.46   19.69
   4   3  -1  202.00   15.00
  -4   7   1  225.27   20.03
  -3   7   1  219.85   19.41
   3   4  -1  233.76   20.33
   4   3  -1  203.72   19.03
   7  -3   1  221.90   19.97
   7  -4   1  227.43   20.00
  -3  -4   1  223.73   15.00
  -7   3  -1  212.76   10.77
  -7   4  -1  223.50   13.55
  -3  -4   1  219.78   15.91
  -4   7   1  213.67    7.76
  -4  -3   1  227.15   22.52
  -4  -3   2  877.74   25.40
  -7   3  -2  859.01   34.89
  -7   4  -2  835.64   35.62
  -4   7   2  843.05   20.93
   7  -3   2  822.67   33.22
   7  -4   2  831.18   22.02
   7  -4   2  853.21   35.42
  -3   7   2  851.08   26.77
   7  -3   2  838.40   26.98
  -4  -3   2  855.65   37.98
  -3  -4   2  696.92   33.23
   4  -7  -2  826.73   34.79
   3  -7  -2  807.07   33.14
  -3   7   2  854.71   29.77
   3   4  -2  840.46   21.48
   3   4  -2  815.27   35.50
   4  -7  -2  869.00   35.64
   4   3  -2  831.20   36.33
   3  -7  -2  873.42   34.48
  -4   7   2  868.69   36.58
  -3   7   2  855.13   36.43
   3   4  -2  840.69   36.43
   4   3  -2  851.89   36.98
   7  -3   2  840.38   36.60
   7  -4   2  878.82   37.15
   4   3  -2  842.08   29.80
  -3  -4   2  832.47   25.73
  -7   3  -2  825.65   17.40
  -7   4  -2  844.49   23.80
  -3  -4   2  834.84   31.18
  -3  -4   2  767.52   33.32
  -4  -3   2  832.94   37.48
  -4  -3   3   90.67   13.60
  -4  -3   3   98.19    9.43
  -4   7   3   95.10   17.46
  -3  -4   3   97.70   10.17
   4   3  -3   97.04   10.44
   4  -7  -3   97.99   14.63
   3   4  -3   99.83    9.73
  -4   7   3   97.20    8.83
   7  -4   3   93.94    9.34
  -7   3  -3   90.12   15.20
  -7   4  -3   96.69   14.98
   3  -7  -3   94.82   13.56
  -3   7   3   90.70   10.88
   7  -3   3   94.15   12.18
   7  -3   3   99.72   14.33
   7  -4   3   90.81   14.92
  -4  -3   3   95.35   18.28
  -3  -4   3   90.54   15.06
  -4  -3   3   99.68   10.54
  -3   7   3   92.38   11.18
   3   4  -3   90.92   17.25
   4   3  -3   95.44   15.63
   7  -4   3   95.20   14.91
  -3  -4   3   91.38   10.19
  -4   7   3   92.22   15.70
  -3   7   3   95.51   14.26
  -7   3  -3   95.71    5.11
   3   4  -3   90.72   15.20
   4   3  -3   98.75   15.10
   7  -3   3   93.20   14.87
  -7   4  -3   99.38    9.11
  -3  -4   3   93.04   13.18
   4  -7  -3   92.85   15.30
  -3  -4   3   90.30   17.25
   3  -7  -3   94.93   14.87
  -4  -3   4  686.78   17.39
  -7   3  -4  640.12   32.29
  -7   4  -4  695.86   34.05
  -3  -4   4  668.72   20.74
  -4  -3   4  685.47   17.84
  -4   7   4  701.29   22.05
   7  -4   4  722.60   23.01
  -3   7   4  700.54   25.66
   7  -3   4  672.34   25.60
  -4  -3   4  649.38   33.01
   7  -3   4  605.93   27.98
  -3  -4   4  641.41   31.18
   4   3  -4  708.83   24.98
   7  -4   4  721.94   31.93
   4  -7  -4  708.69   32.29
   3  -7  -4  663.58   29.52
  -3  -4   4  671.73   19.51
  -3   7   4  684.19   23.92
  -4  -3   4  688.59   23.07
   3   4  -4  687.83   34.16
   4   3  -4  697.30   34.55
   4  -7  -4  689.59   33.57
   3  -7  -4  686.74   32.88
  -4   7   4  659.90   32.23
  -3   7   4  652.48   32.11
   3   4  -4  699.72   33.39
   4   3  -4  696.54   33.20
   3   4  -4  664.92   24.04
   7  -3   4  715.97   33.84
   7  -4   4  618.81   31.59
  -3  -4   4  699.66   19.53
  -7   4  -4  665.96   19.50
  -3  -4   4  682.83   31.00
  -4   7   4  670.19   34.27
  -3  -4   4  585.70   30.61
  -3   7   4  728.01   35.93
  -4  -3   4  635.01   33.78
  -3  -4   5  237.48   10.47
  -7   3  -5  243.94   21.30
  -7   4  -5  243.87   21.61
  -3  -4   5  217.18   10.15
  -4  -3   5  185.68    5.96
  -4   7   5  241.98   14.23
   7  -4   5  227.51   14.28
  -3   7   5  245.79   16.10
   7  -3   5  249.56   16.74
   4  -7  -5  234.34   19.49
  -3  -4   5  243.80   20.76
   7  -3   5  211.43   17.17
   3  -7  -5  240.47   18.69
   7  -4   5  233.81   19.06
   4   3  -5  240.99   16.32
  -4  -3   5  213.87   19.95
  -3   7   5  248.75   13.78
  -3  -4   5  206.98    9.24
  -4  -3   5  235.49   12.78
   3   4  -5  231.23   21.59
   4   3  -5  225.28   20.97
   4  -7  -5  237.01   21.12
   3  -7  -5  250.61   21.54
  -4   7   5  225.80   14.08
  -4   7   5  250.23   20.76
  -3   7   5  257.34   21.11
   3   4  -5  237.82   20.24
   4   3  -5  237.74   20.50
  -3  -4   5  242.42    9.78
   7  -3   5  227.84   20.14
   7  -4   5  222.96   19.83
   3   4  -5  258.97   16.71
  -3  -4   5  212.01   19.07
  -4   7   5  247.81   22.68
  -7   4  -5  253.34   12.18
  -3  -4   5  256.07   21.61
  -3   7   5  255.77   22.26
  -4  -3   5  274.65   23.65
  -7   3  -6 1777.21   55.36
  -7   4  -6 1733.11   55.49
  -4   7   6 1785.18   39.33
   7  -4   6 1805.38   40.88
  -3   7   6 1830.24   44.42
   7  -3   6 1866.57   45.69
   4  -7  -6 1715.62   50.02
  -4  -3   6 1750.41   54.58
  -3  -4   6 1642.37   51.99
   3  -7  -6 1703.51   47.02
   7  -3   6 1780.96   46.65
   7  -4   6 1735.85   49.35
   4   3  -6 1798.10   45.67
  -4   7   6 1791.57   34.40
  -3   7   6 1774.76   31.49
   3   4  -6 1800.29   56.78
   4   3  -6 1786.00   56.86
  -4  -3   6 1682.07   29.64
   4  -7  -6 1800.83   56.14
  -4   7   6 1726.46   34.32
   3  -7  -6 1861.26   56.26
  -4   7   6 1781.55   52.53
  -3   7   6 1811.50   53.00
   3   4  -6 1729.82   51.75
   4   3  -6 1735.42   52.21
   7  -3   6 1744.76   52.41
   7  -4   6 1735.23   51.99
   3   4  -6 1825.97   45.71
  -4   7   6 1769.31   56.77
  -3   7   6 1758.56   56.23
  -3  -4   6 1719.13   52.53
  -3  -4   6 1765.24   54.84
  -4  -3   6 1653.15   54.39
  -7   3  -7  427.31   29.03
  -7   4  -7  459.74   30.40
  -4   7   7  403.97   20.47
   7  -4   7  430.83   21.57
  -3   7   7  434.74   23.33
   7  -3   7  465.91   24.45
   4  -7  -7  437.89   26.03
  -4  -3   7  417.49   28.65
  -3  -4   7  447.29   28.75
   3  -7  -7  413.70   23.80
   7  -3   7  409.20   23.17
   7  -4   7  450.96   25.89
  -4   7   7  414.49   14.68
   4   3  -7  489.31   25.83
  -3   7   7  406.82   12.05
   3   4  -7  432.73   29.75
   4   3  -7  426.62   29.68
   4  -7  -7  435.93   29.72
   3  -7  -7  448.71   29.42
  -3   7   7  431.42   26.69
  -4   7   7  434.45   26.84
   3   4  -7  410.35   26.08
   4   3  -7  444.10   27.16
   7  -3   7  433.59   26.62
   7  -4   7  420.36   26.51
   3   4  -7  424.34   23.89
  -4   7   7  418.25   29.21
  -3   7   7  424.17   29.09
  -3  -4   7  406.24   28.10
  -4  -3   7  428.57   29.33
  -3  -4   7  424.76   28.06
  -3  -4   8   -0.53    9.36
   3  -7  -8   15.71   11.04
  -4  -3   8   24.33   12.38
  -3  -4   8    8.75   10.17
   3   4  -8    9.67    8.42
  -4   7   8   16.53   11.81
  -3   7   8   11.18    8.53
   4  -7  -8   16.03    9.43
   3  -7  -8   18.89    9.12
  -7   3  -8    2.74   10.42
  -7   4  -8    6.32   10.36
   4   3  -8   14.85    9.15
   7  -3   8   10.81    7.51
   7  -4   8   10.76    7.83
  -4   7   8    6.95    6.43
   7  -4   8   14.10    7.60
  -3   7   8   17.13    7.97
   7  -3   8   18.27    8.34
  -4  -3   8    5.70   10.36
  -3  -4   8    8.88    9.41
   3   4  -8   10.91    9.31
   4   3  -8    8.73   10.48
   7  -3   8   12.85    9.09
  -4   7   8    8.99    8.72
  -3   7   8   16.07    8.93
   3   4  -8   14.37    8.93
   4   3  -8   10.69    8.64
   7  -4   8   18.84    9.40
   4  -7  -8   13.62   10.92
  -7   3  -9  315.65   26.65
  -7   4  -9  313.81   26.77
  -4   7   9  298.62   20.32
   7  -4   9  331.68   21.17
  -3   7   9  311.54   21.89
   7  -3   9  336.97   23.05
   4  -7  -9  341.44   23.57
   3  -7  -9  325.63   21.58
  -4  -3   9  318.85   26.63
  -3  -4   9  326.73   26.82
   7  -4   9  315.47   22.19
   7  -3   9  295.98   19.76
   4   3  -9  309.13   23.30
   3   4  -9  315.55   27.01
   4   3  -9  333.35   27.73
   4  -7  -9  334.52   27.70
   3  -7  -9  307.78   26.31
  -4   7   9  320.82   23.48
  -3   7   9  321.41   23.31
   3   4  -9  309.54   22.73
   4   3  -9  307.59   22.94
   7  -3   9  323.50   23.36
   7  -4   9  299.84   22.51
   3   4  -9  311.77   23.30
  -4   7   9  326.52   27.56
  -3   7   9  321.95   26.99
  -3  -4   9  327.60   26.83
  -4  -3   9  315.07   27.33
  -3  -4   9  307.87   26.35
  -3  -4  10   78.00   16.31
  -4  -3  10   66.46   15.77
   3  -7 -10   92.40   17.47
  -4   7  10   84.91   16.83
  -3   7  10   77.06   14.91
   4  -7 -10   76.42   13.73
   3  -7 -10   93.92   13.07
  -7   3 -10   79.70   16.92
  -7   4 -10   57.70   15.42
  -4   7  10   70.94   11.42
   7  -4  10   66.44   11.97
  -3   7  10   85.06   12.81
   7  -3  10   77.53   13.03
   4   3 -10   58.04   11.67
  -4  -3  10   82.68   16.29
  -3  -4  10   79.26   15.59
   7  -4  10   82.48   13.02
   7  -3  10   88.21   11.83
   3   4 -10   78.94   16.39
   4   3 -10   76.44   16.51
  -4   7  10   84.35   13.19
  -3   7  10   83.57   13.42
   3   4 -10   76.24   12.96
   4   3 -10   87.07   14.00
   7  -3  10   77.38   13.31
   7  -4  10   77.47   13.21
   3   4 -10   49.02   11.27
   4  -7 -10   90.22   16.63
  -7   3 -11  169.12   22.10
  -7   4 -11  155.55   20.93
  -4   7  11  180.66   17.99
   7  -4  11  180.80   18.30
  -3   7  11  177.43   18.92
   7  -3  11  161.19   18.28
   4  -7 -11  185.41   18.92
   3  -7 -11  157.95   16.48
  -4  -3  11  170.37   22.05
  -3  -4  11  190.67   22.52
   4   3 -11  150.33   18.78
   3   4 -11  185.52   22.60
   4   3 -11  186.93   22.97
   7  -4  11  171.01   17.53
   7  -3  11  179.72   15.85
  -4   7  11  169.31   17.35
   3  -7 -11  178.11   22.81
  -3   7  11  178.57   17.79
   3   4 -11  179.55   18.26
   4   3 -11  167.81   17.76
   7  -3  11  178.73   18.13
   7  -4  11  181.53   18.19
   3   4 -11  162.47   19.42
  -4   7  11  187.05   22.85
  -3   7  11  185.64   22.16
  -3  -4  11  189.61   23.17
  -4  -3  11  189.65   23.72
   4  -7 -11  172.61   22.65
   4  -7 -12   33.35   15.21
  -4  -3  12   33.42   14.66
   3  -7 -12   19.04   13.54
  -4   7  12   39.43   15.21
  -3   7  12   19.20   12.75
   4  -7 -12   21.97    9.42
  -7   3 -12   32.68   13.57
  -7   4 -12   18.65   11.99
   4   3 -12   21.22   12.17
  -4   7  12   29.14   10.56
   7  -4  12   28.69    9.86
  -3   7  12   27.87   10.83
   7  -3  12   38.18   13.05
  -4  -3  12   23.35   13.22
  -3  -4  12   26.74   13.15
   7  -4  12   30.53    9.99
   3   4 -12   20.86   11.59
   4   3 -12    8.11   11.56
  -4   7  12   19.83    9.50
  -3   7  12   29.60    9.86
   3   4 -12   40.76   13.56
   7  -3  12   30.27    9.43
   7  -4  12   21.72    9.00
  -3  -4  12   29.47   13.37
  -4   7  13   13.26   12.36
  -3   7  13    6.85   11.67
  -7   3 -13    2.34   11.37
  -7   4 -13   19.70   12.81
   4   3 -13   32.50   13.73
  -4   7  13   21.98   11.14
   7  -4  13   15.68   10.95
  -3   7  13    8.08    9.79
   7  -3  13   28.31   13.21
  -3  -4  13   24.70   12.90
   3   4 -13    5.03   11.86
   4   3 -13   22.30   11.97
   3   4 -13   15.78   12.00
  -4   7  14  371.64   28.40
   7  -4  14  408.78   30.31
  -3   7  14  364.11   29.28
   7  -3  14  379.09   30.24
   4   3 -14  390.94   32.47
   3   4 -14  359.30   31.59
   7  -4  15   32.69   14.05
  -3   7  15   19.51   11.32
   7  -3  15   47.27   14.03
  -5   7 -15   19.56   14.52
  -7   2  14    9.48   11.09
  -5   7 -14   25.62   13.36
   7  -5 -14   10.14   11.72
  -7   5  13    3.50   12.23
  -7   2  13    2.16   10.50
  -5   7 -13   30.09   14.34
  -7   2  13   -7.50   12.57
   5  -7  13   31.21   12.73
   7  -2 -13    7.07    9.62
   7  -5 -13   14.41   11.62
  -7   2  13   11.55   11.77
  -2  -5 -12  351.30   31.07
  -5  -2 -12  402.76   32.34
  -5   7 -12  420.26   31.71
   2   5  12  347.53   30.36
   5   2  12  356.84   30.81
  -2  -5 -12  406.20   32.80
  -7   2  12  382.97   30.25
  -7   5  12  371.58   25.57
  -5   7 -12  359.56   30.91
   7  -2 -12  367.36   25.89
  -2   7 -12  375.79   31.70
   7  -5 -12  374.28   30.58
   7  -2 -12  390.76   28.93
   5  -7  12  408.33   32.59
   2   5  12  392.82   25.66
   5   2  12  359.05   24.77
   2  -7  12  361.01   31.62
  -7   2  12  417.12   32.02
  -5  -2 -12  363.95   31.60
  -7   5  12  374.40   30.95
   2   5  12  332.69   24.18
  -7   2  12  373.31   30.51
  -7   5  11    0.21    7.47
  -7   5  11    5.56   10.78
  -7   2  11  -14.48   11.72
   2   5  11   -0.82    7.28
  -2  -5 -11    2.06    9.65
  -5  -2 -11   -2.08   10.55
  -5   7 -11   34.52   14.67
  -2   7 -11   10.56   11.70
   2   5  11    2.42   11.04
   5   2  11   -1.71   10.61
  -7   2  11   -2.54   10.31
  -7   5  11    9.86    8.07
   5  -7  11    7.11    9.52
  -2   7 -11    1.40    9.09
   2  -7  11    6.50    8.74
   7  -2 -11   12.76   10.97
  -5   7 -11    5.96    7.61
  -2   7 -11    0.36    7.40
   2   5  11   -3.36    8.48
   7  -2 -11   -0.77    8.26
   5   2  11    1.60    7.11
   7  -2 -11    1.98    7.49
   7  -5 -11    5.37    7.24
   7  -5 -11   11.99   10.58
  -7   2  11   -3.84    9.63
  -7   5  10   -2.54    7.88
  -7   2  10   -0.43   10.53
  -7   5  10   13.29    9.69
   2   5  10    3.04    7.61
  -2  -5 -10    4.86    8.43
  -5  -2 -10    5.86   11.04
  -5   7 -10   47.80   15.11
  -2   7 -10   -6.98   10.79
   2   5  10    2.49   10.40
   5   2  10    6.37   11.25
  -7   2  10    0.02   10.33
  -7   5  10   -1.46    8.07
   5  -7  10   -8.44   10.63
  -2   7 -10   10.24    9.66
   2  -7  10    7.72   10.79
   7  -2 -10    2.25    9.17
  -5   7 -10   -0.21    7.33
  -2   7 -10    5.62    8.25
   2   5  10   -3.66    7.60
   7  -2 -10   12.22    9.53
   5   2  10   -0.87    7.56
   7  -2 -10   -2.67    7.69
   7  -5 -10   -0.28    9.40
   7  -5 -10   -2.12    7.98
  -7   2  10   12.82   10.51
  -7   5   9   12.44    8.76
  -7   2   9   18.20   12.60
  -7   5   9   12.76   11.01
   2   5   9   12.06    7.85
  -2  -5  -9   11.45    9.83
  -5  -2  -9   11.33    9.81
  -5   7  -9   44.10   14.33
  -2   7  -9    7.15   10.01
   2   5   9   -0.20   10.53
   5   2   9   18.12   11.67
  -7   2   9   10.50   10.37
  -7   5   9    6.20    7.94
   5  -7   9    8.75   10.12
   2  -7   9   21.08   12.63
  -2   7  -9   16.85   10.73
   7  -2  -9    7.78    9.92
   7  -2  -9   14.94    9.51
  -5   7  -9   22.68    9.84
  -2   7  -9   17.27    9.32
   2   5   9   20.67    9.98
   7  -2  -9    5.99    8.30
   5   2   9   10.17    8.93
   7  -5  -9   10.53   10.65
   7  -5  -9   13.83    8.87
  -7   2   9    7.58    7.93
   7  -2  -8 1661.87   52.00
  -5  -2  -8 2293.26   65.88
  -5   7  -8 2183.96   63.93
  -2   7  -8 2136.44   54.56
   2   5   8 2231.70   66.21
   5   2   8 2079.01   64.29
  -7   2   8 2039.14   61.33
  -7   5   8 2152.95   52.43
   7  -2  -8 2254.10   58.50
  -2   7  -8 2139.13   65.56
   7  -5  -8 2241.72   65.20
   5  -7   8 2253.77   66.61
   7  -2  -8 2183.55   62.22
  -5   7  -8 1924.30   56.14
   2   5   8 2152.13   40.50
  -2   7  -8 1859.69   54.63
   2  -7   8 2238.89   66.74
   2   5   8 2209.74   59.91
   5   2   8 2304.69   61.39
  -2  -5  -8 2199.49   64.60
   7  -5  -8 1655.90   52.28
  -7   2   8 2167.44   58.92
  -7   5   8 2205.21   62.91
   2   5   8 2152.50   53.68
  -7   5   8 2206.28   53.96
  -7   2   8 2120.56   63.97
  -7   5   7    5.56   12.80
  -7   2   7    5.21   21.10
  -7   5   7    5.36    8.37
   2   5   7    5.21    7.64
  -2  -5  -7    5.07   11.15
  -5  -2  -7    5.72    9.96
  -5   7  -7    5.82   14.37
  -2   7  -7    5.11   10.13
  -7   2   7    5.05   16.84
  -7   5   7    5.58    7.38
   2   5   7    5.67   12.18
   5   2   7    5.81   11.87
   5  -7   7    5.55   11.17
   2  -7   7    5.39   11.58
  -2   7  -7    5.53   11.09
   7  -2  -7    5.00   12.56
   2   5   7    5.28    6.57
  -2   7  -7    5.03   10.46
   7  -2  -7    5.29   10.39
   2   5   7    5.45    9.91
  -5   7  -7    5.10    8.98
   5   2   7    5.13   10.42
   7  -2  -7    5.28   10.06
   7  -5  -7    5.29   11.80
   7  -5  -7    5.48    8.90
  -7   2   7    5.77   10.25
  -7   5   6  -26.04   13.68
  -7   2   6   -8.31   14.96
  -7   5   6    1.96    8.43
   2   5   6    1.36    6.60
  -2  -5  -6   21.09    9.96
  -5  -2  -6    2.30    8.05
  -5   7  -6   -3.74   12.84
   5  -7   6    3.35    8.29
  -7   2   6  -13.62   14.15
  -7   5   6   19.71    9.71
   2   5   6    4.43    9.05
   5   2   6   -5.40    8.35
   2  -7   6   -4.74    9.34
  -2   7  -6    0.50    7.45
   2   5   6    1.41    5.38
   7  -2  -6   -4.10    8.14
   5   2   6    0.18    7.28
  -5   7  -6   -5.72    8.55
  -2   7  -6    1.44    7.97
   2   5   6    1.14    8.06
   5   2   6    3.35    7.50
   7  -5  -6   -8.39    9.62
   7  -2  -6    3.94    7.86
   7  -5  -6    3.84    8.42
  -7   2   6   -0.38    6.78
   5   2   5    2.82    1.60
  -7   5   5   19.23   11.42
  -7   2   5   19.51   16.12
  -7   5   5    3.09    6.50
   2   5   5   20.42    8.38
  -2  -5  -5    2.82    7.75
  -5  -2  -5    7.42    8.59
   7  -2  -5   10.92    5.55
  -5   7  -5   28.84   15.23
  -7   2   5   20.51    9.51
   5  -7   5    6.69    9.64
   7  -5  -5    5.89    4.06
  -2   7  -5   28.47    9.79
  -7   2   5   28.78   14.22
  -7   5   5  -12.19    9.88
  -5   7  -5   15.46    6.14
   2  -7   5    6.86    6.11
   2  -7   5    0.48    7.58
  -2  -5  -5    9.64    6.00
  -2   7  -5    2.72    8.57
   2   5   5   12.69    6.96
   7  -2  -5   10.77    9.86
   5   2   5   -1.56    7.71
  -5   7  -5    2.20    7.06
  -2   7  -5    4.74    7.16
   2  -7   5    6.66    4.15
   2   5   5    2.56    7.36
   5   2   5    9.36    8.63
   7  -5  -5    0.82    9.55
   7  -2  -5   16.17    9.38
   7  -5  -5    7.76    8.04
  -7   2   5    7.68    6.78
  -5  -2  -4  677.19   31.47
   7  -2  -4  648.90   24.21
  -7   2   4  690.57   25.79
  -5   7  -4  626.62   34.17
  -7   5   4  648.54   31.48
   5   2   4  656.58   16.70
   7  -5  -4  679.70   35.08
   7  -5  -4  663.46   17.29
  -5   7  -4  671.86   17.16
   2   5   4  658.67   18.26
  -2   7  -4  631.78   25.37
  -7   2   4  632.85   34.47
  -7   5   4  665.89   27.87
  -5   7  -4  669.20   23.75
   2  -7   4  665.14   24.35
   5  -7   4  661.54   29.44
   5  -7   4  666.73   34.34
   7  -5  -4  687.91   34.74
  -2  -5  -4  628.45   26.32
  -2   7  -4  676.42   33.12
   2  -7   4  658.45   22.45
   2   5   4  674.68   27.45
   2  -7   4  660.66   33.11
   5   2   4  641.80   16.03
   5   2   4  670.45   31.56
   7  -2  -4  708.23   34.77
  -5   7  -4  652.79   32.75
  -2   7  -4  668.78   33.25
   2   5   4  656.71   33.22
   5   2   4  707.14   34.39
   7  -2  -4  693.44   34.02
  -2  -5  -4  666.53   31.09
  -2   7  -4  626.02   21.38
   7  -5  -4  668.23   33.27
   5   2   4  615.86   13.68
  -7   2   4  651.55   26.18
  -7   5   4  663.49   30.33
  -2  -5  -4  631.28   17.78
   5   2   4  638.62   13.94
  -5   7  -4  661.01   27.58
   7  -2  -4  639.10   26.53
  -2   7  -4  589.78   26.59
  -7   2   4  641.63   35.85
  -7   5   4  663.86   30.63
  -2  -5  -4  655.06   28.19
   7  -5  -3    8.44   10.54
  -2   7  -3   -8.65    9.02
  -7   2   3   23.26   15.65
  -7   5   3   13.93    7.89
   7  -2  -3    7.38    6.51
   5   2   3    4.78    3.40
   2   5   3    0.12    4.00
  -2  -5  -3    1.40    6.95
  -2   7  -3    3.79    5.24
  -5  -2  -3    1.04    7.01
   7  -2  -3    3.56    5.68
  -7   2   3   19.39    8.63
  -5   7  -3   13.55   13.44
  -7   5   3   18.80   12.45
   5  -7   3    3.13    7.91
   7  -5  -3    1.53    2.18
  -5   7  -3    3.56    2.29
  -7   5   3   33.26   11.65
  -5   7  -3    1.68    4.41
   2  -7   3    0.80    4.39
   2  -7   3   -1.08    7.99
   5   2   3    3.73    3.90
  -2   7  -3   -4.11    7.84
   2   5   3   -1.07    6.33
   5   2   3    0.62    7.57
   7  -2  -3   -2.65    9.31
  -5   7  -3    3.33    6.92
  -2   7  -3   -1.25    8.35
   2   5   3   -6.90    8.10
   5  -7   3   -4.04    7.58
   7  -5  -3    7.75    9.14
   5   2   3    1.98    8.64
   7  -2  -3    1.00    7.28
  -2  -5  -3    2.25    4.49
   2  -7   3    4.87    5.68
   7  -5  -3    1.84    8.51
   5   2   3    2.63    2.68
  -7   2   3    7.75    5.47
  -5   7  -3    3.67    5.61
   7  -5  -2    9.04   10.15
  -2  -5  -2    5.99   10.03
  -7   5   2   17.39    7.84
   7  -2  -2   18.60    6.66
  -2  -5  -2   13.59    7.34
  -2   7  -2   14.31    5.83
   2   5   2   11.51    5.85
   7  -2  -2   12.40    6.27
  -5  -2  -2    8.27    7.65
  -7   2   2   11.31    7.06
  -7   5   2   35.23   14.25
   5  -7   2   11.89   10.41
  -5   7  -2   18.78   16.68
  -5   7  -2    9.80    4.39
   2  -7   2   11.80    4.55
   2  -7   2   16.51    8.95
   5   2   2   12.83    5.29
  -2   7  -2   18.68    9.04
   2   5   2    8.27    7.14
   5   2   2   19.30   10.03
   7  -2  -2   15.00    9.44
  -5   7  -2    7.05    8.86
  -2   7  -2   19.40    9.60
   2   5   2   20.87   10.34
   7  -5  -2    8.01    8.89
   5  -7   2    7.49    7.39
   5   2   2    7.41    8.47
  -2  -5  -2    9.78    4.78
   7  -2  -2    4.48    8.20
   2  -7   2   10.55    6.01
  -7   2   2    8.06    5.16
   5   2   2   11.69    4.03
  -5   7  -2   13.49    5.96
  -2  -5  -1   -1.22   12.08
  -2   7  -1   35.69    8.95
   7  -5  -1   22.08    9.95
  -7   5   1   12.94    6.83
  -2  -5  -1   21.34    7.26
  -2   7  -1   24.50    7.34
  -5  -2  -1   30.46    7.94
   5  -7   1   13.98    8.58
  -7   2   1   30.59    8.47
   2   5   1   26.21    7.22
  -7   5   1   26.95   13.23
  -5   7  -1   21.39   13.35
   7  -2  -1   30.24   11.90
  -2  -5  -1   45.03   12.59
  -5   7  -1   21.37    3.95
   2  -7   1   26.49   10.18
   5   2   1   22.91    6.25
  -2   7  -1   20.22    8.50
   2   5   1   20.99    8.84
   5   2   1   28.13   10.48
  -5   7  -1   15.63    8.45
  -2   7  -1   19.06    9.02
   7  -5  -1   19.32    8.56
   2   5   1   24.71    9.03
  -2  -5  -1   22.55    7.01
   5   2   1   28.75   10.25
   5  -7   1   40.22   10.43
   7  -2  -1   21.85    9.17
   2  -7   1   20.13    7.46
  -7   2   1   21.77    5.32
   5   2   1   19.68    5.03
   2   5   0 1227.37   20.17
  -5  -2   0 1248.86   34.82
  -7   2   0 1262.28   39.18
  -7   5   0 1238.18   43.78
  -5   7   0 1204.85   44.91
   7  -5   0 1206.96   43.89
  -2  -5   0 1085.28   37.16
  -5   7   0 1087.99   14.88
   5  -7   0 1296.58   45.38
   2   5   0 1250.61   35.32
   7  -5   0 1265.54   45.34
  -2   7   0 1283.11   39.43
   5  -7   0 1240.11   41.94
   2  -7   0 1306.19   41.73
   2   5   0 1223.13   40.97
   2  -7   0 1266.73   37.81
   5   2   0 1345.56   45.65
  -5   7   0 1275.40   44.70
   7  -2   0 1235.17   44.89
  -2   7   0 1276.95   44.77
   5   2   0 1220.89   44.08
   5   2   0 1198.74   33.67
   7  -2   0 1234.25   44.28
  -2  -5   0 1216.19   34.42
  -2   7   0 1222.45   36.49
   5   2   0 1236.26   29.54
  -2  -5   0 1272.82   35.28
   2   5   0 1260.45   44.57
  -7   5   0 1258.03   35.94
  -2  -5   0 1216.90   37.67
  -5  -2   0 1279.65   47.12
  -2  -5   1    1.22   10.56
  -5  -2   1    1.10   15.84
  -7   5  -1    1.74    6.23
   7  -5   1    1.03    8.55
  -2  -5   1    1.95    5.45
   5  -7  -1    1.90    9.12
  -5  -2   1    1.59    5.61
  -7   2  -1    1.98    7.72
  -7   5  -1    1.87   14.25
  -2  -5   1    1.43    8.09
   2   5  -1    1.39    6.50
   2  -7  -1    1.95    7.62
  -2  -5   1    1.72    9.68
   2   5  -1    1.22    3.80
  -2   7   1    1.68    5.95
   5   2  -1    1.07    5.61
   2   5  -1    1.40    8.42
   5   2  -1    1.93    9.39
  -5   7   1    1.55    7.44
  -2   7   1    1.41    8.99
  -2  -5   1    1.55    6.38
   2   5  -1    1.39    7.97
   5   2  -1    1.41    8.87
   7  -2   1    1.55    7.81
   5  -7  -1    1.32    7.57
   7  -2   1    1.52    7.60
   2  -7  -1    1.02    6.88
   5   2  -1    1.81    4.94
  -5   7   1    1.34    3.50
   2  -7  -2   11.25    6.89
   7  -2   2   11.29    8.50
  -2  -5   2   16.38    8.44
  -5  -2   2   34.85   16.32
  -7   5  -2    2.91    6.14
  -5   7   2   24.90   12.12
  -2  -5   2    9.72    4.92
  -2   7   2    0.30    5.75
   7  -5   2   10.45    9.16
   5  -7  -2   -0.13    9.33
  -5  -2   2    5.13    4.72
  -7   2  -2   -0.98    7.80
  -7   5  -2   11.90   10.38
  -2  -5   2   19.96    8.43
   7  -5   2    2.67    1.28
   2  -7  -2   -2.21    6.70
  -5  -2   2   51.92   15.50
  -2  -5   2  -27.22   13.00
   2   5  -2    2.78    4.18
   2   5  -2    6.57    8.75
   5   2  -2    8.41    9.31
  -5   7   2    2.37    8.57
  -2   7   2    6.05    8.54
  -2  -5   2    9.13    7.22
   2   5  -2    0.62    8.58
  -5  -2   2   12.87    7.07
   5   2  -2    5.20    8.83
   7  -2   2    7.03    9.33
   5  -7  -2    6.79    9.01
   5   2  -2    4.19    5.51
  -5   7   2    3.76    2.33
   2  -7  -3    6.77    8.30
  -2  -5   3    3.88    8.60
  -5  -2   3   14.59   14.76
   7  -2   3    1.58    6.45
  -2  -5   3    4.36    4.14
  -5   7   3    4.20    8.86
  -7   5  -3    9.83    7.00
   5  -7  -3    5.10    9.71
   7  -5   3    8.39    8.33
  -5  -2   3    4.94    4.37
  -7   2  -3   -1.01    7.70
  -7   5  -3    6.67    9.38
  -2  -5   3   10.67    9.19
  -5   7   3    3.84    1.96
   7  -5   3    3.11    2.53
   2  -7  -3    3.24    6.64
  -5  -2   3   45.43   17.43
   2   5  -3    4.28    4.85
  -2  -5   3   22.06   10.03
  -2   7   3    5.91    7.19
   7  -2   3   14.68    7.97
  -2   7   3    5.03    5.71
   2   5  -3   10.20    9.18
   5   2  -3    8.73   10.26
  -5   7   3   10.24    8.39
  -2   7   3    5.93    9.31
   2   5  -3    6.84    8.40
  -2  -5   3    4.00    7.13
   5   2  -3   -1.54    7.45
  -5  -2   3   11.18    6.77
   7  -2   3    8.53    8.89
   7  -5   3   11.47   10.04
   5  -7  -3   13.78   10.17
   5   2  -3    7.59    6.97
  -2  -5   4 2074.27   29.53
  -2   7   4 1978.20   48.21
  -7   2  -4 2006.69   55.48
  -5  -2   4 2050.19   28.83
  -5   7   4 1979.01   27.96
  -7   5  -4 2027.77   58.44
   7  -5   4 2065.54   30.68
  -2  -5   4 1950.28   39.72
  -2   7   4 1990.20   48.02
   7  -2   4 2095.71   50.09
   7  -2   4 1918.33   46.22
   5  -7  -4 2048.69   56.62
  -5  -2   4 1808.99   55.97
  -2  -5   4 2089.67   52.95
   2   5  -4 1999.45   42.95
   7  -5   4 2068.89   56.74
   2  -7  -4 2010.35   48.70
  -2   7   4 2079.66   41.73
  -5  -2   4 2092.98   44.63
   2   5  -4 1980.12   57.26
   5  -7  -4 2090.08   58.85
   5   2  -4 2020.79   59.03
  -5   7   4 2023.54   56.57
  -5   7   4 2036.43   45.75
   2  -7  -4 2112.01   56.23
  -2   7   4 2036.57   56.71
   2   5  -4 2069.58   57.17
   5   2  -4 2019.59   57.26
   7  -2   4 2007.78   57.00
   7  -5   4 2066.29   57.37
  -2  -5   4 2000.85   53.62
  -5   7   4 2086.57   59.83
  -2  -5   4 1556.65   47.15
  -5  -2   4 2020.44   59.88
  -2  -5   5   39.20   10.52
   2  -7  -5   67.49   13.51
  -5   7   5   49.33   12.89
  -2   7   5   74.76   14.78
   5  -7  -5   61.29   13.01
  -5   7   5   53.80    6.48
   7  -2   5   52.66    9.13
  -7   2  -5   67.44   14.00
   7  -5   5   53.41   12.43
  -7   5  -5   52.82   12.60
  -2  -5   5   44.99    7.16
   2  -7  -5   57.15   10.17
   7  -5   5   50.87    6.82
  -5  -2   5   35.21   13.99
  -2   7   5   52.84   10.32
   7  -2   5   62.94   11.16
  -2  -5   5   48.50   10.88
   5   2  -5   53.98   10.25
  -2   7   5   51.45   10.14
  -2   7   5   49.36    7.29
   2   5  -5   57.24   13.82
   5   2  -5   54.32   13.63
  -5   7   5   52.14    8.65
  -5   7   5   43.20   11.91
  -2   7   5   56.97   12.55
   2   5  -5   52.95   11.68
   5   2  -5   62.60   12.67
  -2  -5   5   40.34   11.35
   7  -2   5   63.71   13.12
   7  -5   5   53.22   12.61
  -5  -2   5   58.18    8.64
   2   5  -5   49.00    9.49
   5  -7  -5   40.40   12.07
  -2  -5   6   51.96   11.84
  -5  -2   6   92.07   17.53
   2  -7  -6   62.13   12.61
  -5   7   6   49.73   12.92
   5  -7  -6   64.41   13.24
  -2   7   6   67.56   14.41
   2   5  -6   56.85    9.83
  -5   7   6   61.35    7.73
   7  -2   6   62.69    9.72
  -7   2  -6   48.16   12.13
  -7   5  -6   61.09   13.13
   2  -7  -6   65.48   10.54
   7  -5   6   70.23   13.23
   7  -5   6   62.82    7.94
  -2   7   6   52.36   10.93
   7  -2   6   59.22   11.25
  -5  -2   6    2.77   17.15
  -2  -5   6   55.48   11.87
   5   2  -6   65.85   10.95
   2   5  -6   62.23   14.22
  -2   7   6   51.21    6.16
   5   2  -6   58.36   13.93
  -5   7   6   77.23   13.36
  -2   7   6   78.28   13.37
   2   5  -6   46.65   11.02
   5   2  -6   56.97   12.20
   7  -2   6   65.55   12.61
  -2  -5   6   65.24   13.25
   7  -5   6   58.40   12.05
  -5  -2   6   58.23    8.42
   5  -7  -6   66.06   14.02
  -2  -5   7    1.44    9.98
  -5  -2   7    1.32   11.91
   2  -7  -7    1.10    9.71
  -5   7   7    1.95    9.13
   5  -7  -7    1.25    8.66
  -2   7   7    1.22    8.94
  -7   2  -7    1.62    9.54
   2  -7  -7    1.65    6.56
  -7   5  -7    1.19   12.25
   7  -2   7    1.17    6.02
   7  -5   7    1.64    9.87
  -5   7   7    1.16    4.73
   7  -5   7    1.04    4.89
  -2   7   7    1.60    7.34
   7  -2   7    1.23    7.40
   2   5  -7    1.14    7.05
  -5  -2   7    1.41   13.55
  -2  -5   7    1.62    8.55
   5   2  -7    1.74    8.38
   2   5  -7    1.40   10.10
   5   2  -7    1.09    9.85
  -5   7   7    1.09    7.36
  -2   7   7    1.65    8.52
   2   5  -7    1.00    8.26
   5   2  -7    1.82    8.42
   7  -2   7    1.03    8.00
   7  -5   7    1.12    8.76
  -2  -5   7    1.32    9.32
   5  -7  -7    1.05    9.44
  -7   2  -8 1149.57   47.66
  -5   7   8 1128.73   32.98
  -7   5  -8 1098.17   47.59
   7  -5   8 1163.82   34.32
  -2   7   8 1065.42   39.92
   7  -2   8 1181.06   42.66
   2   5  -8 1133.91   41.01
   5  -7  -8 1123.85   44.35
   5   2  -8 1085.01   41.24
   7  -2   8 1100.97   42.78
  -5  -2   8 1119.50   47.26
  -2  -5   8 1113.17   44.45
   2  -7  -8 1143.78   35.80
   7  -2   8 1071.55   32.59
   7  -5   8 1116.90   43.15
   2   5  -8 1174.84   49.15
   5   2  -8 1083.56   46.86
   5  -7  -8 1199.45   49.29
  -5   7   8 1098.66   42.42
  -2   7   8 1135.62   43.02
   2   5  -8  906.04   38.39
   5   2  -8  878.76   38.27
   7  -5   8 1124.16   43.09
   2  -7  -8 1194.40   48.62
  -2  -5   8 1099.30   46.46
  -5   7   8 1062.60   46.81
  -2   7   8 1096.83   46.23
  -2  -5   8 1176.86   47.62
  -5  -2   8 1097.57   47.89
  -2  -5   9   21.24   10.85
  -5  -2   9   32.66   13.16
   5   2  -9   22.38   11.57
   2  -7  -9   28.42   12.02
   5  -7  -9   31.00   11.73
  -5   7   9   28.51   12.81
  -2   7   9   15.49   10.77
   2  -7  -9   27.52    7.88
  -7   2  -9   23.48   11.92
  -7   5  -9   17.03   10.64
  -5   7   9   14.23    6.70
   7  -5   9   34.63    8.75
  -2   7   9   28.64    9.97
   7  -2   9   35.99   10.83
   7  -5   9   32.12   10.93
   7  -2   9   16.34    6.13
  -5  -2   9   19.71   12.21
  -2  -5   9   21.80   10.44
   2   5  -9   14.36    8.72
   2   5  -9   39.74   14.42
   5   2  -9   26.31   11.26
  -5   7   9   22.81    9.46
  -2   7   9   26.43    9.67
   2   5  -9   23.06    9.75
   5   2  -9   27.59   10.34
   7  -2   9   19.62    9.60
   7  -5   9   24.27    9.98
  -2  -5   9   22.96   11.91
   5  -7  -9   31.76   13.25
  -5  -2  10   95.69   17.92
   2  -7 -10   90.33   16.51
   5  -7 -10  116.37   17.50
  -5   7  10   99.33   17.28
  -2   7  10  123.51   19.08
  -5   7  10  102.23   12.56
   2   5 -10   61.28   12.77
  -7   2 -10   97.12   16.99
  -7   5 -10   80.65   16.73
   7  -5  10  101.50   12.67
  -2   7  10   72.67   13.33
   7  -2  10   92.99   15.67
  -5  -2  10   93.68   17.63
   7  -5  10   86.39   14.32
  -2  -5  10   91.42   15.53
   2   5 -10  100.87   18.61
   5   2 -10   90.23   16.37
  -5   7  10   92.49   14.05
  -2   7  10  110.29   14.86
   2   5 -10   85.91   13.70
   5   2 -10   53.85   12.90
   5   2 -10  106.01   14.89
   7  -2  10  105.84   14.70
   7  -5  10   85.75   13.72
  -2  -5  10  108.66   18.23
   5  -7 -10  109.44   18.66
  -2  -5  10   93.72   16.48
  -5  -2  11    2.78   11.30
   5  -7 -11   -1.22    8.61
   2  -7 -11   -2.16    9.47
  -5   7  11    2.30   10.51
  -2   7  11   -5.04   10.19
  -7   2 -11   -5.23    9.80
  -7   5 -11   -5.79   11.33
  -5   7  11    1.41    6.99
   7  -5  11   12.40    8.23
  -2   7  11   -4.07    8.51
   7  -2  11    3.40    8.91
  -5  -2  11   14.38   10.58
  -2  -5  11   -0.64    9.06
   7  -5  11    0.19    8.36
   2   5 -11    4.68   10.81
   5   2 -11    7.52   11.21
   5   2 -11    6.35    7.57
  -5   7  11   -3.62    8.02
   5   2 -11    2.89    8.88
  -2   7  11    8.17    8.65
   2   5 -11    5.75    7.70
   2   5 -11   -1.98    9.32
   7  -2  11   -0.03    7.09
   7  -5  11    6.84    7.87
  -2  -5  11    7.03    9.79
   5  -7 -11    1.74   10.21
  -2  -5  11   -4.20   10.73
   2   5 -12  347.16   28.52
  -7   2 -12  361.79   31.43
   7  -5  12  357.74   24.84
  -7   5 -12  330.60   29.79
  -2   7  12  310.56   26.12
   7  -2  12  365.09   29.23
   5  -7 -12  331.63   26.54
  -5  -2  12  337.01   30.38
   5   2 -12  321.28   27.51
  -2  -5  12  342.91   29.28
   2   5 -12  371.01   31.51
   5   2 -12  341.28   29.54
   5  -7 -12  351.68   30.92
   7  -5  12  340.76   26.15
  -5   7  12  350.64   24.21
  -2   7  12  343.73   24.11
   2  -7 -12  331.23   30.19
  -5   7  12  355.77   31.21
  -2   7  12  316.05   28.43
  -2  -5  12  357.10   30.85
  -5  -2  12  335.90   30.72
  -2  -5  12  361.95   31.89
   5  -7 -13   -5.67   11.35
  -2   7  13   -8.65   11.81
  -7   5 -13   11.16   11.52
   7  -5  13    6.48    9.65
  -2   7  13   -8.56   10.79
   7  -2  13   -3.46   10.13
  -2  -5  13  -18.61   13.15
   2   5 -13   -9.46   10.60
   7  -5  13   -1.13    8.57
   2   5 -13    8.67   11.00
   5   2 -13   -0.96   10.04
   5   2 -13    0.45   10.82
   5  -7 -14   16.38   11.64
  -2   7  14    3.70    9.21
   7  -2  14   12.25   11.49
   5   2 -14   -2.08   12.28
   7  -1 -14  203.46   23.57
   1   6  13   69.30   14.53
  -6   7 -13   94.98   18.97
   6  -7  13   67.40   16.16
   7  -1 -13   85.18   16.61
  -7   1  12   41.88   15.05
  -7   6  12   44.00   14.60
   1   6  12   32.31   11.58
  -1  -6 -12   27.95   13.23
  -6  -1 -12   27.07   14.58
  -6   7 -12   38.75   14.81
   1   6  12   37.43   14.47
   6   1  12   43.55   14.70
  -7   1  12   31.93   12.97
   6  -7  12   43.29   13.84
  -1   7 -12   27.37   11.30
   7  -1 -12   46.27   14.20
   1  -7  12   33.85   14.32
   7  -6 -12   65.45   16.48
  -7   1  11  117.82   19.43
  -7   6  11  123.64   19.43
   1   6  11  137.56   17.62
  -1  -6 -11  132.54   20.13
   1   6  11  125.65   17.00
  -6  -1 -11  116.45   19.63
  -6   7 -11  115.96   19.20
   1   6  11  129.37   19.94
   6   1  11  151.37   21.36
  -7   1  11  121.13   19.86
   1  -7  11  125.85   18.04
   6  -7  11  107.92   18.41
  -1   7 -11  138.14   17.00
  -1   7 -11  100.87   18.19
   7  -1 -11  127.66   18.98
   1  -7  11  129.67   20.77
  -6   7 -11  121.83   16.07
   6   1  11  120.77   16.43
   7  -1 -11  116.44   16.04
   7  -6 -11  113.82   15.82
   7  -6 -11  134.28   19.86
  -6  -1 -10  458.65   33.14
  -6   7 -10  474.87   33.49
   1   6  10  465.52   32.87
   6   1  10  400.56   30.64
  -7   1  10  437.29   32.28
   1  -7  10  472.66   30.11
  -1   7 -10  455.12   33.78
   7  -6 -10  475.29   33.90
   6  -7  10  442.78   32.24
   7  -1 -10  425.77   30.83
  -6   7 -10  427.10   27.93
  -1   7 -10  461.87   29.40
   1   6  10  436.67   28.57
   6   1  10  476.97   29.62
  -1  -6 -10  475.76   33.84
   7  -1 -10  428.99   28.40
   1  -7  10  430.82   32.72
   7  -6 -10  467.24   29.47
  -7   6  10  444.67   32.26
   1   6  10  419.98   27.98
  -7   1  10  454.68   33.20
  -6  -1  -9  276.61   25.54
  -6   7  -9  295.89   27.37
   1   6   9  270.00   25.07
   6   1   9  258.14   24.79
  -7   1   9  235.15   24.21
   1  -7   9  248.51   21.74
  -1   7  -9  265.35   25.87
   7  -6  -9  298.17   26.96
   6  -7   9  248.47   24.08
   7  -1  -9  266.45   24.78
  -6   7  -9  186.89   18.80
  -1   7  -9  179.98   18.64
   1   6   9  281.51   23.53
   6   1   9  252.10   21.90
  -1  -6  -9  282.48   25.66
   7  -1  -9  162.65   18.04
   1  -7   9  251.74   24.66
   7  -6  -9  204.08   19.88
  -7   6   9  261.92   25.01
   1   6   9  245.83   21.70
  -7   1   9  263.24   25.96
  -7   6   8    4.29    5.89
  -7   1   8    4.76   14.30
  -7   6   8    4.31    9.74
   1   6   8    4.62    8.78
  -1  -6  -8    4.07    9.35
  -6  -1  -8    4.17    9.65
  -6   7  -8    4.49   16.72
   1   6   8    4.20   11.18
   6   1   8    4.00   10.60
  -7   1   8    4.94   12.69
   6  -7   8    4.23    9.89
  -7   6   8    4.31    5.87
   1  -7   8    4.44    9.67
  -1   7  -8    4.83    9.83
   1  -7   8    4.19   11.19
   7  -1  -8    4.70   12.80
  -6   7  -8    4.81    6.78
  -1   7  -8    4.37    7.15
   1   6   8    4.07   10.71
   6   1   8    4.54    9.60
   7  -1  -8    4.88    7.39
   7  -6  -8    4.75    8.98
  -6  -1  -7  617.77   35.15
  -6   7  -7  718.32   39.45
   7  -6  -7  571.20   34.87
   1   6   7  579.15   33.97
   6   1   7  618.35   35.04
  -7   1   7  533.19   33.09
  -7   6   7  614.73   24.83
   1  -7   7  612.44   29.78
  -1   7  -7  591.62   35.55
   6  -7   7  645.42   36.13
   7  -6  -7  636.08   36.28
   7  -1  -7  624.02   35.42
   1   6   7  603.34   21.63
  -6   7  -7  615.05   32.64
  -1   7  -7  589.43   32.54
   1   6   7  640.13   33.91
   1  -7   7  604.43   35.04
   6   1   7  626.56   33.43
  -1  -6  -7  608.78   34.04
   7  -1  -7  632.26   34.18
  -7   6   7  658.20   35.42
   1   6   7  627.41   31.84
  -7   6   7  628.37   26.24
  -7   1   7  503.46   33.49
  -1  -6  -7  589.59   23.55
  -6  -1  -6  780.23   37.30
  -6   7  -6  751.58   39.36
   7  -6  -6  786.48   39.40
   1   6   6  835.39   39.41
   6   1   6  817.06   39.21
  -7   1   6  748.70   39.58
  -7   6   6  760.24   26.75
   1  -7   6  773.40   31.74
   6  -7   6  794.45   39.48
  -1   7  -6  785.10   38.90
   7  -6  -6  798.25   39.92
   7  -1  -6  795.79   37.75
   1   6   6  774.77   26.42
   7  -1  -6  771.68   38.76
  -6   7  -6  795.61   37.21
  -1   7  -6  801.71   37.54
   1   6   6  768.93   36.77
   1  -7   6  799.57   38.88
   6   1   6  778.34   37.25
  -1  -6  -6  798.38   37.41
  -7   6   6  754.63   36.32
   1   6   6  768.67   34.66
  -7   6   6  727.80   28.52
  -7   1   6  686.58   38.57
  -1  -6  -6  782.75   26.51
  -6  -1  -5  501.36   29.26
  -6   7  -5  498.63   33.66
  -7   1   5  474.44   18.66
   7  -6  -5  471.78   30.74
   1   6   5  525.79   31.23
   6   1   5  497.06   30.37
  -7   1   5  437.20   30.33
   6   1   5  463.14   15.14
  -7   6   5  466.94   20.97
   1  -7   5  494.23   24.08
   6  -7   5  487.76   30.71
   1  -7   5  455.86   14.19
  -1   7  -5  441.41   28.72
   7  -6  -5  471.96   30.72
   1   6   5  472.79   21.95
   7  -1  -5  468.04   30.69
  -6   7  -5  478.10   29.07
   6   1   5  473.43   28.20
  -1   7  -5  508.61   30.22
   1  -7   5  491.69   30.16
   1   6   5  454.95   28.57
  -1  -6  -5  494.36   28.79
  -1  -6  -5  485.72   17.34
   7  -1  -5  501.23   30.41
  -7   6   5  450.00   27.56
   6   1   5  496.46   29.96
   1   6   5  472.71   27.57
  -7   6   5  476.67   24.36
  -7   1   5  527.16   35.27
  -1  -6  -5  466.74   21.07
  -6  -1  -4  246.69   20.19
  -7   1   4  252.12   15.19
  -6   7  -4  227.00   23.44
  -1   7  -4  255.02   22.44
   6   1   4  232.68   12.72
   7  -6  -4  277.02   24.34
  -7   1   4  289.68   26.56
  -7   6   4  208.53   14.73
   1  -7   4  237.25   16.28
  -6   7  -4  237.16   15.77
   6  -7   4  228.62   21.60
   7  -6  -4  245.21   22.38
  -1   7  -4  271.92   22.45
   1  -7   4  238.69   12.65
   1   6   4  241.30   16.93
  -7   6   4  253.05   21.93
   7  -1  -4  235.17   21.95
  -6   7  -4  241.55   21.34
   6   1   4  238.08   21.03
   1  -7   4  263.51   21.79
   1   6   4  274.03   22.82
  -1  -6  -4  239.86   13.74
  -1  -6  -4  236.02   19.76
   6   1   4  249.20   21.98
   7  -1  -4  227.03   21.26
  -7   6   4  250.69   20.89
   7  -1  -4  235.26   16.47
  -1  -6  -4  231.90   15.78
  -7   1   4  262.09   27.09
  -7   6   4  271.22   19.88
  -1   7  -3   26.98   10.94
  -7   1   3   20.09   16.28
   7  -6  -3   14.61   11.71
  -7   6   3    0.47    6.76
   1   6   3    6.54    5.57
   7  -1  -3   -1.40    5.04
  -1  -6  -3    6.16    7.03
  -6  -1  -3    0.96    2.10
   7  -1  -3   -0.12    5.67
  -6  -1  -3    4.76    7.25
  -7   1   3    5.52    5.65
   6  -7   3   10.35   10.84
  -6   7  -3   35.01   17.19
  -7   6   3    6.57   12.37
  -1  -6  -3   20.66    9.77
  -7   1   3   24.88   14.99
  -7   6   3   12.91    8.78
   1  -7   3    3.30    5.73
  -6   7  -3    0.56    4.40
   1  -7   3    3.81    8.05
  -1   7  -3    3.09    7.53
  -1  -6  -3    4.22    5.33
   1   6   3   10.77    7.40
   7  -1  -3   -1.69    7.82
   6   1   3    7.22    9.40
  -7   6   3    5.32    9.10
  -6   7  -3    2.13    9.07
   6   1   3    3.63    4.46
  -1   7  -3   10.09    9.89
   6  -7   3   11.95    8.59
   1   6   3    9.93    9.75
   6   1   3    4.79    9.00
   7  -6  -3    6.70   10.68
   7  -1  -3   11.69   10.60
   1  -7   3    6.44    5.14
  -6  -1  -2  972.93   19.06
   7  -1  -2  971.27   29.64
  -6  -1  -2  971.63   35.14
  -7   1   2  978.89   30.83
  -6   7  -2  971.07   42.95
  -7   6   2  977.37   39.49
   7  -6  -2  977.80   41.39
  -1  -6  -2  974.17   30.98
   1   6   2  975.99   30.33
   1  -7   2  976.18   27.63
  -6   7  -2  977.50   25.92
   6  -7   2  979.12   40.37
   6  -7   2  976.39   38.67
   7  -6  -2  972.11   42.04
  -1   7  -2  973.94   37.89
   6   1   2  978.41   39.57
   1   6   2  974.02   35.08
   1  -7   2  973.68   29.72
  -7   6   2  979.08   39.22
   1  -7   2  974.29   37.38
   7  -1  -2  970.18   40.87
  -6   7  -2  977.66   39.51
  -1   7  -2  977.47   40.17
   1   6   2  979.00   41.32
  -1  -6  -2  973.31   34.47
  -1  -6  -2  972.04   29.72
   6   1   2  977.39   41.46
   7  -1  -2  972.27   40.48
   6   1   2  973.92   28.11
  -7   6   2  973.54   35.78
   7  -1  -2  976.25   26.10
  -1  -6  -2  971.38   30.33
  -7   1   2  976.07   44.69
  -1  -6  -1    9.35    7.03
   6   1   1    4.02    2.52
  -7   6   1    2.40    7.12
  -1  -6  -1    6.68    6.82
   7  -6  -1    7.48   10.43
   7  -1  -1    4.87    4.55
  -7   1   1    9.44    6.44
   1   6   1    7.53    6.56
   7  -1  -1    4.58    6.33
   6  -7   1    0.64    7.66
  -6  -1  -1   -2.30    6.44
  -7   1   1    6.40    6.57
  -7   6   1   10.02   13.30
  -6   7  -1    6.01   13.52
  -6  -1  -1    5.42    3.42
   6   1   1    3.88    5.05
  -1  -6  -1   -3.31    8.49
   1  -7   1    5.97    5.04
  -6   7  -1    6.68    4.37
   1  -7   1    8.79    8.31
  -7   6   1    1.84    8.39
  -1   7  -1   14.94    8.94
  -1  -6  -1    5.00    6.11
   1   6   1    7.22    7.53
   6   1   1   14.33   10.27
   7  -1  -1   -0.04    9.59
  -6   7  -1   -2.65    9.08
  -1   7  -1   18.26   10.45
   1   6   1    6.45    9.03
   7  -6  -1   22.70   11.17
   6  -7   1   23.10   10.36
   6   1   1   10.49    9.85
   7  -1  -1    3.53    9.21
   1  -7   1    2.53    5.38
  -6  -1   0  181.00   13.85
  -7   1   0  189.54   14.72
  -7   6   0  183.80   20.20
  -6   7   0  186.37   21.90
   7  -6   0  187.36   18.39
  -6  -1   0  188.85   10.32
   1  -7   0  188.19    9.93
   6  -7   0  184.43   19.54
  -7   1   0  186.70   14.10
  -6   7   0  181.03    9.30
  -1  -6   0  181.59   13.01
   1  -7   0  183.00   14.53
   7  -6   0  186.59   17.58
   7  -1   0  185.44   18.55
   6  -7   0  188.50   17.77
  -1   7   0  185.57   15.72
   1   6   0  183.96   16.72
   1  -7   0  187.28   14.93
   6   1   0  189.96   18.22
  -7   6   0  186.25   18.34
  -6   7   0  186.26   18.67
  -1   7   0  184.49   18.38
   1   6   0  187.01   18.52
  -1  -6   0  188.70   13.25
   6   1   0  188.29   19.74
  -1  -6   0  185.19   14.14
   7  -1   0  182.91   18.33
   6   1   0  183.87   13.50
   6   1   0  181.37    9.29
  -7   6   0  187.20   15.10
  -1  -6   0  184.35   13.52
  -6  -1   1  793.65   27.51
  -7   1  -1  805.08   32.17
  -7   6  -1  827.04   38.92
  -6   7   1  754.34   37.32
  -7   1  -1  807.34   28.86
  -6   7   1  755.19   17.56
   7  -6   1  824.52   38.00
  -1  -6   1  814.03   29.83
   6  -7  -1  807.41   37.88
   1  -7  -1  758.81   19.72
  -6   7   1  780.20   17.22
   7  -6   1  797.37   37.49
   6  -7  -1  814.66   36.80
  -1   7   1  768.62   31.25
   1   6  -1  754.23   33.90
   1  -7  -1  791.12   31.75
   6   1  -1  847.21   38.57
  -7   6  -1  851.68   38.12
  -6   7   1  813.94   37.27
   1  -7  -1  819.97   31.59
   7  -1   1  801.85   37.58
  -1   7   1  865.70   38.37
  -1  -6   1  836.85   27.53
   1   6  -1  796.85   37.35
   6   1  -1  832.74   38.13
   7  -1   1  831.65   38.20
  -1  -6   1  803.38   31.42
   6   1  -1  792.97   23.36
  -1  -6   1  786.66   29.84
  -7   6  -1  832.92   32.01
  -6   7   1  677.74   33.27
  -6  -1   1  838.93   40.70
  -6  -1   2  478.27   20.53
  -7   1  -2  478.05   27.33
  -7   1  -2  484.12   22.91
  -7   6  -2  480.64   30.32
   7  -1   2  486.85   24.66
   6  -7  -2  483.61   30.90
  -6   7   2  486.50   11.40
  -1  -6   2  486.47   25.72
   1  -7  -2  482.54   15.19
   7  -6   2  488.60   31.28
   6  -7  -2  480.24   30.59
  -1   7   2  481.43   25.49
   1   6  -2  484.16   29.80
   1  -7  -2  486.25   24.95
   6   1  -2  480.20   31.51
  -7   6  -2  482.26   30.42
  -6   7   2  484.97   30.19
   7  -1   2  480.84   30.97
   1  -7  -2  482.31   27.25
  -1  -6   2  479.24   20.71
  -1   7   2  482.03   31.25
   1   6  -2  484.79   31.47
   6   1  -2  479.80   30.69
   7  -1   2  483.43   31.43
  -1  -6   2  483.45   26.86
   6   1  -2  481.87   20.90
  -1  -6   2  481.74   25.94
  -6   7   2  481.88   30.03
  -7   6  -2  480.63   26.45
  -6  -1   2  482.51   34.77
  -7   1  -3  838.08   35.28
  -6  -1   3  790.71   23.24
  -7   6  -3  854.85   39.85
  -1  -6   3  782.97   30.13
   7  -1   3  798.74   29.58
   6  -7  -3  830.75   38.40
  -6  -1   3  835.67   39.99
   1  -7  -3  785.69   17.49
  -1  -6   3  800.62   31.35
   7  -6   3  852.73   38.52
  -1   7   3  809.00   29.35
   6  -7  -3  825.29   38.27
   1   6  -3  810.83   36.75
   1  -7  -3  824.07   30.58
   6   1  -3  820.33   38.78
  -7   6  -3  790.28   37.07
  -6   7   3  818.68   37.59
  -1  -6   3  794.66   22.26
   1  -7  -3  829.50   34.79
  -1   7   3  824.14   37.49
   1   6  -3  870.12   38.79
   6   1  -3  803.56   37.76
   7  -1   3  809.55   37.79
  -1  -6   3  789.89   33.98
   6   1  -3  808.15   28.07
  -1  -6   3  801.09   32.73
  -6   7   3  805.37   36.96
  -6  -1   3  838.47   41.90
  -6   7   3  835.62   22.40
  -1  -6   4   76.71   12.57
   6   1  -4   72.71   10.68
  -6   7   4   50.32    5.83
  -6  -1   4  126.28   22.47
   1  -7  -4   88.10   13.89
  -6   7   4   69.16   13.88
   6  -7  -4   92.71   15.94
  -6  -1   4   70.31    6.80
  -1  -6   4  106.86   13.07
  -1   7   4   88.22   10.75
  -7   1  -4   80.27   14.30
   7  -6   4   80.96   14.41
  -1  -6   4   68.61   12.75
  -7   6  -4  122.70   18.11
   7  -1   4   90.75   11.45
   1  -7  -4   85.93    6.23
  -6  -1   4  131.21   20.63
  -1  -6   4   86.50   12.73
  -1   7   4   83.34   13.13
   7  -1   4   77.13   13.48
   1  -7  -4   89.54   11.39
   1   6  -4  111.07   16.60
  -1   7   4   92.88   10.89
  -1  -6   4   78.10    6.26
   6   1  -4   77.23   14.60
  -7   6  -4   89.68   14.98
  -6   7   4   86.75   14.34
  -1   7   4   87.12   14.84
   1   6  -4   86.20   14.61
   6   1  -4   69.41   14.00
   7  -1   4   90.97   15.12
   6  -7  -4   73.96   13.89
  -6  -1   5  264.70   26.05
  -7   1  -5  276.12   22.93
  -7   6  -5  307.05   25.71
   6  -7  -5  265.56   23.25
  -1   7   5  276.74   21.10
   7  -1   5  307.88   22.63
   1  -7  -5  272.36   10.90
  -6  -1   5  323.85   27.91
   7  -1   5  278.09   16.78
  -1  -6   5  269.22   20.04
   7  -6   5  266.83   22.81
   1  -7  -5  280.46   17.63
   1   6  -5  275.43   23.68
   6  -7  -5  306.95   25.35
  -1   7   5  267.18   15.39
   6   1  -5  275.74   24.33
  -6   7   5  283.93   22.98
  -1   7   5  278.99   22.81
   1   6  -5  285.38   23.08
   6   1  -5  303.76   23.93
   7  -1   5  332.62   25.26
  -1  -6   5  301.87   23.35
   1  -7  -5  278.88   22.43
  -6   7   5  295.59   24.53
  -1  -6   5  200.91   18.18
  -6   7   5  266.76   10.42
  -1   7   5  281.96   23.71
  -7   1  -6  976.55   42.08
  -7   6  -6 1033.07   45.36
   6  -7  -6 1039.16   44.09
  -1   7   6 1015.03   39.85
   7  -1   6  989.52   39.74
  -6  -1   6  925.84   42.61
  -1  -6   6 1022.14   39.45
   7  -1   6 1013.04   29.81
   7  -6   6  975.08   42.32
   1  -7  -6 1032.97   31.64
   1   6  -6 1037.24   44.98
   6  -7  -6 1046.98   45.54
  -1   7   6 1011.05   25.80
   6   1  -6  992.82   44.35
  -6   7   6  988.70   41.41
  -1   7   6  994.22   41.77
   1  -7  -6 1020.06   42.55
   1   6  -6 1013.20   42.01
   6   1  -6 1036.98   42.50
   7  -1   6 1030.46   42.90
  -1  -6   6  943.39   41.40
  -6   7   6  989.99   43.39
  -1  -6   6  827.45   37.15
  -1   7   6  971.07   42.33
  -6  -1   6  859.89   42.16
  -7   1  -7  288.52   24.68
  -7   6  -7  304.16   25.81
   6  -7  -7  287.41   24.94
  -1   7   7  223.56   20.06
   7  -1   7  292.78   23.18
  -6  -1   7  340.00   28.05
   1   6  -7  259.38   22.10
  -1  -6   7  270.77   22.01
   7  -1   7  302.51   15.79
   7  -6   7  265.33   23.36
   1  -7  -7  278.20   16.73
   1   6  -7  284.99   25.16
   6  -7  -7  303.18   26.03
   6   1  -7  313.61   26.58
  -6   7   7  304.96   24.00
  -1   7   7  288.99   23.50
   1  -7  -7  293.19   24.71
   6   1  -7  275.91   22.97
   7  -1   7  314.37   24.71
  -1  -6   7  294.59   25.20
  -6   7   7  301.40   26.02
  -1  -6   7  304.30   24.28
  -1   7   7  293.36   24.57
  -6  -1   7  302.98   27.42
   6   1  -8  339.55   25.22
  -7   1  -8  369.06   28.69
  -7   6  -8  391.76   29.91
   6  -7  -8  365.82   27.73
  -1   7   8  234.51   20.92
   7  -1   8  362.10   26.50
  -6  -1   8  359.12   28.90
  -1  -6   8  364.90   26.02
   7  -6   8  324.88   25.78
   1   6  -8  365.21   29.22
   6  -7  -8  361.19   29.45
   6   1  -8  362.60   28.73
  -6   7   8  330.54   24.81
  -1   7   8  366.91   26.21
   1  -7  -8  362.71   28.03
   1   6  -8  245.32   21.36
   6   1  -8  271.44   22.61
   7  -1   8  386.14   27.10
  -1  -6   8  335.36   27.46
  -6   7   8  345.62   28.01
  -1  -6   8  328.88   26.35
  -1   7   8  306.65   25.29
  -6  -1   8  363.12   29.72
  -6  -1   9  144.32   19.87
  -6   7   9  138.23   19.24
   1  -7  -9  148.91   20.08
  -1   7   9  151.06   19.95
   6  -7  -9  153.46   19.10
  -7   1  -9  128.43   18.91
  -7   6  -9  148.63   19.82
  -6  -1   9  168.37   21.49
  -1   7   9  122.43   16.81
   7  -1   9  130.12   17.74
   7  -6   9  146.48   18.76
  -1  -6   9  136.20   17.70
   6   1  -9  108.91   15.84
   1   6  -9  149.48   20.33
  -6   7   9  129.89   16.66
   7  -1   9  154.51   18.07
   6   1  -9  124.10   18.44
   7  -6   9  166.85   18.47
  -1   7   9  132.52   16.88
  -1  -6   9  165.14   20.80
   1   6  -9  100.60   14.27
   6   1  -9   96.90   14.31
  -1  -6   9  146.49   19.47
   6  -7  -9  147.43   20.74
  -7   1 -10  383.20   30.76
  -7   6 -10  402.76   31.44
   6   1 -10  424.62   30.04
   6  -7 -10  350.57   27.94
  -1   7  10  373.36   27.91
   7  -1  10  380.46   28.79
  -6  -1  10  366.16   29.61
  -1  -6  10  383.10   28.83
   1   6 -10  400.73   31.83
   7  -6  10  377.29   28.28
   6  -7 -10  395.60   31.55
   6   1 -10  337.22   28.80
  -6   7  10  352.94   25.45
  -1   7  10  387.26   26.91
   1   6 -10  372.42   26.14
   1  -7 -10  363.45   29.88
   6   1 -10  394.83   26.90
   7  -1  10  386.06   26.94
   7  -6  10  385.17   26.69
  -1  -6  10  412.44   32.05
  -6   7  10  405.94   32.08
  -1   7  10  373.95   29.30
  -6  -1  10  376.79   31.01
   6  -7 -11   21.76   11.99
  -6  -1  11   27.96   12.87
  -6   7  11   10.69   11.65
   1  -7 -11   20.01   10.37
  -1   7  11   24.76   12.18
  -7   1 -11   19.41   10.28
  -7   6 -11   23.42   13.06
  -1   7  11   29.98   12.40
   7  -1  11   32.97   13.97
  -6  -1  11   29.05   13.28
  -1  -6  11   14.75   10.50
   7  -6  11   32.35   12.71
   6   1 -11   26.03   11.69
   1   6 -11   15.81   10.41
   1   6 -11   13.29   12.63
   6   1 -11   37.78   13.68
  -6   7  11   22.53    9.53
  -1   7  11   33.47   10.70
   1   6 -11   32.00   10.80
   6   1 -11   32.61   10.73
   7  -1  11   25.66   11.07
   7  -6  11   28.70   10.53
  -1  -6  11   44.38   14.36
   6  -7 -11   27.41   13.01
   6  -7 -12   75.81   16.14
  -6  -1  12   71.64   16.98
  -6   7  12   61.38   16.54
  -1   7  12   67.25   15.46
   1  -7 -12   83.64   18.15
  -7   1 -12   61.14   16.56
  -7   6 -12   77.51   17.01
   1   6 -12   62.94   14.29
  -1   7  12   82.21   16.60
   7  -1  12   77.57   16.17
  -6  -1  12   60.64   15.67
  -1  -6  12   71.98   16.23
   7  -6  12   82.08   15.90
   6   1 -12   59.33   15.83
   1   6 -12   69.81   17.00
   6   1 -12   65.77   15.60
  -1  -6  12   69.17   16.30
   6  -7 -12   76.85   18.33
   6  -7 -13   37.94   14.27
  -1   7  13   45.17   14.70
  -1   7  13   24.02   12.92
   7  -1  13   43.74   13.85
  -1  -6  13   56.17   15.54
   7  -6  13   33.15   13.18
   6   1 -13   54.21   15.23
   6   1 -13   43.84   15.69
   1   6 -13   35.68   14.55
   6  -7 -14  229.80   25.31
   7  -6  14  249.53   25.17
   0  -7   0   11.78    7.00
   0  -7   0   11.82    8.09
  -7   7   0   11.76    8.91
   7  -7   0   11.19   11.87
  -7   0   0   11.84    8.25
  -7   7   0   11.04   17.21
   0  -7   0   11.24    6.39
   0  -7   0   11.21    8.71
   0   7   0   11.01    9.68
  -7   0   0   11.44    6.81
   7   0   0   11.08   10.99
  -7   7   0   11.66   10.73
   0   7   0   11.82   10.47
   7  -7   0   11.18   11.32
   7   0   0   11.59   11.43
   0  -7   1    6.75    6.55
   0  -7  -1    6.20    5.59
   0  -7   1    0.18    5.21
   0  -7  -1    5.44    6.72
  -7   0   1   16.31   17.23
  -7   7   1    7.81    8.59
  -7   7  -1    6.41    7.93
   7  -7  -1    7.92   10.05
  -7   0   1    4.57    5.91
   7  -7   1   12.84    9.84
  -7   0  -1   15.79    8.29
  -7   0   1   10.91    6.85
  -7   7  -1   18.93   15.19
  -7   7   1   21.13   15.42
   0  -7  -1   17.37    6.80
   0  -7   1    8.58    6.18
   0  -7  -1    8.89    6.92
   0  -7   1   13.48    7.65
   0   7  -1    5.35    7.91
   0   7   1    6.71    8.05
   7   0  -1    9.36   10.82
   7   0   1    4.76   10.10
  -7   7  -1    6.85    9.49
  -7   7   1   20.73   10.76
   0   7   1   16.04   10.80
   0   7  -1   13.42   10.49
   7  -7   1   13.68   10.07
   7  -7  -1   18.91   11.59
   7   0   1   18.01   11.02
   7   0  -1   17.28   11.25
  -7   0  -2  401.71   25.02
  -7   0   2  373.13   19.69
  -7   7  -2  397.17   30.19
  -7   7   2  368.41   29.48
   7  -7  -2  390.01   28.25
  -7   7   2  388.00   17.05
   0  -7  -2  422.38   18.29
   0  -7   2  392.67   20.61
  -7   7   2  383.65   27.31
   7  -7   2  371.65   27.54
   7  -7   2  416.67   28.30
   7  -7  -2  399.48   28.19
   0   7  -2  367.37   25.72
   0   7   2  401.04   23.32
   0  -7   2  403.40   19.19
   7   0  -2  414.33   29.06
  -7   7  -2  377.17   27.14
   7   0   2  392.40   28.05
   0  -7  -2  356.21   20.96
   0  -7  -2  403.04   23.98
   0   7   2  410.64   28.41
   0   7  -2  439.44   29.08
   0  -7   2  393.99   25.08
   7   0   2  415.47   28.97
   7   0  -2  418.31   28.86
   0  -7   2  405.07   21.83
  -7   7   2  352.09   24.62
   0  -7  -2  381.67   16.91
  -7   0   2  469.90   35.84
  -7   0   2  384.69   20.91
  -7   0  -3  786.77   34.66
  -7   0   3  785.41   26.06
  -7   7  -3  806.84   40.97
   7   0   3  757.64   27.76
   7  -7  -3  748.53   38.20
  -7   0   3  800.71   42.91
   0  -7  -3  803.55   24.85
  -7   7   3  673.97   20.35
   0  -7   3  744.36   29.15
   7  -7   3  802.36   39.87
   7  -7  -3  773.09   38.94
   0   7  -3  780.50   37.33
   0   7   3  773.65   30.68
   0  -7   3  780.26   23.70
   7   0  -3  811.37   40.25
  -7   7  -3  797.07   38.55
  -7   7   3  772.97   37.86
   7   0   3  742.54   37.42
   0  -7  -3  743.87   28.64
   0   7   3  779.68   38.48
   0   7  -3  808.55   39.27
   0  -7  -3  770.60   33.96
   0  -7   3  773.43   35.23
   7   0   3  765.24   38.40
   7   0  -3  786.54   39.14
  -7   7   3  771.21   36.17
   0  -7   3  782.11   31.43
   0  -7  -3  746.71   21.73
  -7   0   3  743.82   41.05
  -7   7   3  769.99   27.48
  -7   0  -4  245.56   21.59
  -7   0   4  235.97   13.32
   7   0   4  227.02   15.32
   0   7   4  238.02   22.83
   7  -7  -4  239.01   23.81
  -7   7  -4  230.01   24.15
  -7   0   4  231.80   26.48
   0  -7  -4  219.45   14.05
   0  -7   4  222.92   17.50
   7  -7   4  234.68   23.38
   7  -7  -4  241.13   23.60
   0   7  -4  246.78   23.04
   0   7   4  247.99   17.43
   7   0  -4  242.86   24.09
  -7   7  -4  234.70   22.13
  -7   7   4  248.61   22.57
   0  -7  -4  230.12   15.90
   0   7  -4  236.19   22.35
   0  -7  -4  224.53   20.26
   0  -7   4  242.01   21.61
   7   0   4  214.94   22.10
   7   0  -4  246.98   22.86
  -7   7   4  242.60   22.09
   0  -7   4  236.45   19.08
  -7   7   4  230.19   16.42
  -7   0   4  252.65   27.66
  -7   0  -5  320.95   24.95
  -7   7  -5  320.98   28.38
   7  -7  -5  310.56   26.31
   0   7   5  305.65   24.49
   7   0   5  303.55   24.35
   0  -7  -5  347.53   17.87
  -7   0   5  321.50   27.74
   7   0   5  306.60   15.89
   0  -7   5  327.32   21.58
   7  -7   5  302.40   25.56
   0   7  -5  318.64   25.94
   7  -7  -5  330.55   27.24
   0   7   5  315.17   18.09
   7   0  -5  333.20   27.04
  -7   7  -5  283.84   24.34
  -7   7   5  324.79   25.52
   0  -7  -5  326.89   17.48
   0   7   5  304.55   24.85
   0   7  -5  298.38   24.47
   0  -7  -5  336.03   24.99
   0  -7   5  293.00   23.96
   7   0   5  323.95   25.94
   7   0  -5  290.85   24.48
  -7   7   5  321.21   25.58
   0  -7   5  324.73   22.67
   0   7   5  324.49   25.54
  -7   7   5  275.31   15.50
  -7   0   5  281.89   27.22
  -7   0  -6  829.36   38.56
  -7   7  -6  826.27   43.11
   7  -7  -6  823.32   39.61
   0   7   6  828.97   35.65
   7   0   6  821.13   37.71
  -7   0   6  824.80   43.05
   0  -7   6  826.28   33.91
   7  -7   6  822.47   38.26
   0   7  -6  829.99   40.78
   7  -7  -6  820.15   41.03
   7   0  -6  823.26   40.66
  -7   7  -6  827.50   38.67
  -7   7   6  827.63   38.09
   0   7   6  829.25   38.38
   0   7  -6  821.94   38.50
   0  -7  -6  829.84   38.12
   7   0   6  825.04   38.49
   7   0  -6  827.20   38.13
   0  -7   6  823.69   38.42
  -7   7   6  829.22   38.56
   0  -7   6  829.90   35.29
   0   7   6  827.15   37.84
  -7   0   6  822.23   41.63
  -7   0   7  104.69   18.59
   7  -7  -7   67.20   15.12
  -7   7   7   82.98   15.65
   0  -7  -7   76.08   14.79
   0   7   7   63.43   13.73
  -7   0  -7   68.59   14.54
  -7   7  -7  110.77   19.38
   7  -7   7   79.09   15.66
  -7   0   7   17.84   16.21
   0   7   7   74.17   14.63
   7   0   7   84.41   15.95
   0  -7   7   85.87   14.11
  -7   7  -7   80.53   14.25
   0   7  -7   70.44   15.16
   0  -7   7   67.41   14.21
   7   0  -7   81.60   17.16
  -7   7   7   96.60   16.05
   0   7   7   90.43   15.15
   0   7  -7   73.62   14.47
   7   0   7   86.08   15.14
   7   0  -7   69.99   14.14
   7  -7  -7   87.84   16.70
   7  -7  -8   34.26   14.15
  -7   0   8   36.87   15.09
  -7   7   8   39.80   13.57
   0  -7  -8   31.19   11.85
   0   7   8   28.30   11.12
  -7   0  -8   28.68   11.98
  -7   7  -8   72.62   17.14
   7  -7   8   30.33   12.94
   0   7   8   28.93   10.93
   7   0   8   41.96   14.54
  -7   0   8   46.63   15.33
   0  -7   8   25.83   10.06
   0   7  -8   30.26   12.53
   7   0  -8   44.77   14.17
   0  -7   8   39.81   13.20
  -7   7  -8   42.63   12.22
  -7   7   8   14.53    9.84
   0   7   8   42.91   12.91
   0   7  -8   28.99   10.94
   7   0   8   36.86   12.81
   7   0  -8   34.77   11.74
   7  -7  -8   35.01   13.72
   7  -7  -9  148.51   20.73
  -7   0   9  159.88   22.01
  -7   7   9  157.30   21.18
   0   7   9  168.10   19.99
  -7   0  -9  159.53   21.39
  -7   7  -9  162.69   21.27
   0   7   9  172.30   20.37
   0  -7   9  157.58   18.97
   7   0   9  125.61   19.37
  -7   0   9  141.44   20.21
   7  -7   9  173.96   21.93
   0   7   9  171.60   20.13
   0   7  -9  161.16   19.07
   0   7  -9  172.68   22.64
   0  -7  -9  167.57   21.02
   7   0   9  182.82   20.49
   7   0  -9  146.25   20.20
   0  -7   9  191.09   22.76
   7   0  -9  138.19   17.88
   7  -7  -9  173.35   22.16
  -7   0 -10  413.05   32.84
  -7   7 -10  413.57   34.32
   7  -7 -10  418.59   32.16
   0   7  10  416.54   31.29
   7   0  10  417.10   34.54
  -7   0  10  416.56   32.06
   0  -7  10  410.75   29.43
   0   7 -10  413.70   34.86
   7  -7 -10  413.91   35.03
   7  -7  10  411.98   30.86
   7   0 -10  411.89   34.00
   0   7  10  411.34   29.19
   0   7 -10  410.65   28.59
   0  -7 -10  411.97   32.70
   7   0  10  407.37   28.98
   7   0 -10  417.84   29.79
   0  -7  10  406.27   32.58
  -7   7  10  419.59   34.25
   0   7  10  405.94   29.52
  -7   0  10  402.90   34.16
  -7   0  11   52.61   15.74
  -7   7  11   59.43   14.96
   0   7  11   55.55   15.02
   0  -7 -11   58.89   16.28
  -7   0 -11   54.36   14.90
  -7   7 -11   42.38   14.48
   0   7  11   63.67   15.78
   7   0  11   53.76   14.36
  -7   0  11   60.17   16.18
   0  -7  11   51.62   14.80
   7  -7  11   51.63   14.56
   0   7 -11   63.16   17.72
   7   0 -11   67.33   16.22
   0   7  11   78.97   15.46
   0   7 -11   56.10   12.65
   0  -7  11   41.73   14.81
   7   0  11   46.59   12.92
   7   0 -11   63.59   13.85
   7  -7 -11   53.18   15.92
   7  -7 -11   68.44   16.50
   0   7  12   44.97   13.45
   0   7  12   41.27   13.81
   7   0  12   60.29   16.50
   0  -7  12   52.23   15.17
   7  -7  12   43.16   13.00
   7   0 -12   34.68   13.19
   7  -7 -12   40.05   14.01
   0   7  13   68.24   15.86
   7  -7  13   57.57   14.89
  -8   4  13    8.91   11.65
  -8   4  13    4.40   10.59
   8  -4 -13    8.69   11.62
  -4   8 -12  502.95   34.41
  -8   4  12  514.36   33.58
   8  -4 -12  521.24   35.29
  -8   4  12  528.42   37.03
  -8   4  12  519.26   34.66
  -8   4  11   -5.41   11.11
  -4  -4 -11    6.94    9.74
  -4  -4 -11    6.89   11.91
  -4   8 -11   21.75   15.36
   4   4  11  -10.43   12.47
  -8   4  11   -7.41   10.75
   4  -8  11   -1.41   11.78
  -4   8 -11    2.49   10.82
   8  -4 -11  -13.51    9.23
  -4   8 -11    2.13    8.99
   4   4  11   -1.75    8.57
   8  -4 -11    6.78   10.72
   8  -4 -11    7.38    8.81
  -8   4  11   -2.60    9.43
  -8   4  10    3.82   10.42
  -4  -4 -10   15.32   12.51
  -4  -4 -10   -0.02   10.39
  -4   8 -10   31.02   15.97
   4   4  10    3.97    9.77
  -8   4  10   -2.27    9.10
   4  -8  10   15.39   10.76
  -4   8 -10    9.68   12.04
   8  -4 -10    0.37    9.01
  -4   8 -10    5.27    8.51
   4   4  10    1.47    8.64
   8  -4 -10    4.27    9.99
   8  -4 -10    0.76    8.31
  -8   4  10    4.40   10.07
  -8   4   9    3.57    9.55
  -4  -4  -9   -2.93    9.60
  -4  -4  -9  -12.10   11.18
  -4   8  -9   -0.70   13.14
   4   4   9   -3.51   11.58
  -8   4   9    1.71    8.62
   4  -8   9   17.38   10.39
  -4   8  -9    3.57    9.62
  -4   8  -9   10.32    9.30
   4   4   9   -0.40    9.51
   8  -4  -9    2.62    8.46
   8  -4  -9   -6.14    9.83
   8  -4  -9   -0.30    8.86
  -8   4   9    2.80    9.23
  -4  -4  -8 1099.26   48.34
  -4   8  -8 1058.18   45.99
   4   4   8 1067.18   49.73
  -8   4   8 1044.97   43.07
   8  -4  -8 1156.80   47.92
  -4   8  -8 1091.58   49.44
   4  -8   8 1081.35   49.42
  -4   8  -8  856.83   40.02
   8  -4  -8 1109.60   44.88
   4   4   8 1092.07   45.45
   8  -4  -8  894.92   41.34
  -4  -4  -8 1149.12   49.43
  -8   4   8  838.41   39.65
  -8   4   8 1120.52   45.77
  -8   4   7    8.66    8.52
  -4  -4  -7   -0.91    8.77
  -4  -4  -7   -3.01    8.73
  -4   8  -7   12.00   13.63
  -8   4   7   25.31   11.84
   4   4   7  -15.65   12.05
   4  -8   7   15.02   10.62
  -4   8  -7    5.63    8.83
   4   4   7    6.89    7.41
   8  -4  -7    6.66    9.93
  -4   8  -7   14.54    9.71
   8  -4  -7    8.46   10.28
   4   4   7    2.08    8.79
   8  -4  -7   24.92   11.36
  -8   4   6  114.60   14.87
  -8   4   6  110.64   19.20
  -4  -4  -6  111.83   16.97
  -4  -4  -6  126.13   17.17
  -4   8  -6  104.75   18.50
  -8   4   6   87.36   14.77
   4   4   6  155.15   20.13
   4  -8   6  106.31   16.69
   4   4   6  120.21   14.63
  -4   8  -6  119.01   16.97
  -4   8  -6  117.01   16.33
   8  -4  -6  117.17   17.06
   4   4   6  107.49   16.17
   8  -4  -6  107.15   15.74
   4   4   6  125.74   11.79
  -8   4   5   -2.89    6.93
  -8   4   5   23.57   15.33
   4   4   5    2.78    5.50
  -4  -4  -5   -7.33    9.68
  -4  -4  -5   -5.68    8.56
  -8   4   5    4.14    9.49
  -4   8  -5   -2.84   12.15
  -8   4   5    2.54   11.98
   4  -8   5   -9.11    9.35
  -4   8  -5    1.93    9.25
   4   4   5    1.49    7.35
  -4   8  -5    2.28    7.65
   4  -8   5   -1.75    5.94
   8  -4  -5    6.79    9.43
   4   4   5   -1.36    8.15
   8  -4  -5    2.41    8.76
  -4  -4  -4  628.17   32.23
  -8   4   4  645.74   30.75
  -4   8  -4  626.12   35.43
  -8   4   4  648.27   33.61
   8  -4  -4  631.94   34.82
   4  -8   4  620.94   27.60
  -4   8  -4  592.68   32.69
   4  -8   4  640.65   35.21
   4   4   4  645.09   31.24
  -4   8  -4  610.54   33.91
   4   4   4  600.79   33.94
   8  -4  -4  621.32   34.40
  -8   4   4  597.33   27.66
   4   4   4  620.17   24.62
  -8   4   4  643.80   35.88
  -8   4   3    6.14    7.05
  -4   8  -3    8.63    6.52
  -4  -4  -3    6.31   13.57
  -8   4   3   -1.72   13.98
  -4  -4  -3    0.11    8.16
  -8   4   3   12.76   12.19
   4  -8   3    8.90    9.00
  -4   8  -3    2.08    8.21
   4   4   3   11.86    9.29
  -4   8  -3    2.85    7.65
   4   4   3    6.55   10.20
   4  -8   3    6.96    7.41
   8  -4  -3   11.96    9.42
  -4  -4  -2  423.67   24.80
  -8   4   2  360.98   24.45
   8  -4  -2  419.43   28.68
  -4   8  -2  383.74   25.30
   4  -8   2  422.19   28.08
   4  -8   2  408.87   23.62
   4   4   2  417.31   26.72
  -4   8  -2  405.13   28.08
   4   4   2  411.64   28.44
   8  -4  -2  451.90   29.59
  -8   4   2  422.50   21.31
  -4  -4  -2  314.65   25.35
  -4  -4   0 1843.07   45.72
  -8   4   0 1822.64   52.83
   8  -4   0 1872.46   56.02
  -4  -4   0 1704.29   53.64
   4  -8   0 1767.19   54.55
  -4   8   0 1746.40   49.38
   4   4   0 1746.83   42.57
   4  -8   0 1773.93   51.07
   4   4   0 1789.45   54.47
  -4   8   0 1804.52   56.84
   4   4   0 1747.95   56.29
   8  -4   0 1824.53   57.42
  -8   4   0 1798.84   37.30
  -4  -4   0 1805.93   55.13
  -8   4  -1   -2.39    4.29
  -4  -4   1  -21.99   16.86
   8  -4   1    4.84    9.23
  -4  -4   1   -5.51    5.80
  -8   4  -1   -1.22    9.19
   4  -8  -1    3.93    8.50
  -4  -4   1   39.33   15.65
  -4   8   1    2.73    4.88
   8  -4   1    2.97    4.99
  -4   8   1    3.27    6.67
   4   4  -1   -0.69    8.86
  -4   8   1   -2.55    8.35
   4   4  -1   -1.57    8.48
   8  -4   1   10.55   10.09
   4  -8  -1   10.49    8.68
  -8   4  -2   56.50    6.54
  -4  -4   2   13.60   17.88
   8  -4   2   65.57   13.03
  -4  -4   2   58.13    8.74
  -8   4  -2   73.47   13.40
   4  -8  -2   47.99   11.66
  -4  -4   2   57.05   17.05
  -4   8   2   63.78    8.05
   8  -4   2   71.66    8.63
  -4   8   2   52.29    9.77
   4   4  -2   69.17   13.69
  -4   8   2   55.12   13.34
   4   4  -2   57.58   13.21
   8  -4   2   78.49   15.08
   4  -8  -2   57.17   12.20
  -4  -4   3   39.85   11.44
  -4   8   3   15.77   12.97
   8  -4   3    8.16    8.69
  -4  -4   3    2.57    4.58
  -8   4  -3    8.06    9.49
   4  -8  -3   -7.06    8.37
  -4   8   3   -0.71    4.88
   8  -4   3   -1.09    5.09
  -4  -4   3   -7.33   13.07
   4   4  -3    2.68    4.67
  -4   8   3    5.51    6.84
   4   4  -3   16.61   10.92
  -4   8   3  -12.02    9.12
   4   4  -3    2.75    8.30
   8  -4   3   -5.62    8.42
   4  -8  -3   -4.15    8.76
  -4  -4   4 1625.85   31.15
  -8   4  -4 1588.69   53.67
  -4   8   4 1575.51   36.33
   8  -4   4 1620.79   38.04
   4   4  -4 1592.82   37.13
  -4  -4   4 1400.49   49.88
   8  -4   4 1520.13   48.64
   4  -8  -4 1575.24   50.04
  -4   8   4 1633.12   40.79
   4   4  -4 1627.85   55.75
   4  -8  -4 1619.83   53.56
  -4   8   4 1633.02   54.30
   4   4  -4 1594.89   53.97
   8  -4   4 1626.94   54.82
  -4   8   4 1663.31   57.51
  -4  -4   4 1593.24   54.19
  -4  -4   5    4.92   10.80
  -4   8   5    3.53   11.64
   8  -4   5    2.49    7.68
   4  -8  -5    1.68    8.26
  -8   4  -5    5.99   11.22
  -4   8   5   -3.11    5.07
   8  -4   5    0.81    5.46
  -4  -4   5   26.98   12.52
  -4   8   5   -3.22    5.09
   4   4  -5   -3.17    9.31
  -4   8   5    2.80    7.84
   4   4  -5   -2.14    8.49
   8  -4   5    3.05    7.96
   4   4  -5    0.59    6.21
   4  -8  -5   -1.20    8.91
  -4  -4   6   25.47   12.02
  -4   8   6   18.47   11.89
   4   4  -6   23.47    8.41
   4  -8  -6   30.09   10.48
   8  -4   6   16.18    8.77
  -8   4  -6   21.15   11.14
  -4   8   6   32.54    8.22
   8  -4   6   26.58    7.80
  -4  -4   6   29.96   12.68
   4   4  -6   54.10   13.24
  -4   8   6   38.48   12.02
   4   4  -6   17.53    9.53
   8  -4   6   28.56   11.76
   4  -8  -6   29.64   12.54
  -4  -4   7   -2.39   10.20
  -4   8   7    1.11   10.47
   4  -8  -7   -0.12    8.21
   4   4  -7    0.73    7.14
  -8   4  -7    4.28   10.68
   8  -4   7    2.28    7.11
  -4   8   7    4.61    5.75
   8  -4   7    1.00    6.57
  -4  -4   7   -5.23   11.13
   4   4  -7    8.66    9.68
  -4   8   7    2.58    8.92
   4   4  -7  -10.12   10.16
   8  -4   7    5.09    8.85
   4  -8  -7    8.21    9.60
  -8   4  -8  484.39   33.60
  -4   8   8  453.87   24.38
   8  -4   8  456.57   25.01
  -4  -4   8  501.83   33.48
   4  -8  -8  450.78   27.78
   8  -4   8  464.29   27.23
   4   4  -8  486.60   27.61
   4   4  -8  507.08   34.96
   4  -8  -8  489.46   33.65
  -4   8   8  482.77   30.69
   4   4  -8  359.42   26.75
   8  -4   8  496.20   31.32
  -4   8   8  452.20   32.77
  -4  -4   8  431.19   31.45
  -4  -4   9    8.12   10.29
  -4   8   9   -1.09    9.75
   4  -8  -9    3.07    8.41
  -8   4  -9    4.33   10.25
  -4   8   9   -7.70    7.01
   4   4  -9    3.45    8.90
   8  -4   9    2.01    6.46
   8  -4   9    2.78    7.48
  -4  -4   9  -15.14   12.30
   4   4  -9    0.64    9.96
  -4   8   9   13.12   10.45
   4   4  -9    4.41    8.25
   8  -4   9    4.79    9.36
   4  -8  -9    0.78   10.23
  -4  -4  10    8.62   10.81
  -4   8  10    7.08   11.11
   4  -8 -10   13.48    8.72
  -8   4 -10   20.57   12.80
   8  -4  10   11.90    8.30
   4   4 -10   14.42    9.46
   8  -4  10    6.00    7.58
  -4  -4  10    8.61   10.84
   4   4 -10   18.73   12.80
  -4   8  10    4.77    9.01
   4   4 -10    4.69    9.02
   8  -4  10   22.86   10.93
   4  -8 -10   28.95   13.35
  -4  -4  11    6.63   11.58
  -4   8  11   10.99   11.79
  -8   4 -11    6.48   10.93
   8  -4  11    0.58    8.71
   4   4 -11    2.77    8.88
  -4  -4  11   -9.75   11.75
   4   4 -11    7.36   11.74
  -4   8  11   -1.85    8.54
   4   4 -11    9.86    8.70
   8  -4  11    7.48    9.15
   4  -8 -11  -10.82   11.79
   4   4 -12  551.01   36.11
   4   4 -13   11.90   12.16
  -8   3  13   22.20   12.54
  -5   8 -13    4.45   14.45
  -8   3  13   21.94   12.39
  -8   5  12    4.81   12.19
  -8   3  12  -10.75   11.91
  -5   8 -12   11.93   16.13
  -8   3  12  -10.71   12.74
   8  -3 -12    6.25   10.28
   8  -3 -12   -1.67    9.87
   8  -5 -12   -1.83   11.39
  -8   3  12   -1.82    9.94
  -8   5  11   51.10   15.35
  -8   5  11   31.20   10.93
  -8   3  11   38.31   13.52
  -3  -5 -11   35.77   14.22
  -5  -3 -11   44.84   14.30
  -3  -5 -11   47.21   16.30
  -5  -3 -11   37.39   14.53
  -5   8 -11   54.58   18.54
  -3   8 -11   40.60   14.85
   3   5  11   43.64   15.03
   5   3  11   44.42   14.91
  -8   3  11   24.80   11.48
  -8   5  11   32.46   11.11
   5  -8  11   55.79   16.57
  -5   8 -11   49.57   14.76
   3  -8  11   71.06   17.07
  -3   8 -11   41.82   15.59
   8  -3 -11   33.30   11.83
  -5   8 -11   46.31   12.87
  -3   8 -11   53.71   12.54
   3   5  11   40.88   11.56
   8  -3 -11   56.73   13.97
   5   3  11   41.44   11.88
   8  -5 -11   52.28   14.94
   8  -3 -11   34.04   11.02
   8  -5 -11   38.53   11.80
  -8   3  11   42.14   13.90
  -3  -5 -10  321.35   29.44
  -5  -3 -10  314.61   29.25
  -5   8 -10  353.72   30.63
  -3   8 -10  305.13   25.32
   3   5  10  342.13   30.37
   5   3  10  347.23   30.57
  -8   3  10  295.85   26.52
  -8   5  10  293.18   23.64
   8  -3 -10  300.90   25.43
  -5   8 -10  334.57   29.89
  -3   8 -10  336.56   30.71
   8  -5 -10  299.43   27.24
   5  -8  10  287.42   28.06
   8  -3 -10  305.46   26.15
  -5   8 -10  305.60   25.06
  -3   8 -10  304.73   25.22
   3   5  10  341.79   26.52
   3  -8  10  304.43   29.02
   5   3  10  327.69   26.52
   8  -3 -10  298.06   25.09
   8  -5 -10  317.29   25.72
  -3  -5 -10  313.55   29.14
  -8   3  10  336.07   27.71
  -5  -3 -10  336.28   29.63
  -8   5  10  303.56   26.83
  -8   5  10  294.41   23.58
  -8   3  10  325.01   28.25
  -3  -5  -9  458.74   33.37
  -5  -3  -9  472.28   33.56
  -5   8  -9  476.20   33.92
  -3   8  -9  388.74   28.25
   3   5   9  483.58   34.41
   5   3   9  430.28   32.93
  -8   3   9  404.02   29.63
  -8   5   9  417.35   27.27
   8  -3  -9  436.60   29.51
  -5   8  -9  489.45   34.78
  -3   8  -9  445.37   33.06
   8  -5  -9  445.97   32.13
   5  -8   9  444.40   33.10
   8  -3  -9  403.03   29.19
  -5   8  -9  397.82   28.55
  -3   8  -9  446.91   29.66
   3  -8   9  454.98   33.62
   3   5   9  440.91   30.16
   5   3   9  437.49   29.72
   8  -3  -9  426.59   29.45
   8  -5  -9  435.14   29.56
  -3  -5  -9  441.99   32.47
  -8   3   9  450.32   29.87
  -8   5   9  411.42   30.47
  -8   5   9  440.54   28.05
  -8   3   9  480.36   33.50
  -8   5   8  125.21   17.09
  -5  -3  -8  122.80   19.39
   3   5   8  138.44   19.85
  -5   8  -8  136.76   21.24
  -3   8  -8  140.76   19.08
  -8   3   8  133.20   18.87
   5   3   8  127.44   19.28
  -8   5   8  115.73   15.32
   5  -8   8  137.67   19.61
   3  -8   8  157.39   21.29
  -3   8  -8  121.99   18.68
  -3  -5  -8  143.97   19.54
   8  -3  -8  139.79   18.99
  -5   8  -8  118.04   16.92
  -3   8  -8  108.26   16.76
   8  -3  -8  127.44   17.39
   3   5   8  119.92   17.69
   5   3   8  142.20   18.20
   8  -5  -8  117.56   18.20
   8  -3  -8  126.13   17.56
   3   5   8  130.34   14.20
   8  -5  -8  115.06   17.12
  -8   5   8  157.00   18.07
  -8   3   8  165.94   22.18
  -8   3   8  110.20   15.86
  -8   5   7  113.52   13.04
  -8   5   7  113.83   14.63
  -8   3   7  113.55   17.37
  -3  -5  -7  112.73   16.70
  -5  -3  -7  113.16   17.39
  -5   8  -7  113.94   19.66
  -3   8  -7  112.05   16.76
  -8   3   7  113.81   13.86
  -8   5   7  112.49   15.24
   3   5   7  113.56   18.44
   5   3   7  113.79   19.46
   5  -8   7  113.55   16.79
   3  -8   7  113.61   18.36
   5   3   7  113.94   14.89
  -3   8  -7  113.39   18.78
   3   5   7  113.07   11.35
   8  -3  -7  113.49   17.69
  -5   8  -7  112.87   15.33
  -3   8  -7  113.92   16.56
   8  -3  -7  114.30   13.46
   3   5   7  114.10   17.10
   5   3   7  115.10   15.98
   8  -5  -7  114.57   16.95
   8  -3  -7  117.97   16.86
   8  -5  -7  114.77   16.46
   3   5   7  114.88   13.13
  -8   3   7  114.32   13.82
  -5  -3  -6 1031.05   44.13
  -5   8  -6 1163.73   48.49
   3   5   6 1082.00   47.94
   5   3   6 1038.31   47.06
  -8   3   6  962.06   42.98
  -8   5   6  983.58   38.13
   8  -3  -6 1042.18   43.52
   8  -5  -6 1051.33   46.31
  -3   8  -6 1065.92   46.83
   5  -8   6 1145.48   49.13
  -5   8  -6 1110.19   45.58
   3  -8   6 1066.83   46.73
   3   5   6 1086.12   37.08
   8  -3  -6 1152.09   47.05
   5   3   6 1077.56   40.95
  -3   8  -6 1042.02   44.27
   3   5   6 1118.20   46.01
   5   3   6 1103.09   45.98
   8  -3  -6 1086.84   45.48
   8  -5  -6 1051.83   45.14
  -3  -5  -6 1110.17   45.40
  -8   3   6 1107.29   40.09
  -8   5   6  993.79   40.22
   3   5   6 1112.37   37.18
  -8   5   6 1020.51   41.66
  -8   3   6 1074.00   46.67
  -8   5   5   -0.05    7.90
  -8   3   5   21.03   17.15
  -8   5   5   26.34   13.95
  -3  -5  -5   20.83   12.56
   3   5   5   11.47    8.07
  -3  -5  -5    7.81    8.42
  -5  -3  -5    9.99    9.42
  -5   8  -5   19.93   14.70
  -8   3   5    8.81    9.15
  -8   5   5   -9.55   11.44
   5  -8   5    3.69   10.18
  -8   3   5   41.32   15.70
  -8   5   5   -1.32   11.41
   3  -8   5   -1.96   10.48
  -3   8  -5   19.82   11.21
   3   5   5    4.61    7.26
   5   3   5   13.10    9.39
   8  -3  -5    3.43    8.81
  -5   8  -5    6.56    9.41
  -3   8  -5    2.43    8.62
   3  -8   5    4.41    5.54
   3   5   5   -5.14    9.27
   8  -5  -5    7.51    8.86
   5   3   5   -6.73    8.59
   8  -3  -5    1.03    9.05
   8  -5  -5    2.09    8.59
  -8   3   5    4.62    6.46
  -8   5   4   59.19   11.17
  -8   3   4   87.56   19.71
  -8   5   4  104.49   19.91
  -3  -5  -4   81.24   15.82
  -3  -5  -4   61.32   12.10
  -5  -3  -4   61.33   12.61
  -8   3   4   86.59   14.52
  -5   8  -4   90.81   19.12
  -8   5   4   43.30   13.06
   5  -8   4   56.95   13.59
  -8   3   4   89.49   18.48
  -8   5   4   74.78   14.82
   3  -8   4   59.98   14.00
  -3   8  -4   58.98   13.38
   3   5   4   74.64   12.26
   5   3   4   77.99   14.35
   8  -3  -4   68.80   14.42
  -5   8  -4   56.44   12.90
  -3   8  -4   62.80   13.18
   5  -8   4   57.82   10.80
   8  -5  -4   71.91   14.96
   3   5   4   52.14   12.93
   5   3   4   62.90   13.61
   3  -8   4   59.79    9.75
   8  -3  -4   85.64   15.41
   8  -5  -4   68.93   13.76
   5   3   4   72.46    7.51
   8  -5  -4   74.40   16.03
  -8   3   4   51.83    9.41
  -5  -3  -3  286.37   21.60
  -8   3   3  281.46   20.55
  -8   5   3  333.48   25.13
  -5   8  -3  275.58   25.02
   8  -5  -3  276.15   24.90
  -8   3   3  308.07   26.31
  -8   5   3  362.62   26.12
   8  -3  -3  299.99   24.86
   8  -5  -3  273.53   23.90
   5  -8   3  301.69   21.52
   5  -8   3  297.54   24.96
  -3   8  -3  291.99   23.38
   3  -8   3  317.77   19.28
   3  -8   3  271.54   23.20
   3   5   3  297.80   21.73
   5   3   3  277.15   22.02
  -5   8  -3  304.85   25.07
  -3   8  -3  293.94   24.12
   3   5   3  290.68   24.52
   5   3   3  303.55   25.00
   8  -3  -3  314.59   25.16
   8  -5  -3  292.47   24.21
  -3  -5  -3  318.44   22.48
  -8   3   3  312.70   18.60
  -8   5   3  294.03   20.37
  -3  -5  -3  307.36   24.40
  -8   3   3  301.96   27.85
  -8   5   3  290.27   24.47
  -5  -3  -2  267.07   20.27
  -8   3   2  310.00   21.86
  -8   5   2  289.52   24.43
  -5   8  -2  285.23   26.06
   8  -5  -2  266.26   24.01
   8  -5  -2  284.33   24.67
   5  -8   2  264.53   23.51
  -3   8  -2  295.74   22.57
   5  -8   2  282.88   21.37
   3  -8   2  276.93   18.88
   3  -8   2  281.02   23.51
   3   5   2  278.53   21.67
   5   3   2  287.81   23.04
  -5   8  -2  270.04   23.23
  -3   8  -2  281.58   24.28
   3   5   2  278.53   23.98
   5   3   2  296.00   24.90
   8  -3  -2  261.87   23.21
   8  -5  -2  288.62   24.62
  -3  -5  -2  284.57   20.74
  -8   3   2  263.08   15.92
  -8   5   2  279.00   19.18
  -3  -5  -2  288.77   23.81
  -5  -3  -2  265.10   25.89
  -5  -3  -1  553.90   26.69
  -8   3   1  544.77   28.01
  -8   5   1  522.42   30.96
   8  -5  -1  543.38   32.34
   8  -5  -1  521.16   13.26
  -3  -5  -1  553.11   30.72
   3   5   1  542.33   23.29
   5  -8   1  530.14   31.58
  -3   8  -1  563.61   29.41
   5  -8   1  524.41   28.86
   3  -8   1  528.11   30.29
   3  -8   1  557.09   27.06
   3   5   1  558.23   29.98
   5   3   1  500.95   30.11
  -5   8  -1  585.39   33.37
  -3   8  -1  555.80   32.73
   3   5   1  560.93   32.99
   5   3   1  574.39   33.55
   8  -3  -1  550.79   32.85
   8  -5  -1  568.79   33.19
  -3  -5  -1  588.64   27.51
  -8   3   1  535.71   20.15
  -8   5   1  565.77   25.20
  -3  -5  -1  574.82   30.21
  -5  -3  -1  574.72   34.93
  -3  -5   0   29.16    8.38
  -3  -5   0  -28.08   15.30
  -5  -3   0   77.74   20.57
  -8   5   0   21.99    7.51
   8  -5   0   27.64   11.51
  -3  -5   0   23.64    7.82
  -5  -3   0   32.58    9.24
  -8   3   0   31.76   10.37
  -8   5   0   59.81   13.65
   5  -8   0   38.59   12.61
   3  -8   0   16.65    9.84
   8  -5   0   17.98    3.14
   5   3   0   30.32    7.46
  -3   8   0   34.71   10.02
   3   5   0   32.57   11.28
   5   3   0   46.09   13.14
  -5   8   0   39.27   12.81
  -3   8   0   28.81   10.71
   3   5   0   21.22   10.85
   5   3   0   33.19   10.69
   8  -3   0   24.17   11.52
   5  -8   0   22.16    9.77
   8  -5   0   16.35   10.43
   3  -8   0   28.21    9.24
   5   3   0   35.05    7.65
  -8   3   0   27.71    5.50
   8  -3   0   35.64   11.23
  -3  -5   1  117.19   14.14
  -5  -3   1  121.57   23.20
  -5  -3   1  117.14   12.93
  -8   3  -1  117.44   16.57
  -8   5  -1  114.53   20.53
   8  -5   1  115.78    7.32
   8  -3   1  119.76   16.58
   8  -5   1  122.56   19.23
  -3  -5   1  117.93   19.49
  -5  -3   1  121.23   22.19
   5  -8  -1  116.30   17.83
   3  -8  -1  122.55   17.90
  -3   8   1  120.38   14.95
   5  -8  -1  119.99   17.15
   3  -8  -1  117.80   17.10
   5   3  -1  117.04   19.11
  -5   8   1  122.59   18.56
   5   3  -1  124.84   17.67
   3   5  -1  119.66   17.18
   8  -3   1  120.08   18.98
  -3  -5   1  118.85   13.76
   8  -5   1  115.51   18.21
   5   3  -1  123.46   13.87
  -3   8   1  114.30   17.42
   3   5  -1  120.18   18.40
  -8   5  -1  122.38   13.29
  -3  -5   1  116.76   14.94
  -5  -3   2 1161.62   31.16
  -8   3  -2 1147.59   43.72
  -8   5  -2 1167.69   45.65
   8  -5   2 1118.43   21.22
   8  -3   2 1090.03   40.69
  -3   8   2 1157.28   34.85
   8  -3   2 1189.45   36.11
  -5  -3   2 1159.91   48.83
   8  -5   2 1187.75   45.48
  -3  -5   2 1138.20   42.30
   5  -8  -2 1109.12   44.31
   3   5  -2 1148.50   24.99
   3  -8  -2 1156.94   42.04
  -3   8   2 1144.99   37.45
   5  -8  -2 1157.55   44.60
   3   5  -2 1182.35   45.85
   5   3  -2 1182.35   46.90
   3  -8  -2 1119.26   41.91
  -5   8   2 1163.27   46.33
  -3   8   2 1138.27   46.03
   3   5  -2 1165.38   46.65
   5   3  -2 1202.95   47.51
   8  -3   2 1121.34   45.93
  -3  -5   2 1194.36   32.59
   8  -5   2 1188.95   47.14
  -8   5  -2 1124.39   31.45
  -3  -5   2 1177.39   39.63
  -3  -5   2  933.61   39.20
  -5   8   2 1157.48   47.38
  -5  -3   2 1140.46   47.18
  -5  -3   3  104.85   18.97
  -5  -3   3  171.25   11.41
  -8   3  -3  170.79   18.60
   8  -5   3  161.61    9.21
  -8   5  -3  146.86   18.68
  -3   8   3  184.29   15.30
   8  -3   3  175.19   14.91
   8  -3   3  165.18   17.03
   8  -5   3  162.60   18.16
   5  -8  -3  156.81   18.40
  -5  -3   3  171.92   22.49
  -3  -5   3  140.67   16.57
   3  -8  -3  171.42   17.57
  -5  -3   3  179.52   14.51
  -3   8   3  178.84   14.90
   5  -8  -3  166.82   19.18
   3   5  -3  182.49   19.76
   5   3  -3  168.61   19.87
   3  -8  -3  173.56   18.51
   3   5  -3  169.67   11.90
  -5   8   3  177.86   19.96
   3   5  -3  150.13   18.72
   5   3  -3  142.81   17.89
  -3  -5   3  170.98   12.01
   8  -3   3  195.48   20.93
   8  -5   3  175.32   19.60
  -3   8   3  134.30   17.17
  -8   5  -3  167.59   12.32
  -3  -5   3  167.21   16.94
  -3  -5   3  189.36   19.39
  -5   8   3  161.62   19.56
  -3  -5   4   62.25   12.35
  -5  -3   4   34.38   18.32
  -5   8   4  106.84   17.31
  -3   8   4   95.49   17.14
   8  -3   4   98.17   13.74
   8  -5   4   83.09    7.84
   8  -5   4   81.76   14.76
   5  -8  -4   88.18   14.66
  -8   3  -4  114.68   17.08
  -8   5  -4   95.97   15.93
   3  -8  -4   98.06   14.19
  -3  -5   4  105.49   16.57
  -5  -3   4  117.19   19.23
  -3   8   4   75.99   10.77
   8  -3   4   89.51   12.20
  -3   8   4   84.32   10.35
   3   5  -4   73.79    9.76
   3   5  -4   87.68   16.27
  -3  -5   4   94.82    8.12
   5   3  -4   92.00   16.96
  -5   8   4  108.96   16.94
  -3   8   4   76.71   13.93
   3   5  -4   89.50   14.74
   5   3  -4   91.86   15.34
   8  -3   4   64.58   13.49
   8  -5   4   92.57   14.66
  -8   5  -4   87.99    9.27
   5  -8  -4   90.57   15.51
  -3  -5   4   94.94   14.43
   3  -8  -4   89.18   14.85
   5   3  -5  404.93   21.54
  -8   3  -5  384.84   28.08
  -8   5  -5  375.12   28.25
   8  -5   5  376.68   16.65
  -3   8   5  382.05   22.01
   8  -3   5  387.57   22.77
  -5  -3   5  373.66   27.85
  -3  -5   5  387.53   27.08
   5  -8  -5  402.02   27.69
   8  -3   5  368.07   23.34
   8  -5   5  366.06   25.90
   3  -8  -5  358.03   23.80
  -3   8   5  376.58   18.52
   3   5  -5  403.58   29.31
   5  -8  -5  413.71   29.19
   5   3  -5  404.23   29.58
   3  -8  -5  383.17   27.46
  -5   8   5  374.61   27.44
  -3   8   5  360.06   26.81
   3   5  -5  360.65   27.01
   5   3  -5  377.23   27.37
   8  -3   5  373.84   27.78
   8  -5   5  353.55   26.52
   3   5  -5  354.96   20.01
  -3  -5   5  367.00   25.64
  -5   8   5  361.79   28.50
  -3  -5   5  266.20   23.42
  -3   8   5  407.09   29.89
  -5  -3   5  405.75   30.72
  -8   3  -6  345.29   27.55
  -8   5  -6  365.95   28.45
   8  -5   6  380.41   18.09
   5   3  -6  329.41   20.95
  -3   8   6  368.25   22.27
   8  -3   6  384.08   23.22
  -5  -3   6  381.44   29.21
   5  -8  -6  334.46   25.63
  -3  -5   6  358.55   24.67
   8  -3   6  353.63   23.22
   8  -5   6  358.28   25.60
   3  -8  -6  355.24   24.21
   3   5  -6  352.46   29.00
   5  -8  -6  361.04   28.02
   5   3  -6  360.09   30.11
   3  -8  -6  357.71   26.49
  -5   8   6  349.72   26.72
  -3   8   6  354.42   25.58
   3   5  -6  360.05   27.04
   5   3  -6  351.80   28.10
   8  -3   6  366.63   27.44
   8  -5   6  349.55   26.75
   3   5  -6  365.22   21.70
  -5   8   6  373.71   29.32
  -3  -5   6  351.24   26.63
  -3   8   6  360.23   27.58
  -3  -5   6  359.09   27.61
  -5  -3   6  358.87   30.30
  -8   3  -7  259.38   26.61
  -8   5  -7  257.77   25.45
  -3   8   7  264.58   19.50
   8  -3   7  261.62   20.82
   5   3  -7  255.32   21.01
   5  -8  -7  257.92   22.39
  -5  -3   7  259.97   24.74
  -3  -5   7  256.55   24.33
   3  -8  -7  257.51   20.82
   8  -3   7  256.61   19.50
   8  -5   7  263.02   22.38
   3   5  -7  262.59   26.81
   5   3  -7  256.02   26.87
   5  -8  -7  259.08   27.52
   3  -8  -7  261.17   23.93
  -5   8   7  257.47   23.55
  -3   8   7  256.07   23.92
   3   5  -7  258.20   23.20
   5   3  -7  251.31   24.35
   8  -3   7  253.00   22.73
   8  -5   7  259.17   22.14
   3   5  -7  256.76   20.03
  -5   8   7  254.36   25.35
  -3   8   7  257.82   24.20
  -3  -5   7  250.20   24.70
  -3  -5   7  254.32   24.63
  -5  -3   7  252.29   26.22
  -3  -5   8  100.87   17.23
  -5  -3   8  112.46   18.47
  -3  -5   8  119.00   17.77
  -5   8   8  111.89   18.66
  -3   8   8  111.39   19.03
   5  -8  -8  111.49   17.69
   8  -3   8  111.53   15.14
  -8   3  -8  111.04   19.67
  -8   5  -8  111.70   18.18
   8  -5   8  111.55   15.72
  -3   8   8  111.26   14.37
   3  -8  -8  111.27   14.87
  -5  -3   8  111.68   18.64
  -3  -5   8  111.75   17.67
   8  -3   8  111.85   13.90
   3  -8  -8  111.15   20.39
   3   5  -8  111.89   18.67
   5   3  -8  111.16   19.51
   5   3  -8  111.87   14.77
   8  -3   8  111.91   19.16
  -5   8   8  111.33   16.89
  -3   8   8  111.37   17.54
   3   5  -8  111.56   15.19
   5   3  -8  111.63   16.47
   8  -5   8  111.06   17.31
   5  -8  -8  111.50   20.58
   3   5  -8  111.46   14.89
  -3  -5   9   19.52   11.66
   3  -8  -9   11.69   11.84
  -5  -3   9   10.42   10.91
  -3  -5   9   14.90   11.03
  -5   8   9   16.68   13.52
  -3   8   9   31.89   12.73
   5  -8  -9   17.36   10.56
   3  -8  -9    7.46    6.99
  -8   3  -9    8.52   10.89
  -8   5  -9   -0.82   10.70
  -3   8   9   25.20    9.28
   8  -3   9   16.87    8.55
   8  -5   9    9.17    8.69
  -5  -3   9   24.36   11.12
  -3  -5   9   17.57   10.64
   3   5  -9   14.01   11.77
   5   3  -9   18.66   12.85
  -5   8   9   19.38   11.02
  -3   8   9   25.16   11.46
   5   3  -9    9.09    9.34
   3   5  -9   25.06   11.23
   5   3  -9   16.89   10.26
   8  -3   9   35.18   11.86
   8  -5   9   16.05   10.04
   3   5  -9   18.35    8.85
   5  -8  -9   23.28   12.26
  -8   3 -10  559.50   38.18
  -8   5 -10  548.19   38.00
  -3   8  10  534.20   30.98
   8  -3  10  537.86   31.61
   5  -8 -10  512.38   32.39
  -5  -3  10  532.71   36.73
   5   3 -10  476.25   30.71
  -3  -5  10  538.97   36.14
   8  -5  10  527.21   31.79
   3   5 -10  571.46   38.65
   5   3 -10  509.72   36.15
   5  -8 -10  603.68   39.61
  -5   8  10  560.37   33.41
   3  -8 -10  554.61   37.96
  -3   8  10  551.09   32.68
   3   5 -10  511.41   31.79
   5   3 -10  511.06   31.79
   8  -3  10  544.60   33.04
   8  -5  10  517.66   32.16
   3   5 -10  577.10   33.26
  -5   8  10  523.52   36.79
  -3   8  10  497.25   35.77
  -3  -5  10  580.31   38.70
  -5  -3  10  523.06   36.80
  -3  -5  11    2.92   11.16
   3  -8 -11    2.27   10.08
  -3   8  11   19.03   13.18
   5  -8 -11    4.89   10.51
  -8   3 -11    8.66   10.71
  -8   5 -11   -1.09   12.55
  -3   8  11   -9.57    8.91
   8  -3  11    6.65   10.89
  -5  -3  11    9.94   13.07
  -3  -5  11  -13.44   11.68
   8  -5  11   10.81    9.47
   3   5 -11    5.67   11.44
   5   3 -11   15.56   11.92
  -5   8  11    3.50    8.36
  -3   8  11   13.53    9.42
   3   5 -11    1.65    8.29
   3   5 -11    8.61   10.09
   5   3 -11    5.53    8.93
   8  -3  11    8.18    9.62
   5   3 -11    4.24   10.75
   8  -5  11   -2.00    8.45
   5  -8 -12    4.50    9.31
  -3   8  12    4.76    8.77
   8  -3  12    3.05   10.92
   3   5 -12   12.99   11.13
   5   3 -12   -2.73   11.42
  -3   8  13  166.60   20.65
   8  -3  13  142.23   19.83
   3   5 -13  152.85   21.84
   5   3 -13  167.53   22.70
   8  -2 -13   39.63   14.14
  -6   8 -12  -50.27   20.98
   8  -2 -12   -1.11   10.51
  -8   6  11  138.97   21.38
  -8   2  11  119.31   19.77
  -6   8 -11   85.48   19.60
  -8   2  11  108.91   18.28
   6  -8  11   79.50   16.57
   8  -2 -11  105.40   18.10
  -6   8 -11  105.04   16.92
  -2   8 -11  106.69   16.54
   2   6  11   97.62   16.48
   6   2  11  117.96   17.89
   8  -2 -11  116.04   17.12
   8  -6 -11  126.82   21.19
   8  -6 -11  104.63   16.40
  -8   6  10  111.72   18.22
  -8   2  10  123.20   19.51
   2   6  10  127.57   16.90
  -2  -6 -10  134.03   20.72
  -6  -2 -10  137.45   20.74
  -6   8 -10  109.60   20.34
   2   6  10  138.09   21.30
   6   2  10  115.57   19.81
  -8   2  10  116.69   18.17
   6  -8  10  148.68   21.97
  -2   8 -10  128.40   20.10
   2  -8  10  141.29   20.92
   8  -2 -10  111.51   18.31
  -6   8 -10  115.43   17.08
  -2   8 -10  123.45   17.55
   2   6  10  120.59   18.17
   6   2  10  155.01   19.90
   8  -2 -10  132.49   18.46
   8  -6 -10  142.38   21.46
   8  -6 -10  120.33   17.40
  -6  -2  -9  193.24   22.85
   2   6   9  168.12   21.64
   6   2   9  167.78   22.36
  -6   8  -9  184.92   24.61
   8  -2  -9  166.38   20.43
  -8   2   9  216.43   23.54
  -2   8  -9  193.98   23.55
   8  -6  -9  187.34   23.01
   6  -8   9  190.69   23.30
   8  -2  -9  195.65   22.20
  -6   8  -9  189.35   21.02
  -2   8  -9  179.52   20.31
   2   6   9  177.61   20.36
   2  -8   9  188.57   23.66
   6   2   9  199.70   22.06
  -2  -6  -9  219.48   24.01
   8  -6  -9  173.00   20.14
  -8   6   9  196.52   22.58
   2   6   9  181.90   18.61
  -8   2   9  213.50   24.42
  -8   6   8   11.67    8.54
  -8   2   8   32.29   15.82
  -8   6   8    3.69    8.68
   2   6   8    0.89    7.57
  -2  -6  -8    2.60    8.68
  -6  -2  -8   15.90   11.86
  -6   8  -8   28.57   17.87
  -8   2   8   25.01   13.26
   2   6   8   14.11   10.02
   6   2   8   15.13   11.15
   6  -8   8   -4.68   10.12
   2  -8   8   -0.53   11.16
  -2   8  -8    7.09   10.43
   8  -2  -8    1.39    9.85
  -6   8  -8   10.54   10.86
  -2   8  -8    3.50    9.64
   2   6   8    7.05   10.30
   6   2   8   12.35   10.76
   8  -6  -8   15.62   12.22
   8  -2  -8    5.60    9.76
   8  -6  -8   10.12    9.37
  -6  -2  -7  397.72   29.06
  -6   8  -7  374.92   31.03
   8  -6  -7  373.84   30.91
   2   6   7  369.34   29.84
   6   2   7  378.21   29.70
  -8   6   7  367.97   22.18
  -8   2   7  245.28   24.62
  -2   8  -7  415.98   31.68
   8  -6  -7  368.13   29.59
   6  -8   7  346.74   28.92
   8  -2  -7  398.00   30.12
  -6   8  -7  354.59   27.39
  -2   8  -7  367.70   27.65
   2  -8   7  370.26   29.42
   2   6   7  425.29   29.97
   6   2   7  378.26   28.69
   8  -2  -7  381.15   28.67
  -2  -6  -7  389.80   29.07
   8  -6  -7  349.02   27.21
  -8   6   7  360.53   27.19
   2   6   7  333.37   24.18
  -8   6   7  399.09   24.68
  -8   2   7  296.18   27.44
  -6  -2  -6 1079.52   45.10
  -6   8  -6 1075.42   48.35
   8  -6  -6 1060.69   48.81
   2   6   6 1078.32   45.75
   6   2   6 1061.93   45.46
  -8   2   6 1068.27   43.97
  -8   6   6 1068.75   35.55
   8  -6  -6 1094.52   48.36
  -2   8  -6 1062.17   46.31
   6  -8   6 1073.60   48.31
   2   6   6 1061.42   34.26
   8  -2  -6 1063.68   46.82
  -6   8  -6 1095.24   44.53
   6   2   6 1063.76   42.12
   2  -8   6 1065.97   47.20
  -2   8  -6 1068.80   45.29
   2   6   6 1078.26   46.18
   6   2   6 1060.95   45.78
   8  -2  -6 1067.56   45.96
  -2  -6  -6 1067.95   44.30
   8  -6  -6 1067.11   44.61
  -8   6   6 1061.85   36.61
   2   6   6 1065.31   39.41
  -8   6   6 1061.81   38.53
  -8   2   6 1062.99   47.63
  -2  -6  -6 1064.40   35.73
  -6  -2  -5  258.27   22.68
  -6   8  -5  258.96   26.27
  -8   2   5  245.40   16.61
   8  -6  -5  280.71   26.54
  -8   2   5  255.86   26.33
  -8   6   5  193.11   16.42
   6  -8   5  271.64   25.11
   8  -6  -5  237.66   23.38
  -2   8  -5  285.00   25.13
   2   6   5  264.29   19.15
   8  -2  -5  264.00   24.95
  -6   8  -5  270.55   24.12
   6   2   5  251.07   22.24
   2  -8   5  244.65   23.29
   2   6   5  252.86   23.27
  -2   8  -5  277.31   24.46
   6   2   5  278.97   24.73
  -2  -6  -5  252.99   22.70
   8  -2  -5  287.30   24.99
   8  -6  -5  271.23   24.41
  -8   6   5  195.67   19.15
   2   6   5  265.92   20.99
  -8   6   5  265.76   21.66
  -8   2   5  273.36   28.40
  -2  -6  -5  241.41   19.68
  -6  -2  -4  604.18   31.71
  -8   2   4  638.98   26.71
  -6   8  -4  597.79   36.12
  -8   6   4  624.97   34.67
   8  -6  -4  655.65   37.60
  -8   2   4  705.57   39.02
  -8   6   4  593.81   27.53
   6  -8   4  650.67   32.70
   6  -8   4  628.45   36.45
   8  -6  -4  635.29   36.54
   2  -8   4  638.63   23.46
  -2   8  -4  649.09   35.43
   2   6   4  640.00   29.37
   2  -8   4  612.31   34.51
   6   2   4  613.77   33.57
   8  -2  -4  605.48   35.73
  -6   8  -4  645.77   35.69
  -2   8  -4  711.10   37.64
   2   6   4  669.17   36.54
   6   2   4  646.42   36.01
  -2  -6  -4  674.27   33.54
   8  -2  -4  657.70   36.13
   8  -6  -4  652.08   36.11
  -8   6   4  637.26   32.30
  -2  -6  -4  638.39   28.75
  -8   2   4  658.83   40.15
  -8   6   4  652.44   32.57
  -2  -6  -3    8.26   11.48
  -8   2   3    8.92   16.41
   8  -6  -3    8.75   11.90
  -8   6   3    8.74   12.65
  -8   6   3    8.57    8.78
  -2  -6  -3    8.53    8.65
  -6  -2  -3    8.02    9.29
  -8   2   3    8.25   10.52
  -6   8  -3    8.41   15.96
  -8   6   3    8.85   12.84
   6  -8   3    8.23   10.37
  -8   2   3    8.58   16.45
  -8   6   3    8.70   12.24
   2  -8   3    8.69   10.23
  -2   8  -3    8.05    8.60
   2   6   3    8.07    7.21
   6   2   3    8.09    8.60
   8  -2  -3    8.82   10.80
  -6   8  -3    8.47    8.82
  -2   8  -3    8.45    9.21
   6  -8   3    8.89    8.75
   2   6   3    8.37    8.07
   8  -6  -3    8.18   12.32
   6   2   3    8.47    9.85
   8  -2  -3    8.81    9.25
   2  -8   3    8.79    6.67
  -2  -6  -3    8.35    6.03
   8  -6  -3    8.54    9.67
  -6  -2  -2  654.19   30.43
  -8   2   2  646.17   28.51
  -8   6   2  646.30   35.16
  -6   8  -2  666.21   38.26
   8  -6  -2  620.72   35.74
  -2  -6  -2  622.16   30.55
   6  -8   2  696.88   37.40
   8  -6  -2  669.29   37.18
   6  -8   2  685.59   34.03
  -2   8  -2  678.96   34.04
   2  -8   2  676.45   27.37
   2   6   2  629.42   30.96
   2  -8   2  611.36   32.83
   6   2   2  646.04   34.75
  -6   8  -2  649.58   35.98
   8  -2  -2  683.59   37.32
  -2   8  -2  678.93   36.51
   2   6   2  650.32   36.23
   6   2   2  676.72   36.72
  -2  -6  -2  649.19   30.44
   8  -2  -2  672.23   36.93
   8  -6  -2  684.78   36.73
  -2  -6  -2  654.57   24.97
  -8   6   2  637.02   30.09
  -2  -6  -2  582.45   27.51
  -8   2   2  645.70   38.90
  -2  -6  -1   38.60   10.58
  -6  -2  -1    3.50   16.27
  -8   6   1    1.31    6.60
   8  -6  -1    8.50   10.08
  -2  -6  -1   -0.21    6.47
  -6  -2  -1    3.16    6.53
  -8   2   1    3.21    7.75
   6  -8   1    1.91    9.95
  -8   6   1    1.40   13.12
  -6   8  -1    4.40   14.16
  -2  -6  -1   29.93   12.47
   2  -8   1    7.91    7.99
  -2   8  -1    0.92    7.96
   2   6   1   -8.44    8.77
   6   2   1    2.48   10.13
   8  -2  -1    4.92    9.06
  -6   8  -1   16.84   10.36
  -2   8  -1   20.70   10.52
   8  -6  -1    9.24    8.50
   2   6   1   12.97   10.87
   6   2   1    7.35    9.08
   6  -8   1   10.94   10.02
  -2  -6  -1    4.02    6.32
   8  -2  -1    1.45    8.18
   2  -8   1    5.36    6.66
  -2  -6   0   19.25   11.95
  -6  -2   0   19.64   20.65
  -8   6   0   19.73    9.25
  -2  -6   0   19.76    9.26
   8  -6   0   19.87   12.33
  -6  -2   0   19.23    8.26
   6  -8   0   19.63   12.31
  -8   2   0   19.99    9.05
  -8   6   0   19.97   14.55
  -6   8   0   19.53   17.15
  -2  -6   0   19.15   12.33
   2  -8   0   19.39   10.84
  -2   8   0   19.04   10.59
   2   6   0   19.56   11.34
   6   2   0   19.76   14.79
   8  -2   0   19.00   12.49
  -6   8   0   19.00   11.73
  -2   8   0   19.93   12.51
   8  -6   0   19.81   11.94
   2   6   0   19.90   11.95
  -2  -6   0   19.77    7.65
   6   2   0   19.20   11.94
   6  -8   0   19.07   10.14
   8  -2   0   19.25   11.67
   2  -8   0   19.78   10.26
  -6  -2   1  304.30   18.31
  -8   2  -1  276.45   21.39
  -8   6  -1  273.59   24.60
   8  -2   1  285.43   21.51
   8  -6   1  289.57   24.70
  -2  -6   1  218.70   18.32
   6  -8  -1  297.67   25.15
  -2   8   1  289.06   20.72
   6  -8  -1  303.42   24.51
   2  -8  -1  280.15   21.79
   2   6  -1  314.97   24.19
   2  -8  -1  324.25   22.27
   6   2  -1  310.48   25.76
  -6   8   1  302.33   25.45
  -2   8   1  279.64   24.14
   2   6  -1  316.78   25.84
  -2  -6   1  317.17   18.56
   6   2  -1  301.80   25.32
   8  -2   1  316.14   26.10
  -2  -6   1  291.59   20.05
  -8   6  -1  281.23   19.26
  -2  -6   1  324.11   21.95
  -6   8   1  302.73   25.23
  -6  -2   1  292.33   29.43
  -6  -2   2  198.97   25.45
  -6  -2   2  171.83   13.25
  -8   2  -2  171.67   18.19
  -8   6  -2  266.64   25.59
   2   6  -2  168.90   11.36
   8  -2   2  155.22   16.32
  -6  -2   2  176.97   23.60
  -2  -6   2  200.33   18.28
   8  -6   2  160.25   20.10
   6  -8  -2  181.27   20.18
  -2   8   2  184.42   17.14
   6  -8  -2  157.92   19.01
   2  -8  -2  154.14   16.64
   2   6  -2  175.41   19.32
   6   2  -2  188.78   21.72
   2  -8  -2  173.07   17.51
  -6   8   2  180.03   20.66
  -2   8   2  171.00   20.25
   2   6  -2  204.63   21.75
  -2  -6   2  172.94   13.17
   6   2  -2  177.03   20.95
   8  -2   2  208.19   22.10
   8  -6   2  188.49   20.99
  -2  -6   2  187.88   17.55
  -8   6  -2  164.39   14.74
  -2  -6   2  168.17   17.30
  -6   8   2  169.64   20.60
  -6  -2   3  547.97   21.02
  -8   2  -3  544.90   32.43
  -8   6  -3  548.49   35.38
   2   6  -3  542.04   22.54
   8  -2   3  547.10   29.13
  -2   8   3  546.06   29.56
   8  -2   3  545.56   28.75
  -6  -2   3  548.27   37.74
  -2  -6   3  549.58   28.86
   6  -8  -3  548.58   34.18
   8  -6   3  542.42   33.97
   2  -8  -3  549.01   29.14
  -2   8   3  547.48   26.60
   6  -8  -3  547.47   35.63
   2   6  -3  546.31   32.90
   6   2  -3  547.61   35.56
   2  -8  -3  549.88   31.20
  -6   8   3  540.54   33.40
  -2   8   3  542.65   34.53
  -2  -6   3  544.04   20.76
   2   6  -3  541.91   34.34
   6   2  -3  545.29   35.13
   8  -2   3  548.80   34.60
   8  -6   3  543.88   34.16
  -2  -6   3  546.52   30.23
  -8   6  -3  544.99   26.74
  -2  -6   3  546.33   30.45
  -6   8   3  549.65   35.10
  -6  -2   3  542.99   37.68
   2  -8  -4   48.91   12.57
  -2  -6   4   37.76   11.46
  -6  -2   4    8.23   16.83
  -6   8   4   41.55   14.03
  -8   6  -4   46.61    9.45
   8  -2   4   62.20   11.23
   2   6  -4   43.24    8.64
   6  -8  -4   38.53   12.74
   8  -6   4   44.10   12.98
  -8   2  -4   37.97   11.42
  -8   6  -4   63.54   16.07
   2  -8  -4   40.34   10.04
  -6  -2   4   39.88   15.71
  -2  -6   4   34.29   10.93
  -2   8   4   39.49   10.85
   8  -2   4   41.91   11.04
  -2   8   4   44.18    9.35
   2   6  -4   41.12   13.88
   6   2  -4   43.70   14.31
  -6   8   4   40.33   12.60
  -2   8   4   43.33   12.93
   2   6  -4   54.84   14.09
   6   2  -4   37.97   12.79
  -2  -6   4   48.17   12.44
   8  -2   4   42.07   12.44
   8  -6   4   41.98   13.07
   6  -8  -4   47.24   13.93
  -6  -2   5  291.97   26.58
  -8   2  -5  389.65   28.43
  -8   6  -5  395.61   30.35
  -2   8   5  346.63   23.63
   8  -2   5  337.71   23.51
   2   6  -5  372.16   21.06
   6  -8  -5  384.75   28.63
  -6  -2   5  371.24   29.89
   8  -2   5  362.83   21.86
  -2  -6   5  389.95   26.05
   8  -6   5  343.02   26.64
   2  -8  -5  392.40   23.36
  -2   8   5  377.70   18.81
   2   6  -5  407.88   30.06
   6  -8  -5  381.91   29.02
   6   2  -5  361.03   28.69
  -6   8   5  370.82   27.59
   2  -8  -5  378.31   27.45
  -2   8   5  397.70   28.81
   2   6  -5  378.68   28.25
   6   2  -5  355.85   27.61
   8  -2   5  359.00   27.43
   8  -6   5  373.69   27.93
  -2  -6   5  355.06   26.06
  -6   8   5  380.63   29.08
  -2  -6   5  242.56   21.60
  -2   8   5  403.69   30.10
  -8   6  -5  368.92   21.06
  -8   2  -6  941.48   42.71
  -8   6  -6  947.18   43.86
   2   6  -6  942.62   34.19
  -2   8   6  949.38   37.11
   8  -2   6  943.01   36.78
   6  -8  -6  940.42   41.41
  -6  -2   6  940.22   41.41
  -2  -6   6  945.95   39.67
   8  -2   6  945.94   32.32
   8  -6   6  948.31   41.07
   2  -8  -6  940.94   33.48
   2   6  -6  945.81   43.05
   6  -8  -6  947.60   46.15
   6   2  -6  940.70   46.07
  -6   8   6  945.99   42.39
   2  -8  -6  948.93   43.43
  -2   8   6  949.77   41.86
   2   6  -6  949.56   41.96
   6   2  -6  944.61   41.69
   8  -2   6  940.44   43.31
   8  -6   6  948.70   41.50
  -2  -6   6  947.86   40.22
  -6   8   6  948.51   44.52
  -2  -6   6  949.86   39.66
  -2   8   6  944.60   44.51
  -6  -2   6  949.01   47.36
  -2  -6   7   98.01   16.38
  -6  -2   7  129.69   19.80
   2  -8  -7  103.51   17.53
  -6   8   7  112.10   17.79
  -2   8   7  109.20   17.67
   6  -8  -7   94.85   15.95
  -8   2  -7  109.88   18.03
  -8   6  -7   93.91   17.91
   8  -6   7   92.08   15.88
  -6  -2   7  149.00   21.87
  -2   8   7   94.48   14.49
   8  -2   7   94.39   14.58
  -2  -6   7  101.22   16.28
   2  -8  -7  109.23   13.19
   2   6  -7  105.96   17.28
   6   2  -7   99.58   18.18
   2   6  -7   95.73   12.96
  -6   8   7   94.60   16.39
  -2   8   7  126.05   18.48
   2   6  -7  108.30   16.59
   6   2  -7  106.30   16.58
   8  -2   7   94.24   16.21
   8  -6   7  120.25   18.10
  -2  -6   7   86.20   15.83
   6  -8  -7   97.59   16.74
   2   6  -8  360.89   26.23
   6   2  -8  400.07   26.76
  -8   2  -8  369.05   28.22
  -8   6  -8  369.68   29.42
   2   6  -8  362.45   24.36
  -2   8   8  365.22   25.47
   8  -2   8  364.84   25.75
   6  -8  -8  368.32   27.56
  -6  -2   8  366.31   28.89
  -2  -6   8  363.22   26.08
   8  -6   8  364.82   26.38
   2   6  -8  360.83   30.41
   6  -8  -8  367.68   29.33
   6   2  -8  362.84   29.14
  -6   8   8  365.03   27.66
   2  -8  -8  381.25   30.01
  -2   8   8  365.85   28.07
   6   2  -8  368.73   26.42
   8  -2   8  366.58   27.72
   8  -6   8  363.04   27.55
  -2  -6   8  384.14   29.96
  -6   8   8  365.37   30.71
  -2   8   8  369.44   29.70
  -2  -6   8  367.21   28.58
  -6  -2   8  369.55   30.73
  -6  -2   9   22.33   13.82
   2  -8  -9   13.91   11.15
  -6   8   9   19.45   10.50
  -2   8   9   17.21   10.36
   6  -8  -9   25.28   11.42
   2   6  -9   15.18    9.49
  -8   2  -9   13.72    9.77
  -8   6  -9    0.64   11.98
  -2   8   9   14.41    9.76
   8  -2   9   20.61   10.90
   8  -6   9   23.22   10.03
  -6  -2   9    4.45   10.10
  -2  -6   9   19.09   11.09
   6   2  -9   12.96   10.21
   2   6  -9   31.32   14.05
   6   2  -9   24.08   13.80
  -6   8   9   14.58   10.23
  -2   8   9   18.38   10.77
   2   6  -9   14.12    9.19
   6   2  -9   22.23   11.10
   8  -2   9   19.52   11.71
   8  -6   9    5.64    9.64
  -2  -6   9   12.59   11.16
   6  -8  -9   22.11   13.90
  -2  -6   9   17.69   10.38
   2   6 -10  376.20   27.64
  -8   2 -10  393.44   32.77
  -8   6 -10  413.25   33.98
   6   2 -10  436.56   30.56
  -2   8  10  419.31   29.70
   8  -2  10  338.17   27.59
   6  -8 -10  386.16   30.54
  -6  -2  10  404.98   33.90
  -2  -6  10  413.99   31.44
   8  -6  10  418.01   30.36
   2   6 -10  441.91   34.74
   6  -8 -10  408.93   33.64
   6   2 -10  395.96   32.42
  -6   8  10  426.19   30.07
   2  -8 -10  373.50   31.77
  -2   8  10  409.17   29.57
   2   6 -10  383.41   28.22
   6   2 -10  376.01   28.03
   8  -2  10  392.22   29.20
   8  -6  10  401.83   29.39
  -6   8  10  400.32   32.78
  -2   8  10  396.44   31.87
  -2  -6  10  394.55   32.70
  -2  -6  10  425.49   32.79
  -6  -2  10  401.69   33.88
  -2   8  11   57.29   16.43
   6  -8 -11   50.71   14.26
  -2   8  11   55.61   14.03
   8  -2  11   60.72   14.94
  -2  -6  11   56.52   15.59
   8  -6  11   75.27   15.32
   6   2 -11   88.72   17.33
   2   6 -11   35.06   12.65
   6   2 -11   79.79   18.25
  -6   8  11   50.91   13.85
  -2   8  11   73.71   15.21
   2   6 -11   68.53   14.33
   6   2 -11   57.94   13.81
   8  -2  11   62.49   14.64
   8  -6  11   49.43   13.01
  -2  -6  11   69.77   17.21
   6  -8 -12   73.64   16.00
  -2   8  12   62.68   15.53
   8  -2  12   62.56   15.88
   8  -6  12   75.77   15.50
   2   6 -12   46.08   13.25
   6   2 -12   54.13   14.86
   6  -8 -13   95.06   18.46
  -2   8  13   74.22   15.61
   8  -6  13   95.20   17.25
   1   7  11    1.38   11.00
   8  -1 -11    1.87   12.02
  -1   8 -11    1.04    8.76
   1   7  11    1.82    9.71
   7   1  11    1.07   10.46
   8  -1 -11    1.95   10.49
   8  -7 -11    1.91   11.15
  -8   1  10    2.21   12.23
  -8   7  10   11.34   11.36
   1   7  10   12.25   10.31
  -1  -7 -10   19.65   12.75
  -7  -1 -10   25.28   13.30
  -7   8 -10   69.44   17.70
   1   7  10   -4.87   12.26
   7   1  10   16.92   12.60
  -8   1  10    5.42   10.55
   1  -8  10   21.19   10.82
   7  -8  10    6.12   11.15
   8  -1 -10   14.82   12.07
  -7   8 -10   14.37   10.62
  -1   8 -10   16.64   11.13
   1   7  10   15.40   11.95
   7   1  10   17.37   11.70
   8  -1 -10    8.88    9.65
   8  -7 -10    9.44   10.13
   8  -7 -10   34.71   15.48
   8  -7  -9   11.83   10.88
  -8   1   9   30.45   13.96
  -8   7   9   22.03   11.32
   1   7   9    4.54    9.66
  -1  -7  -9    8.25   11.68
  -7  -1  -9   20.34   13.58
  -7   8  -9  -29.82   20.64
   1   7   9   10.30   10.55
   7   1   9   -0.80   11.04
  -8   1   9   15.83   13.36
   7  -8   9    4.71   11.15
   1  -8   9   12.15    9.65
  -1   8  -9   10.45   13.26
   1  -8   9    7.18   11.71
   8  -1  -9    8.66   11.93
  -7   8  -9   13.52    9.89
  -1   8  -9   10.08   10.05
   1   7   9   23.90   12.70
   7   1   9    8.27   11.77
   8  -1  -9    6.20   10.26
   8  -7  -9   16.66   13.32
   8  -7  -9   -0.31    9.25
  -7  -1  -8  488.07   34.05
  -7   8  -8  413.68   34.83
   8  -7  -8  523.93   37.30
   1   7   8  468.43   33.75
   7   1   8  469.23   33.80
  -8   1   8  543.37   37.20
   1  -8   8  514.36   29.96
  -1   8  -8  498.89   35.60
   8  -7  -8  492.00   35.79
   7  -8   8  494.77   35.06
   8  -1  -8  528.70   36.30
  -7   8  -8  473.61   32.07
  -1   8  -8  462.86   31.96
   1   7   8  467.21   32.64
  -1  -7  -8  497.45   34.32
   7   1   8  526.84   34.46
   8  -1  -8  442.67   31.80
   1  -8   8  516.27   36.01
   8  -7  -8  509.48   33.34
  -8   7   8  486.23   33.76
   1   7   8  500.56   31.46
  -8   1   8  576.31   38.99
   8  -7  -7    3.33   10.85
  -8   1   7  -52.09   25.05
  -8   7   7    9.63   11.15
   1   7   7    2.35    8.81
  -1  -7  -7    5.72    9.51
  -7  -1  -7    9.17   10.10
  -7   8  -7  -12.98   15.63
   7  -8   7    6.77    9.96
  -8   1   7  -66.17   22.27
   1   7   7   -0.67   10.46
   7   1   7   11.79    9.65
   1  -8   7   -1.71    7.10
  -1   8  -7    7.78   12.22
   1  -8   7   -0.89   10.34
   8  -1  -7   -0.86   11.30
  -7   8  -7   -7.16   10.19
  -1   8  -7   -0.74    9.25
   1   7   7   -9.17   10.60
   7   1   7    3.01    9.60
   8  -1  -7   15.07   11.39
   8  -7  -7   -0.57    9.04
  -8   1   6  -29.11   20.69
   8  -7  -6    9.47   12.31
  -8   7   6    0.38    9.35
  -1  -7  -6   18.08   12.08
   1   7   6   10.80    9.73
  -7  -1  -6   -0.39   10.29
  -7   8  -6   -4.01   16.12
   7  -8   6    3.05   10.70
  -8   1   6  -15.96   17.16
   1   7   6   10.60    9.81
   7   1   6   10.70   10.12
   1  -8   6    4.30    7.31
   1  -8   6    3.67   10.22
  -1   8  -6   10.15   11.45
   8  -1  -6   -5.61   11.66
  -7   8  -6    6.92    9.77
  -1   8  -6   10.55   10.06
   1   7   6   11.18   11.31
   7   1   6   21.61   12.30
   8  -1  -6   13.22   10.16
   8  -7  -6    9.45   10.85
  -8   7   5    7.21   10.70
  -8   1   5    7.44   16.69
  -8   7   5    7.26   10.68
   8  -7  -5    7.08   14.06
  -1  -7  -5    7.77   11.18
   1   7   5    7.13   11.45
  -7  -1  -5    7.78   11.80
  -7   8  -5    7.18   18.97
   7  -8   5    7.22   10.26
  -1  -7  -5    7.34   11.32
  -8   1   5    7.03   17.21
   1   7   5    7.22   11.04
   7   1   5    7.31   12.03
   1  -8   5    7.62    8.81
   1  -8   5    7.74   12.12
  -1   8  -5    7.50   12.82
   1   7   5    7.23    8.06
   8  -1  -5    7.61   11.01
  -7   8  -5    7.16   11.04
  -1   8  -5    7.78    9.32
   1   7   5    7.97   10.19
   7   1   5    7.29   10.89
   8  -7  -5    7.80   11.25
   8  -1  -5    7.08   10.13
  -7  -1  -4 1785.61   55.43
  -7   8  -4 1954.60   65.46
   8  -7  -4 1905.85   64.54
  -1  -7  -4 1851.01   45.02
  -8   1   4 1908.09   63.83
   1  -8   4 1911.66   46.24
   7  -8   4 1836.53   62.89
   8  -7  -4 1869.82   63.07
  -1   8  -4 1877.05   60.96
   1   7   4 1841.00   48.82
   8  -1  -4 1898.69   64.14
  -7   8  -4 1870.63   61.63
   7   1   4 1829.62   59.76
  -1   8  -4 1841.14   61.57
   1   7   4 1797.84   60.78
   1  -8   4 1823.08   59.05
  -1  -7  -4 1792.02   54.95
   7   1   4 1945.29   63.61
   8  -1  -4 1837.34   62.09
  -8   1   4 1876.36   66.14
  -8   7   4 1914.95   48.40
  -8   1   3   58.46   21.71
  -8   7   3   19.39   11.82
  -8   7   3    5.03    7.63
  -1  -7  -3   12.58    8.69
   8  -7  -3    6.13   11.49
  -7  -1  -3    6.37    8.14
  -8   1   3   14.35    7.20
   7  -8   3   15.02   11.72
  -7   8  -3   12.78   14.37
  -8   7   3    3.73   13.74
  -8   1   3   38.98   19.64
  -1  -7  -3   18.66    9.73
   1  -8   3    7.93    5.68
   1  -8   3   16.65    9.76
  -1   8  -3   13.67   10.81
   1   7   3    8.21    7.69
  -1  -7  -3    8.53    6.02
   8  -1  -3   11.76   10.25
   7   1   3    4.03    9.70
  -7   8  -3    7.09   11.00
  -1   8  -3   14.32   10.78
   7  -8   3    4.60    8.49
   1   7   3   12.92   10.61
   8  -7  -3   15.87   11.69
   7   1   3   10.92   11.13
   8  -1  -3    8.59   10.11
   7   1   3    9.01    5.50
  -7  -1  -2  492.42   27.61
  -8   1   2  514.41   24.77
  -7   8  -2  489.46   34.83
  -8   7   2  497.42   33.23
   8  -7  -2  477.19   32.77
  -8   7   2  505.74   23.93
  -1  -7  -2  464.33   23.41
   1  -8   2  466.76   20.62
   7  -8   2  494.29   33.13
   7  -8   2  491.84   31.09
   8  -7  -2  481.55   32.41
  -1   8  -2  483.02   30.29
   1   7   2  504.50   27.91
   1  -8   2  522.65   23.54
  -7   8  -2  476.67   31.71
   7   1   2  491.82   32.28
   8  -1  -2  527.97   34.16
   1  -8   2  484.05   29.64
  -1   8  -2  509.01   32.72
   1   7   2  460.25   31.38
  -1  -7  -2  540.32   28.45
   7   1   2  514.41   33.47
   8  -1  -2  530.30   33.64
  -1  -7  -2  487.82   23.93
  -8   7   2  465.52   28.30
  -1  -7  -2  478.13   22.57
  -8   1   2  518.57   37.30
  -1  -7  -1    2.12    6.28
  -1  -7  -1   10.54    7.61
  -8   7   1   -3.14    7.96
   8  -7  -1   14.41   11.29
   7  -8   1    2.69    9.32
  -7  -1  -1    4.40    7.66
  -8   1   1    2.33    6.72
  -8   7   1   13.55   14.82
  -7   8  -1   -6.65   14.76
  -1  -7  -1  -33.88   11.57
   1  -8   1    0.65    4.14
   1  -8   1   -3.12    7.55
  -1   8  -1    0.30    8.58
   1   7   1    3.93    7.70
  -1  -7  -1    1.30    6.50
   7   1   1    3.28    9.18
   8  -1  -1    0.96   10.01
  -8   7   1    4.60   10.31
  -7   8  -1    4.23   10.29
  -1   8  -1    4.30    9.69
   1   7   1   -1.48   10.38
   8  -7  -1    3.62   10.42
   7  -8   1    4.59    9.15
   7   1   1   -9.57    9.90
   8  -1  -1    3.94    9.99
   1  -8   1    2.94    6.39
  -7  -1   0  339.16   21.30
  -8   1   0  332.91   22.24
  -8   7   0  339.62   28.73
  -7   8   0  331.43   29.03
   8  -7   0  342.08   28.09
  -1  -7   0  352.57   20.99
   7  -8   0  299.31   26.13
   8  -7   0  351.83   28.25
   7  -8   0  306.08   25.91
  -1   8   0  342.88   24.19
   1   7   0  335.60   24.43
   1  -8   0  325.61   21.38
  -8   7   0  338.19   27.63
   7   1   0  322.03   27.39
  -7   8   0  339.20   27.45
   1  -8   0  329.16   23.35
   8  -1   0  340.89   28.14
  -1   8   0  322.05   27.15
  -1  -7   0  333.92   20.87
   1   7   0  320.85   27.12
   7   1   0  334.45   27.76
   8  -1   0  324.40   27.32
  -1  -7   0  310.89   21.12
  -8   7   0  328.03   23.46
  -1  -7   0  318.72   20.19
  -7   8   0  305.88   25.04
  -7  -1   0  329.06   31.16
   1  -8  -1    1.10    8.92
  -1  -7   1    1.12    6.70
  -1  -7   1    1.06    6.38
  -7  -1   1    1.11   20.81
  -8   7  -1    1.13    9.45
  -7   8   1    1.12   11.41
   8  -7   1    1.09   11.10
   7  -8  -1    1.04    9.94
  -7  -1   1    1.08    7.26
  -8   1  -1    1.13    9.84
  -8   7  -1    1.11   16.14
  -7   8   1    1.03   13.41
  -1  -7   1    1.07    8.30
   1  -8  -1    1.05    9.10
  -1   8   1    1.09    9.47
   1   7  -1    1.10    9.14
  -1  -7   1    1.13    9.02
   7   1  -1    1.13   10.25
  -8   7  -1    1.18   11.40
   8  -1   1    1.11   10.02
  -7   8   1    1.16   11.93
  -1   8   1    1.12   12.23
   8  -7   1    1.16   11.29
   1   7  -1    1.19   11.37
   7   1  -1    1.16   12.05
   7  -8  -1    1.10   10.76
   8  -1   1    1.08   10.98
  -8   1  -2  560.94   30.19
  -7  -1   2  586.27   24.29
  -8   7  -2  560.41   35.69
   8  -1   2  572.84   28.35
  -7  -1   2  573.27   37.09
  -1  -7   2  533.85   26.58
   7  -8  -2  613.71   36.64
   8  -7   2  588.43   35.95
   7  -8  -2  610.34   35.59
  -1   8   2  550.40   28.20
   1   7  -2  586.87   33.49
   1  -8  -2  523.40   27.60
   7   1  -2  646.62   37.66
  -7   8   2  559.43   34.01
   1  -8  -2  580.92   30.26
  -1  -7   2  610.11   23.75
   8  -1   2  565.94   34.80
  -1   8   2  600.42   35.49
   1   7  -2  575.26   34.61
   7   1  -2  583.88   35.54
   8  -1   2  574.25   35.06
  -1  -7   2  572.27   30.41
  -1  -7   2  592.54   28.99
  -7   8   2  589.08   34.17
  -8   7  -2  569.47   29.27
  -7  -1   2  631.85   39.75
  -1  -7   3    6.76    9.59
   1  -8  -3    6.22    9.68
  -7  -1   3    6.70   20.37
   8  -1   3    6.51    9.57
  -7   8   3    6.02   13.18
  -8   7  -3    6.33   10.15
   7  -8  -3    6.66   13.66
   8  -7   3    6.82   11.31
  -8   1  -3    6.89   12.42
  -8   7  -3    6.12   15.21
  -7  -1   3    6.48   19.73
  -1  -7   3    6.84    8.34
   1  -8  -3    6.27    8.39
   1   7  -3    6.61   13.59
  -1   8   3    6.26    9.84
   7   1  -3    6.44   15.55
  -1  -7   3    6.40   11.32
  -7   8   3    6.77   12.52
  -1   8   3    6.19   13.24
   1   7  -3    6.56   13.46
   7   1  -3    6.75   12.44
   8  -1   3    6.31   14.56
   7  -8  -3    6.35   12.78
  -8   1  -4 1061.83   44.40
  -8   7  -4 1068.98   49.18
   8  -1   4 1170.63   37.32
  -1   8   4 1053.14   42.45
   8  -1   4 1154.89   44.90
   1  -8  -4 1141.17   45.33
   7  -8  -4 1090.00   48.38
  -7  -1   4 1197.93   52.34
  -1  -7   4 1106.73   40.32
   8  -7   4 1070.08   47.60
   7  -8  -4 1164.19   50.03
   1   7  -4 1115.94   47.86
  -1   8   4 1163.37   36.54
   1  -8  -4 1115.03   37.49
   7   1  -4 1099.05   49.36
  -7   8   4 1133.29   48.21
  -1   8   4 1156.14   48.82
   1   7  -4 1103.08   47.75
   7   1  -4 1139.28   49.12
   8  -1   4 1177.37   49.66
  -1  -7   4 1038.14   43.68
  -7   8   4 1134.80   48.08
  -1  -7   4 1071.06   41.46
  -7  -1   4 1100.66   51.63
  -1  -7   5    9.52    7.98
  -7  -1   5  -23.11   20.74
   1  -8  -5   15.55   11.15
  -7   8   5   -8.28   11.68
  -1   8   5   16.29   12.73
   7  -8  -5   13.87   11.94
  -8   1  -5   12.23   10.83
  -8   7  -5   53.93   17.76
   8  -7   5    4.70    9.29
  -7  -1   5   12.25   14.33
  -1   8   5   13.24    9.02
   8  -1   5   -1.07    8.70
  -1  -7   5    8.96    7.84
   1  -8  -5    8.12    6.71
   1   7  -5    6.89    9.44
   7   1  -5   11.66   10.84
  -7   8   5   15.05   10.89
  -1  -7   5    7.80    9.07
  -1   8   5   10.53    9.18
   1   7  -5    8.93    9.00
   7   1  -5   14.76   10.55
   8  -1   5   11.74    9.75
   7  -8  -5    2.83    9.56
   1  -8  -6  103.67   17.41
  -7   8   6  116.95   18.56
  -1   8   6  134.10   19.29
   7  -8  -6  113.38   17.96
  -8   7  -6  161.99   22.12
  -8   1  -6  109.33   17.37
   8  -7   6  113.67   17.74
  -7  -1   6   85.19   18.20
  -1   8   6  100.74   15.70
   8  -1   6   91.17   15.90
  -1  -7   6  110.45   15.40
   1   7  -6  112.51   18.55
   7   1  -6  133.20   19.58
  -7   8   6  110.66   17.33
  -1  -7   6  116.10   17.13
  -1   8   6  108.42   17.55
   1   7  -6  106.13   16.69
   7   1  -6   98.95   16.70
   8  -1   6  107.01   17.59
   7  -8  -6  133.01   19.46
  -1  -7   6  105.02   15.74
  -7  -1   7   39.67   16.17
   1  -8  -7   15.02   12.02
  -7   8   7    2.97    9.50
   7  -8  -7   -4.43   10.58
  -1   8   7    3.75   10.23
  -8   1  -7   -1.25   10.12
  -8   7  -7   21.02   14.26
   8  -7   7   -3.66   10.02
  -1   8   7   14.70   10.63
   8  -1   7   -1.86    9.69
  -7  -1   7    1.08   15.51
  -1  -7   7    0.68    8.12
   1   7  -7    0.22    9.43
   7   1  -7   11.18   10.93
  -7   8   7   14.79   12.69
  -1   8   7    8.75   11.27
   1   7  -7    5.20    9.44
  -1  -7   7    0.39    8.84
   7   1  -7   -2.08    9.26
   8  -1   7    3.93   10.20
   7  -8  -7   11.66   12.44
  -1  -7   7    8.89    9.24
  -8   1  -8  875.45   45.27
  -8   7  -8  814.38   45.04
  -1   8   8  764.07   39.10
   8  -1   8  769.87   39.84
   7  -8  -8  813.42   43.59
  -7  -1   8  801.36   45.08
  -1  -7   8  854.91   40.78
   8  -7   8  810.80   42.88
   1   7  -8  866.55   46.59
   7  -8  -8  897.30   47.25
   7   1  -8  870.14   46.45
  -7   8   8  901.16   43.98
  -1   8   8  864.90   43.18
   1  -8  -8  839.57   44.45
   1   7  -8  789.55   40.97
   7   1  -8  807.74   41.77
   8  -1   8  832.09   42.89
   8  -7   8  839.37   42.52
  -1  -7   8  835.93   44.36
  -7   8   8  898.82   46.56
  -1  -7   8  802.53   41.26
  -1   8   8  814.28   42.85
  -7  -1   8  856.62   47.19
  -7  -1   9    4.40   10.66
   1  -8  -9   14.38   10.86
  -7   8   9   16.92   12.97
   7  -8  -9   -0.69   11.64
  -1   8   9   -7.84   11.67
  -8   1  -9    6.09   11.20
  -8   7  -9   24.58   14.66
  -1   8   9   13.38   11.31
   8  -1   9   -0.62   11.26
   8  -7   9    4.41    9.29
  -7  -1   9   -4.36   10.76
  -1  -7   9    0.76   10.11
   1   7  -9   -3.17   12.31
   7   1  -9   10.80   12.42
  -7   8   9    3.79   11.30
  -1   8   9   -2.58   10.43
   1   7  -9   -4.98    8.68
   7   1  -9    0.04    9.02
   8  -1   9    0.38   11.53
  -1  -7   9    8.65   10.72
   8  -7   9    2.05   11.04
   7  -8  -9   10.99   11.36
   1  -8 -10   26.14   12.87
   7  -8 -10   21.94   12.15
  -1   8  10   19.84   11.42
  -1   8  10   28.07   12.36
   8  -1  10   22.19   11.92
   8  -7  10   27.49   11.31
  -1  -7  10   25.09   14.17
   7   1 -10   23.03   12.77
  -7   8  10   14.14   10.69
  -1   8  10   29.79   12.76
   1   7 -10   16.37   10.29
   7   1 -10   19.92   11.31
   8  -1  10   27.38   12.69
  -1  -7  10   26.91   13.27
   8  -7  10    9.55   10.58
   7  -8 -11    8.47   11.58
  -1   8  11   17.48   11.85
  -1   8  11    3.76   10.31
   8  -1  11   -4.76    9.80
  -1  -7  11    5.11   10.50
   8  -7  11    3.94    9.55
   1   7 -11    8.68   10.66
  -1   8  11   -2.40    9.83
   1   7 -11    0.92    9.15
   7   1 -11    3.28    9.01
   8  -1  11   14.70   11.99
   8  -7  11   10.31   10.99
   1   7 -12  359.53   29.33
   8  -7  12  359.60   32.13
   0  -8   0   13.28    7.67
  -8   0   0   13.34   23.87
  -8   8   0   13.45    7.95
   8  -8   0   13.41   10.12
  -8   0   0   13.43    8.53
  -8   8   0   13.57   17.29
   0  -8   0   13.96    8.51
   0   8   0   13.88    8.66
   8   0   0   13.56   11.21
  -8   8   0   13.49   10.69
   0   8   0   13.73   10.75
   8  -8   0   13.92    9.37
   8   0   0   13.82   13.46
  -8   0  -1  351.76   25.60
  -8   0   1  351.96   21.84
  -8   8  -1  351.65   32.85
  -8   8   1  351.52   31.52
   8  -8  -1  351.66   31.10
   8  -8   1  351.89   30.92
   8  -8   1  351.47   29.37
   8  -8  -1  351.42   29.68
   0   8  -1  351.73   28.45
   0   8   1  351.33   25.57
   0  -8   1  351.24   23.03
  -8   8  -1  351.69   30.47
  -8   8   1  351.69   31.42
   8   0  -1  351.19   31.72
   8   0   1  351.97   31.37
   0  -8  -1  351.93   24.25
   0   8   1  351.08   30.60
   0   8  -1  351.33   31.64
   0  -8  -1  351.02   23.88
   0  -8   1  351.33   25.84
   8   0   1  351.12   30.66
   8   0  -1  351.79   31.23
  -8   8   1  351.01   23.06
  -8   8  -1  351.90   23.53
  -8   0   1  351.16   37.61
  -8   0  -2  442.85   28.09
  -8   8  -2  431.28   34.26
   8   0   2  416.50   24.10
  -8   8   2  425.25   33.21
  -8   0   2  443.18   35.50
   8  -8  -2  450.75   33.29
   0  -8   2  407.42   22.13
   8  -8   2  377.31   30.38
   8  -8   2  412.34   30.59
   8  -8  -2  430.73   32.25
   0   8  -2  422.20   29.99
   0   8   2  432.40   26.68
  -8   8  -2  452.55   32.59
  -8   8   2  417.98   31.61
   8   0  -2  433.67   32.74
   8   0   2  398.32   30.42
   0  -8  -2  467.78   28.12
   0   8   2  454.03   32.34
   0   8  -2  409.11   31.06
   0  -8  -2  393.61   23.71
   0  -8   2  416.25   27.88
   8   0   2  425.55   32.04
   8   0  -2  417.73   31.72
   0  -8   2  441.15   24.19
  -8   8   2  415.90   29.08
  -8   8  -2  414.74   26.82
  -8   0   2  411.74   37.68
  -8   0   3   90.29   24.93
   0  -8  -3   90.99   15.98
  -8   8   3   90.84   16.62
   8  -8  -3   90.97   17.04
  -8   0  -3   90.06   15.32
   8  -8   3   90.07   17.22
  -8   8  -3   90.71   22.81
   0  -8   3   90.55   12.31
  -8   0   3   90.17   26.45
   0   8   3   90.90   14.62
   0   8  -3   90.06   18.07
   0  -8   3   90.79   16.27
   8   0  -3   90.15   18.46
  -8   8  -3   90.99   16.90
  -8   8   3   90.09   16.78
   8   0   3   90.63   17.41
   0   8   3   90.82   17.72
   0   8  -3   90.42   18.41
   8  -8  -3   90.45   18.06
   8   0   3   90.79   17.93
   8   0  -3   90.63   16.86
   0  -8   3   90.39   12.86
  -8   0   4   93.07   23.93
   0  -8  -4   90.87   15.63
  -8   8   4   92.78   13.82
   8  -8  -4   92.45   18.24
  -8   0  -4   98.71   16.30
  -8   8  -4   99.58   22.06
   8  -8   4   93.14   18.73
  -8   0   4   93.61   22.50
   0   8   4   90.10   16.22
   8   0   4   92.88   17.83
   0  -8   4   91.54   12.26
   0   8  -4   95.43   16.71
   0  -8   4   93.76   15.17
   0   8   4   88.13   11.76
   8   0  -4   95.35   17.40
  -8   8  -4   90.17   17.32
  -8   8   4   96.26   16.74
   0   8   4   88.97   15.81
   0   8  -4   92.87   15.38
   8   0   4   94.64   16.79
   8   0  -4   95.36   17.27
   8  -8  -4   99.81   19.10
   0  -8   4   93.90   13.33
  -8   0   5  122.08   22.20
   0  -8  -5  130.02   18.28
  -8   8   5  139.40   19.39
   8  -8  -5  132.25   20.88
   0   8   5  127.10   18.80
  -8   0  -5  134.38   19.94
  -8   8  -5  132.46   23.18
   8  -8   5  130.12   19.28
  -8   0   5  121.01   28.77
   0  -8   5  128.10   14.67
   0   8   5  138.08   19.11
   8   0   5  123.37   19.15
   0   8  -5  131.77   19.33
   8   0   5  137.94   19.83
   0  -8   5  139.58   19.58
   8   0  -5  133.50   21.40
  -8   8  -5  137.12   19.09
  -8   8   5  127.41   17.89
   0   8   5  126.82   17.85
   0   8  -5  136.70   19.41
   8   0  -5  133.32   20.07
   8  -8  -5  126.16   20.10
  -8   0  -6  556.93   35.43
  -8   8  -6  489.69   38.37
   8  -8  -6  514.75   36.34
   0   8   6  488.15   32.88
   8   0   6  486.52   33.87
  -8   0   6  417.52   33.91
   0  -8   6  550.68   30.18
   8  -8   6  505.68   35.46
   8  -8  -6  526.79   37.21
   0   8  -6  488.86   35.05
   8   0  -6  538.68   37.12
  -8   8  -6  498.46   34.41
  -8   8   6  528.64   35.15
   0   8   6  532.66   35.37
   0   8  -6  511.10   34.40
   0  -8  -6  516.78   34.00
   8   0   6  506.74   35.09
   8   0  -6  541.11   35.52
   0  -8   6  505.82   34.41
  -8   8   6  534.28   35.24
   0   8   6  498.82   33.99
  -8   0   6  425.74   35.13
  -8   0   7  116.97   20.83
  -8   8   7   76.12   16.07
   0  -8  -7   89.55   16.94
   8  -8  -7   91.53   18.29
   0   8   7   92.13   18.01
  -8   0  -7  105.04   18.01
  -8   8  -7   49.95   16.97
   8  -8   7   82.76   16.72
  -8   0   7    8.48   21.10
   0   8   7   89.29   16.62
   8   0   7   94.35   17.78
   0  -8   7   75.96   13.38
   0   8  -7   85.95   17.60
   8   0  -7   88.00   17.69
   0  -8   7   98.14   17.68
  -8   8  -7   96.69   17.15
  -8   8   7   82.03   16.78
   0   8   7   80.65   17.06
   0   8  -7   69.12   15.22
   8   0   7   67.57   16.06
   8   0  -7   85.44   16.57
   8  -8  -7   91.46   17.83
  -8   0   8  169.59   24.68
  -8   8   8  146.19   20.79
   0  -8  -8  118.51   18.93
   8  -8  -8  161.79   23.37
   0   8   8  136.98   20.43
  -8   0  -8  159.40   22.10
  -8   8  -8  172.71   24.38
   8  -8   8  129.87   20.76
   0   8   8  135.55   19.14
   8   0   8  122.64   19.11
  -8   0   8  152.40   22.40
   0  -8   8  117.81   16.80
   0   8  -8  149.42   20.52
   0   8  -8  145.96   22.17
   8   0  -8  132.55   20.89
   0  -8   8  149.16   21.41
   0   8   8  116.58   18.46
   8   0   8  151.29   20.74
   8   0  -8  117.14   18.57
   0  -8  -9   38.11   13.60
   0   8   9   38.34   11.17
  -8   0  -9   38.07   13.61
   0   8   9   38.11   11.92
   8   0   9   38.43   13.52
   8  -8   9   38.22   12.62
   0  -8   9   38.09   12.94
   0   8   9   38.45   11.52
   0   8  -9   38.16   12.35
   8   0   9   38.64   13.73
   8   0  -9   38.51   10.94
   0   8  10  200.93   24.85
   0  -8  10  200.24   23.13
   0   8  10  200.85   23.09
   0   8 -10  196.33   22.55
   8   0  10  195.17   22.39
   8   0 -10  200.87   23.62
   0   8  10  194.15   23.19
   0   8  11  112.36   19.47
   0  -8  11  112.07   18.79
   0   8  11  120.16   18.96
   8   0  11  135.24   19.94
  -5   9 -11  193.51   25.56
  -9   4  11  154.15   21.04
   9  -4 -11  209.87   23.96
   9  -4 -11  218.54   23.74
   4   5  11  192.95   22.43
   5   4  11  216.52   23.48
   9  -4 -11  196.52   22.36
   9  -5 -11  206.90   23.18
  -9   4  11  213.69   24.96
  -9   4  11  194.93   23.37
  -5   9 -10  266.60   28.79
  -4   9 -10  256.98   26.83
  -9   4  10  297.20   26.93
  -9   5  10  263.32   24.26
   9  -4 -10  263.45   26.32
   9  -5 -10  319.86   28.93
  -5   9 -10  299.00   26.88
  -4   9 -10  273.20   25.45
   9  -4 -10  306.43   27.16
   4   5  10  302.64   27.23
   5   4  10  275.62   25.95
   9  -4 -10  257.25   25.96
   9  -5 -10  288.08   26.52
  -9   4  10  285.86   26.49
  -9   5  10  292.95   27.19
  -9   5  10  264.43   25.02
  -9   4  10  330.60   29.27
  -9   5   9   37.64   13.44
  -9   5   9   49.51   14.70
  -9   4   9   50.65   15.63
  -4  -5  -9   56.55   16.29
  -5  -4  -9   46.20   15.93
  -4  -5  -9   28.68   12.98
  -5  -4  -9   33.97   13.28
  -5   9  -9   32.08   16.89
  -4   9  -9   55.66   18.30
  -9   4   9   39.67   14.15
  -9   5   9   21.37   10.56
   9  -4  -9   38.44   13.60
  -5   9  -9   45.92   13.22
  -4   9  -9   54.48   14.64
   9  -4  -9   47.06   14.21
   4   5   9   38.18   13.64
   5   4   9   32.76   13.81
   9  -5  -9   27.55   13.65
   9  -4  -9   42.85   13.32
   9  -5  -9   32.34   12.70
  -9   4   9   42.48   13.59
  -9   5   8   -3.82    9.76
  -9   5   8   33.33   14.84
  -9   4   8   44.14   17.09
  -4  -5  -8    7.78   10.24
  -5  -4  -8   -2.41   10.96
  -4  -5  -8   18.65   11.85
  -5  -4  -8    2.65    9.60
  -5   9  -8    3.97   15.12
  -4   9  -8  -10.41   15.26
  -9   4   8    8.90   10.88
  -9   5   8   -0.84    8.60
   4   5   8    5.02   10.40
   5   4   8   -0.43   10.12
   5  -9   8   16.02   11.69
   4  -9   8   -7.44   11.44
  -5   9  -8   20.20   12.09
  -4   9  -8   14.99   11.85
   9  -4  -8    3.02    9.87
  -5   9  -8   -7.16   10.97
  -4   9  -8    6.69   10.43
   9  -4  -8    1.83   10.79
   4   5   8   16.25   13.44
   9  -5  -8   12.42   11.41
   5   4   8    0.14   10.45
   9  -4  -8    4.50   10.05
   9  -5  -8    6.83   11.30
  -9   4   8    5.83    8.39
  -9   5   7    4.71    8.40
  -9   5   7  -33.51   20.57
  -9   4   7  -37.51   21.76
  -4  -5  -7    6.45    8.80
  -5  -4  -7    1.65    8.87
  -4  -5  -7    5.15    9.92
  -5  -4  -7  -13.31   12.04
  -5   9  -7    1.28   13.75
  -9   4   7  -36.43   16.42
  -9   5   7    6.60    9.77
   4   5   7   25.12   13.96
   5   4   7   15.36   13.32
   5  -9   7   12.42   11.12
   4  -9   7    4.32   10.52
  -5   9  -7    3.88    9.99
  -4   9  -7    5.68    9.79
   5   4   7    2.94    8.08
  -5   9  -7   16.06   11.42
  -4   9  -7    1.64    9.39
   9  -4  -7    1.25    8.90
   9  -5  -7    2.46   10.92
   4   5   7    1.08   11.37
   5   4   7    2.19   10.23
   9  -4  -7    3.24    9.48
   9  -5  -7    9.35    9.48
  -9   4   7    4.45    8.56
  -9   5   6  130.86   16.49
  -9   5   6  108.78   19.62
  -9   4   6  114.79   21.99
  -4  -5  -6  162.36   21.39
  -4  -5  -6  155.27   20.21
  -5  -4  -6  150.28   19.68
  -4  -5  -6  147.76   19.81
  -5  -4  -6  145.21   19.81
  -5   9  -6  169.00   23.92
  -9   4   6   86.67   17.87
  -9   5   6   79.45   13.82
   4   5   6  143.77   21.74
   5   4   6  133.43   21.37
   5  -9   6  149.93   21.71
   4  -9   6  138.61   20.85
   4   5   6  143.02   16.46
   5   4   6  130.97   16.64
  -5   9  -6  129.70   18.79
  -4   9  -6  138.24   19.55
  -5   9  -6  149.56   19.61
  -4   9  -6  120.65   18.04
  -9   4   6  133.55   16.16
   9  -5  -6  154.96   20.75
   4   5   6  140.79   19.69
   5   4   6  118.30   18.12
   9  -4  -6  139.36   19.39
   9  -5  -6  147.80   20.27
  -9   5   5  108.07   14.47
  -9   4   5  117.62   22.99
  -9   5   5  130.93   22.13
  -4  -5  -5  134.46   20.50
  -4  -5  -5  119.27   17.87
  -4  -5  -5  106.85   16.91
  -5  -4  -5  115.09   16.86
  -9   4   5  100.75   15.81
  -9   5   5   96.10   15.94
  -5   9  -5  101.95   20.68
  -9   4   5  111.77   19.28
  -9   5   5   98.83   17.32
   5  -9   5  105.26   18.15
   4  -9   5  111.25   17.99
  -5   9  -5  123.40   18.61
  -4   9  -5   91.77   16.37
   4   5   5  108.11   14.90
   5   4   5   97.15   15.23
  -5   9  -5   92.24   16.21
  -4   9  -5   93.75   16.97
   9  -5  -5  101.35   17.22
   4   5   5  105.45   17.44
   5   4   5  114.89   18.31
   9  -4  -5  114.92   17.42
   9  -5  -5  115.32   18.66
  -9   4   5  105.66   14.17
  -9   5   4   90.45   13.26
  -9   4   4  153.78   25.22
  -9   5   4  119.46   21.35
  -4  -5  -4  151.92   21.05
  -5  -4  -4  100.38   20.38
  -4  -5  -4   88.98   14.68
  -5  -4  -4  102.09   16.11
  -9   4   4  119.07   17.12
  -9   5   4  112.80   17.45
  -5   9  -4  116.64   19.99
  -9   4   4  157.71   21.76
  -9   5   4  132.66   19.30
   5  -9   4   82.34   16.44
   4  -9   4  113.35   18.32
  -5   9  -4  112.04   17.07
  -4   9  -4   94.39   16.79
   4   5   4  100.60   14.99
   5   4   4   86.12   14.76
  -4  -5  -4  129.51   17.54
  -5   9  -4   93.11   16.48
  -4   9  -4  103.28   17.25
   9  -5  -4   96.89   17.24
   5  -9   4   94.17   13.44
   4   5   4  101.73   17.57
   4  -9   4  105.10   12.89
   5   4   4  113.04   18.06
   9  -4  -4   91.29   16.32
   9  -5  -4   96.80   17.36
   4   5   4  104.51   13.42
   9  -5  -4  132.57   20.33
  -9   4   4   92.45   12.56
   9  -5  -3  115.61   18.24
  -4  -5  -3  145.51   20.68
  -5  -4  -3  101.53   18.88
  -9   4   3  136.46   23.30
  -9   5   3  152.41   22.05
  -4  -5  -3  116.24   15.87
  -4  -5  -3  119.63   16.27
  -5  -4  -3  101.80   14.87
  -9   4   3  137.91   17.78
  -9   5   3  135.68   19.03
  -9   5   3  151.81   20.69
   5  -9   3  104.54   17.00
  -9   4   3  145.39   21.70
   4  -9   3  131.59   18.06
   5  -9   3  115.83   15.43
   4  -9   3  123.30   14.30
   4   5   3  124.42   16.93
  -5   9  -3  107.25   16.72
  -4   9  -3  117.99   17.34
   5   4   3  143.64   19.15
   5   4   3  113.85   16.86
  -5   9  -3  121.77   18.34
  -4   9  -3  109.49   16.98
  -9   4   3  116.30   12.89
  -9   5   3  115.23   13.76
   4   5   3  134.32   19.71
   9  -4  -3  137.55   19.25
   9  -5  -3  120.92   17.76
  -4  -5  -2  941.47   38.37
  -5  -4  -2  977.85   38.66
  -9   4   2  931.47   39.82
  -9   5   2  964.63   42.56
   9  -4  -2  979.51   44.90
   9  -5  -2  985.44   46.26
  -5   9  -2  906.12   41.13
  -4   9  -2  945.87   41.71
   5  -9   2  980.48   46.01
   5  -9   2 1018.18   40.49
   4  -9   2  932.92   37.15
   4  -9   2  945.61   44.17
   4   5   2  963.18   41.93
   5   4   2  963.78   43.07
  -5   9  -2  936.10   45.03
  -4   9  -2  946.60   45.18
   4   5   2  981.90   46.26
   5   4   2 1020.91   47.35
   9  -4  -2  888.36   44.39
   9  -5  -2  997.62   46.77
  -4  -5  -2  952.94   38.97
  -9   5   2  970.11   34.12
  -4  -5  -2  873.57   40.89
  -5  -4  -2  719.37   38.97
  -4  -5  -1  198.72   19.82
  -4  -5  -1  190.51   18.69
  -5  -4  -1  191.63   18.91
  -9   4   1  191.86   23.89
  -9   5   1  199.04   22.34
   9  -4  -1  197.80   21.66
   9  -5  -1  197.54   23.09
  -4  -5  -1  191.92   23.51
  -5   9  -1  198.87   20.13
   5  -9   1  198.88   23.10
  -4   9  -1  190.35   21.12
   4  -9   1  197.92   21.95
   5  -9   1  193.89   20.79
   4  -9   1  196.81   19.36
   4   5   1  199.48   21.20
   5   4   1  199.87   22.99
  -5   9  -1  199.62   24.03
  -4   9  -1  194.05   22.64
   4   5   1  198.04   22.59
   5   4   1  192.43   22.57
   9  -4  -1  199.04   23.99
   9  -5  -1  194.62   23.88
  -4  -5  -1  192.30   18.53
  -9   5   1  192.02   15.50
  -5  -4  -1  191.02   26.67
  -4  -5   0   57.48   11.92
   9  -4   0   51.07   15.32
  -5  -4   0   59.30   18.57
   9  -5   0   52.78   15.64
  -4  -5   0   56.90   12.20
  -4  -5   0   57.05   11.50
  -5  -4   0   51.01   11.74
  -9   4   0   57.96   14.77
  -9   5   0   51.76   18.66
   5  -9   0   53.50   14.26
   4  -9   0   59.01   15.77
  -5  -4   0   53.05   20.96
  -4  -5   0   54.71   19.42
  -5   9   0   56.14   13.76
  -4   9   0   62.68   12.58
   4   5   0   67.52   14.64
   5   4   0   64.30   15.34
  -5   9   0   50.39   16.54
  -4   9   0   58.08   14.75
   4   5   0   59.38   16.26
   5   4   0   57.30   13.31
   9  -4   0   53.18   15.87
   5  -9   0   51.68   14.83
   9  -5   0   58.49   16.14
   4  -9   0   51.59   12.83
  -4  -5   1  505.14   25.21
  -5  -4   1  511.53   25.03
  -9   4  -1  506.42   30.63
  -9   5  -1  506.68   32.79
   9  -4   1  499.18   30.86
   9  -5   1  499.18   31.98
  -5  -4   1  490.80   33.73
  -4  -5   1  491.65   31.12
   5  -9  -1  501.30   33.70
  -5   9   1  497.22   27.82
   4  -9  -1  491.44   30.57
  -4   9   1  507.92   28.69
   5  -9  -1  499.22   30.79
   4  -9  -1  508.68   31.14
   4   5  -1  492.31   32.23
   5   4  -1  478.63   32.31
  -5   9   1  485.70   32.79
  -4   9   1  511.34   33.76
   4   5  -1  510.55   33.86
   5   4  -1  530.46   34.37
   9  -4   1  512.10   34.15
   9  -5   1  502.26   33.62
  -4  -5   1  522.88   25.35
  -4  -5   1  297.04   24.61
  -5  -4   1  491.53   33.38
  -4  -5   2  742.12   28.44
  -5  -4   2  743.51   27.40
  -9   4  -2  746.11   38.34
  -9   5  -2  813.96   40.78
   9  -4   2  802.60   38.82
   9  -5   2  786.65   39.47
  -5  -4   2  772.07   41.92
  -4  -5   2  728.82   38.10
   5  -9  -2  768.09   39.55
   4  -9  -2  735.31   37.42
  -5   9   2  765.19   33.54
  -4   9   2  776.54   33.45
   5  -9  -2  772.68   38.92
   4  -9  -2  758.96   37.46
   4   5  -2  791.90   40.85
   5   4  -2  757.59   40.83
  -5   9   2  766.59   41.14
  -4   9   2  799.88   41.90
   4   5  -2  750.60   40.94
   5   4  -2  793.65   41.82
   9  -4   2  685.91   39.48
   9  -5   2  821.32   42.52
  -4  -5   2  778.53   29.11
  -4  -5   2  573.47   33.81
  -5  -4   2  694.15   39.22
  -5  -4   3  113.19   19.10
  -9   5  -3  180.67   20.80
  -9   4  -3  167.31   20.25
   9  -4   3  189.63   19.69
   9  -5   3  193.33   21.28
  -5  -4   3  180.33   23.13
  -4  -5   3  149.57   19.22
   5  -9  -3  196.81   21.63
   4  -9  -3  183.35   20.22
  -5   9   3  180.92   16.64
  -4   9   3  185.23   16.49
   5  -9  -3  170.20   20.54
   4   5  -3  170.60   21.12
   4  -9  -3  179.49   19.82
   5   4  -3  207.62   23.27
  -5   9   3  191.26   21.67
  -4   9   3  188.89   21.31
   4   5  -3  189.30   21.89
   5   4  -3  175.85   20.83
   9  -4   3  163.62   20.77
   9  -5   3  184.27   21.54
  -4  -5   3  180.06   21.37
  -5   9   3  201.14   24.05
  -4   9   3  201.01   23.72
  -4  -5   4   74.42   15.08
  -5  -4   4  106.75   18.60
  -5   9   4   79.37   16.05
  -4   9   4   93.51   18.00
   9  -4   4  105.63   16.18
   9  -5   4   70.85   14.83
   5  -9  -4   66.88   15.07
  -9   4  -4   71.90   15.72
  -9   5  -4   84.93   16.55
   4  -9  -4   82.49   14.75
  -4  -5   4  144.76   20.70
  -5  -4   4   47.00   13.82
  -5   9   4   76.30   11.48
  -4   9   4   66.30   10.71
   4   5  -4   92.07   16.66
   5   4  -4   75.73   15.51
  -5   9   4   76.57   15.70
  -4   9   4   78.48   16.33
   4   5  -4  101.27   16.82
   5   4  -4   89.53   16.97
   9  -4   4   77.97   15.57
   9  -5   4   74.48   15.60
   5  -9  -4   83.31   17.45
   4  -9  -4   91.61   17.54
  -4  -5   5   10.13    9.90
  -5  -4   5   24.14   14.02
  -5   9   5    8.41   12.50
  -4   9   5   11.69   10.44
   9  -4   5    7.91    8.93
   9  -5   5   11.65    9.98
   5  -9  -5    5.36    9.67
  -9   4  -5   10.32   10.53
  -9   5  -5   14.25   11.66
   4  -9  -5    6.75    9.27
  -5  -4   5   27.01   12.96
  -4  -5   5    9.04   11.39
   4   5  -5    2.30   11.53
   5   4  -5   15.18   11.71
  -5   9   5   13.78    9.31
  -4   9   5   11.70   10.25
   4   5  -5    8.51    9.41
   5   4  -5   13.62   10.64
   9  -4   5   14.46   11.20
   9  -5   5   17.50   10.86
   5  -9  -5   -0.37    9.85
   4  -9  -5    9.19   11.38
  -9   4  -6  199.12   22.97
  -9   5  -6  178.38   22.26
  -5  -4   6  246.64   25.38
  -4  -5   6  204.15   23.08
   5  -9  -6  193.36   21.08
   9  -4   6  212.83   20.21
   9  -5   6  192.29   20.31
   4  -9  -6  196.50   20.35
   4   5  -6  217.30   24.70
   5  -9  -6  206.26   23.91
   5   4  -6  200.46   24.17
   4  -9  -6  203.51   23.12
  -5   9   6  203.26   22.28
  -4   9   6  201.63   22.30
   4   5  -6  206.06   22.80
   5   4  -6  195.69   22.46
   9  -4   6  183.02   21.96
   9  -5   6  193.81   22.42
  -5   9   6  174.35   22.42
  -4   9   6  212.75   24.68
  -4  -5   6  203.72   23.06
  -5  -4   6  192.75   22.82
  -4  -5   7    1.79   11.37
  -5  -4   7    6.32   11.22
  -5   9   7    6.36   12.35
  -4   9   7    9.61   11.73
   5  -9  -7    0.58    9.21
  -9   4  -7  -10.04   11.30
  -9   5  -7    9.53   11.97
   4  -9  -7   18.77   10.13
   9  -4   7    1.56    7.80
   9  -5   7    8.92    9.01
  -5  -4   7   12.89   12.13
  -4  -5   7   -4.41   11.58
   4   5  -7   10.83   12.43
   5   4  -7   11.41   13.71
  -5   9   7   20.16   11.86
  -4   9   7   15.34   11.71
   4   5  -7    4.01   10.07
   5   4  -7   -2.67    9.48
   9  -4   7    7.65   11.12
   9  -5   7   39.32   14.10
   5  -9  -7    4.45   10.78
   4  -9  -7   11.52   12.02
  -4  -5   8    3.18   11.42
  -5  -4   8    3.79   12.04
  -5   9   8    3.67   11.13
  -4   9   8    3.90   10.47
   5  -9  -8    3.69    9.63
   4  -9  -8    3.65    8.43
  -9   4  -8    3.98   10.71
  -9   5  -8    3.19   11.12
   9  -4   8    3.03    7.38
   9  -5   8    3.06    8.98
  -5  -4   8    3.11   10.41
  -4  -5   8    3.07   11.04
   4   5  -8    3.58    9.73
   5   4  -8    3.09   11.70
  -5   9   8    3.68   11.77
  -4   9   8    3.82   12.06
   4   5  -8    3.78    9.98
   5   4  -8    3.54   10.50
   9  -4   8    3.51   11.88
   9  -5   8    3.79   10.66
   5  -9  -8    3.43    9.79
   4  -9  -8    3.28   11.72
  -4  -5   9   57.01   13.46
   5  -9  -9   59.60   12.72
   9  -5   9   52.78   12.45
  -5  -4   9   57.50   14.84
  -4  -5   9   55.85   15.47
  -5   9   9   50.54   14.26
  -4   9   9   57.74   13.31
   4   5  -9   54.57   12.65
   5   4  -9   54.01   13.38
   9  -4   9   58.72   14.30
   9  -5   9   52.45   13.99
   4  -9  -9   53.01   17.65
   5  -9 -10  314.67   26.27
  -5   9  10  316.47   28.47
  -4   9  10  320.46   29.42
   4   5 -10  314.41   27.38
   5   4 -10  316.99   27.68
   9  -4  10  322.24   27.40
   9  -5  10  320.32   26.62
  -5   9  11  264.21   25.52
  -4   9  11  231.56   24.00
   4   5 -11  235.19   24.11
   5   4 -11  233.84   24.29
   9  -4  11  225.62   23.84
   9  -5  11  273.19   25.80
   9  -3 -11   26.94   12.85
   3   6  11   21.03   11.34
   6   3  11   18.76   11.35
  -9   3  11    6.74   10.39
  -9   6  10   50.56   14.66
  -9   3  10   30.97   14.08
  -6   9 -10   44.73   17.98
  -9   3  10   44.19   13.52
   9  -3 -10   37.81   14.28
  -6   9 -10   55.24   14.54
  -3   9 -10   68.99   15.48
   3   6  10   51.38   13.91
   6   3  10   56.00   13.80
   9  -3 -10   50.00   14.80
   9  -6 -10   50.27   13.94
  -9   3  10   40.05   13.13
  -9   6   9    6.23   13.35
  -9   3   9    6.07   15.52
  -3  -6  -9    6.27   13.33
  -6  -3  -9    6.57   13.83
  -6   9  -9    6.86   18.62
  -9   3   9    6.01   12.07
   9  -3  -9    6.96   11.17
  -6   9  -9    6.02   11.34
  -3   9  -9    6.50   13.04
   3   6   9    6.44   13.01
   6   3   9    6.32   13.09
   9  -6  -9    6.72   12.83
   9  -3  -9    6.83   11.42
   9  -6  -9    6.47   11.89
  -9   3   9    6.15   11.12
  -6  -3  -8  643.31   39.43
  -6   9  -8  572.08   39.54
   3   6   8  583.08   39.79
   6   3   8  597.27   40.10
  -9   3   8  639.53   39.26
   9  -6  -8  605.15   39.45
  -3   9  -8  634.50   41.00
   6  -9   8  629.38   40.99
  -6   9  -8  593.29   37.15
   9  -3  -8  599.73   37.86
  -3   9  -8  633.91   38.41
   3  -9   8  637.79   40.95
   3   6   8  625.94   38.17
   6   3   8  599.87   37.64
   9  -3  -8  638.26   38.51
  -3  -6  -8  668.86   40.38
   9  -6  -8  611.35   37.75
  -9   3   8  630.72   35.09
  -9   6   8  567.44   35.65
  -9   3   8  716.27   42.77
  -9   6   7   14.87    9.93
  -9   6   7  -33.67   17.35
  -9   3   7  -50.26   24.80
  -3  -6  -7   39.66   13.55
  -6  -3  -7   13.74   11.76
  -6   9  -7   32.69   18.28
  -9   3   7  -21.27   17.80
   3   6   7   29.85   13.35
   6   3   7   15.66   12.32
   6  -9   7    9.52   10.40
   3  -9   7   20.32   12.68
  -3   9  -7   18.73   11.54
   9  -3  -7   14.93   11.73
  -6   9  -7   18.55   10.93
  -3   9  -7   19.73   12.07
   3   6   7   17.28   11.81
   6   3   7   19.55   12.26
   9  -6  -7   24.42   12.41
   9  -3  -7   10.45   10.15
   9  -6  -7   22.17   11.74
  -9   3   7   25.13   10.02
   9  -6  -7   15.92   11.50
  -9   6   6    2.53    8.21
  -9   6   6  -14.65   14.83
  -9   3   6    3.13   17.24
   3   6   6   13.31    8.79
  -3  -6  -6   22.23   13.09
  -6  -3  -6    5.34    9.78
  -6   9  -6   21.65   15.50
  -9   3   6    9.02   14.44
  -9   6   6   44.45   12.14
   6  -9   6    6.02   10.28
   3   6   6   21.29   14.06
   6   3   6   24.26   13.71
   3  -9   6   11.60   12.08
  -3   9  -6   -0.96   10.54
   9  -3  -6    2.76   10.61
   6   3   6    5.90    8.93
  -6   9  -6    1.75    9.85
  -3   9  -6   -0.46    8.76
   3   6   6    1.92    9.49
   9  -6  -6    7.40    9.93
   6   3   6    3.53    9.12
   9  -3  -6   15.13   10.53
   9  -6  -6   10.65    9.15
  -9   3   6    5.74    7.60
   9  -6  -6    9.01   12.60
   9  -6  -5   29.44   15.16
  -9   6   5   20.67   10.60
  -9   6   5   22.77   17.32
  -9   3   5   29.53   20.68
  -3  -6  -5   27.82   16.14
   3   6   5   22.77   11.84
  -3  -6  -5   24.24   14.39
  -6  -3  -5   22.79   13.80
  -6   9  -5   22.14   18.62
   6  -9   5   22.10   14.55
  -9   3   5   24.50   20.18
  -9   6   5   23.81   12.09
   3  -9   5   24.14   12.21
  -3   9  -5   27.74   11.68
   3   6   5   27.86   11.68
   6   3   5   27.75   13.50
   9  -3  -5   22.32   13.33
  -6   9  -5   21.25   13.94
  -3   9  -5   24.43   13.67
   3   6   5   23.96   13.95
   9  -6  -5   23.50   13.94
   6   3   5   23.36   13.53
   9  -3  -5   23.63   15.76
   9  -6  -5   23.19   13.95
  -6  -3  -4 1082.35   44.34
  -9   3   4 1185.34   40.38
  -6   9  -4 1103.90   51.47
  -9   6   4 1063.69   45.71
   9  -6  -4 1203.66   53.31
  -9   3   4 1044.19   48.47
  -9   6   4 1108.74   41.55
   6  -9   4 1149.54   44.61
   9  -6  -4 1140.32   51.07
   6  -9   4 1134.42   51.07
  -3   9  -4 1151.04   49.08
   3   6   4 1073.67   41.48
   3  -9   4 1150.01   49.96
   6   3   4 1144.27   47.55
  -6   9  -4 1112.45   49.54
   9  -3  -4 1191.06   51.55
  -3   9  -4 1073.91   48.81
   3   6   4 1205.30   51.52
   6   3   4 1161.73   51.15
   9  -3  -4 1193.48   51.85
  -3  -6  -4 1121.93   45.09
   9  -6  -4 1141.01   50.60
  -9   6   4 1075.50   42.09
  -3  -6  -4 1170.31   43.15
  -9   3   4 1134.09   52.91
  -9   6   4 1121.49   45.46
  -3  -6  -3    3.19   12.91
  -9   6   3    3.67    8.99
   9  -6  -3    3.68    9.73
  -9   3   3    4.27   18.08
  -9   6   3    4.14   15.37
  -3  -6  -3    3.96    9.57
  -6  -3  -3    3.67    9.03
  -9   3   3    3.73    9.95
  -9   6   3    3.67   14.01
  -6   9  -3    4.42   13.60
   6  -9   3    4.17   10.03
  -3  -6  -3    3.50   16.44
  -9   3   3    3.57   19.22
  -9   6   3    3.52   15.41
   3  -9   3    4.26   11.38
  -3   9  -3    4.35    9.05
   3   6   3    3.95    9.17
   6   3   3    4.36    9.16
   9  -3  -3    3.64   10.74
  -6   9  -3    4.40   10.39
  -3   9  -3    3.85   10.72
   9  -6  -3    4.46   11.17
   6  -9   3    4.19    8.68
   3   6   3    4.63   11.63
   6   3   3    4.77   11.12
   3  -9   3    4.45    7.30
   9  -3  -3    4.05   10.48
   9  -6  -3    4.26   11.09
  -3  -6  -2  -31.55   15.94
  -9   6   2    1.20    7.14
  -6  -3  -2   16.73   17.06
  -9   3   2   18.56   18.12
   9  -6  -2   17.69   13.96
  -3  -6  -2    4.02    7.58
  -6  -3  -2   12.42    8.54
  -9   3   2   46.63   13.37
  -9   6   2   13.14   14.58
  -6   9  -2   -5.37   15.11
   6  -9   2    1.54    9.90
  -3  -6  -2   50.90   15.10
   3  -9   2    3.18    8.75
  -3   9  -2   -5.87    9.57
   3   6   2    2.90    8.21
   6   3   2   -0.21   10.32
  -6   9  -2    5.46   10.43
  -3   9  -2    4.10   10.37
   9  -6  -2   -3.33   11.98
   3   6   2   -2.38   10.19
   6  -9   2   -9.01    9.42
   6   3   2    0.86    9.91
   9  -3  -2    9.48   10.98
   3  -9   2    8.48    7.98
   9  -6  -2   -0.48   10.43
  -3  -6  -1  -34.75   15.62
  -9   6   1    3.45    6.73
  -6  -3  -1   14.87   17.74
   9  -6  -1   -0.39   10.93
  -3  -6  -1    8.32    8.00
  -6  -3  -1    4.23    7.53
  -9   3   1   10.03    9.48
  -9   6   1   22.24   16.39
   6  -9   1   -0.55   10.73
  -3  -6  -1   17.79   12.95
   3  -9   1    1.74    8.46
  -3   9  -1   10.25    9.40
   3   6   1   -2.33    8.94
   6   3   1    1.62   10.51
  -6   9  -1    8.73    9.58
  -3   9  -1    9.48   11.02
   3   6   1   -1.96    9.17
   6   3   1    3.46    9.92
   6  -9   1    4.25    9.21
   9  -3  -1   -1.81    9.67
   9  -6  -1   12.88   12.07
   3  -9   1    7.47    7.39
   9  -3  -1   17.40   11.44
  -6  -3   0  909.32   33.99
  -9   3   0  920.23   39.47
  -9   6   0  885.51   43.39
   9  -3   0  997.82   42.88
   9  -6   0  918.44   44.86
  -3  -6   0  877.66   38.62
   6  -9   0  956.97   45.51
  -3   9   0  941.98   39.51
   6  -9   0  937.64   42.49
   3  -9   0  942.66   42.16
   3  -9   0  929.22   38.04
   3   6   0  934.97   42.20
   6   3   0  900.36   44.01
  -6   9   0  888.86   44.41
  -3   9   0  955.66   46.01
   3   6   0  946.51   45.83
   6   3   0  969.74   46.71
  -3  -6   0  915.73   34.19
   9  -3   0  908.08   45.04
   9  -6   0  956.97   46.25
  -9   6   0  940.38   34.14
  -3  -6   0 1010.01   41.13
  -3  -6   0  938.94   34.45
  -6  -3   0  934.54   46.86
  -3  -6   1   22.73    9.22
  -3  -6   1   22.13   11.79
   9  -3   1   22.51   10.33
  -6  -3   1   22.80   18.52
  -9   6  -1   22.66    8.26
  -3  -6   1   22.36    8.26
  -6   9   1   22.24   14.47
   9  -6   1   22.12   13.82
  -6  -3   1   23.01    8.02
  -9   3  -1   23.54   11.00
   6  -9  -1   23.87   13.32
  -9   6  -1   21.11   13.36
  -6  -3   1   27.56   20.05
  -3  -6   1   20.39   13.68
   3  -9  -1   29.79   11.05
  -3   9   1   22.18    9.94
   3   6  -1   25.11   11.34
   6   3  -1   27.90   13.13
  -6   9   1   29.95   11.54
  -3   9   1   28.80   13.54
   3   6  -1   24.32   13.50
   6   3  -1   25.10   13.72
   9  -3   1   26.49   11.71
   6  -9  -1   24.93   12.70
   9  -6   1   21.61   13.14
   3  -9  -1   24.69   11.52
  -3  -6   2   17.17    9.48
  -6  -3   2   11.39   15.84
   9  -3   2    9.79    9.42
  -6   9   2   23.00   13.12
   9  -6   2   21.21   12.13
   6  -9  -2   -0.67   10.56
  -9   3  -2   15.98   10.66
  -9   6  -2   69.14   17.30
   3  -9  -2   13.60    9.40
  -6  -3   2   74.99   20.86
  -3  -6   2  -32.42   16.84
  -3   9   2   13.40    8.19
   9  -3   2   20.37    8.63
  -3   9   2    8.80    6.76
   3   6  -2    8.97   10.47
   6   3  -2   25.56   12.49
  -6   9   2   -0.09   11.56
  -3   9   2   10.00   10.41
   3   6  -2   12.31   10.43
   6   3  -2   27.64   13.34
   9  -3   2   14.57   11.10
   6  -9  -2    9.04   11.14
   9  -6   2   10.18    9.96
   3  -9  -2    6.34    9.36
  -3  -6   2   14.91    8.67
  -3  -6   3    6.93    8.12
  -6  -3   3  -25.49   20.67
  -6   9   3   33.51   13.04
   9  -3   3   48.06   12.60
   9  -6   3   17.72   10.94
   6  -9  -3   39.66   13.31
  -9   3  -3   20.06   10.97
  -9   6  -3   86.29   18.19
   3  -9  -3    8.18    8.36
  -6  -3   3   43.04   17.84
  -3  -6   3   41.68   12.97
  -3   9   3   29.11    9.13
   9  -3   3   40.24    9.92
  -3   9   3   27.12    8.75
   3   6  -3   18.19   11.12
   6   3  -3   24.87   11.00
  -6   9   3   27.22   12.02
  -3   9   3   30.38   11.98
   3   6  -3   32.30   12.35
   6   3  -3   18.46   10.47
   9  -3   3   20.30   10.35
   9  -6   3   37.94   14.16
   6  -9  -3   21.03   12.43
   3  -9  -3   20.65   10.27
  -3  -6   3   18.81    9.68
  -9   3  -4  619.66   36.18
  -9   6  -4  668.34   39.53
  -3   9   4  627.99   29.62
   9  -3   4  637.01   30.31
  -6  -3   4  617.29   38.63
   9  -3   4  601.93   31.50
  -3  -6   4  669.32   36.10
   9  -6   4  616.08   36.46
   6  -9  -4  645.23   37.53
   3  -9  -4  614.86   32.47
   6  -9  -4  623.74   37.57
   3   6  -4  597.17   36.88
   6   3  -4  646.74   39.40
   3  -9  -4  576.08   34.27
  -6   9   4  658.04   38.87
  -3   9   4  603.11   37.10
   3   6  -4  650.90   38.40
   6   3  -4  606.38   37.21
   9  -3   4  660.26   38.99
   9  -6   4  626.26   37.94
  -3  -6   4  641.62   34.45
  -6   9   4  659.82   39.88
  -3  -6   4  626.06   35.17
  -3   9   4  617.83   38.78
  -6  -3   4  526.42   36.14
  -3  -6   5    0.24    9.50
  -6  -3   5    0.75   17.89
  -6   9   5    0.83   11.14
  -3   9   5    0.01   11.50
   9  -3   5    0.25    7.29
   6  -9  -5    0.17    9.20
   9  -6   5    0.16   10.72
  -9   3  -5    0.12    9.73
  -9   6  -5    0.91   10.46
   3  -9  -5    0.83    9.17
  -3   9   5    0.70    7.06
   9  -3   5    0.61    8.01
  -6  -3   5    0.20   20.58
  -3  -6   5    0.02   11.17
   3   6  -5    0.94   10.32
   6   3  -5    0.99    9.82
  -6   9   5    0.58   10.00
  -3   9   5    0.10    8.63
   3   6  -5    0.09   11.79
   6   3  -5    0.50   11.16
   9  -3   5    0.02   10.94
   9  -6   5    0.06   10.26
   6  -9  -5    0.17   10.74
   3  -9  -5    0.11    9.99
  -3  -6   5    0.72    9.74
  -3  -6   6   -7.79   10.81
  -3  -6   6   -1.98   11.02
  -6  -3   6   21.81   13.92
  -6   9   6   -3.80   11.71
  -3   9   6    7.59   12.69
   6  -9  -6    2.26    9.29
   9  -3   6    2.66    6.76
  -9   3  -6    3.96   10.93
  -9   6  -6    8.74   11.75
   9  -6   6   -8.41   10.08
   3  -9  -6    5.01    8.36
  -3   9   6    3.73    7.77
   9  -3   6   -4.69    7.87
  -6  -3   6   41.65   14.43
  -3  -6   6   -0.73    9.43
   3   6  -6    6.96   10.04
   6   3  -6   -4.94   10.77
  -6   9   6   -1.40   10.44
  -3   9   6    2.91    9.68
   3   6  -6    1.87   10.02
   6   3  -6   -5.46    9.82
   9  -3   6    5.79   10.05
   9  -6   6   -0.47    9.43
   6  -9  -6   -3.65   10.92
   3  -9  -6   17.48   11.89
   3  -9  -7   53.95   15.53
  -3  -6   7   25.84   12.43
  -3  -6   7   48.86   14.39
  -6  -3   7   45.32   14.97
  -6   9   7   43.26   14.59
  -3   9   7   65.51   17.19
   6  -9  -7   44.52   14.06
  -9   3  -7   58.70   15.04
  -9   6  -7   41.98   14.46
   9  -6   7   59.04   14.01
   9  -3   7   45.47   11.42
  -6  -3   7   71.77   17.90
  -3  -6   7   47.45   14.21
   3   6  -7   38.77   14.82
   6   3  -7   53.43   15.81
  -6   9   7   38.72   12.82
  -3   9   7   35.14   13.62
   3   6  -7   53.75   13.78
   6   3  -7   33.21   12.37
   9  -3   7   45.78   14.57
   9  -6   7   50.75   14.74
   6  -9  -7   36.33   13.02
  -9   3  -8  697.62   42.40
  -9   6  -8  723.02   43.96
   9  -3   8  689.73   35.18
   6  -9  -8  696.50   39.47
  -6  -3   8  676.03   41.95
  -3  -6   8  687.84   39.88
   9  -6   8  689.89   38.72
   3   6  -8  686.67   42.98
   6  -9  -8  771.14   45.12
   6   3  -8  725.26   43.85
   3  -9  -8  735.96   43.51
  -6   9   8  707.79   40.62
  -3   9   8  679.42   39.76
   3   6  -8  726.03   40.83
   6   3  -8  743.19   41.35
   9  -3   8  706.62   41.04
   9  -6   8  688.18   40.25
  -6   9   8  717.93   43.70
  -3   9   8  690.75   42.32
  -3  -6   8  715.92   41.93
  -6  -3   8  733.42   44.49
  -3  -6   8  729.00   41.57
  -3  -6   9   37.11   14.50
  -3  -6   9   37.60   14.70
   6  -9  -9   26.69   13.25
   9  -3   9    3.75    8.40
   9  -6   9   24.64   11.44
  -3  -6   9   23.20   12.29
  -6   9   9   37.96   13.86
  -3   9   9   26.06   13.38
   3   6  -9   27.91   12.82
   6   3  -9   24.26   12.22
   9  -3   9   16.84   11.62
   9  -6   9   33.43   14.06
   6  -9 -10   18.46   11.63
   9  -6  10   20.39   10.85
  -6   9  10   13.46   11.06
  -3   9  10    3.03    9.38
   3   6 -10   21.47   11.80
   6   3 -10    4.73    9.87
   9  -3  10   12.76   10.35
   9  -6  10   14.41   11.11
   6  -9 -11    0.39   10.29
   9  -6  11   -2.20    9.47
  -6   9  11   -0.21    8.93
  -3   9  11   -1.24    9.29
   9  -3  11   -4.76   10.33
   9  -6  11   16.04   11.34
  -7   9 -10   85.83   16.53
  -2   9 -10   62.39   15.58
   2   7  10   54.49   14.87
   7   2  10   72.08   15.99
   9  -2 -10   89.65   16.96
   9  -7 -10   87.90   17.19
  -9   7   9   80.43   17.13
   9  -2  -9   80.32   18.43
  -7   9  -9   56.29   14.52
  -2   9  -9   72.21   15.94
   2   7   9   75.05   16.66
   7   2   9   58.52   14.62
   9  -2  -9   81.46   17.29
   9  -7  -9   72.12   15.71
  -9   2   8   25.48   15.16
  -9   7   8    5.41    9.53
  -2  -7  -8   12.47   10.74
  -7  -2  -8   11.43   11.57
  -7   9  -8   43.79   21.21
  -9   2   8   25.84   15.08
   2   7   8   -3.80   11.64
   9  -2  -8   17.50   12.30
  -7   9  -8   -5.12    9.91
  -2   9  -8   16.20   12.21
   2   7   8    7.43   10.92
   7   2   8    5.44    9.62
   9  -2  -8    8.97    9.81
   9  -7  -8    3.01   10.71
   9  -7  -7  106.57   21.01
  -9   2   7  -10.78   23.67
  -9   7   7   69.91   15.72
   2   7   7   65.56   14.11
  -2  -7  -7   84.81   17.62
  -7  -2  -7   78.48   16.45
  -7   9  -7  147.72   25.99
  -9   2   7   -1.52   20.16
   7  -9   7   92.08   18.15
   2   7   7   82.54   19.21
   7   2   7   88.62   19.08
   2  -9   7   81.32   17.17
  -2   9  -7   62.94   16.72
   9  -2  -7  102.93   19.30
  -7   9  -7   89.46   17.71
  -2   9  -7   68.01   15.97
   2   7   7   96.61   17.98
   7   2   7   82.19   17.73
   9  -7  -7   58.94   15.97
   9  -2  -7   86.85   17.84
   9  -7  -7   89.83   17.94
  -7  -2  -6  697.46   39.26
  -7   9  -6  677.90   43.60
   9  -7  -6  680.76   42.29
   2   7   6  713.50   42.19
   7   2   6  688.82   41.80
  -9   2   6  573.80   39.04
   9  -7  -6  727.56   43.71
   7  -9   6  692.56   42.08
  -2   9  -6  705.84   42.22
  -7   9  -6  738.10   41.97
   9  -2  -6  738.66   43.19
  -2   9  -6  740.35   41.90
   2   7   6  729.62   41.66
   2  -9   6  710.62   41.82
   7   2   6  727.62   41.74
  -2  -7  -6  714.28   40.19
   9  -2  -6  725.71   42.16
   9  -7  -6  684.99   40.76
  -9   7   6  684.22   38.22
   2   7   6  696.20   35.91
  -9   2   6  641.56   42.37
  -7  -2  -5  277.19   25.45
  -7   9  -5  370.30   32.00
   9  -7  -5  272.02   28.51
   2   7   5  274.81   27.71
   7   2   5  272.65   27.66
  -9   2   5  269.76   30.19
   9  -7  -5  271.92   27.43
   7  -9   5  272.13   27.52
  -2   9  -5  275.52   27.94
  -7   9  -5  268.11   27.60
   9  -2  -5  272.89   28.54
   7   2   5  274.76   26.94
  -2   9  -5  276.47   27.87
   2  -9   5  268.71   27.60
   2   7   5  275.96   27.29
   7   2   5  266.24   26.55
  -2  -7  -5  269.84   24.81
   9  -2  -5  268.03   28.51
   9  -7  -5  269.82   27.76
  -9   7   5  268.38   25.59
   2   7   5  268.26   24.03
  -9   2   5  273.04   32.49
  -7  -2  -4  436.54   29.44
  -7   9  -4  410.02   34.25
  -9   7   4  393.34   31.22
   9  -7  -4  412.65   32.76
  -2  -7  -4  479.84   27.45
  -9   2   4  519.43   38.38
   7  -9   4  425.70   32.63
   9  -7  -4  458.87   34.65
  -2   9  -4  417.84   31.14
   2   7   4  418.04   26.17
  -7   9  -4  423.95   31.97
   9  -2  -4  454.29   34.17
   7   2   4  359.48   29.05
   2  -9   4  424.77   31.64
  -2   9  -4  463.73   33.36
   2   7   4  496.55   34.45
   7   2   4  437.01   32.73
  -2  -7  -4  392.50   28.02
   9  -2  -4  457.53   33.47
   9  -7  -4  446.22   33.16
  -9   7   4  410.67   27.86
  -9   2   4  528.78   40.02
  -9   7   4  465.20   29.60
  -7  -2  -3  300.12   23.68
  -7   9  -3  323.01   31.40
  -9   7   3  275.07   27.09
   9  -7  -3  313.13   29.01
  -9   2   3  360.26   33.41
  -2  -7  -3  285.24   22.12
   7  -9   3  290.73   27.55
   7  -9   3  308.50   26.06
   9  -7  -3  299.87   28.11
  -2   9  -3  353.53   28.15
   2   7   3  308.15   23.42
  -7   9  -3  322.32   28.59
   7   2   3  314.10   27.31
   2  -9   3  311.08   26.68
   9  -2  -3  291.61   27.63
  -2   9  -3  308.08   27.71
   2   7   3  303.88   27.65
  -2  -7  -3  311.27   23.86
   7   2   3  285.83   26.82
   9  -2  -3  314.23   28.32
   9  -7  -3  291.22   26.86
  -9   7   3  306.73   24.05
  -9   2   3  308.83   32.33
  -9   7   3  286.86   24.71
  -7  -2  -2  624.59   32.02
  -9   2   2  625.41   30.23
  -9   7   2  651.06   39.60
  -7   9  -2  593.03   39.87
   9  -7  -2  654.31   39.74
  -2  -7  -2  585.37   29.76
   7  -9   2  613.40   38.44
   9  -7  -2  646.55   39.52
   7  -9   2  592.25   35.26
  -2   9  -2  620.38   35.50
   2   7   2  626.27   33.68
   2  -9   2  614.67   35.07
   7   2   2  659.06   38.80
  -7   9  -2  626.16   38.73
   9  -2  -2  610.27   38.52
  -2   9  -2  683.26   40.12
   2   7   2  643.37   39.01
  -2  -7  -2  607.72   31.44
   7   2   2  662.14   39.89
   9  -2  -2  594.99   37.89
   9  -7  -2  628.91   38.92
  -9   7   2  580.57   31.65
  -9   2   2  631.50   42.69
  -7  -2  -2  625.05   42.11
  -2  -7  -1   17.84   10.80
  -7  -2  -1   17.82   13.40
  -9   7   1   17.13    9.38
  -2  -7  -1   17.12    9.57
   9  -7  -1   17.19   11.74
  -7  -2  -1   17.32   10.44
  -9   2   1   17.78   10.84
   7  -9   1   17.41   15.08
  -9   7   1   17.32   20.16
  -7   9  -1   17.59   15.42
  -2  -7  -1   17.63   11.26
   2  -9   1   17.42   11.48
  -2   9  -1   17.59   12.47
   2   7   1   17.15   12.46
   7   2   1   17.65   13.45
   9  -2  -1   17.65   13.77
  -7   9  -1   17.03   13.18
  -2   9  -1   17.65   13.59
   9  -7  -1   17.27   14.70
   2   7   1   17.57   13.95
   7  -9   1   17.63   13.84
   7   2   1   17.86   13.83
   9  -2  -1   17.28   11.58
   9  -7  -1   17.85   14.12
   2  -9   1   17.83   10.26
  -2  -7   0   -4.11    7.77
  -7  -2   0   48.86   21.81
  -9   7   0   11.77    8.49
  -2  -7   0   -2.54    6.82
  -7   9   0   21.21   12.31
   9  -7   0   -3.48   10.66
  -7  -2   0    3.04    7.00
   7  -9   0    5.91   10.96
  -9   2   0    1.65    8.24
  -9   7   0   33.54   17.53
  -2  -7   0  -28.35   13.44
   2  -9   0    7.97    8.64
  -2   9   0   -1.22    8.09
   2   7   0    9.55    9.94
   7   2   0    5.16    9.51
  -7   9   0   -6.24   10.29
  -2   9   0   -4.96    9.61
   2   7   0   11.17   10.75
   7  -9   0   11.22   11.47
   7   2   0   15.32   11.75
   9  -2   0   10.65   11.42
  -2  -7   0    1.39    6.51
   9  -7   0   -6.70    9.90
   2  -9   0   -0.06    7.33
   9  -2   0   13.13   10.33
   9  -2   1   32.47   13.11
  -2  -7   1   38.79   11.85
  -7  -2   1   32.06   23.11
  -9   7  -1   33.21   11.47
  -7   9   1   30.36   13.21
   9  -7   1   39.20   15.56
   7  -9  -1   32.23   14.09
  -9   2  -1   32.76   12.83
  -9   7  -1   39.60   20.35
  -7  -2   1   39.06   21.00
  -2  -7   1   32.60   13.72
   2  -9  -1   33.36   12.40
  -2   9   1   31.40   12.29
   2   7  -1   30.09   13.15
   7   2  -1   33.29   15.24
  -7   9   1   37.87   14.63
  -2   9   1   37.94   14.39
   2   7  -1   34.52   14.91
   7   2  -1   35.37   15.36
   7  -9  -1   36.10   14.43
   9  -2   1   30.44   15.35
  -2  -7   1   37.78   12.74
   9  -7   1   38.36   15.76
   2  -9  -1   33.82   13.86
  -2  -7   2   99.83   15.29
  -7  -2   2   79.59   21.94
   9  -2   2   78.36   13.68
  -9   7  -2   73.86   12.27
  -7   9   2   89.77   16.78
   9  -7   2   96.12   17.59
   7  -9  -2   84.35   17.58
  -9   2  -2   88.65   15.15
  -9   7  -2   62.31   18.48
  -7  -2   2  164.23   26.24
  -2  -7   2   91.72   14.11
   2  -9  -2   71.24   13.01
  -2   9   2   90.42   13.63
   2   7  -2   89.79   16.60
   7   2  -2  106.27   19.08
  -7   9   2   97.38   17.73
  -2   9   2   90.84   17.64
   2   7  -2   76.57   15.44
   7   2  -2  105.50   18.82
   9  -2   2   74.65   16.22
   7  -9  -2   97.72   17.18
  -2  -7   2   88.08   13.86
   9  -7   2   92.93   17.75
   2  -9  -2   86.12   14.54
  -9   2  -3  393.17   28.88
  -9   7  -3  353.65   31.50
   9  -2   3  392.39   25.46
  -2   9   3  369.82   25.51
   9  -2   3  336.65   24.97
  -7  -2   3  407.41   34.00
  -2  -7   3  344.99   24.46
   7  -9  -3  368.82   30.16
   9  -7   3  359.97   29.59
   7  -9  -3  418.07   31.77
  -2   9   3  364.28   23.10
   2   7  -3  380.73   29.68
   2  -9  -3  337.98   24.21
   7   2  -3  370.09   30.94
   2  -9  -3  364.11   26.65
  -7   9   3  407.17   31.50
  -2   9   3  339.72   28.69
   2   7  -3  359.44   30.33
   7   2  -3  347.68   29.11
   9  -2   3  398.40   31.44
   9  -7   3  400.64   31.15
  -2  -7   3  324.44   24.83
  -2  -7   3  404.64   27.32
  -7   9   3  374.40   30.38
  -7  -2   3  340.98   33.18
   2  -9  -4   28.84   12.38
  -2  -7   4   29.46   11.31
  -7  -2   4  -18.63   22.19
  -7   9   4   49.94   15.40
  -2   9   4   47.27   16.14
   9  -2   4   32.54   10.01
   7  -9  -4   32.01   12.63
   9  -7   4   23.38   12.57
  -9   2  -4   34.95   12.71
  -9   7  -4  103.99   20.75
  -7  -2   4   34.09   18.82
  -2   9   4   33.91   11.19
   9  -2   4   41.08   12.38
  -2  -7   4   14.43    9.80
   2  -9  -4   19.20    8.64
   2   7  -4   32.95   12.28
   7   2  -4   34.64   13.59
  -7   9   4   47.38   14.52
  -2   9   4   29.47   12.74
   2   7  -4   39.06   13.41
   7   2  -4   60.87   16.40
   9  -2   4   31.73   12.64
   7  -9  -4   52.60   15.29
  -2  -7   4   28.66   11.24
   9  -7   4   37.27   12.75
  -2  -7   5  153.19   18.78
  -7  -2   5   86.87   17.04
  -9   2  -5  213.87   23.64
  -9   7  -5  227.95   26.42
  -2   9   5  200.79   19.86
   9  -2   5  186.46   19.72
   7  -9  -5  153.36   21.09
  -2  -7   5  193.80   20.73
  -7  -2   5  191.83   24.72
   9  -7   5  181.66   22.41
   7  -9  -5  214.23   24.29
   2   7  -5  178.45   23.14
   2  -9  -5  171.89   22.01
  -7   9   5  194.58   23.07
  -2   9   5  176.35   22.34
   2   7  -5  173.05   22.06
   7   2  -5  195.81   23.57
   9  -2   5  206.11   23.73
   7   2  -5  163.55   22.83
   9  -7   5  198.42   23.21
  -2  -7   5  194.06   21.83
  -7   9   5  185.09   22.76
  -2   9   5  211.48   24.89
  -9   2  -6  666.29   39.35
  -9   7  -6  729.77   43.83
  -2   9   6  725.35   36.36
   9  -2   6  633.19   34.80
  -7  -2   6  578.83   39.07
   7  -9  -6  670.09   40.73
  -2  -7   6  657.19   36.14
   9  -7   6  671.99   39.99
   7  -9  -6  758.90   43.93
   2   7  -6  715.71   42.44
   7   2  -6  664.05   42.16
  -7   9   6  714.76   41.11
   2  -9  -6  718.04   40.95
  -2   9   6  689.13   40.27
   2   7  -6  684.77   40.37
   7   2  -6  699.81   41.06
   9  -2   6  704.33   41.40
   9  -7   6  709.04   40.92
  -2  -7   6  671.90   38.78
  -7   9   6  689.28   41.98
  -2  -7   6  671.27   37.94
  -2   9   6  697.43   42.11
  -7  -2   6  800.14   46.32
  -2  -7   7   14.86   10.86
   2  -9  -7   29.95   14.00
  -7  -2   7   45.59   17.75
  -7   9   7   24.81   14.33
  -2   9   7    6.60   11.75
   7  -9  -7   29.48   14.03
  -9   2  -7   14.66   12.03
  -9   7  -7   18.17   13.62
   9  -7   7   14.61   10.35
  -2   9   7    8.56    9.90
   9  -2   7    8.11    9.77
  -7  -2   7   35.15   16.08
  -2  -7   7    3.35   11.06
   2   7  -7   -6.30   12.37
   7   2  -7   14.04   13.18
  -7   9   7    9.87   10.93
  -2   9   7    8.40   10.05
   2   7  -7    0.49   11.23
   7   2  -7    9.47    9.97
   9  -2   7    4.21   10.40
   9  -7   7   20.61   12.36
   7  -9  -7    2.59   10.32
  -2  -7   7   13.27   10.83
  -2   9   8  170.77   22.64
   7  -9  -8  144.32   21.29
  -2   9   8  176.13   20.06
   9  -2   8  177.68   21.12
  -9   2  -8  165.52   23.20
  -2  -7   8  184.21   22.29
   9  -7   8  161.40   21.43
  -7   9   8  164.31   21.25
   2  -9  -8  200.36   24.35
  -2   9   8  178.12   22.20
   2   7  -8  167.29   21.71
   7   2  -8  181.89   22.86
   9  -2   8  184.38   23.07
   9  -7   8  165.04   21.46
  -2  -7   8  160.06   22.06
  -2  -7   8  165.28   21.69
   7  -9  -9   60.94   16.22
  -2   9   9   59.75   15.05
   9  -2   9   42.75   12.77
   9  -7   9   55.93   13.94
  -2  -7   9   58.34   15.03
  -7   9   9   39.07   13.62
  -2   9   9   66.69   16.13
   2   7  -9   44.85   13.55
   7   2  -9   67.15   16.13
   9  -2   9   60.97   15.75
   9  -7   9   67.76   16.17
  -2  -7   9   53.29   15.50
  -2   9  10  355.16   29.05
   9  -2  10  364.29   29.98
   7  -9 -10  404.59   34.02
  -2  -7  10  370.84   31.34
   9  -7  10  352.52   30.32
  -7   9  10  386.13   31.06
  -2   9  10  356.80   30.01
   2   7 -10  370.20   30.56
   7   2 -10  363.31   30.53
   9  -2  10  399.36   32.11
   9  -7  10  396.23   31.37
   1   8   9   61.71   12.93
  -8   9  -9   61.57   13.69
  -1   9  -9   62.27   15.02
   1   8   8    9.45   11.03
  -8   9  -8   13.85   12.31
  -1   9  -8   -1.27   10.66
   1   8   8    6.39   11.88
   8   1   8   -4.90   11.72
   9  -1  -8   -4.96   10.61
   9  -8  -8    6.27   10.68
  -9   8   7  101.67   18.11
  -1  -8  -7  102.01   17.98
   1   8   7  110.03   18.01
  -8  -1  -7  121.14   19.70
   1   8   7   87.02   18.13
   8   1   7  121.33   20.58
   1  -9   7  114.67   20.29
  -8   9  -7  116.56   18.92
  -1   9  -7  111.14   19.21
   1   8   7   91.14   16.75
   8   1   7  122.29   19.81
   9  -1  -7  132.12   20.34
   9  -8  -7   91.27   18.23
  -8  -1  -6  378.22   30.58
   1   8   6  328.03   29.74
   8   1   6  359.52   30.75
  -9   1   6  348.30   32.70
  -1   9  -6  377.89   32.13
  -8   9  -6  345.25   30.13
   9  -1  -6  343.29   32.09
  -1   9  -6  339.13   29.99
   1   8   6  392.15   32.67
  -1  -8  -6  336.73   28.59
   8   1   6  387.99   32.61
   1  -9   6  347.49   30.91
   9  -1  -6  372.66   31.70
  -9   8   6  337.06   28.95
   1   8   6  313.69   27.89
  -9   1   5   38.84   21.47
  -9   8   5   51.09   13.01
  -1  -8  -5   60.99   14.61
   9  -8  -5   46.92   16.21
   1   8   5   55.01   15.47
  -8  -1  -5   36.22   13.18
  -8   9  -5   62.12   21.46
   8  -9   5   46.10   14.80
  -9   1   5   76.11   22.13
   1   8   5   61.88   17.14
   8   1   5   80.06   17.24
   1  -9   5   58.92   14.73
  -1   9  -5   55.68   15.12
   9  -1  -5   63.24   17.07
  -8   9  -5   36.65   13.40
  -1   9  -5   41.21   13.33
   1   8   5   55.58   15.41
   9  -8  -5   69.81   17.83
   8   1   5   56.90   16.14
   9  -1  -5   66.83   16.74
  -9   1   4  190.62   28.39
  -9   8   4  139.92   18.97
   9  -8  -4  157.45   23.18
  -8  -1  -4  142.39   18.72
  -8   9  -4  173.57   26.70
   8  -9   4  148.13   21.74
  -9   1   4  195.19   27.01
   8   1   4  154.93   21.46
   1  -9   4  130.88   18.86
  -1  -8  -4  167.69   20.05
  -1   9  -4  152.88   20.45
   9  -1  -4  157.04   22.58
  -8   9  -4  156.61   21.61
  -1   9  -4  146.84   21.28
   1   8   4  127.26   19.91
   9  -8  -4  168.11   23.15
   8   1   4  165.99   22.51
   9  -1  -4  153.31   21.69
  -9   1   3  160.63   28.33
  -9   8   3  102.73   16.92
   9  -8  -3  133.98   21.49
  -8  -1  -3  128.46   17.53
  -8   9  -3  123.68   24.63
   8  -9   3  139.39   20.76
  -9   1   3  228.99   30.88
   1  -9   3  132.32   18.44
  -1  -8  -3  133.73   17.47
  -1   9  -3  112.22   18.17
   1   8   3  120.98   15.34
   9  -1  -3  127.38   20.34
   8   1   3  146.58   21.07
  -8   9  -3  124.35   19.44
  -1   9  -3  152.26   21.98
   1   8   3  142.56   20.77
   9  -8  -3  158.81   22.58
   8   1   3  129.61   20.07
   9  -1  -3  137.64   20.15
  -8  -1  -2  730.39   35.66
  -8   9  -2  767.33   45.43
  -9   8   2  788.08   44.78
  -9   1   2  837.65   49.35
   9  -8  -2  755.39   43.69
   8  -9   2  697.66   42.17
   8  -9   2  749.13   41.48
   9  -8  -2  734.39   43.23
  -1   9  -2  711.00   39.32
   1   8   2  764.16   36.91
  -8   9  -2  801.51   44.49
   9  -1  -2  742.99   43.64
   8   1   2  755.87   43.10
  -1   9  -2  756.92   43.57
  -1  -8  -2  725.76   35.11
   1   8   2  782.73   44.39
   1  -9   2  698.29   37.73
   8   1   2  766.48   44.14
   9  -1  -2  764.04   44.35
  -9   8   2  718.68   37.80
  -8   9  -2  728.18   39.74
  -9   1   2  804.95   48.80
  -9   1   1  190.58   27.80
  -8  -1  -1  193.45   29.58
  -8  -1  -1  203.77   19.21
  -9   1   1  219.46   18.75
  -9   8   1  203.19   26.30
  -8   9  -1  180.44   25.20
   9  -8  -1  221.54   25.94
   8  -9   1  203.59   24.07
   9  -8  -1  232.95   25.86
   8  -9   1  216.11   23.78
  -1   9  -1  224.12   22.42
   1   8   1  214.83   21.47
  -8   9  -1  232.99   25.77
   8   1   1  222.82   24.98
   9  -1  -1  249.18   26.52
  -1  -8  -1  237.72   19.90
  -1   9  -1  215.17   24.33
   1  -9   1  192.02   20.51
   1   8   1  247.09   26.52
   8   1   1  221.76   25.26
   9  -1  -1  197.91   24.57
  -9   8   1  197.37   20.46
  -8   9  -1  187.73   22.24
  -8  -1   0   11.07   27.26
  -9   8   0   11.52   11.23
  -8   9   0   11.80   13.42
   9  -8   0   11.82   15.43
   8  -9   0   11.80   14.85
  -9   1   0   11.71    9.92
  -9   8   0   11.36   19.98
  -8   9   0   11.18   19.81
   1  -9   0   11.59   10.64
  -1   9   0   11.73   12.44
   1   8   0   11.22   12.03
   8   1   0   11.25   11.95
   9  -1   0   11.75   12.09
  -1  -8   0   11.08   10.05
  -8   9   0   11.59   13.99
  -1   9   0   11.92   12.12
   9  -8   0   11.68   14.95
   1   8   0   11.80   13.84
   8  -9   0   11.83   14.41
   8   1   0   11.26   12.68
   9  -1   0   11.38   14.51
  -9   1  -1  245.52   21.69
  -9   8  -1  259.73   29.95
   9  -1   1  255.31   21.63
   9  -8   1  238.83   25.71
   8  -9  -1  258.01   26.52
   8  -9  -1  254.64   25.98
  -1   9   1  227.42   21.54
   1   8  -1  219.35   22.85
   1  -9  -1  240.98   20.44
   8   1  -1  238.69   25.59
  -8   9   1  238.98   25.84
   9  -1   1  249.41   26.53
   1  -9  -1  228.78   20.59
  -1   9   1  215.65   24.34
   1   8  -1  220.18   25.06
   8   1  -1  241.54   25.55
   9  -1   1  231.55   25.86
  -1  -8   1  242.00   21.05
  -9   8  -1  211.36   20.58
  -8   9   1  249.00   25.13
  -8  -1   1  323.77   34.51
  -9   1  -2  254.57   22.83
  -9   8  -2  248.41   29.17
   9  -1   2  202.60   19.49
  -8  -1   2  289.77   33.06
   8  -9  -2  215.30   25.34
   9  -8   2  190.18   23.74
   8  -9  -2  224.98   25.09
  -1   9   2  235.50   21.09
   1   8  -2  226.76   24.09
   8   1  -2  221.12   25.79
   1  -9  -2  226.74   21.17
  -8   9   2  232.93   25.78
   1  -9  -2  226.87   20.35
  -1   9   2  219.00   25.21
   1   8  -2  239.51   26.10
   8   1  -2  230.02   25.38
   9  -1   2  220.94   25.43
  -1  -8   2  202.77   20.91
  -8   9   2  192.88   23.01
  -9   8  -2  232.29   21.37
  -8  -1   2  248.40   32.13
  -9   1  -3  238.17   22.61
  -9   8  -3  238.80   27.49
  -1   9   3  238.52   24.03
   9  -1   3  238.45   23.41
  -8  -1   3  238.05   35.04
   8  -9  -3  238.75   25.71
  -1  -8   3  238.75   18.76
   9  -8   3  238.32   24.41
   8  -9  -3  237.86   25.66
   1   8  -3  239.71   25.19
   8   1  -3  231.98   25.73
  -8   9   3  235.89   26.20
   1  -9  -3  237.02   23.49
  -1   9   3  232.45   25.69
   1   8  -3  238.78   26.01
   8   1  -3  238.60   26.06
   9  -1   3  238.66   24.70
  -1  -8   3  237.00   22.62
  -8   9   3  237.38   25.59
  -1  -8   3  237.27   21.56
  -9   8  -3  238.90   20.85
  -8  -1   3  237.60   31.00
   1  -9  -4   17.15   11.10
  -8  -1   4   -6.46   20.41
  -8   9   4   -2.71   11.84
  -1   9   4   39.22   14.77
   8  -9  -4   17.65   12.20
  -9   1  -4   14.71   10.51
   9  -8   4   10.48   12.73
  -9   8  -4   24.28   18.56
  -8  -1   4   17.37   17.13
  -1   9   4   13.48   10.88
   9  -1   4   13.86   12.96
  -1  -8   4    6.15    9.54
   1   8  -4    5.54   10.81
   8   1  -4   16.74   15.07
  -8   9   4    5.74    9.92
  -1  -8   4   16.09   10.09
  -1   9   4   10.10   12.66
   1   8  -4    8.38   10.87
   8   1  -4    6.27   11.03
   9  -1   4    9.90   10.08
   8  -9  -4    8.40   12.31
  -1  -8   4    3.86    9.09
   1  -9  -5   24.24   13.03
  -8   9   5   23.02   13.47
  -1   9   5   53.48   16.40
   8  -9  -5   17.90   12.18
  -9   1  -5   30.40   13.94
  -9   8  -5   14.73   17.16
   9  -8   5   26.08   11.71
  -8  -1   5   -9.60   17.65
  -1   9   5   15.03   11.01
   9  -1   5   26.49   14.19
  -1  -8   5   14.62    8.96
   1   8  -5   19.48   13.80
   8   1  -5   33.49   14.29
  -8   9   5   32.77   13.82
  -1  -8   5   36.48   13.67
  -1   9   5   17.36   11.85
   1   8  -5   22.14   13.11
   8   1  -5   25.44   13.38
   9  -1   5   33.22   14.52
   8  -9  -5   29.93   13.47
  -1  -8   5   22.34   10.64
  -9   1  -6  329.60   29.24
  -1   9   6  330.45   27.81
   9  -1   6  317.41   27.84
   8  -9  -6  312.31   30.55
  -1  -8   6  328.58   25.31
   9  -8   6  355.50   31.25
   1   8  -6  358.08   31.74
  -8   9   6  340.75   30.59
   1  -9  -6  310.36   28.48
  -1   9   6  349.39   30.70
   1   8  -6  329.37   29.52
   8   1  -6  361.09   30.83
   9  -1   6  375.12   32.10
  -1  -8   6  318.91   29.12
  -8   9   6  345.34   30.75
  -1  -8   6  322.18   26.60
  -1   9   6  313.42   29.66
   1  -9  -7   44.41   14.79
  -1   9   7   28.78   12.73
  -9   1  -7   38.43   12.84
   9  -8   7   33.85   13.38
  -1   9   7   27.95   12.01
   9  -1   7   18.30   11.86
  -1  -8   7   22.08   11.37
  -8   9   7   45.81   14.55
  -1   9   7   50.99   14.44
   1   8  -7   40.22   13.58
  -1  -8   7   44.06   14.66
   8   1  -7   58.83   15.72
   9  -1   7   31.51   13.25
   9  -8   7   24.13   12.25
  -1  -8   7   35.22   12.52
  -1   9   8  172.05   22.96
   9  -1   8  187.01   22.72
  -1  -8   8  193.05   21.89
  -1   9   8  168.01   21.56
  -8   9   8  183.52   23.59
  -1   9   8  190.62   23.78
   1   8  -8  174.24   23.37
   8   1  -8  170.15   22.82
   9  -1   8  157.00   22.32
   9  -8   8  178.67   23.14
  -1   9   9  248.60   25.51
   9  -1   9  230.91   25.20
  -1  -8   9  238.85   24.75
   1   8  -9  235.53   25.26
  -9   9   0 2062.73   73.65
   9  -9   0 2068.58   71.78
   0   9   0 2069.10   62.66
   9   0   0 2062.57   72.17
  -9   9   0 2062.44   62.49
  -9   9   1    4.42   13.54
  -9   9  -1    4.81   12.68
  -9   9  -1    4.06   17.92
  -9   9   1    4.13   17.10
   0   9  -1    4.13   13.89
   0   9   1    4.05   12.56
   0  -9   1    4.54   12.00
   9   0   1    4.00   13.52
   9  -9   1    4.76   15.65
   9  -9  -1    4.50   15.28
  -9   9   2    4.33   11.14
  -9   9  -2    4.13   11.30
  -9   0  -2    4.81    9.96
   0   9  -2    4.27   12.03
   0   9   2    4.94    9.53
   0  -9   2    4.78   12.59
   9   0   2    4.62   12.99
   9  -9  -2    4.89   11.34
   0  -9  -3    4.72    8.92
  -9   9   3    4.92   11.43
  -9   9  -3    4.95   10.56
  -9   0  -3    4.83   10.09
   0   9  -3    4.49   12.89
   0  -9   3    4.04    9.72
   0  -9  -4  148.27   20.16
  -9   9   4  131.05   19.57
  -9   9  -4  121.50   18.18
   0   9   4  150.34   22.10
  -9   0  -4  141.19   19.83
   0   9   4  117.87   19.53
   9   0   4  143.44   21.04
   0   9  -4  134.11   20.90
   0  -9   4  125.13   18.91
   0  -9  -5    4.62   10.17
  -9   9   5  -10.17   11.40
   0   9   5   16.34   12.89
  -9   0  -5    5.50   11.11
   0   9   5   16.00   12.81
   9   0   5  -11.84   11.71
   0  -9   5    1.95   10.45
   0  -9  -6    8.73   10.77
   0   9   6    7.94   11.11
  -9   0  -6   -0.05   10.76
   0   9   6   -1.20   11.26
   9   0   6   -0.05   10.45
   0  -9   6   10.87   11.60
   0   9   7   -5.99   10.85
   0   9   7   14.61   12.30
 -10   5   9   32.49   14.16
  -5  10  -9  -14.32   16.92
 -10   5   8  138.54   20.00
 -10   5   8  186.33   23.78
  -5  -5  -7   33.39   18.16
  -5  -5  -7    5.61   11.06
  -5  -5  -7    4.98   10.46
 -10   5   7   15.58   13.75
  -5  10  -7   -2.00    9.51
   5   5   7  -15.30   12.59
  10  -5  -7    5.02   10.15
 -10   5   6  102.50   21.21
  -5  -5  -6  140.71   23.50
  -5  -5  -6  101.14   17.86
  -5  -5  -6  121.30   19.52
 -10   5   6   42.23   13.97
  -5  10  -6  105.76   18.83
  -5  10  -6  103.83   18.10
   5   5   6  102.80   18.66
  10  -5  -6   93.36   18.17
 -10   5   5   19.62   18.92
  -5  -5  -5   31.13   18.18
  -5  -5  -5    3.82   11.44
  -5  -5  -5   15.25   11.52
 -10   5   5   -6.12   14.16
   5 -10   5    2.20   11.29
  -5  10  -5    4.65   10.97
   5   5   5   14.35   10.57
  -5  10  -5    1.85   10.42
   5   5   5   22.69   12.64
  10  -5  -5    7.48   11.92
  10  -5  -5   19.00   14.92
  -5  -5  -4  610.41   36.00
 -10   5   4  614.88   35.14
  10  -5  -4  602.30   40.12
 -10   5   4  601.09   37.47
  -5  10  -4  613.24   38.34
   5 -10   4  620.17   40.06
   5   5   4  589.08   35.24
  -5  10  -4  594.60   38.93
   5   5   4  644.40   40.55
  10  -5  -4  624.86   40.04
  -5  -5  -4  602.63   36.27
 -10   5   4  682.40   42.42
  -5  -5  -4  665.79   40.38
  10  -5  -3    6.53   10.48
  -5  -5  -3   25.50   19.14
 -10   5   3   64.12   23.21
  -5  -5  -3   -0.57   10.17
  -5  -5  -3   -6.90   10.24
 -10   5   3   -2.57   13.34
 -10   5   3   46.59   19.75
   5 -10   3   10.63   11.87
  -5  10  -3    3.99   10.50
   5   5   3   -3.93   10.13
  -5  10  -3   -5.51   10.98
   5   5   3    9.04   12.27
  10  -5  -3   -8.08   11.13
  10  -5  -2   73.01   16.73
  -5  -5  -2   72.66   21.09
 -10   5   2  126.11   26.01
  -5  -5  -2   69.42   13.70
  -5  -5  -2   84.50   14.44
 -10   5   2   81.26   18.28
  -5  -5  -2  101.76   23.22
   5 -10   2   92.24   18.35
  -5  10  -2   93.57   16.53
   5   5   2   63.10   14.75
  -5  10  -2   76.26   16.69
   5   5   2   94.22   18.11
   5 -10   2   75.85   13.99
  10  -5  -2   82.74   17.74
  -5  -5  -1   -2.45   17.17
  10  -5  -1    1.66   11.39
  -5  -5  -1   -3.95    7.49
  -5  -5  -1    3.23    7.43
 -10   5   1   11.87   14.18
   5 -10   1    1.54   10.28
  -5  10  -1   -1.26    8.76
   5   5   1   11.94   10.89
  -5  10  -1  -15.59   12.26
   5   5   1    9.45   11.94
   5 -10   1    7.88    9.22
  10  -5  -1   -0.81   10.75
 -10   5   0 1629.82   58.40
  10  -5   0 1623.34   58.20
  -5  -5   0 1626.80   62.10
  -5  10   0 1626.47   53.10
   5 -10   0 1629.10   57.50
   5 -10   0 1624.63   54.11
   5   5   0 1622.22   58.57
  -5  10   0 1627.18   62.46
   5   5   0 1622.02   62.52
  10  -5   0 1629.38   63.58
  -5  -5   0 1627.65   48.14
  -5  -5   0 1623.96   55.91
  -5  -5   2   87.41   19.47
  -5  10   2   36.57   16.26
  10  -5   2   42.51   14.59
 -10   5  -2   30.75   14.64
   5 -10  -2   16.79   11.73
  -5  -5   2   18.22   15.35
  -5  10   2   18.38    8.77
   5   5  -2   35.42   14.13
  -5  10   2    9.58   10.75
   5   5  -2   33.37   13.70
  10  -5   2   21.27   11.36
   5 -10  -2   29.60   13.37
  -5  -5   3   50.29   17.49
  -5  10   3   16.27   13.28
  10  -5   3   15.52   12.46
 -10   5  -3   14.39   11.40
   5 -10  -3    4.89   10.26
  -5  -5   3  -39.95   20.05
   5   5  -3   -0.41    9.65
  -5  10   3    3.99   11.43
   5   5  -3    4.24   10.15
  10  -5   3    5.27   11.55
   5 -10  -3    5.52   11.01
 -10   5  -4  475.16   34.42
  -5  -5   4  478.17   33.37
  10  -5   4  445.51   31.72
   5 -10  -4  486.05   33.00
   5 -10  -4  496.29   34.84
   5   5  -4  499.11   36.99
  -5  10   4  462.14   34.71
   5   5  -4  451.31   34.49
  10  -5   4  465.44   34.93
  -5  10   4  455.17   35.90
  -5  -5   4  501.62   35.94
  -5  -5   5  -13.12   13.06
  10  -5   5   -3.33   10.16
 -10   5  -5   -2.80   12.31
   5 -10  -5   -7.87    9.55
  -5  -5   5   40.49   15.09
   5   5  -5   -1.73   10.63
  -5  10   5    6.96   11.57
   5   5  -5   -8.62   13.05
  10  -5   5    4.15   10.22
   5 -10  -5    6.38   11.73
  -5  -5   6   14.22   12.73
  10  -5   6   14.13    9.86
   5 -10  -6    5.09   11.19
  -5  -5   6   15.48   13.19
  -5  10   6   28.72   12.69
   5   5  -6   10.31   10.73
  10  -5   6    0.93   10.25
   5 -10  -6   18.68   13.25
   5 -10  -7   -2.75   10.40
  10  -5   7   12.48   10.02
  -5  10   7   -4.27   10.85
   5   5  -7   -6.81   11.11
  10  -5   7  -12.60   12.34
 -10   6   9   29.53   13.23
 -10   6   8    4.08   10.00
 -10   4   8    8.19   12.05
 -10   6   7  117.65   17.98
  -4  -6  -7  133.32   20.23
  -4  -6  -7  117.65   19.92
  -6  -4  -7  112.97   18.86
 -10   4   7   67.37   16.04
 -10   6   6  108.17   20.17
 -10   4   6  111.10   23.68
  -4  -6  -6  137.65   20.06
  -6  -4  -6  132.95   19.82
  -4  -6  -6  147.92   20.85
  -6  -4  -6  106.73   18.09
  -6  10  -6  112.97   22.52
 -10   4   6   71.46   17.15
  -4  10  -6  142.90   21.28
   6   4   6  109.48   17.58
  -6  10  -6  137.27   21.27
  -4  10  -6  141.24   21.07
   4   6   6  143.08   21.48
   6   4   6  108.67   19.43
  10  -4  -6  158.93   22.64
  10  -6  -6  159.36   23.19
 -10   6   5   63.40   21.03
 -10   4   5   63.98   23.04
  -6  -4  -5   63.25   21.05
  -4  -6  -5   63.32   16.34
  -4  -6  -5   59.29   15.16
  -6  -4  -5   60.32   14.40
  -6  10  -5   62.83   19.95
 -10   4   5   62.30   19.66
   4 -10   5   62.81   16.12
  -6  10  -5   62.91   14.98
  -4  10  -5   62.48   15.39
   6   4   5   62.18   14.93
  -6  10  -5   62.59   16.27
  -4  10  -5   62.77   15.94
  10  -6  -5   62.29   14.37
   4   6   5   62.36   17.49
   6   4   5   62.08   16.61
  10  -4  -5   62.26   14.93
  10  -6  -5   62.27   17.00
  10  -6  -4   20.23   12.37
  -4  -6  -4   20.25   15.16
 -10   4   4   20.58   21.67
 -10   6   4   20.42   18.32
  -6  -4  -4   21.02   20.12
  -4  -6  -4   20.87    9.77
  -4  -6  -4   20.82   10.87
  -6  -4  -4   21.00   10.41
 -10   6   4   19.03   15.18
 -10   4   4   43.69   19.54
 -10   6   4   40.26   16.45
   6 -10   4   -2.88   11.89
   4 -10   4    3.59   10.46
  -6  10  -4   10.69   11.60
  -4  10  -4    0.07   10.12
   4   6   4    3.18    8.45
   6   4   4   25.43   12.36
  -6  10  -4   -1.26   10.09
  -4  10  -4    6.28   12.09
   6 -10   4   19.89   10.38
   4   6   4    2.52   10.43
   6   4   4   15.58   13.19
  10  -4  -4   19.03   13.44
  10  -6  -4   15.30   11.99
  -4  -6  -3   73.85   15.62
  -6  -4  -3   79.07   26.10
 -10   4   3   78.29   25.02
 -10   6   3   79.84   22.23
  10  -6  -3   72.47   18.70
  -4  -6  -3   71.79   14.20
  -4  -6  -3   71.30   13.51
  -6  -4  -3   73.02   14.71
 -10   4   3   70.59   16.98
 -10   6   3   74.92   19.48
  -4  -6  -3   74.21   23.52
   6 -10   3   71.36   16.89
 -10   4   3   72.08   23.98
 -10   6   3   71.66   19.95
   4 -10   3   74.92   16.59
  -6  10  -3   71.94   16.08
  -4  10  -3   75.44   15.46
   4   6   3   72.39   13.12
   6   4   3   71.52   16.15
  -6  10  -3   71.95   14.79
  -4  10  -3   71.14   16.13
   6 -10   3   73.84   14.02
   4   6   3   71.03   16.73
   6   4   3   71.83   15.68
  10  -4  -3   71.18   15.04
  10  -6  -3   78.89   18.91
  10  -4  -3   73.12   16.19
  -4  -6  -2  724.34   36.47
  -6  -4  -2  730.90   35.78
 -10   4   2  722.04   37.60
 -10   6   2  735.98   41.06
  10  -4  -2  746.40   42.17
  10  -6  -2  709.89   42.77
 -10   6   2  733.40   38.93
  -4  -6  -2  738.35   39.97
  -6  10  -2  655.73   38.20
   6 -10   2  753.48   38.72
   6 -10   2  749.48   43.39
  -4  10  -2  677.89   38.13
   4 -10   2  688.98   40.76
   4   6   2  727.42   39.42
   6   4   2  727.97   41.52
  -6  10  -2  767.15   44.25
  -4  10  -2  746.87   43.70
   4   6   2  734.67   43.61
   6   4   2  743.73   43.77
  10  -4  -2  683.32   42.24
  -4  -6  -2  722.73   35.52
  10  -6  -2  719.32   43.05
  -4  -6  -2  698.32   37.71
  -6  -4  -2  698.54   43.40
 -10   4   2  759.59   46.06
  -4  -6  -1  125.76   16.48
  -4  -6  -1  200.39   19.71
  -6  -4  -1  226.13   19.58
 -10   4   1  255.57   23.89
  10  -4  -1  208.12   23.91
  10  -6  -1  217.65   25.10
 -10   6   1  200.02   25.79
  -6  -4  -1  210.24   28.82
  -4  -6  -1  226.81   25.83
  -6  10  -1  198.06   21.70
   6 -10   1  214.34   24.04
   6 -10   1  220.64   22.70
  -4  10  -1  233.55   22.81
   4 -10   1  215.53   20.11
   4 -10   1  219.97   23.91
   4   6   1  225.73   23.70
   6   4   1  231.77   25.14
  -6  10  -1  229.77   25.54
  -4  10  -1  210.95   24.67
   4   6   1  208.86   25.08
   6   4   1  212.65   24.97
  10  -4  -1  192.79   24.17
  -4  -6  -1  204.33   19.21
  10  -6  -1  194.75   23.59
  -6  -4  -1  224.91   29.27
  -6  -4   0  108.00   22.43
  10  -4   0  124.83   19.20
  -4  -6   0  127.11   15.44
  10  -6   0  121.21   19.98
 -10   4   0  163.35   20.78
 -10   6   0  126.29   22.21
  -6  -4   0  168.44   26.66
   6 -10   0  159.78   22.37
  -4  -6   0  110.20   20.21
   4 -10   0  130.95   18.80
   6 -10   0  153.89   20.82
   4 -10   0  138.68   17.51
   6   4   0  167.02   22.03
  -6  10   0  122.88   17.46
  -4  10   0  155.66   22.12
  -4  10   0  125.79   17.06
   4   6   0  113.64   18.74
  -6  10   0  139.21   21.28
   4   6   0  116.61   19.76
   6   4   0  135.62   20.90
  10  -4   0  145.72   21.20
  10  -6   0  135.06   20.53
  -4  -6   0  182.13   23.18
  -4  -6   1   88.38   19.55
  -6  -4   1   81.85   19.69
  10  -4   1   82.18   17.98
  -6  10   1   96.96   19.45
  10  -6   1   85.28   17.29
 -10   4  -1   87.16   18.56
 -10   6  -1   87.80   17.25
   6 -10  -1   84.12   18.95
  -6  -4   1   83.25   24.86
   4 -10  -1   88.01   16.65
  -4  -6   1   85.37   18.18
  -6  10   1   88.41   13.89
  -4  10   1   89.10   14.98
   4   6  -1   88.99   17.97
   6   4  -1   84.61   20.69
  -6  10   1   88.71   19.54
  -4  10   1   89.16   18.60
   4   6  -1   83.53   18.67
   6   4  -1   85.48   17.59
   6 -10  -1   87.94   16.94
  10  -4   1   88.90   19.72
  10  -6   1   80.70   19.89
   4 -10  -1   83.57   15.20
 -10   4  -2  439.32   31.80
 -10   6  -2  583.21   38.80
  10  -4   2  412.85   30.17
  -6  -4   2  502.04   37.14
  -4  -6   2  410.90   30.62
  10  -6   2  426.74   32.90
   6 -10  -2  466.65   33.83
  -6  10   2  464.76   28.79
  -4  10   2  483.18   28.80
   4 -10  -2  470.66   32.28
   6 -10  -2  501.47   34.56
   4 -10  -2  462.57   31.73
   4   6  -2  480.93   34.91
   6   4  -2  525.09   37.08
  -6  10   2  480.80   35.43
  -4  10   2  490.39   36.08
   4   6  -2  524.46   36.98
   6   4  -2  475.94   35.46
  10  -4   2  484.93   36.22
  10  -6   2  503.22   36.34
  -4  -6   2  474.10   32.84
  -6  10   2  487.42   36.71
  -6  -4   2  363.92   31.91
  -4  -6   3   33.90   12.96
  -6  -4   3  -15.81   16.75
  -6  10   3   62.06   18.03
  -4  10   3   82.70   19.29
  10  -4   3   61.42   14.63
  10  -6   3   47.60   14.74
 -10   4  -3   60.27   16.14
 -10   6  -3   76.79   19.13
   6 -10  -3   54.80   14.82
   4 -10  -3   36.83   12.65
  -6  -4   3   74.71   19.36
  -4  -6   3   94.93   19.06
   4   6  -3   60.58   15.89
   6   4  -3   51.64   16.37
  -6  10   3   58.36   15.41
  -4  10   3   57.57   15.39
   4   6  -3   56.77   15.23
   6   4  -3   44.63   13.55
  10  -4   3   70.46   16.22
  10  -6   3   42.79   13.91
   6 -10  -3   52.51   14.37
   4 -10  -3   55.58   15.71
  -4  -6   4   13.88   11.15
  -6  -4   4   59.75   18.09
  -6  10   4   35.30   15.09
  -4  10   4   42.37   16.47
  10  -4   4   22.89   10.63
  10  -6   4   30.71   14.36
 -10   4  -4   11.16   12.44
   6 -10  -4   23.64   13.16
 -10   6  -4   43.91   15.90
   4 -10  -4   13.05   10.24
  -6  -4   4   -4.97   19.71
  -4  -6   4   25.19   14.35
   4   6  -4   18.24   12.88
   6   4  -4   15.99   11.76
  -6  10   4   19.35   13.08
  -4  10   4    8.99   11.81
   4   6  -4   17.77   12.96
   6   4  -4   16.21   12.36
  10  -4   4   12.62   12.64
  10  -6   4   27.54   13.95
   6 -10  -4   30.10   13.93
   4 -10  -4   29.59   14.38
  -4  -6   5   35.17   13.98
  -6  -4   5   82.49   19.00
  10  -4   5   33.88   11.52
  10  -6   5   12.93   12.07
   6 -10  -5   31.91   13.72
 -10   4  -5   23.60   11.17
 -10   6  -5   30.15   13.20
   4 -10  -5   48.98   13.56
  -6  -4   5   13.23   15.11
  -4  -6   5   35.19   13.86
   4   6  -5   27.24   14.35
  -6  10   5   24.73   12.76
  -4  10   5   44.56   14.67
   4   6  -5   53.60   16.05
   6   4  -5   50.74   14.19
  10  -4   5   41.45   13.83
  10  -6   5   49.20   15.42
   6 -10  -5   18.43   12.44
   4 -10  -5   44.50   15.34
 -10   4  -6  191.55   24.42
  10  -6   6  168.41   21.68
   6 -10  -6  191.79   22.88
  -4  -6   6  143.24   20.71
   4 -10  -6  189.46   20.92
   4 -10  -6  171.18   22.80
  -6  10   6  197.05   24.40
   4   6  -6  186.87   23.87
   6   4  -6  180.74   23.64
  10  -4   6  200.99   24.46
  -4  10   6  175.68   23.05
  10  -6   6  163.68   22.62
  -4  -6   6  188.38   23.86
  -4  -6   7   38.01   15.57
   6 -10  -7   33.27   13.47
  10  -6   7   23.32   11.17
  -4  -6   7   11.71   10.77
   6 -10  -8   40.06   13.32
  10  -6   8   36.03   12.96
   6 -10  -9  228.53   25.69
 -10   7   8   36.11   14.33
 -10   7   7   92.94   16.99
  -3  -7  -7   97.89   18.43
  -7  -3  -7   93.67   18.13
  -7  -3  -6  461.35   33.33
 -10   3   6  467.45   36.18
   7   3   6  497.37   34.72
  -3  -7  -6  470.38   33.82
 -10   7   6  439.76   31.66
 -10   7   5  123.79   17.54
 -10   3   5  143.87   27.12
  -3  -7  -5  125.19   18.94
  -7  -3  -5   87.94   17.30
 -10   3   5  168.98   25.86
   3 -10   5  113.97   19.15
  -3  10  -5  143.64   20.36
   7   3   5  146.30   21.43
 -10   7   4   11.90    9.36
 -10   3   4   11.64   22.40
  -7  -3  -4   11.76   20.44
  -3  -7  -4   11.01   12.16
  -7  -3  -4   11.94   11.60
 -10   7   4   11.37   14.41
 -10   3   4   11.30   20.50
   3 -10   4   11.71   11.23
  -3  10  -4   11.12   13.64
   7   3   4   11.39   11.52
  -7  -3  -3  208.31   29.50
  -7  -3  -3  190.31   20.58
 -10   7   3  169.03   24.38
  -7  10  -3  149.14   25.75
 -10   3   3  218.09   28.53
  -3  -7  -3  240.18   24.28
   7 -10   3  205.04   23.02
  -3  10  -3  197.70   23.30
   3   7   3  185.96   20.29
   3 -10   3  185.97   22.62
   7   3   3  191.19   22.93
  -7  10  -3  171.51   23.53
  -3  10  -3  172.72   22.94
   3   7   3  179.96   23.44
   7   3   3  200.05   24.72
  -3  -7  -3  201.30   20.73
  10  -3  -3  218.52   25.26
  10  -7  -3  193.37   24.23
 -10   3   3  263.01   33.05
 -10   7   3  241.34   26.38
  -7  -3  -2  408.37   27.45
 -10   7   2  418.03   34.16
  10  -3  -2  350.74   30.37
  10  -7  -2  407.30   34.16
  -3  -7  -2  414.19   28.50
   7 -10   2  386.02   32.78
   7 -10   2  355.84   29.01
  -3  10  -2  402.61   30.68
   3   7   2  399.16   29.25
   3 -10   2  367.47   29.85
   7   3   2  402.44   32.62
  -7  10  -2  406.16   33.85
  -3  10  -2  386.25   32.77
   3   7   2  376.05   32.80
   7   3   2  393.18   33.17
  -3  -7  -2  375.86   26.50
  10  -3  -2  418.04   34.23
  10  -7  -2  384.86   33.08
  -7  -3  -2  434.28   37.48
 -10   3   2  449.80   39.13
 -10   3   1  263.64   33.02
 -10   3   1  259.64   23.34
  10  -3  -1  263.79   25.56
 -10   7   1  202.91   26.25
  10  -7  -1  234.95   26.51
  -3  -7  -1  226.02   22.63
   7 -10   1  253.58   27.90
   7 -10   1  219.31   23.97
  -3  10  -1  215.37   22.66
   3   7   1  243.50   24.61
   3 -10   1  215.87   23.46
   7   3   1  199.96   23.90
  -7  10  -1  229.45   26.04
  -3  10  -1  202.96   24.94
   3   7   1  245.66   27.37
   7   3   1  214.77   25.89
  10  -3  -1  198.61   25.25
  10  -7  -1  204.77   25.22
  -7  -3  -1  290.37   32.83
  -3  -7   0   72.95   16.04
  10  -3   0   72.67   18.67
  -7  -3   0   72.32   28.12
  -7  10   0   72.46   21.21
  10  -7   0   72.11   19.87
 -10   3   0   71.75   16.74
 -10   7   0   72.01   23.83
   7 -10   0   72.73   20.23
  -7  -3   0   72.11   24.72
  -3  -7   0   71.86   13.49
   3 -10   0   71.67   17.84
  -3  10   0   72.10   16.16
   3   7   0   71.83   18.28
   7   3   0   72.50   20.37
  -7  10   0   72.27   18.39
  -3  10   0   71.92   18.54
   3   7   0   71.60   19.02
   7   3   0   72.18   19.30
   7 -10   0   71.52   18.32
  10  -3   0   71.55   19.83
  10  -7   0   71.97   18.62
   3 -10   0   71.73   14.92
  -3  -7   1   21.48   11.21
  -7  -3   1   38.99   21.27
  10  -3   1   37.75   13.33
  -7  10   1   39.33   13.93
  10  -7   1   54.90   14.84
 -10   3  -1   39.03   12.56
   7 -10  -1   39.02   14.10
 -10   7  -1   52.78   18.27
  -7  -3   1   80.64   23.64
  -3  -7   1   70.18   14.88
   3 -10  -1   20.01   10.36
  -3  10   1   43.15   12.15
   3   7  -1   42.46   14.68
   7   3  -1   24.12   13.40
  -7  10   1   58.59   16.62
  -3  10   1   53.26   14.64
   3   7  -1   53.23   14.87
   7   3  -1   17.03   13.44
   7 -10  -1   26.99   12.94
  10  -3   1   47.02   15.60
  10  -7   1   44.96   15.89
   3 -10  -1   41.85   11.84
  -7  -3   2  261.31   30.65
 -10   3  -2  278.83   25.74
 -10   7  -2  282.73   30.33
  10  -3   2  303.29   25.86
  -7  -3   2  337.01   33.28
  -3  -7   2  281.73   24.85
  10  -7   2  294.79   28.31
   7 -10  -2  317.00   29.52
   7 -10  -2  299.06   28.28
   3 -10  -2  268.13   24.46
   3   7  -2  294.80   27.86
   3 -10  -2  315.88   26.55
   7   3  -2  333.74   31.01
  -7  10   2  288.76   28.69
  -3  10   2  271.56   28.18
   3   7  -2  329.89   30.69
   7   3  -2  281.77   28.90
  10  -3   2  299.00   29.31
  10  -7   2  254.90   27.32
  -3  -7   2  243.20   22.98
  -7  10   2  305.34   29.63
  -3  -7   3    2.53    9.50
  -3  -7   3    7.30    9.61
  -7  -3   3  -59.35   25.94
  -7  10   3   -8.58   11.82
  10  -3   3   11.64    9.46
  10  -7   3   -5.14   12.21
   7 -10  -3    1.42   11.63
 -10   3  -3   -9.48   11.54
 -10   7  -3  -33.78   19.29
  -7  -3   3   -1.44   17.58
  -3  -7   3   -0.29    9.89
   3 -10  -3   10.10    9.62
   3   7  -3    5.58   10.81
   7   3  -3   20.77   15.01
  -7  10   3    6.46   10.15
  -3  10   3    0.22   10.72
   3   7  -3   15.33   11.51
   7   3  -3    6.11   10.42
  10  -3   3    3.42    9.61
   7 -10  -3   -3.13   10.83
  10  -7   3   -7.01   10.19
   3 -10  -3   -1.97   10.50
  -3  -7   4   34.53   12.01
  -3  -7   4   37.66   12.54
  10  -7   4   49.06   14.82
   7 -10  -4   28.70   13.00
 -10   3  -4   33.87   13.49
  -3  -7   4   29.53   11.01
   3 -10  -4   31.66   11.39
   3   7  -4   28.84   12.98
   7 -10  -4   43.58   14.34
   3 -10  -4   36.29   13.70
  -3  -7   5   93.19   17.39
  -3  -7   5  106.29   17.73
   7 -10  -5  129.77   20.87
 -10   3  -5   92.11   18.15
  10  -7   5  110.44   19.36
  -3  -7   5  104.44   17.48
   3 -10  -5  109.64   18.39
 -10   3  -6  303.17   29.48
  -3  -7   6  308.31   28.55
   7 -10  -6  289.91   29.16
  10  -7   6  273.09   27.40
   3 -10  -6  333.59   29.99
  -3  -7   6  284.61   27.59
  -3  -7   6  275.64   26.59
  -3  -7   7  310.25   28.56
  10  -7   7  358.95   30.62
  -3  -7   7  334.51   30.14
  10  -7   8   13.08   11.72
 -10   8   6    1.97    9.75
  -2  -8  -6   22.25   13.26
  -8  -2  -6    3.03   10.59
 -10   8   5    4.98    9.99
  -2  -8  -5    1.00    9.02
  -8  -2  -5   18.05   12.18
  -8  -2  -4  862.73   42.65
  -2  10  -4  909.10   48.75
   8   2   4  855.11   47.33
   2 -10   4  883.27   47.16
  -2  -8  -4  880.13   43.52
 -10   8   4  822.51   42.45
   2   8   4  850.24   43.99
 -10   8   3   16.28   11.28
  -8  -2  -3    8.69   10.04
 -10   8   3   12.28   15.22
   2 -10   3   20.38   12.50
  -2  10  -3    9.85   12.35
   8   2   3    2.86   10.16
  -8  10  -2   23.01   13.18
 -10   8   2   23.62   17.09
   2 -10   2   28.22   13.35
  -2  10  -2   21.90   12.29
   2   8   2   24.95   11.54
   8   2   2   30.83   14.09
   8 -10   2   11.35   10.23
  -8  10  -1    1.84   13.62
 -10   8   1    1.82   18.37
   2 -10   1    1.01    9.97
  -2  10  -1    1.13   10.79
   2   8   1    1.17   12.42
   8   2   1    1.68   13.35
   8 -10   1    1.74   12.02
  10  -2  -1    1.42   10.89
 -10   8   0  440.60   33.63
  10  -2   0  442.69   29.17
   8 -10   0  445.63   31.41
  -2  10   0  443.76   28.52
   2   8   0  449.64   31.10
   2 -10   0  440.20   28.12
  -8  10   0  449.45   31.38
  10  -2   1    1.16    9.94
  -8  10   1    1.10   11.46
 -10   2  -1    1.14    9.00
 -10   8  -1    1.10   16.59
   2 -10  -1    1.19    9.41
  -2  10   1    1.10    8.41
   2   8  -1    1.17   13.52
   8 -10  -1    1.16   12.20
  -8  10   2   36.08   15.04
 -10   2  -2   47.67   14.58
   2   8  -2   47.39   14.16
   8 -10  -2   28.95   12.59
   2 -10  -2   38.29   12.50
 -10   2  -3   -5.47   10.91
   2   8  -3    9.39   11.57
  -2  -8   3    4.45    9.86
   2 -10  -3    3.20   10.34
 -10   2  -4  425.56   32.23
   2 -10  -4  468.69   33.23
  -2  -8   4  476.82   32.70
  -2  -8   5    4.32    9.89
 -10   2  -5   17.83   13.27
  -2  -8   5   -0.87    9.28
  -2  -8   5   -0.60    9.41
   2 -10  -5    1.09   10.96
  -2  -8   6  -11.20   12.61
  -2  -8   6    9.81   12.25
  -2  -8   6    0.10   10.06
  -2  -8   7   24.93   12.12
  -2  -8   7   32.87   13.57
   1   9   5   22.62   15.90
  -9  -1  -5   22.60   14.47
 -10   9   4    7.36   10.50
   1   9   4   33.25   14.83
  -9  10  -4   34.45   15.17
  -9  -1  -4   20.57   12.01
 -10   9   3  123.48   19.27
  -9  10  -3  106.69   18.93
   1 -10   3  103.10   18.02
  -1  10  -3  116.18   20.37
  -1  10  -2  364.18   30.97
   1 -10   2  360.18   29.86
 -10   9   2  348.12   29.02
  -9  10  -2  355.56   31.07
  -1  10  -1  158.93   22.79
   1   9   1  159.20   22.46
   1 -10   1  158.79   22.11
  -9  10  -1  158.31   24.89
  -9  10   0  113.25   19.83
  -1  10   0  111.77   18.60
   1   9   0  117.31   19.46
   1   9  -1  225.96   25.58
  -9  10   1  214.30   24.79
   1   9  -2  383.93   31.88
 -10   1  -3   36.51   12.44
  10  -1   3   46.98   15.37
 -10   1  -4   59.35   15.55
  10  -1   4   69.89   16.45
  -1  -9   4   61.46   15.65
  -1  -9   5    8.23   11.77
  -5  -6  -5   81.87   17.64
  -5  -6  -5  102.48   17.98
  -6  -5  -5   94.99   17.47
 -11   5   5   48.53   17.83
  -6  -5  -4   54.79   21.80
 -11   6   4   54.71   21.65
  -5  -6  -4   10.37   10.23
  -6  -5  -4   16.07   11.61
  -5  -6  -4    6.82    9.59
  -6  -5  -4   11.75   10.84
  -5  -6  -4   69.06   22.24
 -11   5   4   18.58   17.42
   6   5   4   16.80   12.06
  -6  -5  -3   88.85   22.86
 -11   6   3  103.06   24.40
  -6  -5  -3   51.60   13.71
 -11   6   3   42.21   16.86
  -5  -6  -3   79.00   22.36
 -11   5   3  110.63   23.83
  -5  11  -3   66.23   16.34
   5   6   3   66.92   16.07
   6   5   3   57.85   16.11
  -5  -6  -2  288.63   28.43
 -11   6   2  345.06   31.26
 -11   5   2  427.90   35.25
 -11   6   2  407.37   33.51
  -5  -6  -2  384.06   34.93
  -6  11  -2  382.35   31.40
  -5  11  -2  369.89   30.79
   5   6   2  388.72   31.89
   6   5   2  377.32   31.72
  -6  -5  -2  367.86   34.70
 -11   6   2  383.28   35.31
  -6  -5  -1   -9.89   19.66
 -11   5   1    3.09   14.05
 -11   6   1   23.26   16.60
  -6  -5  -1   27.10   19.85
  -5  -6  -1   41.20   18.74
  -6  11  -1   13.03   11.28
  -5  11  -1   -8.06   10.53
   5   6   1    9.91   12.36
   6   5   1   19.16   13.33
   6 -11   1    9.60   11.18
  -6  -5   0   49.48   17.82
  11  -5   0  107.08   19.54
 -11   5   0  128.55   21.99
 -11   6   0  128.90   23.33
  -5  -6   0  125.76   23.01
  -6  11   0  120.05   17.90
  -5  11   0  124.45   18.03
   5   6   0  148.95   21.82
   6 -11   0  139.37   19.58
  -5  -6   0  177.16   24.12
  -5  -6   1  131.30   21.06
  -6  -5   1  -15.79   23.50
  11  -5   1   94.69   18.72
 -11   5  -1  148.66   23.30
 -11   6  -1   92.96   20.89
   5 -11  -1   90.34   17.92
  -5  -6   1   38.60   17.85
   6 -11  -1   80.05   16.97
   5 -11  -1   83.02   16.09
 -11   5  -2  462.44   35.46
  11  -5   2  427.49   33.03
  -5  -6   2  384.90   32.52
  11  -6   2  396.85   33.30
   5 -11  -2  425.81   33.31
   6 -11  -2  475.39   35.10
   5 -11  -2  454.87   33.47
  -5  -6   2  399.23   32.35
  -5  -6   3  146.58   22.01
  11  -5   3  142.39   21.45
  11  -6   3  151.17   21.83
   5 -11  -3  153.43   21.61
   5 -11  -3  151.40   21.72
  11  -5   4   37.83   14.00
  11  -6   4    6.21   11.13
   5 -11  -4   34.47   12.60
  11  -6   5   38.79   12.95
  -4  -7  -4  284.88   27.20
 -11   7   4  345.04   31.60
  -4  -7  -3   11.44   10.91
 -11   7   3   11.20   15.70
 -11   7   2   11.78   20.82
 -11   7   2   11.76   17.89
  -7  11  -2   11.04   11.39
  -4  11  -2   11.91   10.21
   4   7   2   11.61   12.09
   7 -11   2   11.83   11.58
  11  -4  -1   18.75   12.34
 -11   7   1   18.15   18.84
  -4  -7  -1   17.65   14.55
  -7  11  -1   17.55   11.25
  -4  11  -1   17.56   13.78
   4   7   1   18.11   13.07
   7 -11   1   18.74   10.15
 -11   4   0  602.85   37.96
  11  -4   0  603.62   37.32
  -4  -7   0  599.74   34.19
  -7  11   0  603.58   36.62
   7 -11   0  598.28   36.88
   4 -11   0  592.39   37.00
   4   7   0  592.24   38.86
  11  -4   1   12.08   11.43
 -11   4  -1   12.24   13.23
  -4  -7   1   12.85   12.09
   4 -11  -1   12.42   10.66
   7 -11  -1   12.61   10.11
  -4  -7   2   48.15   13.00
  11  -4   2   48.76   13.99
 -11   4  -2   48.12   16.04
  -4  -7   2   48.24   15.91
   4 -11  -2   48.97   13.59
   4 -11  -2   47.47   13.51
  -4  -7   3  -10.19   11.85
  -4  -7   3   21.56   13.36
   4 -11  -3   -0.46   10.74
   4 -11  -3   -6.15    9.80
  -4  -7   4  331.88   29.38
  -4  -7   4  370.45   31.46
  -3  11  -2  193.23   23.76
  11  -3  -1   63.09   15.64
  -3  11  -1   71.58   16.71
   3   8   1   81.59   16.89
  11  -3   0   41.44   15.02
   3 -11   0    5.22    9.54
   3   8   0   17.23   12.11
 -11   3  -2  201.79   23.28
   0   0   0    0.00    0.00


TITL Cr100 in P-31c
REM P-31c (#163 in standard setting)
CELL 0.71073   8.267455   8.267455  14.057637  90.0000  90.0000 120.0000
ZERR    3.00   0.000153   0.000153   0.000282   0.0000   0.0000   0.0000
LATT  1
SYMM -y, x-y, z
SYMM -x+y,-x, z
SYMM -y,-x,-z+1/2
SYMM -x+y, y,-z+1/2
SYMM  x, x-y,-z+1/2
SFAC C H N O Cr
UNIT 18.00 36.00 3.00 21.00 3.00
TREF
HKLF 4
END
_computing_structure_solution     'SHELXT 2014/5 (Sheldrick, 2014)'
;
_shelx_hkl_checksum              3372
loop_
_space_group_symop_operation_xyz
'x, y, z'
'-y, x-y, z'
'-x+y, -x, z'
'-y, -x, -z+1/2'
'-x+y, y, -z+1/2'
'x, x-y, -z+1/2'
'-x, -y, -z'
'y, -x+y, -z'
'x-y, x, -z'
'y, x, z-1/2'
'x-y, -y, z-1/2'
'-x, -x+y, z-1/2'
loop_
_atom_site_label
_atom_site_type_symbol
_atom_site_fract_x
_atom_site_fract_y
_atom_site_fract_z
_atom_site_U_iso_or_equiv
_atom_site_adp_type
_atom_site_occupancy
_atom_site_site_symmetry_order
_atom_site_calc_flag
_atom_site_refinement_flags_posn
_atom_site_refinement_flags_adp
_atom_site_refinement_flags_occupancy
_atom_site_disorder_assembly
_atom_site_disorder_group
Cr1 Cr 0.0000 0.0000 0.5000 0.00976(11) Uani 1 6 d S T P . .
Mn1 Mn 0.3333 0.6667 0.7500 0.01459(11) Uani 1 6 d S T P . .
O1 O 0.20337(13) 0.19097(13) 0.57954(7) 0.0243(2) Uani 1 1 d . . . . .
O2 O 0.33690(17) 0.44933(16) 0.66542(8) 0.0395(3) Uani 1 1 d . . . . .
C1 C 0.20914(19) 0.3334(2) 0.61572(9) 0.0236(3) Uani 1 1 d . . . . .
H1 H 0.1069 0.3526 0.6036 0.028 Uiso 1 1 calc R U . . .
N1 N 0.4643(8) 0.7322(4) 0.2500 0.0306(12) Uani 0.3333 2 d S T P . .
O3 O 0.2167(10) 0.6543(9) 0.4313(4) 0.0290(14) Uani 0.1667 1 d . . P . .
C2 C 0.3333 0.6667 0.4105(5) 0.060(2) Uani 0.5 3 d S T P . .
C3 C 0.3333 0.6667 0.3002(6) 0.136(6) Uani 0.5 3 d S T P . .
loop_
_atom_site_aniso_label
_atom_site_aniso_U_11
_atom_site_aniso_U_22
_atom_site_aniso_U_33
_atom_site_aniso_U_23
_atom_site_aniso_U_13
_atom_site_aniso_U_12
Cr1 0.00939(14) 0.00939(14) 0.0105(2) 0.000 0.000 0.00469(7)
Mn1 0.01324(14) 0.01324(14) 0.0173(2) 0.000 0.000 0.00662(7)
O1 0.0220(5) 0.0206(5) 0.0314(5) -0.0111(4) -0.0101(4) 0.0115(4)
O2 0.0348(6) 0.0339(6) 0.0557(7) -0.0286(6) -0.0243(6) 0.0216(5)
C1 0.0212(7) 0.0211(6) 0.0269(6) -0.0071(6) -0.0035(5) 0.0095(6)
N1 0.019(2) 0.026(2) 0.045(3) 0.011(2) 0.000 0.0095(12)
O3 0.057(5) 0.023(3) 0.018(3) -0.012(2) -0.005(3) 0.029(3)
C2 0.075(4) 0.075(4) 0.031(4) 0.000 0.000 0.0376(18)
C3 0.194(10) 0.194(10) 0.022(4) 0.000 0.000 0.097(5)
loop_
_atom_type_symbol
_atom_type_description
_atom_type_scat_dispersion_real
_atom_type_scat_dispersion_imag
_atom_type_scat_source
C C 0.0033 0.0016 'International Tables Vol C Tables 4.2.6.8 and 6.1.1.4'
H H 0.0000 0.0000 'International Tables Vol C Tables 4.2.6.8 and 6.1.1.4'
N N 0.0061 0.0033 'International Tables Vol C Tables 4.2.6.8 and 6.1.1.4'
O O 0.0106 0.0060 'International Tables Vol C Tables 4.2.6.8 and 6.1.1.4'
Mn Mn 0.3368 0.7283 'International Tables Vol C Tables 4.2.6.8 and 6.1.1.4'
Cr Cr 0.3209 0.6236 'International Tables Vol C Tables 4.2.6.8 and 6.1.1.4'
loop_
_geom_angle_atom_site_label_1
_geom_angle_atom_site_label_2
_geom_angle_atom_site_label_3
_geom_angle
_geom_angle_site_symmetry_1
_geom_angle_site_symmetry_3
O1 Cr1 O1 180.0 7_556 .
O1 Cr1 O1 91.20(4) 7_556 9_556
O1 Cr1 O1 88.80(4) . 9_556
O1 Cr1 O1 88.80(4) 7_556 2
O1 Cr1 O1 91.20(4) . 2
O1 Cr1 O1 88.80(4) 9_556 2
O1 Cr1 O1 91.20(4) 7_556 8_556
O1 Cr1 O1 88.80(4) . 8_556
O1 Cr1 O1 91.20(4) 9_556 8_556
O1 Cr1 O1 180.0 2 8_556
O1 Cr1 O1 88.80(4) 7_556 3
O1 Cr1 O1 91.20(4) . 3
O1 Cr1 O1 180.0 9_556 3
O1 Cr1 O1 91.20(4) 2 3
O1 Cr1 O1 88.80(4) 8_556 3
O2 Mn1 O2 92.78(5) 4_666 5_556
O2 Mn1 O2 88.21(7) 4_666 2_665
O2 Mn1 O2 178.65(7) 5_556 2_665
O2 Mn1 O2 86.25(6) 4_666 .
O2 Mn1 O2 88.21(7) 5_556 .
O2 Mn1 O2 92.78(5) 2_665 .
O2 Mn1 O2 92.78(5) 4_666 6_566
O2 Mn1 O2 92.78(5) 5_556 6_566
O2 Mn1 O2 86.25(6) 2_665 6_566
O2 Mn1 O2 178.65(7) . 6_566
O2 Mn1 O2 178.65(7) 4_666 3_565
O2 Mn1 O2 86.25(6) 5_556 3_565
O2 Mn1 O2 92.78(5) 2_665 3_565
O2 Mn1 O2 92.78(5) . 3_565
O2 Mn1 O2 88.21(7) 6_566 3_565
C1 O1 Cr1 126.37(9) . .
C1 O2 Mn1 126.57(10) . .
O2 C1 O1 125.00(13) . .
O2 C1 H1 117.5 . .
O1 C1 H1 117.5 . .
C3 N1 C3 73.9(7) 4_665 .
C3 N1 N1 46.2(3) 4_665 2_665
C3 N1 N1 46.2(3) . 2_665
C3 N1 N1 46.2(3) 4_665 3_565
C3 N1 N1 46.2(3) . 3_565
N1 N1 N1 60.0 2_665 3_565
O3 O3 O3 60.000(2) 3_565 2_665
O3 C2 O3 111.2(6) . 3_565
O3 C2 O3 111.2(6) . 2_665
O3 C2 O3 111.2(6) 3_565 2_665
O3 C2 C3 107.6(6) . .
O3 C2 C3 107.6(6) 3_565 .
O3 C2 C3 107.6(6) 2_665 .
N1 C3 N1 87.6(5) 2_665 3_565
N1 C3 N1 87.6(5) 2_665 .
N1 C3 N1 87.6(5) 3_565 .
N1 C3 C3 53.1(4) 2_665 4_665
N1 C3 C3 53.1(4) 3_565 4_665
N1 C3 C3 53.1(4) . 4_665
N1 C3 C2 126.9(4) 2_665 .
N1 C3 C2 126.9(4) 3_565 .
N1 C3 C2 126.9(4) . .
C3 C3 C2 180.0 4_665 .
loop_
_geom_bond_atom_site_label_1
_geom_bond_atom_site_label_2
_geom_bond_distance
_geom_bond_site_symmetry_2
Cr1 O1 1.9788(9) 7_556
Cr1 O1 1.9788(9) .
Cr1 O1 1.9788(9) 9_556
Cr1 O1 1.9788(9) 2
Cr1 O1 1.9788(9) 8_556
Cr1 O1 1.9788(9) 3
Mn1 O2 2.1670(10) 4_666
Mn1 O2 2.1670(10) 5_556
Mn1 O2 2.1670(10) 2_665
Mn1 O2 2.1670(10) .
Mn1 O2 2.1671(10) 6_566
Mn1 O2 2.1671(10) 3_565
O1 C1 1.2617(16) .
O2 C1 1.2288(17) .
C1 H1 0.9500 .
N1 C3 1.174(6) 4_665
N1 C3 1.174(6) .
N1 N1 1.624(9) 2_665
N1 N1 1.624(9) 3_565
O3 C2 0.963(7) .
O3 O3 1.589(12) 3_565
O3 O3 1.589(12) 2_665
C2 O3 0.963(7) 3_565
C2 O3 0.963(7) 2_665
C2 C3 1.551(11) .
C3 N1 1.174(6) 2_665
C3 N1 1.174(6) 3_565
C3 C3 1.411(16) 4_665
