#------------------------------------------------------------------------------
#$Date: 2021-03-17 10:47:03 +0200 (Wed, 17 Mar 2021) $
#$Revision: 263079 $
#$URL: file:///home/coder/svn-repositories/cod/cif/1/56/10/1561054.cif $
#------------------------------------------------------------------------------
#
# This file is available in the Crystallography Open Database (COD),
# http://www.crystallography.net/
#
# All data on this site have been placed in the public domain by the
# contributors.
#
data_1561054
loop_
_publ_author_name
'Wang, Jingrui'
'Li, Peng'
'Cai, Ting'
'Yang, Dan-Dan'
'Xiong, Wei-Wei'
_publ_section_title
;
 Four two-dimensional ternary selenides based on group 13 and 14 metals:
 Syntheses, crystal structures, and electrochemical properties
;
_journal_name_full               'Journal of Solid State Chemistry'
_journal_page_first              88
_journal_page_last               93
_journal_paper_doi               10.1016/j.jssc.2018.04.018
_journal_volume                  263
_journal_year                    2018
_chemical_formula_moiety         'Ga2 Sn2 Se8, H8 N2'
_chemical_formula_sum            'Ga2 H8 N2 Se8 Sn2'
_chemical_formula_weight         1044.58
_space_group_crystal_system      monoclinic
_space_group_IT_number           14
_space_group_name_Hall           '-P 2ybc'
_space_group_name_H-M_alt        'P 1 21/c 1'
_atom_sites_solution_hydrogens   none
_atom_sites_solution_primary     direct
_atom_sites_solution_secondary   difmap
_cell_angle_alpha                90
_cell_angle_beta                 96.43(3)
_cell_angle_gamma                90
_cell_formula_units_Z            4
_cell_length_a                   7.5818(15)
_cell_length_b                   12.501(3)
_cell_length_c                   18.377(4)
_cell_measurement_reflns_used    22981
_cell_measurement_temperature    293(2)
_cell_measurement_theta_max      28.5170
_cell_measurement_theta_min      4.5770
_cell_volume                     1730.8(7)
_computing_cell_refinement       'Bruker SAINT'
_computing_data_collection       'Bruker APEX2'
_computing_data_reduction        'Bruker SAINT'
_computing_molecular_graphics    'DIAMOND. Version 3.0. Crystal Impact'
_computing_structure_refinement  'SHELXL-2016/6 (Sheldrick, 2016)'
_computing_structure_solution    'SHELXL-2016/6 (Sheldrick, 2016)'
_diffrn_ambient_temperature      293(2)
_diffrn_measured_fraction_theta_full 0.995
_diffrn_measured_fraction_theta_max 0.995
_diffrn_measurement_device_type  'Bruker APEX-II CCD'
_diffrn_measurement_method       '\f and \w scans'
_diffrn_radiation_type           MoK\a
_diffrn_radiation_wavelength     0.71073
_diffrn_reflns_av_R_equivalents  0.0345
_diffrn_reflns_av_unetI/netI     0.0322
_diffrn_reflns_Laue_measured_fraction_full 0.995
_diffrn_reflns_Laue_measured_fraction_max 0.995
_diffrn_reflns_limit_h_max       6
_diffrn_reflns_limit_h_min       -9
_diffrn_reflns_limit_k_max       15
_diffrn_reflns_limit_k_min       -15
_diffrn_reflns_limit_l_max       23
_diffrn_reflns_limit_l_min       -23
_diffrn_reflns_number            13569
_diffrn_reflns_point_group_measured_fraction_full 0.995
_diffrn_reflns_point_group_measured_fraction_max 0.995
_diffrn_reflns_theta_full        25.242
_diffrn_reflns_theta_max         26.997
_diffrn_reflns_theta_min         2.231
_exptl_absorpt_coefficient_mu    22.728
_exptl_absorpt_correction_T_max  1.00000
_exptl_absorpt_correction_T_min  0.34202
_exptl_absorpt_correction_type   multi-scan
_exptl_crystal_colour            orange
_exptl_crystal_density_diffrn    4.009
_exptl_crystal_density_method    'not measured'
_exptl_crystal_description       prismatic
_exptl_crystal_F_000             1824
_exptl_crystal_size_max          0.16
_exptl_crystal_size_mid          0.14
_exptl_crystal_size_min          0.10
_refine_diff_density_max         1.813
_refine_diff_density_min         -1.569
_refine_diff_density_rms         0.351
_refine_ls_extinction_coef       0.00049(6)
_refine_ls_extinction_expression Fc^*^=kFc[1+0.001xFc^2^\l^3^/sin(2\q)]^-1/4^
_refine_ls_extinction_method     'SHELXL-2016/6 (Sheldrick 2016)'
_refine_ls_goodness_of_fit_ref   1.009
_refine_ls_hydrogen_treatment    none
_refine_ls_matrix_type           full
_refine_ls_number_parameters     128
_refine_ls_number_reflns         3757
_refine_ls_number_restraints     0
_refine_ls_restrained_S_all      1.009
_refine_ls_R_factor_all          0.0677
_refine_ls_R_factor_gt           0.0579
_refine_ls_shift/su_max          0.000
_refine_ls_shift/su_mean         0.000
_refine_ls_structure_factor_coef Fsqd
_refine_ls_weighting_details
'w=1/[\s^2^(Fo^2^)+(0.0205P)^2^+169.7495P] where P=(Fo^2^+2Fc^2^)/3'
_refine_ls_weighting_scheme      calc
_refine_ls_wR_factor_gt          0.1413
_refine_ls_wR_factor_ref         0.1456
_reflns_Friedel_coverage         0.000
_reflns_Friedel_fraction_full    .
_reflns_Friedel_fraction_max     .
_reflns_number_gt                3247
_reflns_number_total             3757
_reflns_threshold_expression     'I > 2\s(I)'
_cod_data_source_file            JSSC-2018-263-88.cif
_cod_data_source_block           compound-1
_cod_depositor_comments
;
The following automatic conversions were performed:

data item '_exptl_absorpt_correction_type' value 'Multi-scan' was
changed to 'multi-scan' in accordance with the built-in table derived
from the CIF Core dictionary named 'cif_core.dic' version 2.4.5 last
updated on 2014-11-21.

Automatic conversion script
Id: cif_fix_values 8369 2020-08-20 11:38:08Z andrius 
;
_cod_original_cell_volume        1730.8(6)
_cod_original_sg_symbol_H-M      'P 21/c'
_cod_database_code               1561054
_shelx_space_group_comment
;
The symmetry employed for this shelxl refinement is uniquely defined
by the following loop, which should always be used as a source of
symmetry information in preference to the above space-group names.
They are only intended as comments.
;
_shelx_res_file
;
TITL X in P2(1)/c
    x.res
    created by SHELXL-2016/6 at 16:40:11 on 11-Dec-2017
CELL 0.71073   7.5818  12.5011  18.3767  90.000  96.433  90.000
ZERR   4.00   0.0015   0.0025   0.0037   0.000   0.030   0.000
LATT  1
SYMM -X, 0.5+Y, 0.5-Z
SFAC C H N GA SE SN
UNIT 0 32 8 8 32 8

omit -2 54
omit 2 3 3

eadp Sn1 Ga1
exyz Sn1 Ga1
eadp Sn2 Ga2
exyz Sn2 Ga2
eadp Sn3 Ga3
exyz Sn3 Ga3
eadp Sn4 Ga4
exyz Sn4 Ga4

L.S. 4
acta
BOND
FMAP 2
PLAN 20

WGHT    0.020500  169.749466
EXTI    0.000489
FVAR       0.04333
SN1   6    0.238931    0.204632    0.322428    10.50000    0.02005    0.02209 =
         0.01527   -0.00272    0.00388   -0.00087
GA1   4    0.238931    0.204632    0.322428    10.50000    0.02005    0.02209 =
         0.01527   -0.00272    0.00388   -0.00087
SN2   6    1.215064    0.180273   -0.015901    10.50000    0.02410    0.01956 =
         0.01339    0.00042    0.00333   -0.00010
GA2   4    1.215064    0.180273   -0.015901    10.50000    0.02410    0.01956 =
         0.01339    0.00042    0.00333   -0.00010
SN3   6    0.477973    0.250612    0.157913    10.50000    0.01939    0.02709 =
         0.02046   -0.00007    0.00199   -0.00133
GA3   4    0.477973    0.250612    0.157913    10.50000    0.01939    0.02709 =
         0.02046   -0.00007    0.00199   -0.00133
SN4   6    0.968835    0.248811    0.144801    10.50000    0.01839    0.02501 =
         0.02231   -0.00028    0.00331   -0.00032
GA4   4    0.968835    0.248811    0.144801    10.50000    0.01839    0.02501 =
         0.02231   -0.00028    0.00331   -0.00032
SE1   5    0.923801    0.146272    0.028316    11.00000    0.02726    0.03415 =
         0.02764   -0.00937    0.00592   -0.00632
SE2   5    0.527103    0.160013    0.278519    11.00000    0.02618    0.04708 =
         0.02209    0.01005    0.00504    0.01050
SE3   5    0.720823    0.376323    0.145420    11.00000    0.02491    0.01929 =
         0.03009    0.00080    0.00750   -0.00052
SE4   5    0.222860    0.371255    0.154439    11.00000    0.01899    0.02479 =
         0.02759   -0.00028    0.00386    0.00013
SE5   5    0.210236    0.395705    0.358389    11.00000    0.04531    0.02190 =
         0.02490    0.00638    0.00307   -0.00093
SE6   5   -0.012808    0.120778    0.246708    11.00000    0.02624    0.02917 =
         0.03540    0.00755   -0.00113   -0.00821
SE7   5    1.466768    0.108389    0.066134    11.00000    0.02757    0.02954 =
         0.03259   -0.00646    0.00200    0.00580
SE8   5    0.250457    0.127774    0.449735    11.00000    0.05070    0.02038 =
         0.02386    0.00467    0.00718    0.00235
N1    3    0.734208    0.423995    0.330701    11.00000    0.04470    0.05059 =
         0.06090   -0.02099    0.00766   -0.01168
N2    3    0.752486    0.111963    0.450600    11.00000    0.09202    0.03231 =
         0.05460    0.00202   -0.02146   -0.00463
HKLF 4




REM  X in P2(1)/c
REM R1 =  0.0579 for    3247 Fo > 4sig(Fo)  and  0.0677 for all    3757 data
REM    128 parameters refined using      0 restraints

END

WGHT      0.0203    107.1807

REM Highest difference peak  1.813,  deepest hole -1.569,  1-sigma level  0.351
Q1    1   0.6617  0.1892 -0.0184  11.00000  0.05    1.81
Q2    1   0.7951  0.1978  0.3207  11.00000  0.05    1.50
Q3    1   0.9835  0.1141  0.0659  11.00000  0.05    1.47
Q4    1   1.4683  0.1577  0.0266  11.00000  0.05    1.34
Q5    1   0.7501  0.3154  0.1067  11.00000  0.05    1.30
Q6    1   0.7208  0.2459  0.1509  11.00000  0.05    1.24
Q7    1   0.5145  0.1195  0.2421  11.00000  0.05    1.24
Q8    1   1.1683  0.1767 -0.0501  11.00000  0.05    1.22
Q9    1   0.1859  0.2030  0.3306  11.00000  0.05    1.20
Q10   1   0.2889  0.1788  0.3116  11.00000  0.05    1.19
Q11   1   0.2379  0.2337  0.3097  11.00000  0.05    1.18
Q12   1   0.2258  0.1724  0.3042  11.00000  0.05    1.17
Q13   1   1.1311  0.1931 -0.0087  11.00000  0.05    1.15
Q14   1   0.2515  0.2123  0.3490  11.00000  0.05    1.15
Q15   1   0.2752  0.1668  0.3410  11.00000  0.05    1.13
Q16   1   0.2436  0.1853  0.3505  11.00000  0.05    1.12
Q17   1   1.0595  0.0877 -0.0269  11.00000  0.05    1.12
Q18   1   0.6160  0.1246  0.4562  11.00000  0.05    1.11
Q19   1   1.2223  0.1523  0.0157  11.00000  0.05    1.08
Q20   1   0.2568  0.3128  0.1162  11.00000  0.05    1.08
;
_shelx_res_checksum              93529
_shelx_hkl_file
;
   1   0   0    7.11    0.23
  -1   0   0    7.28    0.25
  -1   0   0    7.06    0.23
  -2   0   0   22.97    0.76
   2   0   0   21.02    0.73
  -2   0   0   21.76    0.73
   3   0   0   84.51    2.62
  -3   0   0   88.57    2.61
  -3   0   0   88.30    2.66
  -4   0   0  978.45   29.21
  -4   0   0 1000.00   29.14
  -5   0   0   10.63    0.44
  -5   0   0   10.61    0.55
  -6   0   0   10.99    0.48
  -6   0   0   10.27    0.66
  -7   0   0   55.17    1.92
  -7   0   0   54.26    1.74
  -8   0   0   15.63    0.93
  -9   0   0    8.88    0.99
 -10   0   0    0.12    0.79
 -11   0   0    1.88    1.05
 -12   0   0    3.21    1.44
   0   1   0   -0.64    0.06
   1  -1   0  228.04    6.48
  -1  -1   0  192.96    6.47
  -1  -1   0  227.90    6.49
  -1   1   0  226.49    6.48
   1   1   0  217.64    6.48
   1   1   0  222.88    6.47
  -2  -1   0    1.11    0.14
  -2  -1   0    1.12    0.17
  -2   1   0    0.98    0.15
   2   1   0    1.11    0.13
  -2   1   0    1.21    0.16
  -3  -1   0  305.00    8.97
  -3  -1   0  305.45    8.92
   3  -1   0  281.28    8.93
  -3   1   0  302.24    8.93
  -3   1   0  311.40    8.97
   3   1   0  304.86    8.92
  -4  -1   0  310.99    9.29
  -4  -1   0  312.78    9.36
  -4   1   0  317.04    9.36
  -4   1   0  314.14    9.30
  -5  -1   0   13.68    0.52
  -5  -1   0   13.59    0.64
  -5   1   0   14.15    0.64
  -5   1   0   14.22    0.54
  -6  -1   0    7.86    0.39
  -6  -1   0    5.85    0.58
  -6   1   0    7.70    0.41
  -6   1   0    7.43    0.59
  -7  -1   0   20.38    0.92
  -7  -1   0   19.09    0.73
  -7   1   0   18.96    0.73
  -7   1   0   18.27    0.94
  -8  -1   0   87.66    2.99
  -8   1   0   90.39    3.00
  -9  -1   0    0.99    0.57
  -9   1   0    0.94    0.58
 -10  -1   0    1.01    0.82
 -10   1   0    0.91    0.81
 -11  -1   0   -0.54    0.98
 -11   1   0    0.43    0.97
 -12  -1   0   11.73    1.59
 -12   1   0   13.30    1.67
   0  -2   0  452.87   13.40
   0  -2   0  414.69   13.39
   0  -2   0  479.20   13.38
   0   2   0  431.58   13.39
   0   2   0  485.42   13.38
   1  -2   0    1.01    0.15
  -1  -2   0    0.98    0.15
  -1  -2   0    0.91    0.12
   1   2   0    1.05    0.14
  -1   2   0    1.17    0.17
   2  -2   0   49.71    1.61
  -2  -2   0   54.82    1.63
  -2  -2   0   53.89    1.60
  -2   2   0   49.23    1.61
   2   2   0   54.33    1.60
  -3  -2   0   14.38    0.50
  -3  -2   0   14.41    0.56
  -3   2   0   15.21    0.57
  -3   2   0   14.26    0.53
  -3   2   0   14.50    0.53
   3   2   0   14.30    0.51
  -4  -2   0  135.55    4.16
  -4  -2   0  138.58    4.09
  -4   2   0  133.86    4.10
  -4   2   0  137.86    4.16
  -5  -2   0    0.67    0.25
  -5  -2   0    0.99    0.18
  -5   2   0    0.60    0.24
  -5   2   0    0.74    0.19
  -7  -2   0   18.53    0.72
  -7  -2   0   17.36    0.89
  -7   2   0   19.13    0.93
  -7   2   0   18.74    0.74
  -8  -2   0    5.54    0.69
  -8   2   0    5.94    0.73
  -8   2   0    5.70    0.66
  -9  -2   0    0.40    0.55
  -9   2   0    0.68    0.59
 -10  -2   0    1.30    0.80
 -10   2   0   -0.24    0.82
 -11  -2   0    3.10    1.04
 -11   2   0    4.54    1.14
 -12  -2   0    1.93    1.38
 -12   2   0   -0.51    1.36
   0  -3   0    0.49    0.15
   0  -3   0    0.00    0.14
   0  -3   0    0.06    0.23
   0   3   0   -0.08    0.12
   0   3   0    0.34    0.17
   0   3   0    0.14    0.17
  -1  -3   0    0.63    0.15
   1  -3   0    0.85    0.17
  -1  -3   0    1.09    0.16
  -1   3   0    1.46    0.18
   1   3   0    1.47    0.19
  -2  -3   0   11.43    0.45
  -2  -3   0   11.91    0.43
   2  -3   0   11.39    0.47
  -2   3   0   11.01    0.45
   2   3   0   10.74    0.42
  -3  -3   0    1.88    0.21
  -3  -3   0    1.89    0.26
  -3   3   0    1.87    0.23
  -3   3   0    2.14    0.23
  -4  -3   0    9.11    0.40
  -4  -3   0    8.83    0.47
  -4   3   0    9.53    0.48
  -4   3   0    8.80    0.44
  -5  -3   0    0.78    0.19
  -5  -3   0    0.54    0.25
  -5   3   0    0.67    0.27
  -5   3   0    0.88    0.21
  -6  -3   0   32.82    1.24
  -6  -3   0   32.09    1.09
  -6   3   0   32.33    1.27
  -6   3   0   31.89    1.12
  -7  -3   0    5.22    0.41
  -7  -3   0    5.19    0.60
  -7   3   0    4.93    0.45
  -7   3   0    4.64    0.53
  -8  -3   0    1.14    0.46
  -8   3   0    0.64    0.49
  -8   3   0   -0.16    0.40
  -9  -3   0   -0.56    0.56
  -9   3   0   -0.50    0.58
 -10  -3   0    9.09    1.25
 -10   3   0    9.86    1.35
 -11  -3   0   -0.09    1.01
 -11   3   0    1.29    1.00
 -12  -3   0    2.55    1.47
 -12   3   0    3.00    1.47
   0  -4   0  515.57   15.20
   0  -4   0  514.09   15.17
   0   4   0  506.73   15.18
   1  -4   0    3.82    0.30
  -1  -4   0    3.48    0.29
  -1  -4   0    4.14    0.28
  -1   4   0    4.39    0.30
  -2  -4   0  138.53    4.14
  -2  -4   0  136.10    4.13
   2  -4   0  136.67    4.17
   3  -4   0    5.46    0.38
  -3  -4   0    5.56    0.36
  -3  -4   0    5.74    0.32
  -4  -4   0   66.61    2.13
  -4  -4   0   64.18    2.07
  -4   4   0   67.63    2.14
  -4   4   0   68.50    2.15
  -4   4   0   66.17    2.12
  -5  -4   0    1.92    0.32
  -5  -4   0    1.81    0.24
  -5   4   0    1.24    0.31
  -5   4   0    1.84    0.27
  -6  -4   0   21.86    0.98
  -6  -4   0   23.36    0.85
  -6   4   0   23.43    0.91
  -6   4   0   22.37    1.02
  -7  -4   0    1.82    0.29
  -7  -4   0    1.41    0.42
  -7   4   0    1.36    0.39
  -7   4   0    1.22    0.38
  -8  -4   0    0.13    0.45
  -8   4   0    0.36    0.49
  -8   4   0   -0.15    0.41
  -9  -4   0    3.51    0.69
  -9   4   0    5.29    0.75
 -10  -4   0    1.64    0.82
 -10   4   0    2.02    0.86
 -11  -4   0    2.41    1.10
 -11   4   0    4.21    1.09
   0  -5   0    0.07    0.17
   0  -5   0    0.16    0.23
   0   5   0    0.09    0.18
   1  -5   0   19.46    0.76
  -1  -5   0   21.10    0.75
  -1  -5   0   21.13    0.79
  -1   5   0   18.09    0.76
   2  -5   0   12.26    0.60
  -2  -5   0   13.98    0.55
  -2  -5   0   13.35    0.56
  -3  -5   0   80.54    2.53
   3  -5   0   80.61    2.55
  -3  -5   0   81.05    2.50
  -4  -5   0    6.93    0.46
  -4  -5   0    5.84    0.38
  -4   5   0    6.11    0.47
  -4   5   0    5.84    0.46
  -5  -5   0    0.97    0.23
  -5  -5   0    0.72    0.31
  -5   5   0    0.84    0.30
  -5   5   0    0.14    0.27
  -6  -5   0   76.58    2.55
  -6  -5   0   77.15    2.43
  -6   5   0   77.77    2.57
  -6   5   0   76.39    2.50
  -7  -5   0    4.79    0.56
  -7  -5   0    3.66    0.44
  -7   5   0    4.63    0.57
  -7   5   0    4.22    0.47
  -8  -5   0    3.19    0.58
  -8   5   0    3.68    0.52
  -8   5   0    3.39    0.58
  -9  -5   0    0.41    0.61
  -9   5   0    0.37    0.64
 -10  -5   0   27.43    1.72
 -10   5   0   26.93    1.71
 -11  -5   0    0.07    1.09
 -11   5   0    1.02    1.11
   0  -6   0   13.30    0.57
   0  -6   0   12.26    0.61
   0   6   0   11.53    0.56
   1  -6   0    0.98    0.25
  -1  -6   0    0.70    0.23
  -1  -6   0    1.10    0.31
  -1   6   0    1.10    0.25
  -2  -6   0   95.43    2.89
  -2  -6   0   99.80    2.92
   2  -6   0   92.82    2.93
  -2   6   0   83.92    2.90
   3  -6   0    5.14    0.46
  -3  -6   0    4.54    0.41
  -3  -6   0    5.14    0.38
  -4  -6   0   17.34    0.76
  -4  -6   0   17.29    0.71
   4  -6   0   15.88    0.80
  -5  -6   0    0.19    0.26
  -5  -6   0    0.81    0.35
  -5   6   0    0.76    0.41
  -5   6   0    0.44    0.31
  -5   6   0    0.64    0.37
  -6  -6   0   22.57    1.06
  -6  -6   0   24.57    0.98
  -6   6   0   23.49    1.08
  -6   6   0   24.73    1.08
  -7  -6   0    7.56    0.61
  -7  -6   0    6.05    0.71
  -7   6   0    7.65    0.67
  -7   6   0    5.90    0.72
  -8  -6   0    1.92    0.56
  -8   6   0    0.18    0.51
  -8   6   0    1.91    0.56
  -9  -6   0    2.37    0.71
  -9   6   0    1.72    0.65
 -10  -6   0    1.23    0.85
 -10   6   0   -0.10    0.80
 -11  -6   0   -1.46    1.08
 -11   6   0    0.34    1.17
   0  -7   0   -0.06    0.26
   0  -7   0    0.13    0.23
   0   7   0    0.11    0.21
  -1  -7   0    0.87    0.25
   1  -7   0    0.76    0.28
  -1  -7   0    1.33    0.38
  -1   7   0    1.21    0.29
   2  -7   0   12.37    0.66
  -2  -7   0   12.05    0.63
  -2  -7   0   12.34    0.59
  -2   7   0   12.13    0.63
  -3  -7   0   11.15    0.61
   3  -7   0   11.58    0.69
  -3  -7   0   12.07    0.59
  -4  -7   0   76.88    2.44
   4  -7   0   70.77    2.49
  -4  -7   0   76.12    2.40
  -5  -7   0    1.63    0.41
  -5  -7   0    1.39    0.38
  -5   7   0    1.65    0.46
  -5   7   0    1.71    0.43
  -6  -7   0   39.00    1.51
  -6  -7   0   39.35    1.40
  -6   7   0   38.89    1.51
  -6   7   0   39.26    1.49
  -7  -7   0    2.97    0.54
  -7  -7   0    2.92    0.42
  -7   7   0    2.15    0.48
  -7   7   0    3.45    0.54
  -8  -7   0   47.43    1.86
  -8   7   0   44.23    1.84
  -8   7   0   45.75    1.78
  -9  -7   0    1.76    0.74
  -9   7   0    0.63    0.67
 -10  -7   0   15.05    1.61
 -10   7   0   14.07    1.48
 -11  -7   0    1.50    1.23
 -11   7   0   -0.32    1.24
   0  -8   0  347.43   10.37
   0  -8   0  341.96   10.36
   0   8   0  345.89   10.31
  -1  -8   0    4.11    0.47
   1  -8   0    3.93    0.42
  -1  -8   0    5.59    0.58
  -1   8   0    4.45    0.48
  -2  -8   0   51.62    1.81
   2  -8   0   49.72    1.79
  -2  -8   0   52.57    1.77
  -2   8   0   53.02    1.79
  -3  -8   0    9.63    0.63
   3  -8   0    8.46    0.70
  -3  -8   0    8.61    0.61
  -3   8   0    8.82    0.60
   4  -8   0  106.83    3.55
  -4  -8   0  113.26    3.51
  -4  -8   0  110.48    3.47
  -5  -8   0    4.11    0.59
   5  -8   0    5.64    0.69
  -5  -8   0    4.14    0.51
  -5   8   0    3.00    0.47
  -5   8   0    3.36    0.50
  -6  -8   0    6.27    0.69
  -6  -8   0    6.47    0.56
  -6   8   0    6.77    0.68
  -6   8   0    5.91    0.65
  -6   8   0    5.97    0.70
  -7  -8   0    1.82    0.41
  -7  -8   0    2.45    0.52
  -7   8   0    1.17    0.48
  -7   8   0    1.41    0.55
  -8  -8   0    4.05    0.69
  -8   8   0    3.66    0.74
  -8   8   0    4.63    0.69
  -9  -8   0    4.18    0.89
  -9   8   0    2.69    0.81
 -10  -8   0    1.35    1.05
 -10   8   0    0.37    0.97
 -11  -8   0    1.72    1.37
 -11   8   0   -0.25    1.30
   0  -9   0    0.31    0.35
   0  -9   0   -0.19    0.28
   0   9   0    0.28    0.24
  -1  -9   0   23.78    0.99
  -1  -9   0   23.28    1.07
   1  -9   0   23.21    0.99
  -1   9   0   24.55    0.99
  -2  -9   0   18.97    0.84
   2  -9   0   18.61    0.89
  -2  -9   0   17.86    0.93
  -2   9   0   18.06    0.90
  -3  -9   0    1.30    0.42
   3  -9   0    0.93    0.40
  -3  -9   0    1.57    0.38
  -3   9   0    1.18    0.37
  -4  -9   0   19.79    0.88
   4  -9   0   19.89    1.02
  -4  -9   0   20.56    1.00
  -4   9   0   19.65    0.98
  -5  -9   0   14.14    0.76
   5  -9   0   14.48    0.96
  -5  -9   0   14.72    0.93
  -6  -9   0   17.63    0.85
  -6  -9   0   17.29    1.02
  -6   9   0   15.01    0.94
  -6   9   0   15.44    0.91
  -6   9   0   16.24    1.01
  -7  -9   0    0.65    0.42
  -7  -9   0    0.25    0.57
  -7   9   0    1.75    0.49
  -7   9   0    1.12    0.57
  -8  -9   0    8.21    1.12
  -8   9   0    7.90    1.00
  -8   9   0    7.65    1.16
  -9  -9   0    0.68    0.94
  -9   9   0    2.71    0.85
 -10  -9   0    1.09    1.19
 -10   9   0    0.54    1.05
   0 -10   0    0.99    0.38
   0 -10   0    1.25    0.40
   0  10   0    1.26    0.29
  -1 -10   0    1.17    0.42
   1 -10   0    0.46    0.33
  -1 -10   0    0.82    0.35
  -1  10   0    0.98    0.31
  -2 -10   0  107.30    3.46
  -2 -10   0  106.32    3.38
   2 -10   0  102.54    3.40
  -2  10   0  103.98    3.40
  -3 -10   0    2.91    0.45
  -3 -10   0    2.88    0.54
   3 -10   0    3.57    0.55
  -3  10   0    2.54    0.44
  -4 -10   0    2.99    0.42
   4 -10   0    2.77    0.54
  -4 -10   0    4.17    0.63
  -4  10   0    2.25    0.44
  -5 -10   0   19.36    1.15
   5 -10   0   21.30    1.22
  -5 -10   0   21.37    0.98
  -5  10   0   21.65    1.19
  -6 -10   0    4.97    0.70
  -6 -10   0    4.94    0.64
  -6  10   0    4.32    0.59
  -6  10   0    4.12    0.57
  -6  10   0    5.61    0.66
  -6  10   0    5.15    0.69
  -7 -10   0    0.17    0.51
  -7 -10   0    0.39    0.69
  -7  10   0   -0.51    0.67
  -7  10   0    1.48    0.52
  -8 -10   0    0.80    0.81
  -8  10   0    0.13    0.63
  -9 -10   0    6.97    1.24
  -9  10   0    7.03    1.05
 -10 -10   0   -2.99    1.34
 -10  10   0   -0.51    1.17
   0 -11   0    0.34    0.38
   0 -11   0    0.25    0.39
  -1 -11   0   34.60    1.42
   1 -11   0   35.33    1.40
  -1 -11   0   34.82    1.41
  -1  11   0   35.72    1.31
   2 -11   0   12.57    0.85
  -2 -11   0   12.87    0.81
  -2 -11   0   15.13    0.97
  -2  11   0   13.19    0.81
  -3 -11   0    1.59    0.58
   3 -11   0    0.84    0.48
  -3 -11   0    1.39    0.41
  -3  11   0    1.07    0.43
  -4 -11   0    5.67    0.86
  -4 -11   0    6.26    0.66
   4 -11   0    5.03    0.65
  -4  11   0    5.15    0.63
   5 -11   0   24.87    1.36
  -5 -11   0   22.19    1.08
  -5 -11   0   24.53    1.34
  -5  11   0   24.23    1.30
  -6 -11   0   10.81    1.14
  -6 -11   0   10.43    0.85
  -6  11   0   10.51    0.85
  -6  11   0   11.78    1.03
  -6  11   0    9.32    0.95
  -6  11   0    8.85    1.02
  -7 -11   0   -0.28    0.80
  -7 -11   0    1.20    0.59
  -7  11   0    0.23    0.69
  -7  11   0   -0.44    0.74
  -7  11   0   -1.17    0.71
  -7  11   0   -0.86    0.57
  -8 -11   0    5.21    1.07
  -8  11   0    4.78    1.02
  -8  11   0    4.85    0.83
  -9 -11   0    3.91    1.24
  -9  11   0    1.92    0.99
  -9  11   0    1.20    1.21
 -10 -11   0    3.69    1.54
 -10  11   0    1.56    1.29
 -10  11   0    3.89    1.62
   0 -12   0   15.46    0.88
   0 -12   0   13.66    0.89
   1 -12   0    4.74    0.56
  -1 -12   0    6.61    0.77
  -1 -12   0    3.80    0.57
  -1  12   0    4.40    0.58
  -2 -12   0   82.14    2.89
  -2 -12   0   83.76    2.85
   2 -12   0   84.79    2.89
  -2  12   0   85.41    2.78
   3 -12   0    5.00    0.68
  -3 -12   0    5.72    0.61
  -3 -12   0    7.43    0.89
  -3  12   0    6.22    0.78
  -4 -12   0   11.22    1.17
  -4 -12   0    9.75    0.81
   4 -12   0   10.40    1.00
  -4  12   0   10.73    1.13
   5 -12   0    3.27    0.80
  -5 -12   0    2.01    0.50
  -5 -12   0    2.03    0.77
  -5  12   0    2.99    0.66
  -6 -12   0   15.25    1.03
  -6 -12   0   13.27    1.39
  -6  12   0   13.74    1.28
  -6  12   0   11.69    1.17
  -6  12   0   12.32    1.25
  -6  12   0   13.12    0.96
  -7 -12   0    0.87    0.70
  -7 -12   0    2.20    0.95
  -7  12   0    2.83    0.70
  -7  12   0    0.63    0.87
  -7  12   0    1.08    0.87
  -7  12   0   -0.39    0.91
  -8 -12   0    3.83    1.32
  -8  12   0    3.90    0.96
  -8  12   0    5.03    1.15
  -9 -12   0    1.01    1.37
  -9  12   0   -1.30    1.04
  -9  12   0    4.89    1.46
   0 -13   0    0.19    0.46
   1 -13   0    0.02    0.49
  -1 -13   0   -0.14    0.56
  -1 -13   0    0.01    0.50
  -2 -13   0    0.32    0.46
  -2 -13   0    0.58    0.67
   2 -13   0    0.63    0.53
   3 -13   0    2.78    0.67
  -3 -13   0    4.22    0.59
  -3 -13   0    5.19    0.92
  -3  13   0    4.07    0.82
   4 -13   0    2.13    0.70
  -4 -13   0    2.72    0.54
  -4 -13   0    2.02    0.86
  -4  13   0    2.44    0.87
   5 -13   0    1.14    0.80
  -5 -13   0    1.05    0.91
  -5 -13   0    1.12    0.55
  -5  13   0    1.85    0.79
  -6 -13   0    4.44    0.76
  -6 -13   0    5.10    1.10
  -6  13   0    2.84    0.70
  -6  13   0    2.30    0.87
  -6  13   0    3.11    0.92
  -6  13   0    4.81    0.96
  -7 -13   0    3.14    1.16
  -7 -13   0    4.83    0.92
  -7  13   0    4.30    1.05
  -7  13   0    3.43    0.84
  -7  13   0    1.92    1.08
  -8 -13   0    0.44    1.34
  -8  13   0    1.25    1.03
  -9 -13   0    1.80    1.56
  -9  13   0    0.91    1.36
   0 -14   0   36.01    1.61
   1 -14   0    1.98    0.56
  -1 -14   0    1.82    0.70
  -1 -14   0    1.43    0.55
  -2 -14   0    8.39    0.80
  -2 -14   0    8.09    0.96
   2 -14   0    8.18    1.03
  -3 -14   0    5.14    0.91
   3 -14   0    5.99    0.87
  -3 -14   0    4.59    0.66
   4 -14   0   12.21    1.40
  -4 -14   0   12.94    1.11
  -4 -14   0   14.29    1.49
  -5 -14   0    3.57    1.13
   5 -14   0    2.40    1.00
  -5 -14   0    3.76    0.75
  -6 -14   0    9.64    0.98
  -6 -14   0   10.68    1.38
  -6  14   0    8.19    0.95
  -6  14   0    7.78    1.10
  -6  14   0    8.86    1.15
  -7 -14   0    1.32    1.33
  -7  14   0   -0.36    1.10
  -7  14   0    0.91    1.06
  -8 -14   0    2.25    1.49
   0 -15   0    0.55    0.64
  -1 -15   0    3.36    0.74
   1 -15   0    3.59    0.77
  -1 -15   0    4.19    0.77
  -2 -15   0    1.75    0.68
  -2 -15   0    2.19    0.85
   2 -15   0    1.46    0.73
  -3 -15   0    0.10    0.62
  -3 -15   0    0.58    0.84
   3 -15   0    0.16    0.73
  -4 -15   0   14.75    1.21
   4 -15   0   13.23    1.51
  -4 -15   0   15.36    1.70
   5 -15   0    0.31    1.14
  -5 -15   0    1.52    0.82
  -5 -15   0    3.25    1.81
  -6 -15   0    0.70    0.89
  -6  15   0   -1.67    1.02
  -6  15   0    1.99    1.14
  -7  15   0    0.94    1.26
  -7  15   0    1.34    1.19
   0 -16   0   41.76    1.94
  -1 -16   0    1.93    0.75
   1 -16   0    1.68    0.80
  -2 -16   0    0.44    0.70
   2 -16   0    0.42    0.86
   3 -16   0    1.97    0.95
  -3 -16   0    1.37    0.77
  -4 -16   0   21.10    1.53
   4 -16   0   21.42    1.90
  -5 -16   0    2.15    0.96
   5 -16   0    0.06    1.27
  -6 -16   0    0.71    0.97
  -6  16   0    0.86    1.15
  -6  16   0    2.01    1.25
  -7  16   0    0.14    1.31
  -7  16   0    3.12    1.44
   0 -17   0   -0.86    0.85
  -1 -17   0    0.18    0.85
   1 -17   0    0.99    0.94
   2 -17   0    0.98    0.96
  -2 -17   0    0.45    0.86
  -3 -17   0    2.40    0.93
   3 -17   0    0.94    1.14
  -4 -17   0    0.64    0.98
   4 -17   0    5.05    1.34
  -5 -17   0   -1.73    0.99
   5 -17   0    0.18    1.41
  -6 -17   0    1.29    1.19
  -6  17   0    3.11    1.46
  -6  17   0   -0.42    1.31
   0 -18   0    0.33    1.08
  -1 -18   0   -0.42    1.01
   1 -18   0    1.05    1.16
   2 -18   0   -0.91    1.17
  -2 -18   0    1.74    1.07
   3 -18   0   -1.93    1.21
  -3 -18   0    1.16    1.11
  -4 -18   0    2.50    1.23
   4 -18   0   -0.15    1.44
  -5 -18   0    0.41    1.31
   0 -19   0    0.94    1.35
  -1 -19   0    0.69    1.30
   1 -19   0    0.13    1.34
   2 -19   0    2.11    1.62
  -2 -19   0   -0.18    1.31
 -12   0   1   -1.68    1.32
 -11   0   1    2.20    0.98
 -10   0   1    0.84    0.79
  -9   0   1    0.95    0.54
  -8   0   1    0.20    0.33
  -8   0   1    0.79    0.44
  -7   0   1    0.83    0.34
  -7   0   1    0.16    0.24
  -5   0   1    0.68    0.17
  -5   0   1    0.06    0.22
  -4   0   1    0.34    0.15
  -4   0   1    0.21    0.20
  -3   0   1    0.09    0.12
   3   0  -1   -0.03    0.11
  -3   0   1    0.20    0.15
   2   0  -1    1.15    0.15
  -2   0   1    1.50    0.17
  -1   0   1    0.02    0.06
   1   0  -1    0.01    0.05
   0   0  -1   -0.01    0.01
   0   0  -1    0.02    0.04
   0   0   1   -0.02    0.01
   0   0   1    0.01    0.03
   0   0  -1    0.03    0.04
  -1   0  -1    0.08    0.06
   1   0   1    0.44    0.07
   3   0   1    0.42    0.09
  -3   0  -1    0.41    0.10
  -3   0  -1    0.34    0.16
  -4   0  -1    0.26    0.12
   4   0   1    0.17    0.14
   4   0   1    0.00    0.13
  -5   0  -1    0.07    0.14
  -5   0  -1   -0.02    0.22
  -6   0  -1    0.10    0.17
  -6   0  -1    0.27    0.32
  -7   0  -1   -0.04    0.19
  -7   0  -1    0.34    0.34
  -8   0  -1    0.05    0.43
  -9   0  -1   -0.41    0.56
 -10   0  -1   -0.09    0.79
 -11   0  -1    1.28    1.01
 -12   0  -1    0.56    1.39
 -12  -1   1    1.71    1.34
 -12   1   1    1.65    1.38
 -11  -1   1    0.40    0.94
 -11   1   1    2.44    1.00
 -10  -1   1    1.62    0.79
 -10   1   1    1.32    0.80
  -9  -1   1    0.54    0.52
  -9   1   1    0.23    0.57
  -8  -1   1   -0.24    0.40
  -8  -1   1    0.93    0.35
  -8   1   1    0.54    0.37
  -8   1   1    0.64    0.44
  -7  -1   1   24.06    1.04
  -7  -1   1   23.18    0.89
  -7   1   1   24.44    1.05
  -7   1   1   24.90    0.90
  -6  -1   1    8.99    0.64
  -6  -1   1    9.43    0.47
  -6   1   1    9.42    0.65
  -6   1   1   10.12    0.49
  -5  -1   1    0.54    0.17
  -5  -1   1    0.13    0.23
  -5   1   1    0.15    0.22
  -4  -1   1    2.04    0.19
  -4  -1   1    2.06    0.26
  -4   1   1    1.90    0.25
  -4   1   1    2.23    0.25
  -3  -1   1   37.47    1.20
   3  -1  -1   36.10    1.17
  -3  -1   1   37.99    1.16
   3  -1  -1   34.87    1.18
  -3   1   1   38.73    1.17
  -3   1   1   39.75    1.21
   3   1  -1   34.71    1.16
  -2  -1   1   16.19    0.51
   2  -1  -1   14.11    0.51
  -2  -1   1   15.65    0.53
   2  -1  -1   14.61    0.52
  -2   1   1   14.80    0.52
   2   1  -1   15.12    0.50
  -1  -1   1    0.37    0.07
  -1  -1   1    0.57    0.08
   1   1  -1    0.37    0.07
   1   1  -1    0.38    0.07
  -1   1   1    0.30    0.07
  -1   1   1    0.41    0.08
  -1   1   1    0.35    0.09
   1  -1   1    2.75    0.14
  -1  -1  -1    2.53    0.12
  -1  -1  -1    2.39    0.15
  -1   1  -1    2.49    0.13
   1   1   1    2.70    0.12
  -1   1  -1    2.65    0.14
  -2  -1  -1  171.54    4.98
  -2  -1  -1  166.36    4.93
  -2   1  -1  167.58    4.97
  -2   1  -1  166.07    4.94
  -2   1  -1  162.53    4.94
  -2   1  -1  162.57    4.95
   2   1   1  171.20    4.93
  -3  -1  -1    5.82    0.23
  -3  -1  -1    5.66    0.31
  -3   1  -1    5.02    0.24
  -3   1  -1    5.45    0.25
   3   1   1    5.31    0.23
  -3   1  -1    4.95    0.30
  -4  -1  -1   29.74    1.03
  -4  -1  -1   29.92    0.92
   4   1   1   27.58    0.93
  -4   1  -1   30.03    0.95
  -4   1  -1   28.62    1.02
  -4   1  -1   28.84    0.93
  -5  -1  -1    1.16    0.17
  -5  -1  -1    1.21    0.27
  -5   1  -1    1.35    0.27
  -5   1  -1    1.50    0.18
  -6  -1  -1   30.22    0.95
  -6  -1  -1   26.60    1.13
  -6   1  -1   26.91    1.14
  -6   1  -1   30.51    0.97
  -7  -1  -1    0.95    0.21
  -7  -1  -1    0.93    0.36
  -7   1  -1    0.60    0.37
  -7   1  -1    0.67    0.22
  -8  -1  -1   17.28    1.01
  -8   1  -1   19.39    1.02
  -9  -1  -1    0.89    0.58
  -9   1  -1    1.26    0.59
 -10  -1  -1    2.83    0.92
 -10   1  -1    3.07    0.90
 -11  -1  -1    1.09    1.05
 -11   1  -1    2.26    1.01
 -12  -1  -1    0.07    1.42
 -12   1  -1    2.54    1.43
 -12  -2   1   -0.32    1.34
 -12   2   1    0.46    1.31
 -11  -2   1    3.70    1.05
 -11   2   1    4.48    1.10
 -10  -2   1    0.95    0.75
 -10   2   1    1.24    0.82
  -9  -2   1   -0.75    0.52
  -9   2   1    0.05    0.57
  -8  -2   1    9.46    0.78
  -8  -2   1    8.03    0.65
  -8   2   1    7.89    0.79
  -8   2   1    9.22    0.70
  -7  -2   1    8.97    0.51
  -7  -2   1    9.12    0.65
  -7   2   1    8.99    0.55
  -7   2   1   10.82    0.70
  -6  -2   1   39.58    1.41
  -6  -2   1   38.58    1.26
  -6   2   1   35.12    1.40
  -6   2   1   38.48    1.28
  -5  -2   1    0.64    0.18
  -5  -2   1    0.59    0.24
  -5   2   1    0.38    0.25
  -5   2   1    0.63    0.20
  -4  -2   1  115.65    3.55
  -4  -2   1  115.65    3.50
  -4   2   1  117.74    3.57
  -4   2   1  115.21    3.52
  -3  -2   1    8.74    0.35
  -3  -2   1    8.44    0.39
  -3   2   1    9.00    0.38
  -2  -2   1  442.39   13.31
  -2  -2   1  452.09   13.33
   2   2  -1  454.78   13.31
  -2   2   1  469.85   13.34
  -2   2   1  444.07   13.34
  -2   2   1  443.65   13.34
   1  -2  -1    5.57    0.28
  -1  -2   1    5.75    0.25
  -1  -2   1    5.88    0.23
   1   2  -1    6.03    0.24
   1   2  -1    5.42    0.22
  -1   2   1    5.63    0.26
   0  -2  -1   19.77    0.62
   0  -2   1   17.86    0.60
   0  -2  -1   17.33    0.69
   0  -2   1   20.23    0.61
   0   2  -1   20.08    0.60
   0   2  -1   16.54    0.61
   0   2   1   19.69    0.61
   0   2  -1   16.73    0.67
  -1  -2  -1    0.03    0.11
  -1  -2  -1    0.16    0.10
   1  -2   1    0.27    0.13
   1   2   1    0.56    0.10
  -1   2  -1   -0.01    0.11
   2  -2   1  175.67    5.20
  -2  -2  -1  176.26    5.22
  -2  -2  -1  172.97    5.18
  -2   2  -1  175.53    5.20
  -2   2  -1  173.68    5.19
   2   2   1  173.15    5.17
  -3  -2  -1    1.02    0.13
  -3  -2  -1    0.62    0.18
  -3   2  -1    1.42    0.21
  -3   2  -1    0.86    0.14
   3   2   1    1.06    0.12
  -3   2  -1    1.07    0.18
  -3   2  -1    1.23    0.16
  -4  -2  -1   12.76    0.46
  -4  -2  -1   12.33    0.56
  -4   2  -1   12.54    0.54
  -4   2  -1   12.57    0.48
   4   2   1   10.79    0.45
  -5  -2  -1    3.87    0.29
  -5  -2  -1    4.11    0.42
  -5   2  -1    4.84    0.31
  -5   2  -1    4.22    0.40
  -6  -2  -1    1.17    0.35
  -6  -2  -1    1.44    0.21
  -6   2  -1    1.47    0.22
  -6   2  -1    0.53    0.34
  -7  -2  -1   30.40    1.24
  -7  -2  -1   31.76    1.05
  -7   2  -1   30.86    1.06
  -7   2  -1   30.52    1.27
  -8  -2  -1    3.36    0.56
  -8   2  -1    3.24    0.57
  -9  -2  -1    1.22    0.58
  -9   2  -1    1.75    0.61
 -10  -2  -1    1.51    0.81
 -10   2  -1    2.06    0.88
 -11  -2  -1   10.92    1.32
 -11   2  -1   11.47    1.30
 -12  -2  -1   -0.17    1.42
 -12   2  -1    4.47    1.46
 -12  -3   1   -1.49    1.37
 -12   3   1    0.92    1.35
 -11  -3   1    2.16    1.08
 -11   3   1    0.98    1.05
 -10  -3   1    2.23    0.81
 -10   3   1    1.90    0.87
  -9  -3   1    0.52    0.55
  -9   3   1    1.53    0.64
  -8  -3   1    0.74    0.46
  -8  -3   1    0.58    0.40
  -8   3   1    0.54    0.49
  -7  -3   1   60.11    1.91
  -7  -3   1   58.49    2.04
  -7   3   1   59.63    2.07
  -7   3   1   57.91    1.95
  -6  -3   1    2.07    0.40
  -6  -3   1    1.80    0.26
  -6   3   1    1.85    0.30
  -6   3   1    1.78    0.40
  -5  -3   1    0.52    0.25
  -5  -3   1    1.01    0.20
  -5   3   1    0.43    0.26
  -5   3   1   -0.04    0.20
  -4  -3   1    0.03    0.18
  -4  -3   1   -0.17    0.14
  -4   3   1    0.18    0.18
  -3  -3   1   79.19    2.40
  -3  -3   1   78.61    2.43
  -3   3   1   77.91    2.43
  -3   3   1   79.05    2.45
  -2  -3   1   21.25    0.70
   2  -3  -1   20.54    0.73
  -2  -3   1   20.61    0.70
   1  -3  -1   33.14    1.08
  -1  -3   1   34.09    1.05
  -1  -3   1   32.93    1.04
  -1   3   1   32.22    1.07
   1   3  -1   32.96    1.05
   0  -3  -1    6.68    0.28
   0  -3  -1    6.53    0.34
   0  -3   1    6.24    0.34
   0  -3  -1    6.98    0.50
   0  -3   1    6.59    0.32
   0   3  -1    6.54    0.31
   0   3   1    7.06    0.33
   0   3  -1    6.76    0.43
   1  -3   1    8.50    0.40
  -1  -3  -1    8.89    0.41
  -1  -3  -1    9.54    0.39
  -1   3  -1    9.83    0.43
   1   3   1    9.27    0.37
  -1   3  -1    9.58    0.39
   2  -3   1   75.13    2.27
  -2  -3  -1   74.88    2.27
  -2  -3  -1   75.71    2.24
   2   3   1   71.13    2.23
  -2   3  -1   71.31    2.25
   3  -3   1    3.35    0.29
  -3  -3  -1    3.32    0.23
  -3  -3  -1    2.93    0.29
  -3   3  -1    2.67    0.26
   3   3   1    2.99    0.22
  -4  -3  -1   42.79    1.32
  -4  -3  -1   41.65    1.41
  -4   3  -1   41.16    1.36
  -4   3  -1   41.83    1.40
  -5  -3  -1    3.21    0.29
  -5  -3  -1    3.41    0.38
  -5   3  -1    3.30    0.41
  -5   3  -1    3.85    0.33
  -7  -3  -1    0.17    0.34
  -7  -3  -1   -0.25    0.22
  -7   3  -1    0.18    0.23
  -7   3  -1    0.64    0.37
  -8  -3  -1   24.61    1.21
  -8   3  -1   28.07    1.28
  -9  -3  -1    2.24    0.65
  -9   3  -1    1.77    0.62
 -10  -3  -1    3.41    0.89
 -10   3  -1    4.37    0.96
 -11  -3  -1    2.03    1.09
 -11   3  -1    5.15    1.19
 -12  -3  -1   -1.59    1.42
 -12   3  -1    0.09    1.40
 -12  -4   1    0.18    1.40
 -12   4   1    2.71    1.56
 -11  -4   1    1.94    1.04
 -11   4   1    1.81    1.08
 -10  -4   1    5.55    0.94
 -10   4   1    4.84    0.93
  -9  -4   1    1.77    0.62
  -9   4   1    0.65    0.61
  -8  -4   1    1.15    0.41
  -8  -4   1    2.04    0.53
  -8   4   1    1.44    0.51
  -8   4   1    2.11    0.42
  -7  -4   1    6.58    0.64
  -7  -4   1    5.67    0.56
  -7   4   1    6.85    0.66
  -7   4   1    5.61    0.64
  -6  -4   1   16.03    0.67
  -6  -4   1   15.13    0.81
  -6   4   1   14.70    0.81
  -6   4   1   14.34    0.73
  -5  -4   1    2.58    0.32
  -5  -4   1    3.07    0.36
  -5   4   1    2.59    0.32
  -5   4   1    2.17    0.36
  -4  -4   1   54.73    1.71
  -4  -4   1   55.00    1.76
  -4   4   1   53.55    1.78
  -4   4   1   53.13    1.76
   3  -4  -1    0.22    0.20
  -3  -4   1    0.19    0.15
  -3  -4   1    0.12    0.17
   2  -4  -1   21.02    0.81
  -2  -4   1   22.52    0.77
  -2  -4   1   22.96    0.77
  -1  -4   1    3.62    0.26
   1  -4  -1    3.35    0.30
  -1  -4   1    3.82    0.26
   0  -4   1   87.26    2.53
   0  -4  -1   82.68    2.50
   0  -4  -1   77.35    2.60
   0  -4  -1   87.33    2.54
   0  -4   1   79.62    2.52
   0   4  -1   80.23    2.59
  -1  -4  -1    4.17    0.29
  -1  -4  -1    4.53    0.34
   1  -4   1    4.46    0.31
  -1   4  -1    4.26    0.35
  -2  -4  -1   12.30    0.52
  -2  -4  -1   12.92    0.50
   2  -4   1   12.62    0.54
   3  -4   1   37.52    1.28
  -3  -4  -1   38.75    1.24
  -3  -4  -1   39.43    1.30
  -4  -4  -1    4.64    0.31
  -4  -4  -1    4.74    0.40
  -4   4  -1    4.63    0.38
  -4   4  -1    4.32    0.38
  -4   4  -1    4.80    0.39
  -5  -4  -1    3.43    0.33
  -5  -4  -1    3.84    0.46
  -5   4  -1    4.15    0.39
  -5   4  -1    4.27    0.45
  -6  -4  -1    0.55    0.21
  -6  -4  -1    0.06    0.29
  -6   4  -1    0.18    0.38
  -6   4  -1    0.79    0.25
  -7  -4  -1    2.37    0.29
  -7  -4  -1    1.34    0.42
  -7   4  -1    1.37    0.31
  -7   4  -1    1.02    0.42
  -8  -4  -1    1.24    0.48
  -8   4  -1    1.26    0.53
  -9  -4  -1    0.93    0.62
  -9   4  -1    0.21    0.59
 -10  -4  -1    0.33    0.81
 -10   4  -1    0.44    0.84
 -11  -4  -1    1.51    1.15
 -11   4  -1    2.37    1.09
 -11  -5   1    1.35    1.12
 -11   5   1    1.20    1.15
 -10  -5   1   14.79    1.47
 -10   5   1   14.96    1.44
  -9  -5   1    0.81    0.61
  -9   5   1    0.56    0.65
  -8  -5   1    1.11    0.51
  -8  -5   1    2.19    0.46
  -8   5   1    2.38    0.46
  -8   5   1    1.15    0.54
  -7  -5   1    4.87    0.54
  -7  -5   1    5.22    0.56
  -7   5   1    4.95    0.49
  -7   5   1    6.76    0.69
  -6  -5   1   22.52    1.01
  -6  -5   1   22.11    0.90
  -6   5   1   20.79    1.01
  -6   5   1   22.82    1.02
  -5  -5   1   11.52    0.63
  -5  -5   1   10.31    0.54
  -5   5   1   11.06    0.63
  -5   5   1   10.65    0.62
  -4  -5   1    2.45    0.30
  -4  -5   1    2.20    0.25
  -4   5   1    2.01    0.33
  -4   5   1    1.58    0.30
  -3  -5   1    9.20    0.44
   3  -5  -1    9.68    0.53
  -3  -5   1    9.14    0.46
   2  -5  -1   13.51    0.62
  -2  -5   1   13.33    0.55
  -2  -5   1   14.03    0.56
  -1  -5   1   80.84    2.44
   1  -5  -1   74.34    2.44
  -1  -5   1   78.83    2.42
  -1   5   1   78.12    2.41
   0  -5   1    1.92    0.23
   0  -5  -1    2.11    0.24
   0  -5  -1    2.12    0.33
   0  -5   1    2.14    0.25
   0   5   1    2.01    0.22
   0   5  -1    1.55    0.26
  -1  -5  -1    5.93    0.43
  -1  -5  -1    4.50    0.33
   1  -5   1    4.59    0.36
  -1   5  -1    4.30    0.40
  -2  -5  -1  182.52    5.37
  -2  -5  -1  179.97    5.39
   2  -5   1  172.21    5.39
   3  -5   1   56.71    1.86
  -3  -5  -1   57.32    1.81
  -3  -5  -1   57.14    1.85
  -4  -5  -1   14.89    0.67
   4  -5   1   14.29    0.67
  -4  -5  -1   14.47    0.60
  -4   5  -1   14.38    0.65
  -5  -5  -1    0.09    0.30
  -5  -5  -1   -0.25    0.21
  -5   5  -1    0.28    0.26
  -5   5  -1    0.09    0.27
  -5   5  -1    0.31    0.28
  -6  -5  -1   71.29    2.38
  -6  -5  -1   71.65    2.24
  -6   5  -1   70.59    2.39
  -6   5  -1   70.63    2.30
  -7  -5  -1    4.41    0.55
  -7  -5  -1    3.94    0.39
  -7   5  -1    4.88    0.58
  -7   5  -1    4.66    0.51
  -8  -5  -1    4.64    0.66
  -8   5  -1    3.35    0.60
  -9  -5  -1    0.73    0.61
  -9   5  -1    0.46    0.62
 -10  -5  -1    4.04    0.91
 -10   5  -1    3.81    0.91
 -11  -5  -1   -1.15    1.06
 -11   5  -1    0.09    1.13
 -11  -6   1   -1.98    1.12
 -11   6   1   -0.28    1.15
 -10  -6   1    4.78    0.96
 -10   6   1    2.79    0.92
  -9  -6   1    5.91    0.82
  -9   6   1    4.95    0.79
  -8  -6   1    1.84    0.45
  -8  -6   1    2.46    0.57
  -8   6   1    0.98    0.50
  -8   6   1    2.15    0.58
  -7  -6   1    1.36    0.32
  -7  -6   1    1.07    0.43
  -7   6   1    1.45    0.39
  -7   6   1    0.67    0.47
  -6  -6   1   93.71    3.04
  -6  -6   1   93.52    2.95
  -6   6   1   93.94    3.02
  -6   6   1   91.80    3.05
  -5  -6   1    0.71    0.30
  -5  -6   1   -0.30    0.30
  -5   6   1    0.90    0.42
  -5   6   1    1.34    0.41
   4  -6  -1    2.70    0.40
  -4  -6   1    2.96    0.36
  -4  -6   1    3.23    0.41
  -3  -6   1    6.17    0.43
   3  -6  -1    6.67    0.49
  -3  -6   1    5.69    0.40
  -2  -6   1  363.85   10.85
  -2  -6   1  369.91   10.85
   2  -6  -1  358.51   10.89
   1  -6  -1    7.75    0.47
  -1  -6   1    8.90    0.46
  -1  -6   1    8.41    0.51
  -1   6   1    7.75    0.45
   0  -6   1   23.63    0.89
   0  -6  -1   24.93    0.97
   0  -6  -1   24.77    0.90
   0  -6   1   23.64    0.88
   0   6  -1   23.06    0.92
   0   6   1   23.73    0.83
  -1  -6  -1    0.66    0.30
  -1  -6  -1    0.76    0.22
   1  -6   1    0.91    0.24
  -1   6  -1    0.58    0.26
  -2  -6  -1  115.64    3.48
  -2  -6  -1  113.30    3.52
   2  -6   1  107.37    3.50
  -2   6  -1  116.18    3.54
  -3  -6  -1   14.31    0.66
   3  -6   1   13.20    0.67
  -3  -6  -1   13.29    0.59
   4  -6   1   14.58    0.73
  -4  -6  -1   13.94    0.63
  -4  -6  -1   14.46    0.70
  -5  -6  -1    3.03    0.45
  -5  -6  -1    2.96    0.34
  -5   6  -1    3.04    0.45
  -5   6  -1    3.36    0.40
  -5   6  -1    2.65    0.43
  -6  -6  -1    2.88    0.37
  -6  -6  -1    2.35    0.45
  -6   6  -1    2.31    0.44
  -6   6  -1    2.14    0.47
  -7  -6  -1   14.98    0.84
  -7  -6  -1   15.90    0.95
  -7   6  -1   15.59    0.87
  -7   6  -1   17.26    0.95
  -8  -6  -1    1.73    0.57
  -8   6  -1    1.83    0.54
  -9  -6  -1    0.55    0.66
  -9   6  -1    0.54    0.64
 -10  -6  -1    1.88    0.87
 -10   6  -1    1.05    0.87
 -11  -6  -1    4.11    1.28
 -11   6  -1    4.10    1.31
 -11  -7   1    0.48    1.18
 -11   7   1    2.19    1.25
 -10  -7   1    2.36    0.97
 -10   7   1    2.65    0.94
  -9  -7   1    5.43    0.86
  -9   7   1    4.38    0.77
  -8  -7   1    2.62    0.64
  -8  -7   1    3.64    0.64
  -8   7   1    1.88    0.59
  -8   7   1    3.19    0.62
  -7  -7   1    2.06    0.53
  -7  -7   1    2.76    0.41
  -7   7   1    2.40    0.52
  -7   7   1    2.81    0.49
  -6  -7   1    8.25    0.74
  -6  -7   1    9.68    0.60
  -6   7   1    9.40    0.70
  -6   7   1    9.11    0.72
  -5  -7   1   28.59    1.09
  -5  -7   1   28.71    1.13
  -5   7   1   27.06    1.22
  -5   7   1   27.49    1.19
   4  -7  -1    0.68    0.41
  -4  -7   1    1.23    0.33
  -4  -7   1    1.12    0.32
  -3  -7   1    2.32    0.33
  -3  -7   1    2.19    0.32
   3  -7  -1    1.79    0.39
  -2  -7   1   15.37    0.67
   2  -7  -1   14.55    0.73
  -2  -7   1   14.74    0.69
  -2   7   1   15.41    0.67
   1  -7  -1    1.47    0.29
  -1  -7   1    1.94    0.36
  -1   7   1    1.04    0.28
   0  -7  -1    4.01    0.48
   0  -7  -1    3.13    0.41
   0  -7   1    3.29    0.39
   0  -7   1    5.01    0.43
   0   7   1    3.97    0.31
   0   7  -1    3.90    0.45
  -1  -7  -1   42.39    1.56
   1  -7   1   42.20    1.47
  -1  -7  -1   42.99    1.45
  -1   7  -1   42.37    1.54
  -2  -7  -1   61.51    2.01
  -2  -7  -1   62.52    1.96
   2  -7   1   56.15    1.97
  -2   7  -1   58.99    2.01
   3  -7   1    0.26    0.31
  -3  -7  -1    0.57    0.30
  -3  -7  -1    0.82    0.25
  -3   7  -1    0.90    0.27
   4  -7   1   36.65    1.41
  -4  -7  -1   35.21    1.33
  -4  -7  -1   35.10    1.27
  -5  -7  -1    4.85    0.65
  -5  -7  -1    6.27    0.55
  -5   7  -1    4.67    0.58
  -5   7  -1    5.27    0.60
  -5   7  -1    4.54    0.55
  -6  -7  -1    6.92    0.59
  -6  -7  -1    6.13    0.64
  -6   7  -1    5.16    0.63
  -6   7  -1    5.45    0.67
  -6   7  -1    4.91    0.66
  -7  -7  -1    3.88    0.44
  -7  -7  -1    4.23    0.57
  -7   7  -1    3.06    0.52
  -7   7  -1    4.75    0.58
  -8  -7  -1   11.80    1.05
  -8   7  -1   12.70    0.97
  -9  -7  -1    3.26    0.81
  -9   7  -1    3.39    0.78
 -10  -7  -1    1.21    0.98
 -10   7  -1    2.01    0.98
 -11  -7  -1    0.23    1.24
 -11   7  -1    1.72    1.23
 -11  -8   1    2.47    1.39
 -11   8   1    0.60    1.29
 -10  -8   1    0.37    1.02
 -10   8   1    0.70    0.90
  -9  -8   1    2.44    0.80
  -9   8   1    3.37    0.82
  -8  -8   1    5.10    0.75
  -8   8   1    5.89    0.74
  -8   8   1    7.14    0.81
  -7  -8   1   -0.09    0.36
  -7  -8   1   -0.86    0.44
  -7   8   1    0.73    0.48
  -7   8   1   -0.20    0.46
  -6  -8   1    1.28    0.42
  -6  -8   1    0.37    0.31
  -6   8   1    1.30    0.48
  -6   8   1    0.78    0.41
  -6   8   1    0.51    0.42
  -5  -8   1    0.54    0.30
  -5  -8   1    0.57    0.42
  -5   8   1    0.06    0.42
  -5   8   1    0.80    0.43
  -4  -8   1   -0.23    0.27
   4  -8  -1    0.79    0.40
  -4  -8   1    0.53    0.34
   3  -8  -1    0.75    0.37
  -3  -8   1    0.55    0.32
  -3  -8   1    1.13    0.33
  -3   8   1    0.36    0.27
  -2  -8   1   13.13    0.71
  -2  -8   1   15.92    0.75
   2  -8  -1   15.58    0.77
  -2   8   1   12.40    0.68
  -1  -8   1    0.74    0.36
   1  -8  -1   -0.16    0.29
  -1  -8   1    0.47    0.30
  -1   8   1    0.39    0.26
   0  -8   1    0.59    0.30
   0  -8  -1    0.58    0.33
   0  -8  -1   -0.25    0.29
   0  -8   1    0.63    0.29
   0   8   1    0.49    0.20
   0   8  -1    0.63    0.28
   1  -8   1   11.10    0.70
  -1  -8  -1   12.44    0.79
  -1  -8  -1   11.28    0.64
  -1   8  -1   12.77    0.72
  -2  -8  -1    1.91    0.40
   2  -8   1    1.12    0.34
  -2  -8  -1    1.47    0.34
  -2   8  -1    1.16    0.31
  -3  -8  -1   28.76    1.15
  -3  -8  -1   26.68    1.12
   3  -8   1   28.85    1.19
  -3   8  -1   28.47    1.15
  -4  -8  -1    4.13    0.48
  -4  -8  -1    3.25    0.43
   4  -8   1    3.46    0.52
  -4   8  -1    2.59    0.43
  -5  -8  -1    8.31    0.62
  -5  -8  -1    9.47    0.77
   5  -8   1    9.33    0.79
  -5   8  -1    9.83    0.75
  -6  -8  -1    6.45    0.73
  -6  -8  -1    5.74    0.55
  -6   8  -1    5.85    0.68
  -6   8  -1    5.12    0.66
  -6   8  -1    6.26    0.73
  -7  -8  -1    2.87    0.61
  -7  -8  -1    2.13    0.46
  -7   8  -1    2.91    0.57
  -7   8  -1    1.33    0.49
  -8  -8  -1    2.63    0.65
  -8   8  -1    1.34    0.57
  -9  -8  -1   -0.28    0.84
  -9   8  -1    0.41    0.73
 -10  -8  -1    4.07    1.11
 -10   8  -1    3.14    1.10
 -11  -8  -1    1.04    1.35
 -11   8  -1    1.16    1.30
 -10  -9   1    5.35    1.31
 -10   9   1    7.62    1.20
  -9  -9   1    0.91    0.96
  -9   9   1    0.37    0.77
  -8  -9   1    2.13    0.73
  -8   9   1    2.86    0.65
  -8   9   1    2.07    0.79
  -7  -9   1    0.35    0.42
  -7  -9   1    0.76    0.57
  -7   9   1    0.12    0.51
  -7   9   1    0.74    0.53
  -6  -9   1    0.62    0.49
  -6  -9   1    1.07    0.36
  -6   9   1    0.44    0.43
  -6   9   1    0.31    0.41
  -6   9   1    0.70    0.47
  -5  -9   1    2.66    0.60
   5  -9  -1    2.20    0.56
  -5  -9   1    3.43    0.40
  -5   9   1    2.31    0.50
  -5   9   1    2.68    0.52
  -4  -9   1    3.51    0.43
  -4  -9   1    2.93    0.47
   4  -9  -1    3.23    0.49
  -4   9   1    3.26    0.45
   3  -9  -1    1.80    0.41
  -3  -9   1    1.91    0.43
  -3  -9   1    2.05    0.38
  -3   9   1    2.50    0.38
  -2  -9   1   22.96    0.94
   2  -9  -1   20.37    0.98
  -2  -9   1   21.50    1.03
  -2   9   1   22.97    0.95
  -1  -9   1    4.00    0.47
   1  -9  -1    3.71    0.48
  -1  -9   1    5.13    0.60
  -1   9   1    4.43    0.44
   0  -9   1   15.19    0.77
   0  -9  -1   17.07    0.86
   0  -9  -1   16.33    0.80
   0  -9   1   16.22    0.79
   0   9   1   16.27    0.67
   0   9  -1   16.55    0.78
  -1  -9  -1   22.16    0.94
   1  -9   1   21.38    0.94
  -1  -9  -1   21.45    1.02
  -1   9  -1   20.55    0.97
   2  -9   1   96.92    3.16
  -2  -9  -1   98.46    3.14
  -2  -9  -1   95.62    3.22
  -2   9  -1  100.73    3.21
  -3  -9  -1    2.29    0.39
  -3  -9  -1    1.99    0.45
   3  -9   1    1.97    0.44
  -3   9  -1    2.56    0.41
   4  -9   1    2.71    0.52
  -4  -9  -1    3.73    0.44
  -4  -9  -1    2.82    0.52
  -4   9  -1    3.94    0.52
  -5  -9  -1    8.51    0.62
   5  -9   1    7.90    0.89
  -5  -9  -1    9.04    0.81
  -5   9  -1    8.91    0.93
  -5   9  -1    9.10    0.79
  -6  -9  -1   54.04    1.99
  -6  -9  -1   52.79    1.83
  -6   9  -1   53.49    1.99
  -6   9  -1   50.61    1.89
  -6   9  -1   49.52    1.93
  -7  -9  -1    2.74    0.49
  -7  -9  -1    1.60    0.60
  -7   9  -1    1.07    0.50
  -7   9  -1    1.48    0.62
  -8  -9  -1    0.06    0.72
  -8   9  -1    0.82    0.59
  -9  -9  -1    1.40    0.96
  -9   9  -1    1.57    0.83
 -10  -9  -1    1.77    1.20
 -10   9  -1    2.82    1.15
 -10 -10   1    2.03    1.38
 -10  10   1    3.27    1.20
  -9 -10   1    1.72    1.09
  -9  10   1    0.73    0.84
  -8 -10   1   -0.07    0.78
  -8  10   1    0.37    0.89
  -8  10   1    2.05    0.67
  -7 -10   1    0.14    0.67
  -7 -10   1    0.30    0.49
  -7  10   1   -0.18    0.61
  -7  10   1   -0.45    0.53
  -6 -10   1   29.83    1.41
  -6 -10   1   28.38    1.24
  -6  10   1   30.55    1.37
  -6  10   1   31.00    1.43
  -5 -10   1   15.82    0.86
  -5 -10   1   17.20    1.09
   5 -10  -1   17.99    1.10
  -5  10   1   15.98    1.16
  -4 -10   1    5.45    0.59
   4 -10  -1    4.50    0.59
  -4 -10   1    5.24    0.61
  -4  10   1    4.29    0.50
  -3 -10   1    0.76    0.45
   3 -10  -1    1.33    0.44
  -3 -10   1    0.94    0.39
  -3  10   1    1.55    0.37
   2 -10  -1   50.84    1.88
  -2 -10   1   57.82    1.95
  -2 -10   1   53.56    1.84
  -2  10   1   47.35    1.81
  -1 -10   1   62.26    2.18
  -1 -10   1   65.17    2.20
   1 -10  -1   63.51    2.22
  -1  10   1   67.98    2.13
   0 -10   1    0.84    0.36
   0 -10  -1    0.45    0.34
   0 -10   1    0.30    0.30
   0 -10  -1    1.23    0.43
   0  10  -1    0.77    0.30
   1 -10   1    3.01    0.41
  -1 -10  -1    2.88    0.44
  -1  10  -1    3.20    0.43
  -2 -10  -1    3.60    0.59
   2 -10   1    2.96    0.46
  -2 -10  -1    3.82    0.47
  -2  10  -1    2.17    0.44
   3 -10   1   34.83    1.46
  -3 -10  -1   35.49    1.37
  -3 -10  -1   36.18    1.50
  -3  10  -1   35.89    1.45
  -4 -10  -1    6.02    0.81
   4 -10   1    6.66    0.68
  -4 -10  -1    6.10    0.60
  -4  10  -1    7.06    0.81
   5 -10   1    0.34    0.56
  -5 -10  -1    1.52    0.56
  -5 -10  -1    0.52    0.35
  -5  10  -1    1.88    0.52
  -6 -10  -1    6.67    0.68
  -6 -10  -1    6.67    0.76
  -6  10  -1    6.38    0.72
  -6  10  -1    5.81    0.69
  -6  10  -1    6.17    0.67
  -6  10  -1    5.14    0.61
  -7 -10  -1    4.22    0.62
  -7 -10  -1    3.91    0.77
  -7  10  -1    4.17    0.72
  -7  10  -1    2.48    0.75
  -7  10  -1    3.91    0.61
  -8 -10  -1   11.61    1.33
  -8  10  -1   10.13    1.39
  -8  10  -1    9.84    1.11
  -9 -10  -1    0.71    1.07
  -9  10  -1   -0.28    0.88
  -9  10  -1    1.09    1.15
 -10 -10  -1    3.69    1.43
 -10  10  -1    4.56    1.62
 -10  10  -1    0.26    1.19
 -10 -11   1    2.24    1.47
 -10  11   1    3.22    1.24
 -10  11   1    0.50    1.52
  -9 -11   1    5.23    1.28
  -9  11   1    3.26    1.26
  -9  11   1    3.47    1.01
  -8 -11   1    0.43    0.90
  -8  11   1    0.54    1.07
  -8  11   1    0.44    0.91
  -8  11   1    0.40    0.72
  -7 -11   1    0.02    0.79
  -7 -11   1    0.79    0.59
  -7  11   1    1.15    0.71
  -7  11   1   -0.24    0.74
  -7  11   1   -0.48    0.57
  -6 -11   1    0.50    0.45
  -6 -11   1    0.97    0.69
  -6  11   1    0.18    0.54
  -6  11   1    0.54    0.54
  -6  11   1    0.16    0.56
  -5 -11   1    9.00    0.76
  -5 -11   1   10.60    1.00
   5 -11  -1    9.56    1.05
  -5  11   1    9.35    1.00
   4 -11  -1   25.57    1.28
  -4 -11   1   25.91    1.37
  -4 -11   1   24.12    1.14
  -4  11   1   25.53    1.20
  -3 -11   1    0.91    0.40
   3 -11  -1    0.64    0.46
  -3 -11   1    1.30    0.53
  -3  11   1    1.45    0.41
   2 -11  -1   37.60    1.54
  -2 -11   1   37.90    1.49
  -2 -11   1   38.62    1.55
  -2  11   1   39.71    1.45
   1 -11  -1    6.41    0.66
  -1 -11   1    6.81    0.64
  -1 -11   1    7.84    0.70
  -1  11   1    7.13    0.53
   0 -11   1   47.86    1.78
   0 -11  -1   47.86    1.77
   0 -11  -1   49.04    1.79
   0  11  -1   49.34    1.71
  -1 -11  -1    0.10    0.35
  -1 -11  -1    0.17    0.43
   1 -11   1   -0.25    0.33
  -1  11  -1   -0.06    0.35
   2 -11   1   55.11    2.09
  -2 -11  -1   58.95    2.20
  -2 -11  -1   58.96    2.08
  -2  11  -1   62.33    2.12
  -3 -11  -1   18.73    1.23
  -3 -11  -1   17.24    0.92
   3 -11   1   18.49    1.02
  -3  11  -1   18.35    1.03
  -4 -11  -1   21.24    1.27
  -4 -11  -1   20.81    1.01
   4 -11   1   20.84    1.20
  -4  11  -1   21.71    1.25
  -5 -11  -1    5.01    0.78
   5 -11   1    6.23    0.79
  -5 -11  -1    5.43    0.57
  -5  11  -1    4.66    0.67
  -6 -11  -1    8.06    1.10
  -6 -11  -1    7.99    0.80
  -6  11  -1    8.35    0.98
  -6  11  -1    9.34    1.01
  -6  11  -1    7.59    0.80
  -6  11  -1    7.18    0.76
  -7 -11  -1    2.58    0.87
  -7 -11  -1    2.65    0.67
  -7  11  -1    2.45    0.84
  -7  11  -1    1.63    0.73
  -7  11  -1    2.66    0.81
  -7  11  -1    2.16    0.61
  -8 -11  -1    0.74    1.03
  -8  11  -1    1.14    0.74
  -8  11  -1    2.07    0.96
  -9 -11  -1   -1.20    1.20
  -9  11  -1    2.14    1.25
  -9  11  -1    1.48    1.03
 -10 -11  -1    1.32    1.53
 -10  11  -1    0.77    1.57
 -10  11  -1   -0.72    1.25
  -9 -12   1   -0.62    1.30
  -9  12   1    1.14    1.11
  -9  12   1    0.93    1.55
  -8 -12   1    8.46    1.34
  -8  12   1    7.10    1.05
  -8  12   1    8.74    1.50
  -8  12   1    8.98    1.28
  -7 -12   1   -0.14    0.65
  -7 -12   1   -1.41    0.88
  -7  12   1   -1.14    0.90
  -7  12   1   -0.11    0.85
  -7  12   1    0.34    0.84
  -7  12   1    1.27    0.63
  -6 -12   1    1.34    0.55
  -6 -12   1    2.96    0.85
  -6  12   1    2.04    0.72
  -6  12   1    2.18    0.68
  -6  12   1    3.13    0.74
  -5 -12   1    9.37    0.81
  -5 -12   1    8.62    0.99
   5 -12  -1    8.79    1.12
  -5  12   1    8.28    0.86
   4 -12  -1    7.09    0.90
  -4 -12   1    5.97    0.72
  -4 -12   1    3.92    0.87
  -4  12   1    5.02    0.61
   3 -12  -1    1.34    0.56
  -3 -12   1    2.43    0.67
  -3 -12   1    2.71    0.49
  -3  12   1    2.20    0.49
  -2 -12   1    8.42    0.76
   2 -12  -1   10.23    0.87
  -1 -12   1   28.14    1.25
  -1 -12   1   27.34    1.25
   1 -12  -1   28.35    1.28
  -1  12   1   27.68    1.08
   0 -12   1    0.72    0.44
   0 -12  -1    0.93    0.49
   0 -12  -1    0.40    0.39
  -1 -12  -1   22.73    1.11
  -1 -12  -1   22.70    1.16
   1 -12   1   22.11    1.10
  -1  12  -1   23.29    1.03
   2 -12   1   12.89    0.92
  -2 -12  -1   13.66    0.87
  -2 -12  -1   13.02    1.08
  -2  12  -1   10.15    0.81
  -3 -12  -1    0.34    0.41
   3 -12   1    0.21    0.54
  -3 -12  -1   -1.11    0.77
  -3  12  -1    0.92    0.48
  -4 -12  -1    2.02    0.47
  -4 -12  -1    1.85    0.77
   4 -12   1    1.08    0.59
  -4  12  -1    0.41    0.72
  -5 -12  -1   10.13    1.06
  -5 -12  -1   11.97    0.85
   5 -12   1    9.70    1.18
  -5  12  -1   10.90    1.05
  -6 -12  -1    1.72    0.91
  -6 -12  -1    1.63    0.59
  -6  12  -1    1.59    0.69
  -6  12  -1    2.53    0.71
  -6  12  -1    1.69    0.70
  -6  12  -1    1.38    0.56
  -7 -12  -1    2.36    1.04
  -7  12  -1    1.41    0.71
  -7  12  -1    1.63    0.97
  -7  12  -1    0.91    0.87
  -7  12  -1    2.76    0.95
  -8 -12  -1    4.09    1.30
  -8  12  -1    3.29    0.95
  -8  12  -1    0.47    1.14
  -9 -12  -1   -0.01    1.38
  -9  12  -1    1.16    1.40
  -9  12  -1    0.80    1.07
  -9 -13   1    2.31    1.49
  -9  13   1    1.66    1.18
  -8 -13   1    0.49    1.30
  -8  13   1    0.89    0.99
  -7 -13   1    0.81    1.11
  -7 -13   1    2.12    0.82
  -7  13   1    1.61    1.01
  -7  13   1   -0.72    0.89
  -7  13   1   -1.02    0.72
  -6 -13   1    0.13    0.66
  -6 -13   1    0.48    0.93
  -6  13   1    1.29    0.80
  -6  13   1    0.19    0.74
  -5 -13   1    8.46    1.10
  -5 -13   1    8.77    0.94
   5 -13  -1    8.01    1.03
   4 -13  -1    1.49    0.64
  -4 -13   1    0.07    0.80
  -4 -13   1    0.47    0.50
  -3 -13   1    7.01    0.95
  -3 -13   1    5.59    0.67
   3 -13  -1    5.06    0.71
  -2 -13   1    0.51    0.55
  -2 -13   1    0.31    0.45
   2 -13  -1    0.22    0.50
  -1 -13   1    0.99    0.55
  -1 -13   1    1.73    0.49
   1 -13  -1    0.85    0.50
   0 -13   1    1.15    0.51
   0 -13  -1    1.06    0.48
  -1 -13  -1    8.53    0.83
  -1 -13  -1   10.73    1.14
   1 -13   1    9.20    0.82
  -1  13  -1    8.89    0.74
  -2 -13  -1    9.67    1.21
   2 -13   1    9.87    0.90
  -2 -13  -1    8.52    0.84
  -2  13  -1    9.85    0.81
   3 -13   1    4.35    0.71
  -3 -13  -1    5.30    0.62
  -3 -13  -1    5.25    0.88
  -3  13  -1    4.61    0.64
  -4 -13  -1    0.76    0.81
  -4 -13  -1    0.06    0.51
   4 -13   1    0.50    0.70
  -4  13  -1    0.00    0.72
  -5 -13  -1    0.10    0.54
  -5 -13  -1   -0.03    0.89
   5 -13   1   -0.43    0.84
  -5  13  -1   -1.27    0.71
  -6 -13  -1   19.46    1.31
  -6 -13  -1   19.85    1.72
  -6  13  -1   18.31    1.24
  -6  13  -1   17.61    1.53
  -6  13  -1   18.19    1.61
  -6  13  -1   14.53    1.50
  -7 -13  -1    1.68    1.16
  -7  13  -1    1.10    1.04
  -7  13  -1    0.80    0.96
  -7  13  -1    3.13    1.11
  -7  13  -1   -1.14    0.79
  -8 -13  -1    1.16    1.38
  -8  13  -1   -2.17    1.71
  -8  13  -1   -0.45    1.06
  -9 -13  -1   -2.98    1.53
  -8  14   1   -0.02    1.27
  -7 -14   1   -0.36    1.34
  -7 -14   1    0.77    0.92
  -7  14   1   -0.13    1.10
  -7  14   1    1.00    1.01
  -7  14   1   -0.12    0.95
  -6 -14   1    3.61    1.18
  -6 -14   1    1.97    0.76
  -6  14   1    3.69    1.02
  -6  14   1    2.92    0.92
   5 -14  -1    7.33    1.08
  -5 -14   1    9.46    1.06
  -5 -14   1    8.26    1.20
   4 -14  -1    2.21    0.84
  -4 -14   1    2.16    0.63
  -4 -14   1    1.09    0.91
  -3 -14   1    0.37    0.81
  -3 -14   1    0.13    0.51
   3 -14  -1    0.23    0.68
  -2 -14   1    1.87    0.58
   2 -14  -1    1.62    0.60
  -2 -14   1    3.10    0.75
  -1 -14   1   12.32    1.03
   1 -14  -1   12.28    1.07
  -1 -14   1   11.66    0.99
   0 -14   1    0.69    0.57
   0 -14  -1   -0.61    0.54
  -1 -14  -1    0.11    0.53
  -1 -14  -1    1.20    0.77
   1 -14   1    0.01    0.56
   2 -14   1    2.80    0.68
  -2 -14  -1    5.10    0.82
  -2 -14  -1    3.42    0.58
  -3 -14  -1    7.94    1.05
   3 -14   1    8.30    0.93
  -3 -14  -1    7.77    0.93
  -4 -14  -1    4.08    1.05
  -4 -14  -1    4.15    0.69
   4 -14   1    3.87    0.95
  -5 -14  -1   -1.15    1.07
  -5 -14  -1    0.34    0.69
   5 -14   1   -0.95    0.97
  -6 -14  -1    1.03    1.23
  -6 -14  -1    2.27    0.84
  -6  14  -1    2.23    0.89
  -6  14  -1    2.48    0.93
  -7 -14  -1    1.07    1.39
  -7  14  -1    0.47    1.18
  -7  14  -1    1.80    1.15
  -8 -14  -1    1.51    1.57
  -7  15   1   -2.94    1.14
  -7  15   1    0.04    1.12
  -6 -15   1    0.56    0.88
  -6  15   1   -0.57    1.00
  -6  15   1   -0.81    1.08
   5 -15  -1   -1.04    0.98
  -5 -15   1   -0.28    0.75
  -4 -15   1   12.46    1.20
   4 -15  -1   14.19    1.52
   3 -15  -1    0.84    0.81
  -3 -15   1    2.07    0.66
  -2 -15   1   11.84    1.16
   2 -15  -1    9.41    1.23
  -1 -15   1   10.75    1.14
   1 -15  -1    7.59    0.98
   0 -15  -1   22.73    1.48
   0 -15   1   26.68    1.50
  -1 -15  -1    4.02    0.80
  -1 -15  -1    4.59    0.80
   1 -15   1    4.72    0.84
  -2 -15  -1   13.66    1.39
  -2 -15  -1   12.85    1.18
   2 -15   1   14.25    1.32
   3 -15   1   10.31    1.33
  -3 -15  -1   11.23    1.13
  -3 -15  -1   10.90    1.48
   4 -15   1    5.60    1.04
  -4 -15  -1    5.58    1.17
  -4 -15  -1    7.08    0.86
  -5 -15  -1    4.55    0.88
  -5 -15  -1    5.28    1.31
   5 -15   1    5.82    1.27
  -6 -15  -1    1.43    1.39
  -6 -15  -1    4.27    0.94
  -6  15  -1    1.97    1.05
  -6  15  -1    3.36    1.04
  -7  15  -1    0.50    1.29
  -7  15  -1   -0.63    1.40
  -7  16   1   -1.10    1.30
  -7  16   1   -1.35    1.37
  -6 -16   1    0.80    0.95
  -6  16   1    0.76    1.08
  -6  16   1   -0.09    1.14
   5 -16  -1    3.61    1.30
  -5 -16   1    7.14    1.07
   4 -16  -1    0.86    1.05
  -4 -16   1    0.65    0.81
   3 -16  -1    4.72    1.06
  -3 -16   1    3.32    0.81
  -2 -16   1    3.59    0.82
   2 -16  -1    5.66    0.96
   1 -16  -1   12.89    1.38
  -1 -16   1   15.04    1.32
   0 -16  -1    0.96    0.73
   0 -16   1    1.30    0.77
   1 -16   1    9.73    1.05
  -1 -16  -1    9.50    1.00
   2 -16   1   13.32    1.46
  -2 -16  -1   12.94    1.31
   3 -16   1    0.16    0.91
  -3 -16  -1   -1.06    0.71
   4 -16   1    4.14    1.16
  -4 -16  -1    1.92    0.88
  -5 -16  -1    3.70    0.99
   5 -16   1    3.16    1.42
  -6 -16  -1    4.20    1.14
  -6  16  -1    2.64    1.15
  -6  16  -1    5.04    1.30
  -6 -17   1    3.01    1.20
  -6  17   1    0.22    1.29
  -6  17   1    0.93    1.46
   5 -17  -1    1.07    1.40
  -5 -17   1    1.70    1.03
   4 -17  -1    4.40    1.24
  -4 -17   1    4.34    1.04
   3 -17  -1    1.24    1.13
  -3 -17   1    1.67    0.91
   2 -17  -1    1.20    1.02
  -2 -17   1    1.79    0.84
  -1 -17   1    0.32    0.88
   1 -17  -1    3.81    1.02
   0 -17   1   -0.48    0.84
   0 -17  -1   -0.31    0.87
  -1 -17  -1   -1.28    0.80
   1 -17   1   -0.41    0.92
   2 -17   1    0.69    1.02
  -2 -17  -1   -0.01    0.88
   3 -17   1    2.50    1.17
  -3 -17  -1    2.73    0.98
  -4 -17  -1    1.72    0.96
   4 -17   1   -1.58    1.19
   5 -17   1    4.25    1.55
  -5 -17  -1    3.29    1.09
  -6  17  -1    4.15    1.39
  -6  17  -1    2.74    1.48
  -5 -18   1   -0.11    1.46
   4 -18  -1   -0.03    1.46
  -4 -18   1    0.40    1.22
   3 -18  -1    0.55    1.31
  -3 -18   1    0.01    1.05
  -2 -18   1   -0.54    1.03
   2 -18  -1    2.08    1.26
   1 -18  -1    0.18    1.15
  -1 -18   1    0.67    1.09
   0 -18   1    1.55    1.11
   0 -18  -1    3.10    1.14
   1 -18   1    1.56    1.13
  -1 -18  -1    4.39    1.09
   2 -18   1    2.99    1.25
  -2 -18  -1    4.74    1.10
   3 -18   1    1.11    1.37
  -3 -18  -1   -0.98    1.01
  -4 -18  -1    1.24    1.10
   4 -18   1    1.09    1.53
  -5 -18  -1    0.27    1.17
   2 -19  -1    0.48    1.54
  -2 -19   1   -0.22    1.30
  -1 -19   1   -0.31    1.30
   1 -19  -1    0.51    1.38
   0 -19   1    0.27    1.31
   0 -19  -1    1.65    1.34
   1 -19   1    0.97    1.40
  -1 -19  -1   -0.38    1.28
   2 -19   1    0.68    1.58
  -2 -19  -1    2.20    1.35
 -12   0   2    8.40    1.53
 -11   0   2    0.85    0.96
 -10   0   2    6.89    0.95
  -9   0   2   -0.19    0.55
  -8   0   2  110.47    3.59
  -8   0   2  108.90    3.41
  -7   0   2   -0.08    0.25
  -7   0   2    0.14    0.28
  -6   0   2  166.39    5.03
  -6   0   2  167.07    5.14
  -5   0   2   31.07    1.04
  -5   0   2   30.64    1.11
  -4   0   2  320.16    9.49
  -4   0   2  319.75    9.55
  -3   0   2   38.43    1.25
  -3   0   2   38.75    1.21
  -2   0   2  247.04    7.27
   2   0  -2  243.73    7.27
  -1   0   2  111.09    3.34
   1   0  -2  113.98    3.35
   0   0  -2    3.41    0.13
  -1   0  -2  222.63    6.59
  -2   0  -2    2.45    0.20
   3   0   2  134.51    4.16
   3   0   2  136.70    4.16
  -3   0  -2  149.61    4.24
   4   0   2    3.31    0.24
  -4   0  -2    4.00    0.21
  -4   0  -2    3.65    0.34
   4   0   2    3.52    0.22
  -5   0  -2    4.67    0.26
  -5   0  -2    4.22    0.27
  -5   0  -2    5.27    0.42
  -6   0  -2    2.12    0.24
  -6   0  -2    1.83    0.38
  -7   0  -2   48.51    1.75
  -8   0  -2    6.85    0.76
  -9   0  -2    1.43    0.64
 -10   0  -2    8.43    1.07
 -11   0  -2    0.41    1.04
 -12   0  -2    7.19    1.59
 -12  -1   2    6.37    1.49
 -12   1   2   10.61    1.58
 -11  -1   2    7.36    1.17
 -11   1   2    6.84    1.12
 -10  -1   2    0.49    0.74
 -10   1   2    0.27    0.74
  -9  -1   2   17.91    1.09
  -9   1   2   14.74    1.11
  -8  -1   2    1.83    0.39
  -8  -1   2    2.47    0.47
  -8   1   2    2.27    0.40
  -8   1   2    2.89    0.49
  -7  -1   2    9.90    0.54
  -7  -1   2    8.91    0.65
  -7   1   2    9.29    0.57
  -7   1   2    9.61    0.66
  -6  -1   2   19.88    0.89
  -6  -1   2   17.79    0.73
  -6   1   2   18.25    0.75
  -6   1   2   19.20    0.88
  -5  -1   2   46.65    1.49
  -5  -1   2   45.94    1.56
  -5   1   2   45.63    1.49
  -5   1   2   47.93    1.58
  -4  -1   2   72.99    2.26
  -4  -1   2   73.03    2.31
  -4   1   2   76.01    2.33
  -4   1   2   73.60    2.28
  -3  -1   2   20.76    0.74
  -3  -1   2   21.75    0.71
  -3   1   2   21.46    0.73
   2  -1  -2  328.54    9.57
  -2  -1   2  297.48    9.57
  -2  -1   2  330.37    9.56
   2  -1  -2  323.96    9.58
   2   1  -2  334.50    9.56
  -2   1   2  326.32    9.57
  -1  -1   2   11.84    0.38
   1  -1  -2   11.44    0.40
   1  -1  -2   11.60    0.40
  -1  -1   2   11.35    0.39
   1   1  -2   11.38    0.39
  -1   1   2   11.48    0.40
   0  -1   2   78.76    2.18
   0  -1  -2   77.61    2.18
   0  -1  -2   69.25    2.19
   0   1  -2   77.34    2.18
   0   1   2   72.33    2.19
   0   1  -2   62.79    2.25
   1  -1   2    6.15    0.24
  -1  -1  -2    6.54    0.23
   1  -1   2    5.31    0.23
  -1  -1  -2    6.59    0.28
  -1   1  -2    6.39    0.24
   1   1   2    6.64    0.23
  -1   1  -2    6.59    0.23
  -2  -1  -2  172.67    5.14
  -2   1  -2  169.43    5.12
  -2   1  -2  173.42    5.09
  -3  -1  -2    1.05    0.18
  -3  -1  -2    1.01    0.12
   3   1   2    0.80    0.10
  -3   1  -2    1.40    0.18
  -3   1  -2    1.52    0.15
  -3   1  -2    1.29    0.14
  -5  -1  -2    2.97    0.22
  -5  -1  -2    3.10    0.35
  -5   1  -2    3.76    0.40
   5   1   2    2.96    0.27
  -5   1  -2    2.86    0.27
  -6  -1  -2   15.41    0.77
  -6  -1  -2   15.66    0.55
  -6   1  -2   13.61    0.77
  -6   1  -2   14.92    0.56
  -7  -1  -2   19.13    0.94
  -7  -1  -2   19.68    0.70
  -7   1  -2   18.88    0.70
  -7   1  -2   20.13    0.96
  -8  -1  -2    0.50    0.45
  -8   1  -2    0.34    0.46
  -9  -1  -2    0.01    0.57
  -9   1  -2    1.22    0.61
 -10  -1  -2    2.25    0.85
 -10   1  -2    1.83    0.86
 -11  -1  -2    7.97    1.26
 -11   1  -2    5.27    1.17
 -12  -1  -2    1.15    1.46
 -12   1  -2    2.27    1.43
 -12  -2   2    1.22    1.35
 -12   2   2    2.33    1.39
 -11  -2   2    1.00    0.97
 -11   2   2    2.16    1.10
 -10  -2   2    6.07    0.90
 -10   2   2    5.04    0.92
  -9  -2   2    0.98    0.55
  -9   2   2    0.74    0.60
  -8  -2   2   22.51    0.96
  -8  -2   2   24.01    1.13
  -8   2   2   23.20    0.96
  -8   2   2   22.62    1.13
  -7  -2   2    0.31    0.29
  -7  -2   2    0.64    0.33
  -7   2   2    0.09    0.33
  -7   2   2    0.26    0.32
  -6  -2   2   46.13    1.47
  -6  -2   2   46.55    1.59
  -6   2   2   45.66    1.49
  -6   2   2   39.71    1.58
  -5  -2   2    1.46    0.21
  -5  -2   2    1.56    0.28
  -5   2   2    1.03    0.27
  -5   2   2    1.65    0.24
  -4  -2   2   80.75    2.53
  -4  -2   2   82.26    2.49
  -4   2   2   80.66    2.50
  -3  -2   2   13.35    0.52
  -3  -2   2   13.05    0.49
  -3   2   2   13.39    0.52
  -2  -2   2   85.88    2.78
  -2  -2   2   95.29    2.79
  -2   2   2   95.02    2.81
   2   2  -2   91.46    2.79
  -2   2   2   94.21    2.81
  -2   2   2   94.11    2.82
  -1  -2   2    0.60    0.11
  -1  -2   2    0.75    0.13
   1  -2  -2    0.49    0.14
  -1   2   2    1.21    0.18
   1   2  -2    0.57    0.10
   1   2  -2    0.52    0.12
   0  -2   2   16.45    0.53
   0  -2  -2   16.42    0.55
   0   2  -2   16.26    0.53
   0   2  -2   13.43    0.66
   0   2   2   16.36    0.54
  -1  -2  -2  108.35    3.32
  -1  -2  -2  110.42    3.36
   1  -2   2  108.14    3.33
   1   2   2  109.59    3.32
  -1   2  -2  110.39    3.32
  -1   2  -2  114.85    3.40
  -1   2  -2  111.22    3.31
  -2  -2  -2    2.63    0.23
   2  -2   2    2.57    0.22
  -2  -2  -2    2.50    0.18
  -2   2  -2    2.56    0.20
  -2   2  -2    2.69    0.19
   2   2   2    2.40    0.16
  -3  -2  -2    0.87    0.13
  -3  -2  -2    0.91    0.19
   3   2   2    0.64    0.11
  -3   2  -2    0.28    0.16
  -3   2  -2    0.68    0.13
  -3   2  -2    1.15    0.15
  -4  -2  -2    0.71    0.14
  -4  -2  -2    0.59    0.22
  -4   2  -2    0.57    0.20
   4   2   2    0.84    0.13
  -4   2  -2    0.90    0.15
  -4   2  -2    0.84    0.15
  -5  -2  -2   32.39    1.20
  -5  -2  -2   33.99    1.06
  -5   2  -2   33.79    1.20
  -5   2  -2   32.62    1.07
  -6  -2  -2   17.03    0.83
  -6  -2  -2   17.71    0.64
  -6   2  -2   17.65    0.64
  -6   2  -2   16.88    0.86
  -7  -2  -2    2.88    0.34
  -7  -2  -2    4.20    0.56
  -7   2  -2    3.37    0.48
  -7   2  -2    2.70    0.34
  -8  -2  -2    2.82    0.54
  -8   2  -2    4.15    0.59
  -9  -2  -2    2.25    0.68
  -9   2  -2    2.97    0.69
 -10  -2  -2   19.82    1.50
 -10   2  -2   19.82    1.54
 -11  -2  -2    0.22    1.08
 -11   2  -2   -0.21    0.99
 -12  -2  -2    1.80    1.46
 -12   2  -2    0.41    1.45
 -12  -3   2    0.19    1.31
 -12   3   2    1.20    1.42
 -11  -3   2    2.47    1.02
 -11   3   2    0.88    1.03
 -10  -3   2    0.47    0.78
 -10   3   2   -0.11    0.84
  -9  -3   2    6.10    0.72
  -9   3   2    4.85    0.72
  -8  -3   2    0.33    0.43
  -8  -3   2    0.46    0.34
  -8   3   2    0.77    0.46
  -8   3   2   -0.23    0.35
  -7  -3   2    0.52    0.32
  -7  -3   2    0.87    0.36
  -7   3   2   -0.20    0.35
  -7   3   2    0.08    0.37
  -6  -3   2    0.38    0.35
  -6  -3   2    1.09    0.26
  -6   3   2    1.07    0.36
  -6   3   2    0.88    0.30
  -5  -3   2   30.72    1.12
  -5  -3   2   31.12    1.06
  -5   3   2   32.39    1.17
  -5   3   2   31.54    1.10
  -4  -3   2    0.55    0.17
  -4  -3   2    0.59    0.19
  -4   3   2    0.45    0.19
  -3  -3   2    1.79    0.22
  -3  -3   2    2.15    0.23
  -3   3   2    2.21    0.27
  -3   3   2    2.41    0.29
  -2  -3   2   24.18    0.80
   2  -3  -2   23.02    0.82
  -2  -3   2   24.67    0.79
  -1  -3   2   34.81    1.03
  -1  -3   2   34.35    1.07
   1  -3  -2   33.39    1.09
  -1   3   2   32.89    1.08
   1   3  -2   32.57    1.03
   1   3  -2   32.88    1.06
   0  -3  -2   21.32    0.93
   0  -3   2   22.98    0.73
   0  -3   2   23.20    0.77
   0  -3  -2   22.97    0.78
   0   3  -2   22.80    0.76
   0   3   2   23.60    0.78
   0   3  -2   21.60    0.90
   1  -3   2    0.72    0.16
  -1  -3  -2    1.07    0.21
  -1  -3  -2    1.14    0.16
  -1   3  -2    0.84    0.20
   1   3   2    1.04    0.15
  -1   3  -2    0.61    0.13
  -2  -3  -2  166.26    4.98
  -2  -3  -2  169.18    4.93
   2  -3   2  163.36    4.95
  -2   3  -2  162.33    4.94
  -2   3  -2  167.05    4.93
   2   3   2  163.31    4.92
   3  -3   2    1.25    0.20
  -3  -3  -2    1.67    0.24
  -3  -3  -2    1.48    0.16
  -3   3  -2    1.10    0.18
   3   3   2    1.31    0.15
  -3   3  -2    1.49    0.20
  -4  -3  -2   14.05    0.53
  -4  -3  -2   13.78    0.64
  -4   3  -2   14.69    0.58
  -4   3  -2   14.45    0.56
  -4   3  -2   14.47    0.61
  -5  -3  -2    4.70    0.30
  -5  -3  -2    3.66    0.45
  -5   3  -2    4.27    0.34
  -5   3  -2    4.19    0.42
  -6  -3  -2   72.94    2.41
  -6  -3  -2   75.11    2.26
  -6   3  -2   72.45    2.42
  -6   3  -2   71.61    2.27
  -7  -3  -2    4.51    0.57
  -7  -3  -2    4.09    0.38
  -7   3  -2    5.16    0.40
  -7   3  -2    4.51    0.53
  -8  -3  -2    0.52    0.47
  -8   3  -2    0.56    0.50
  -9  -3  -2   18.36    1.22
  -9   3  -2   18.47    1.26
 -10  -3  -2    3.37    0.90
 -10   3  -2    2.98    0.88
 -11  -3  -2    2.17    1.15
 -11   3  -2    2.21    1.10
 -12  -4   2   -1.31    1.37
 -12   4   2    0.34    1.48
 -11  -4   2   -1.38    0.95
 -11   4   2    1.97    1.07
 -10  -4   2    7.88    1.00
 -10   4   2    6.99    1.00
  -9  -4   2    1.57    0.57
  -9   4   2    1.34    0.64
  -8  -4   2    1.77    0.38
  -8  -4   2    1.35    0.49
  -8   4   2    1.57    0.40
  -8   4   2    0.49    0.47
  -7  -4   2    2.50    0.44
  -7  -4   2    2.94    0.37
  -7   4   2    2.19    0.45
  -7   4   2    1.80    0.37
  -6  -4   2    0.59    0.40
  -6  -4   2    1.43    0.31
  -6   4   2    1.47    0.37
  -6   4   2    1.46    0.37
  -5  -4   2    6.67    0.42
  -5  -4   2    6.55    0.48
  -5   4   2    5.91    0.49
  -3  -4   2    0.30    0.16
  -3  -4   2    0.02    0.16
  -3   4   2    0.13    0.21
  -3   4   2    0.29    0.21
  -2  -4   2    0.85    0.16
  -2  -4   2    1.12    0.16
   2  -4  -2    1.49    0.23
  -1  -4   2   34.96    1.09
   1  -4  -2   34.08    1.18
   1  -4  -2   34.17    1.15
  -1  -4   2   35.66    1.11
   1   4  -2   32.28    1.16
   0  -4   2   35.87    1.13
   0  -4  -2   33.75    1.28
   0  -4  -2   36.79    1.18
   0  -4   2   37.49    1.16
   0   4  -2   33.89    1.27
   1  -4   2    6.20    0.34
  -1  -4  -2    4.19    0.39
  -1  -4  -2    5.83    0.32
  -1   4  -2    4.51    0.39
   2  -4   2   14.45    0.59
  -2  -4  -2   14.26    0.60
  -2  -4  -2   15.25    0.56
  -3  -4  -2   57.68    1.81
   3  -4   2   57.61    1.85
  -3  -4  -2   57.83    1.87
  -3   4  -2   58.53    1.83
  -4  -4  -2    0.52    0.17
  -4  -4  -2    0.53    0.24
  -4   4  -2    0.38    0.21
  -4   4  -2    0.52    0.22
  -4   4  -2    0.70    0.22
  -5  -4  -2   30.62    1.03
  -5  -4  -2   30.71    1.17
  -5   4  -2   30.97    1.14
  -5   4  -2   29.85    1.07
  -6  -4  -2   85.85    2.55
  -6  -4  -2   80.26    2.70
  -6   4  -2   83.99    2.71
  -6   4  -2   79.77    2.57
  -7  -4  -2   22.15    0.83
  -7  -4  -2   21.66    1.05
  -7   4  -2   23.15    1.09
  -7   4  -2   20.96    0.84
  -8  -4  -2    2.22    0.54
  -8   4  -2    2.69    0.56
  -9  -4  -2    9.43    1.06
  -9   4  -2    9.60    0.95
 -10  -4  -2   26.82    1.72
 -10   4  -2   29.09    1.72
 -11  -4  -2    2.21    1.09
 -11   4  -2    1.51    1.10
 -11  -5   2    2.99    1.11
 -11   5   2    3.78    1.13
 -10  -5   2    1.35    0.84
 -10   5   2    0.93    0.83
  -9  -5   2    7.91    0.97
  -9   5   2    5.50    0.81
  -8  -5   2    0.53    0.47
  -8  -5   2    0.64    0.39
  -8   5   2    1.20    0.42
  -8   5   2    0.24    0.48
  -7  -5   2    3.68    0.39
  -7  -5   2    3.18    0.50
  -7   5   2    2.62    0.41
  -7   5   2    3.72    0.52
  -6  -5   2    5.17    0.56
  -6  -5   2    5.60    0.66
  -6   5   2    6.39    0.66
  -6   5   2    5.62    0.62
  -5  -5   2   13.60    0.64
  -5  -5   2   14.52    0.69
  -5   5   2   14.39    0.75
  -4  -5   2    5.47    0.40
  -4  -5   2    4.76    0.37
  -4   5   2    5.31    0.47
  -4   5   2    5.00    0.45
  -3  -5   2   32.32    1.06
  -3  -5   2   29.74    1.05
   3  -5  -2   30.75    1.12
   2  -5  -2   61.00    1.97
  -2  -5   2   60.53    1.90
  -2  -5   2   61.70    1.92
  -1  -5   2    8.19    0.42
   1  -5  -2    8.51    0.45
  -1  -5   2    8.72    0.42
   1  -5  -2    8.37    0.51
   1   5  -2    8.75    0.48
  -1   5   2    9.04    0.38
   0  -5   2   20.80    0.73
   0  -5   2   22.25    0.77
   0  -5  -2   22.27    0.78
   0  -5  -2   21.07    0.90
   0   5  -2   18.65    0.86
  -1  -5  -2   28.59    0.96
  -1  -5  -2   26.54    1.04
   1  -5   2   25.93    0.95
  -1   5  -2   28.40    1.06
   2  -5   2  200.52    6.29
  -2  -5  -2  211.07    6.27
  -2  -5  -2  210.87    6.32
  -2   5  -2  213.91    6.36
  -3  -5  -2    9.46    0.47
   3  -5   2   10.29    0.54
  -3  -5  -2   10.58    0.54
  -4  -5  -2   90.93    2.78
  -4  -5  -2   89.32    2.86
   4  -5   2   90.42    2.83
  -4   5  -2   89.57    2.82
  -5  -5  -2    9.32    0.49
  -5  -5  -2    9.57    0.66
  -5   5  -2    9.44    0.56
  -5   5  -2   10.42    0.60
  -5   5  -2    9.81    0.58
  -6  -5  -2   44.06    1.64
  -6  -5  -2   45.31    1.48
  -6   5  -2   44.04    1.63
  -6   5  -2   46.48    1.54
  -7  -5  -2    6.06    0.49
  -7  -5  -2    5.64    0.67
  -7   5  -2    5.11    0.57
  -7   5  -2    6.59    0.73
  -8  -5  -2    6.33    0.71
  -8   5  -2    5.97    0.69
  -9  -5  -2   12.87    1.20
  -9   5  -2   14.34    1.18
 -10  -5  -2    1.42    0.89
 -10   5  -2    1.71    0.83
 -11  -5  -2    6.17    1.31
 -11   5  -2    6.25    1.34
 -11  -6   2   -0.84    1.11
 -11   6   2    1.65    1.19
 -10  -6   2   17.30    1.50
 -10   6   2   15.17    1.45
  -9  -6   2   -0.16    0.63
  -9   6   2   -0.06    0.64
  -8  -6   2    8.28    0.72
  -8  -6   2    8.87    0.89
  -8   6   2    7.06    0.81
  -8   6   2    6.38    0.87
  -7  -6   2    3.00    0.37
  -7  -6   2    2.82    0.51
  -7   6   2    3.07    0.54
  -7   6   2    1.83    0.43
  -6  -6   2   20.16    0.85
  -6  -6   2   19.35    0.97
  -6   6   2   19.94    0.97
  -6   6   2   19.83    1.00
  -5  -6   2    5.80    0.56
  -5  -6   2    6.49    0.54
  -5   6   2    6.48    0.69
  -5   6   2    7.91    0.66
  -4  -6   2   14.27    0.67
  -4  -6   2   15.81    0.68
  -4   6   2   15.05    0.80
  -4   6   2   14.59    0.77
  -3  -6   2    0.01    0.21
  -3  -6   2    0.59    0.22
   3  -6  -2    0.44    0.28
  -2  -6   2   10.11    0.49
  -1  -6   2   61.10    2.03
  -1  -6   2   66.03    2.03
   1  -6  -2   61.91    2.09
   1  -6  -2   62.57    2.06
  -1   6   2   64.55    2.00
   1   6  -2   64.88    2.07
   0  -6  -2   35.94    1.31
   0  -6  -2   35.26    1.21
   0  -6   2   35.10    1.16
   0  -6   2   34.95    1.20
   0   6  -2   33.82    1.29
  -1  -6  -2   41.75    1.37
  -1  -6  -2   40.30    1.47
   1  -6   2   37.81    1.36
  -1   6  -2   40.99    1.47
  -2  -6  -2   38.41    1.37
  -2  -6  -2   39.22    1.31
   2  -6   2   37.00    1.33
  -2   6  -2   40.51    1.40
   3  -6   2    3.75    0.45
  -3  -6  -2    4.02    0.43
  -3  -6  -2    4.88    0.38
  -4  -6  -2    6.40    0.52
   4  -6   2    5.25    0.53
  -5  -6  -2    6.92    0.47
  -5  -6  -2    7.00    0.69
  -5   6  -2    7.28    0.54
  -5   6  -2    5.96    0.61
  -5   6  -2    6.72    0.58
  -6  -6  -2   41.56    1.40
  -6  -6  -2   41.18    1.57
  -6   6  -2   40.19    1.50
  -6   6  -2   40.92    1.53
  -7  -6  -2    9.13    0.83
  -7  -6  -2    9.67    0.65
  -7   6  -2    9.06    0.81
  -7   6  -2    9.39    0.80
  -8  -6  -2   12.29    1.04
  -8   6  -2   11.19    0.95
  -9  -6  -2    1.68    0.69
  -9   6  -2    1.28    0.62
 -10  -6  -2    2.92    0.89
 -10   6  -2    1.32    0.89
 -11  -6  -2    1.26    1.22
 -11   6  -2    1.74    1.26
 -11  -7   2    0.88    1.21
 -11   7   2    0.21    1.19
 -10  -7   2    0.60    0.91
 -10   7   2    1.61    0.86
  -9  -7   2    3.21    0.75
  -9   7   2    3.00    0.73
  -8  -7   2    6.83    0.73
  -8  -7   2    5.10    0.72
  -8   7   2    4.43    0.67
  -8   7   2    5.25    0.72
  -7  -7   2    1.26    0.49
  -7  -7   2    0.75    0.35
  -7   7   2    1.03    0.50
  -7   7   2    0.53    0.45
  -6  -7   2   10.20    0.75
  -6  -7   2   10.01    0.62
  -6   7   2   12.30    0.79
  -5  -7   2   13.10    0.71
  -5  -7   2   12.28    0.68
  -5   7   2   12.13    0.79
  -5   7   2   13.01    0.83
  -4  -7   2   16.01    0.74
  -4  -7   2   14.87    0.71
   4  -7  -2   14.24    0.83
  -3  -7   2    7.84    0.52
   3  -7  -2    8.34    0.63
  -3  -7   2    8.33    0.49
  -2  -7   2   79.49    2.51
   2  -7  -2   78.25    2.57
  -2  -7   2   80.25    2.51
  -2   7   2   78.85    2.49
   1  -7  -2    2.29    0.32
   1  -7  -2    2.58    0.37
  -1  -7   2    3.23    0.38
  -1  -7   2    2.21    0.30
   1   7  -2    3.08    0.42
  -1   7   2    2.41    0.35
   0  -7  -2  161.82    5.00
   0  -7   2  162.51    4.92
   0  -7  -2  162.15    4.93
   0  -7   2  156.57    4.86
   0   7  -2  161.94    4.98
   1  -7   2   26.18    1.02
  -1  -7  -2   26.48    1.14
  -1  -7  -2   26.79    1.01
  -1   7  -2   27.41    1.12
   2  -7   2   43.12    1.56
  -2  -7  -2   46.36    1.54
  -2  -7  -2   46.04    1.62
  -2   7  -2   47.05    1.64
  -3  -7  -2    3.26    0.41
   3  -7   2    2.99    0.41
  -3  -7  -2    3.38    0.35
  -3   7  -2    3.38    0.47
  -4  -7  -2  181.22    5.48
   4  -7   2  178.86    5.56
  -4  -7  -2  178.84    5.55
  -4   7  -2  180.50    5.48
  -5  -7  -2    4.41    0.50
   5  -7   2    4.27    0.64
  -5  -7  -2    3.59    0.53
  -5   7  -2    4.02    0.46
  -6  -7  -2    0.19    0.38
  -6  -7  -2   -0.18    0.35
  -6   7  -2    0.41    0.39
  -6   7  -2    0.61    0.38
  -6   7  -2    0.96    0.41
  -7  -7  -2    1.30    0.44
  -7  -7  -2    1.64    0.50
  -7   7  -2    0.73    0.48
  -7   7  -2    0.87    0.47
  -8  -7  -2   18.37    1.19
  -8   7  -2   19.87    1.15
  -9  -7  -2    0.54    0.74
  -9   7  -2    0.05    0.70
 -10  -7  -2    0.80    0.99
 -10   7  -2    0.13    0.94
 -11  -7  -2    2.80    1.30
 -11   7  -2    2.47    1.32
 -11  -8   2    1.20    1.31
 -11   8   2   -0.17    1.31
 -10  -8   2    4.75    1.10
 -10   8   2    6.26    1.08
  -9  -8   2    0.45    0.77
  -9   8   2   -1.14    0.71
  -8  -8   2   43.37    1.83
  -8  -8   2   45.97    1.69
  -8   8   2   43.37    1.86
  -8   8   2   42.02    1.80
  -7  -8   2   -0.51    0.47
  -7  -8   2   -0.32    0.36
  -7   8   2   -0.27    0.46
  -7   8   2    0.49    0.52
  -6  -8   2   19.31    0.87
  -6  -8   2   18.69    0.98
  -6   8   2   19.33    1.02
  -5  -8   2   21.37    0.99
  -5  -8   2   22.32    0.93
  -5   8   2   21.81    1.07
  -5   8   2   20.58    1.03
  -4  -8   2  112.53    3.53
   4  -8  -2  113.09    3.62
  -4  -8   2  111.46    3.53
  -3  -8   2    1.48    0.35
  -3  -8   2    1.74    0.34
   3  -8  -2    1.29    0.36
  -3   8   2    1.27    0.29
  -2  -8   2    6.07    0.51
  -2  -8   2    5.71    0.53
   2  -8  -2    5.83    0.54
  -2   8   2    6.82    0.48
  -1  -8   2   22.67    0.93
  -1  -8   2   24.25    0.97
   1  -8  -2   23.90    0.99
   1  -8  -2   20.98    0.96
  -1   8   2   22.03    0.85
   0  -8   2   12.96    0.71
   0  -8  -2   14.54    0.73
   0  -8   2   13.78    0.64
   0  -8  -2   14.62    0.80
   0   8  -2   14.10    0.75
  -1  -8  -2    5.19    0.53
  -1  -8  -2    6.04    0.67
   1  -8   2    5.67    0.55
  -1   8  -2    5.87    0.61
  -2  -8  -2    1.83    0.43
   2  -8   2    1.27    0.37
  -2  -8  -2    1.82    0.35
  -2   8  -2    0.98    0.34
   3  -8   2    1.72    0.47
  -3  -8  -2    2.75    0.43
  -3  -8  -2    1.43    0.38
  -3   8  -2    2.05    0.39
   4  -8   2   19.49    1.01
  -4  -8  -2   20.45    1.00
  -4  -8  -2   20.31    0.93
  -4   8  -2   17.59    0.97
  -5  -8  -2   16.27    0.84
   5  -8   2   17.78    0.99
  -5  -8  -2   16.97    0.96
  -5   8  -2   18.22    0.91
  -6  -8  -2    5.94    0.66
  -6  -8  -2    5.04    0.58
  -6   8  -2    5.31    0.65
  -6   8  -2    5.74    0.66
  -6   8  -2    7.29    0.70
  -7  -8  -2    0.86    0.53
  -7  -8  -2    1.05    0.46
  -7   8  -2    0.64    0.53
  -7   8  -2    1.58    0.50
  -8  -8  -2   26.74    1.45
  -8   8  -2   27.92    1.39
  -9  -8  -2    3.63    0.94
  -9   8  -2    3.38    0.87
 -10  -8  -2    1.78    1.08
 -10   8  -2    3.36    1.17
 -11  -8  -2   -1.07    1.33
 -11   8  -2    1.65    1.33
 -11  -9   2    1.85    1.46
 -11   9   2    0.48    1.38
 -10  -9   2    2.35    1.19
 -10   9   2    0.94    1.02
  -9  -9   2    4.96    1.03
  -9   9   2    3.64    0.85
  -8  -9   2    4.64    0.79
  -8  -9   2    3.47    0.65
  -8   9   2    3.55    0.70
  -8   9   2    2.09    0.76
  -7  -9   2    4.06    0.52
  -7  -9   2    4.38    0.69
  -7   9   2    5.80    0.65
  -7   9   2    3.70    0.61
  -6  -9   2    0.09    0.47
  -6  -9   2   -0.07    0.33
  -6   9   2    0.61    0.49
  -6   9   2    0.69    0.44
  -5  -9   2   -1.06    0.45
  -5  -9   2    0.42    0.33
  -5   9   2    0.94    0.44
  -5   9   2    1.06    0.47
  -4  -9   2   33.88    1.33
   4  -9  -2   34.54    1.41
  -4  -9   2   34.17    1.29
   3  -9  -2    3.77    0.50
  -3  -9   2    3.04    0.42
  -3  -9   2    3.74    0.49
  -3   9   2    4.35    0.48
  -2  -9   2   12.19    0.75
  -2  -9   2    9.78    0.66
   2  -9  -2   12.21    0.71
  -1  -9   2    4.52    0.53
  -1  -9   2    3.54    0.42
   1  -9  -2    3.82    0.42
  -1   9   2    3.77    0.38
   0  -9   2  173.08    5.43
   0  -9  -2  181.14    5.56
   0  -9   2  178.34    5.51
   0  -9  -2  176.07    5.52
   0   9  -2  186.64    5.54
   1  -9   2    4.65    0.51
  -1  -9  -2    5.53    0.60
  -1  -9  -2    4.54    0.48
  -1   9  -2    5.13    0.61
  -2  -9  -2    5.02    0.59
   2  -9   2    5.29    0.57
  -2  -9  -2    4.35    0.53
  -2   9  -2    4.93    0.66
  -3  -9  -2   11.65    0.83
  -3  -9  -2   11.85    0.71
   3  -9   2   11.38    0.77
  -3   9  -2   12.44    0.81
  -4  -9  -2   75.45    2.69
  -4  -9  -2   81.14    2.57
   4  -9   2   79.56    2.67
  -4   9  -2   76.95    2.70
   5  -9   2    2.62    0.62
  -5  -9  -2    3.15    0.39
  -5  -9  -2    2.83    0.52
  -5   9  -2    3.08    0.56
  -5   9  -2    2.69    0.56
  -6  -9  -2    2.12    0.57
  -6  -9  -2    1.84    0.40
  -6   9  -2    1.26    0.47
  -6   9  -2    1.80    0.45
  -6   9  -2    1.19    0.52
  -6   9  -2    1.99    0.51
  -7  -9  -2    9.42    1.04
  -7  -9  -2    7.25    0.83
  -7   9  -2    7.70    0.83
  -7   9  -2    9.18    0.96
  -8  -9  -2   14.22    1.27
  -8   9  -2   11.26    1.07
  -9  -9  -2    6.09    1.08
  -9   9  -2    5.02    0.97
 -10  -9  -2    1.44    1.23
 -10   9  -2    1.85    1.13
 -10 -10   2    0.52    1.29
 -10  10   2    1.04    1.17
  -9 -10   2   -0.38    1.03
  -9  10   2   -1.35    0.84
  -8 -10   2   12.60    1.30
  -8 -10   2    9.43    1.28
  -8  10   2   12.12    1.45
  -8  10   2   12.11    1.15
  -7 -10   2    3.28    0.76
  -7 -10   2    2.76    0.52
  -7  10   2    2.19    0.54
  -7  10   2    1.07    0.63
  -6 -10   2   12.53    0.78
  -6 -10   2   12.30    1.00
  -6  10   2    9.50    0.99
  -6  10   2   10.79    0.94
  -5 -10   2    2.07    0.43
  -5 -10   2    4.17    0.68
  -5  10   2    1.84    0.50
  -5  10   2    2.77    0.52
  -5  10   2    2.33    0.56
  -4 -10   2   41.71    1.62
  -4 -10   2   43.47    1.58
   4 -10  -2   42.42    1.67
  -4  10   2   43.19    1.59
  -3 -10   2    6.50    0.61
  -3 -10   2    5.84    0.59
   3 -10  -2    5.37    0.68
  -3  10   2    6.13    0.59
  -2 -10   2   15.21    0.90
  -2 -10   2   14.83    0.81
   2 -10  -2   15.00    0.85
  -2  10   2   15.34    0.77
  -1 -10   2   90.30    2.96
   1 -10  -2   90.41    3.03
  -1 -10   2   94.63    3.01
  -1  10   2   95.30    2.88
   0 -10   2    0.54    0.32
   0 -10  -2    0.65    0.42
   0 -10  -2    0.07    0.30
   0  10  -2    0.95    0.35
  -1 -10  -2    1.59    0.39
   1 -10   2    1.84    0.40
  -1 -10  -2    1.79    0.47
  -1  10  -2    1.76    0.40
  -2 -10  -2   10.60    0.90
   2 -10   2   12.61    0.77
  -2 -10  -2   12.35    0.77
  -2  10  -2   12.06    0.86
   3 -10   2   76.01    2.60
  -3 -10  -2   75.09    2.53
  -3 -10  -2   74.95    2.67
  -3  10  -2   78.37    2.66
  -4 -10  -2    8.80    0.65
  -4 -10  -2    8.16    0.91
   4 -10   2    9.16    0.87
  -4  10  -2    9.88    1.02
  -5 -10  -2    0.48    0.36
  -5 -10  -2    0.15    0.50
   5 -10   2    0.71    0.61
  -5  10  -2    0.21    0.49
  -5  10  -2   -0.28    0.40
  -6 -10  -2    7.84    0.75
  -6 -10  -2    6.95    0.92
  -6  10  -2    6.91    0.87
  -6  10  -2    7.79    0.78
  -6  10  -2    7.65    0.91
  -6  10  -2    7.95    0.93
  -7 -10  -2    3.08    0.78
  -7  10  -2    2.91    0.71
  -7  10  -2    2.94    0.75
  -7  10  -2    3.34    0.57
  -8 -10  -2   11.87    1.38
  -8  10  -2    9.26    1.15
  -8  10  -2    9.77    1.13
  -9 -10  -2   -0.36    1.04
  -9  10  -2    0.55    1.10
  -9  10  -2    2.04    1.00
 -10 -10  -2    1.92    1.39
 -10  10  -2    1.59    1.49
 -10  10  -2   -0.41    1.22
 -10 -11   2    5.13    1.50
 -10  11   2    0.76    1.18
 -10  11   2    0.62    1.64
  -9 -11   2    0.16    1.17
  -9  11   2    0.09    0.98
  -8 -11   2    1.37    0.96
  -8  11   2    1.63    1.03
  -8  11   2    2.12    0.76
  -7 -11   2    2.52    0.81
  -7 -11   2    2.77    0.61
  -7  11   2    1.62    0.63
  -7  11   2    2.12    0.76
  -7  11   2    2.58    0.76
  -6 -11   2    2.43    0.48
  -6 -11   2    2.74    0.75
  -6  11   2    3.46    0.65
  -6  11   2    2.46    0.70
  -6  11   2    2.53    0.61
  -5 -11   2    6.91    0.91
   5 -11  -2    6.15    0.77
  -5 -11   2    6.16    0.68
  -5  11   2    5.07    0.73
  -4 -11   2   20.58    1.17
  -4 -11   2   20.28    0.99
   4 -11  -2   19.25    1.16
  -4  11   2   20.16    1.02
  -3 -11   2    3.93    0.52
  -3 -11   2    3.97    0.60
   3 -11  -2    3.53    0.57
  -3  11   2    4.84    0.62
   2 -11  -2    5.98    0.71
  -2 -11   2    6.00    0.62
  -1 -11   2    4.72    0.61
   1 -11  -2    4.37    0.53
  -1 -11   2    5.89    0.64
  -1  11   2    4.76    0.45
   0 -11  -2   28.69    1.27
   0 -11  -2   24.82    1.15
   0 -11   2   25.74    1.16
   0  11  -2   27.29    1.12
  -1 -11  -2   13.86    0.93
  -1 -11  -2   13.17    0.81
   1 -11   2   12.78    0.83
  -1  11  -2   14.87    0.83
  -2 -11  -2    1.55    0.58
  -2 -11  -2    0.81    0.42
   2 -11   2    0.60    0.42
  -2  11  -2    1.48    0.43
   3 -11   2    7.61    0.82
  -3 -11  -2    7.60    0.99
  -3 -11  -2    8.66    0.72
  -3  11  -2    9.09    0.87
   4 -11   2    1.34    0.55
  -4 -11  -2    1.66    0.64
  -4 -11  -2    2.07    0.44
  -4  11  -2    1.90    0.67
  -5 -11  -2    4.26    0.74
  -5 -11  -2    3.91    0.53
   5 -11   2    4.83    0.80
  -5  11  -2    4.62    0.65
  -5  11  -2    5.37    0.66
  -6 -11  -2    2.90    0.74
  -6 -11  -2    2.57    0.55
  -6  11  -2    3.58    0.57
  -6  11  -2    2.83    0.68
  -6  11  -2    2.17    0.64
  -6  11  -2    2.85    0.62
  -7 -11  -2    6.39    1.01
  -7  11  -2    3.52    0.90
  -7  11  -2    6.19    0.76
  -7  11  -2    6.46    0.89
  -7  11  -2    6.11    0.85
  -8 -11  -2   -0.15    1.08
  -8  11  -2    1.37    0.95
  -8  11  -2    0.62    0.77
  -9 -11  -2   -2.13    1.27
  -9  11  -2   -0.06    1.05
  -9  11  -2   -1.10    1.16
 -10 -11  -2   -4.16    1.52
 -10  11  -2    2.38    1.63
 -10  11  -2    0.93    1.33
  -9 -12   2    5.32    1.38
  -9  12   2    1.68    1.08
  -8 -12   2    0.32    1.07
  -8  12   2   -0.34    1.17
  -8  12   2   -0.91    0.87
  -8  12   2    0.37    1.07
  -7 -12   2    1.72    0.95
  -7 -12   2    2.24    0.75
  -7  12   2    2.45    0.71
  -7  12   2    2.98    0.86
  -7  12   2    1.71    0.91
  -6 -12   2   22.49    1.22
  -6 -12   2   21.83    1.48
  -6  12   2   22.23    1.45
  -6  12   2   22.35    1.37
  -6  12   2   22.57    1.41
   5 -12  -2   23.54    1.43
  -5 -12   2   21.74    1.16
  -5 -12   2   24.67    1.44
  -5  12   2   26.76    1.51
  -4 -12   2    1.03    0.74
  -4 -12   2    1.28    0.43
   4 -12  -2    0.77    0.58
  -4  12   2    1.34    0.50
  -3 -12   2    2.36    0.49
  -3 -12   2    2.37    0.60
   3 -12  -2    0.70    0.53
  -3  12   2    1.87    0.48
  -2 -12   2   30.09    1.31
   2 -12  -2   30.81    1.38
  -2 -12   2   29.03    1.31
  -1 -12   2   46.68    1.71
   1 -12  -2   45.23    1.79
  -1 -12   2   47.72    1.78
   0 -12  -2    2.18    0.57
   0 -12  -2    1.20    0.46
   0 -12   2    0.97    0.44
   0  12  -2    1.70    0.39
  -1 -12  -2    1.29    0.59
   1 -12   2    1.70    0.44
  -1 -12  -2    1.62    0.47
  -1  12  -2    1.61    0.41
  -2 -12  -2    1.33    0.80
   2 -12   2    0.86    0.48
  -2 -12  -2    0.37    0.43
  -2  12  -2    0.55    0.41
  -3 -12  -2   18.66    1.39
   3 -12   2   19.72    1.17
  -3 -12  -2   20.43    1.04
  -3  12  -2   19.74    1.27
   4 -12   2    1.05    0.61
  -4 -12  -2    1.54    0.75
  -4 -12  -2    1.23    0.48
  -4  12  -2    0.58    0.62
  -5 -12  -2    2.19    0.53
   5 -12   2    2.74    0.86
  -5 -12  -2    2.45    0.81
  -5  12  -2    2.09    0.63
  -5  12  -2    3.23    0.53
  -6 -12  -2   10.66    1.40
  -6 -12  -2   12.37    1.03
   6 -12   2    9.14    1.23
  -6  12  -2    9.55    0.96
  -6  12  -2    9.98    1.00
  -6  12  -2    9.12    1.13
  -6  12  -2    9.61    1.11
  -7 -12  -2    1.74    1.03
  -7  12  -2    2.38    0.92
  -7  12  -2    2.26    0.76
  -7  12  -2    1.83    0.97
  -7  12  -2    1.35    0.91
  -8 -12  -2    1.52    1.17
  -8  12  -2    0.73    1.17
  -8  12  -2    0.63    0.93
  -9 -12  -2    2.65    1.49
  -9  12  -2    1.25    1.26
  -9  12  -2    1.09    1.40
  -9  13   2    0.14    1.21
  -8 -13   2    7.74    1.37
  -8  13   2    9.28    1.16
  -8  13   2    8.44    1.46
  -7 -13   2    0.72    0.76
  -7 -13   2    0.57    1.03
  -7  13   2   -0.57    0.98
  -7  13   2   -0.80    0.91
  -7  13   2   -1.27    0.71
  -6 -13   2    0.06    0.92
  -6 -13   2    0.53    0.65
  -6  13   2    0.75    0.80
  -6  13   2   -0.17    0.71
   5 -13  -2    5.10    0.98
  -5 -13   2    7.62    0.95
  -5 -13   2    6.74    1.01
  -4 -13   2   11.99    0.92
   4 -13  -2   11.06    1.10
  -4 -13   2   11.96    1.38
  -3 -13   2    0.68    0.67
  -3 -13   2    0.31    0.49
   3 -13  -2    0.41    0.60
  -2 -13   2   14.15    0.96
   2 -13  -2   14.17    1.02
  -2 -13   2   14.88    0.99
  -1 -13   2    8.74    0.87
  -1 -13   2    8.81    0.75
   1 -13  -2    6.83    0.83
   0 -13  -2    3.67    0.79
   0 -13   2    3.50    0.59
   0 -13  -2    3.43    0.57
   1 -13   2   -0.03    0.46
  -1 -13  -2    0.17    0.73
  -1 -13  -2    1.16    0.49
  -1  13  -2    0.99    0.42
   2 -13   2   38.26    1.64
  -2 -13  -2   39.38    1.61
  -2 -13  -2   38.34    1.80
  -2  13  -2   39.25    1.60
   3 -13   2    1.24    0.59
  -3 -13  -2   -0.90    0.72
  -3 -13  -2    0.03    0.46
  -3  13  -2    0.53    0.70
  -4 -13  -2    1.11    0.53
  -4 -13  -2   -0.21    0.85
   4 -13   2   -0.20    0.71
  -4  13  -2    1.53    0.75
  -5 -13  -2    0.61    0.89
   5 -13   2    0.21    0.89
  -5 -13  -2   -0.34    0.54
  -5  13  -2   -0.55    0.70
  -5  13  -2    1.07    0.60
   6 -13   2    6.10    1.35
  -6 -13  -2    7.34    0.84
  -6 -13  -2    7.64    1.20
  -6  13  -2    7.59    1.04
  -6  13  -2    8.40    1.04
  -7 -13  -2    0.54    1.15
  -7  13  -2    0.49    1.05
  -7  13  -2   -0.21    1.04
  -7  13  -2    0.51    1.10
  -8 -13  -2    0.46    1.38
  -8  13  -2    1.65    1.38
  -9 -13  -2    2.04    1.70
  -9  13  -2   -0.13    2.76
  -8  14   2    2.03    1.15
  -8  14   2    4.89    2.10
  -7 -14   2    2.01    0.89
  -7  14   2    2.25    0.94
  -7  14   2    1.62    1.09
  -7  14   2    1.34    1.01
  -6 -14   2   12.86    1.35
  -6  14   2   15.06    1.41
  -6  14   2   16.10    1.48
  -5 -14   2    4.01    1.53
  -5 -14   2    3.04    0.72
   5 -14  -2    2.09    0.93
  -4 -14   2    0.41    0.61
   4 -14  -2    2.35    0.85
  -4 -14   2    1.68    0.98
  -3 -14   2    1.86    0.90
   3 -14  -2    0.94    0.71
  -3 -14   2    0.33    0.53
   2 -14  -2   26.59    1.45
  -2 -14   2   23.65    1.34
  -2 -14   2   30.18    1.49
  -1 -14   2    6.68    0.76
   1 -14  -2    5.98    0.78
   0 -14   2   -1.16    0.51
   0 -14  -2    0.32    0.54
  -1 -14  -2    0.51    0.73
  -1 -14  -2    1.46    0.58
   1 -14   2    1.11    0.55
  -2 -14  -2    3.19    0.80
   2 -14   2    2.74    0.65
  -2 -14  -2    2.39    0.58
  -3 -14  -2   13.14    1.01
  -3 -14  -2   12.15    1.45
   3 -14   2   11.03    1.20
  -4 -14  -2    4.27    1.03
   4 -14   2    3.41    0.92
  -4 -14  -2    4.73    0.70
   5 -14   2    0.67    1.10
  -5 -14  -2    1.65    0.69
  -5 -14  -2   -1.08    1.07
  -6 -14  -2    6.87    1.39
   6 -14   2    3.67    1.41
  -6 -14  -2    7.30    0.95
  -7 -14  -2   -0.32    1.45
  -8 -14  -2    4.93    1.65
  -7 -15   2    0.50    1.04
  -7  15   2    0.57    1.10
  -7  15   2    1.44    1.20
  -6 -15   2    1.38    0.88
  -6  15   2    0.51    1.09
  -6  15   2   -0.41    0.93
   5 -15  -2   10.29    1.29
  -5 -15   2    9.00    1.02
   4 -15  -2    7.76    1.06
  -4 -15   2    9.94    1.13
  -3 -15   2    1.40    0.68
   3 -15  -2    3.42    0.85
  -2 -15   2    1.60    0.67
   2 -15  -2    1.82    0.77
  -1 -15   2   16.78    1.27
   1 -15  -2   16.50    1.36
   0 -15   2   19.34    1.36
   0 -15  -2   15.78    1.34
  -1 -15  -2    4.32    0.74
   1 -15   2    3.98    0.79
  -1 -15  -2    4.37    0.86
   2 -15   2   14.21    1.35
  -2 -15  -2   15.89    1.23
  -2 -15  -2   15.73    1.47
   3 -15   2    0.49    0.83
  -3 -15  -2   -0.35    0.92
  -3 -15  -2    0.13    0.66
  -4 -15  -2   12.51    1.22
   4 -15   2   12.77    1.28
  -4 -15  -2   13.72    1.77
  -5 -15  -2   -0.32    0.79
   5 -15   2    1.00    1.27
  -5 -15  -2    1.66    1.25
  -6 -15  -2    8.02    1.63
  -6 -15  -2    6.66    1.12
   6 -15   2    4.56    1.62
  -7 -15  -2   -0.32    1.51
  -8 -15  -2    1.32    2.67
  -7  16   2   -1.77    1.36
  -7  16   2    1.46    1.30
  -6 -16   2   -0.45    0.99
  -6  16   2   -1.41    1.16
  -6  16   2    1.42    1.07
   5 -16  -2    0.83    1.29
  -5 -16   2    0.54    0.91
   4 -16  -2    5.33    1.15
  -4 -16   2    7.00    0.97
   3 -16  -2    2.24    0.97
  -3 -16   2    2.21    0.80
   2 -16  -2    8.18    1.06
  -2 -16   2    7.90    0.96
   1 -16  -2    1.90    0.85
  -1 -16   2    2.84    0.78
   0 -16   2    1.24    0.74
   0 -16  -2    0.80    0.70
  -1 -16  -2   -0.03    0.86
   1 -16   2    0.54    0.79
  -1 -16  -2    0.07    0.69
  -2 -16  -2    8.63    0.94
   2 -16   2    8.33    1.07
  -2 -16  -2   11.53    1.20
  -3 -16  -2    3.28    1.06
   3 -16   2    2.12    1.01
  -3 -16  -2    4.09    0.87
  -4 -16  -2    7.44    1.36
   4 -16   2    9.49    1.30
  -4 -16  -2    8.01    1.07
   5 -16   2    2.57    1.37
  -5 -16  -2    1.74    0.97
   6 -16   2   -1.90    1.62
  -6  16  -2    2.10    1.18
  -6  16  -2    1.90    1.16
  -6 -17   2    1.45    1.16
  -6  17   2   -0.69    1.43
  -6  17   2   -0.87    1.35
   5 -17  -2    0.11    1.37
  -5 -17   2    1.59    1.02
   4 -17  -2    0.87    1.16
  -4 -17   2    0.38    0.97
   3 -17  -2    1.23    1.10
  -3 -17   2    0.07    0.91
  -2 -17   2    1.42    0.87
   2 -17  -2   -1.06    1.00
   1 -17  -2    0.79    0.92
  -1 -17   2    0.36    0.85
   0 -17  -2   13.72    1.53
   0 -17   2   13.44    1.57
  -1 -17  -2    4.47    0.94
   1 -17   2    3.14    1.02
   2 -17   2    2.07    1.06
  -2 -17  -2    0.08    0.81
   3 -17   2    3.25    1.14
  -3 -17  -2    3.05    0.96
  -4 -17  -2    9.41    1.16
   4 -17   2    8.62    1.47
   5 -17   2    0.27    1.48
  -5 -17  -2    0.57    0.98
  -6  17  -2    4.38    1.43
  -6  17  -2    1.76    1.33
   4 -18  -2    1.53    1.48
  -4 -18   2    4.08    1.26
   3 -18  -2    1.37    1.34
  -3 -18   2   -0.01    1.09
   2 -18  -2    0.29    1.16
  -2 -18   2    0.64    1.06
   1 -18  -2    1.30    1.13
  -1 -18   2    2.16    1.11
   0 -18  -2   -1.52    1.06
   0 -18   2    0.02    1.07
  -1 -18  -2    1.35    1.09
   1 -18   2   -0.40    1.15
   2 -18   2    1.20    1.21
  -2 -18  -2    1.48    1.02
  -3 -18  -2    1.90    1.09
   3 -18   2    2.71    1.36
  -4 -18  -2    1.15    1.17
   4 -18   2   -1.20    1.49
  -5 -18  -2    0.34    1.21
   2 -19  -2    7.67    2.42
  -2 -19   2    5.15    1.54
   1 -19  -2    0.70    1.40
  -1 -19   2    1.44    1.32
   0 -19  -2   -1.32    1.24
   0 -19   2    0.17    1.31
   1 -19   2   -0.95    1.45
  -1 -19  -2    0.44    1.31
   2 -19   2    2.84    1.70
  -2 -19  -2    2.63    1.41
 -12   0   3    1.87    1.37
 -11   0   3    0.11    0.92
 -10   0   3    0.75    0.70
  -9   0   3    0.83    0.54
  -8   0   3    0.08    0.41
  -8   0   3    0.73    0.33
  -7   0   3    0.11    0.31
  -7   0   3    0.11    0.32
  -6   0   3    0.26    0.24
  -6   0   3    0.56    0.33
  -5   0   3    0.52    0.25
  -5   0   3    0.08    0.18
  -4   0   3    0.17    0.19
  -4   0   3    0.35    0.16
  -3   0   3   -0.04    0.13
   2   0  -3    0.31    0.11
  -2   0   3    0.33    0.12
  -1   0   3    0.12    0.10
   1   0  -3    0.35    0.13
   0   0   3    0.73    0.16
   0   0  -3    0.67    0.18
   0   0   3    0.45    0.16
   0   0  -3    0.13    0.18
   0   0  -3    0.14    0.07
   0   0   3    0.20    0.09
  -1   0  -3    0.24    0.12
  -3   0  -3    0.17    0.15
  -4   0  -3    0.22    0.19
  -5   0  -3    0.05    0.24
  -7   0  -3    0.39    0.36
  -8   0  -3   -1.14    0.43
  -9   0  -3   -0.59    0.59
 -10   0  -3    1.02    0.86
 -11   0  -3   -1.01    1.01
 -12   0  -3    0.31    1.54
 -12  -1   3    0.18    1.27
 -12   1   3   -1.67    1.31
 -11  -1   3    2.20    0.99
 -11   1   3    2.49    1.03
 -10  -1   3    1.45    0.76
 -10   1   3    1.80    0.83
  -9  -1   3   10.65    0.96
  -9   1   3   12.62    1.04
  -8  -1   3    0.66    0.42
  -8  -1   3    0.05    0.31
  -8   1   3    0.30    0.31
  -8   1   3    0.40    0.41
  -7  -1   3    1.56    0.35
  -7  -1   3    0.96    0.34
  -7   1   3    1.19    0.36
  -7   1   3    0.59    0.34
  -6  -1   3   47.42    1.65
  -6  -1   3   46.02    1.54
  -6   1   3   47.33    1.67
  -6   1   3   47.14    1.56
  -5  -1   3    4.21    0.40
  -5  -1   3    3.54    0.32
  -5   1   3    3.72    0.34
  -5   1   3    3.10    0.39
  -4  -1   3   11.49    0.51
  -4  -1   3   10.64    0.45
  -4   1   3   10.15    0.51
  -4   1   3   10.65    0.47
  -3  -1   3    0.44    0.14
  -3  -1   3    0.23    0.13
  -3   1   3    0.52    0.15
  -2  -1   3   36.09    1.14
  -2  -1   3   36.47    1.13
   2  -1  -3   34.05    1.14
  -2   1   3   37.77    1.15
   2   1  -3   35.21    1.13
  -1  -1   3    0.07    0.09
   1  -1  -3    0.18    0.10
   1  -1  -3    0.16    0.09
  -1   1   3    0.08    0.10
   1   1  -3    0.03    0.08
   0  -1   3   88.50    2.50
   0  -1  -3   92.02    2.51
   0  -1  -3   77.30    2.60
   0  -1   3   79.05    2.50
   0  -1  -3   80.84    2.55
   0  -1  -3   89.50    2.51
   0   1  -3   75.51    2.52
   0   1   3   86.72    2.51
   0   1  -3   75.97    2.62
   0   1  -3   89.67    2.50
   0   1   3   79.77    2.54
   0   1   3   86.19    2.51
  -1  -1  -3    1.43    0.12
  -1  -1  -3    1.36    0.17
   1  -1   3    1.18    0.13
   1   1   3    1.52    0.14
  -1   1  -3    1.41    0.20
  -1   1  -3    1.12    0.11
  -1   1  -3    1.45    0.14
  -2  -1  -3   19.29    0.67
  -2   1  -3   18.19    0.64
  -3  -1  -3   11.34    0.49
  -3   1  -3   10.84    0.46
  -4  -1  -3   21.96    0.85
  -4   1  -3   23.25    0.85
  -5  -1  -3   29.02    1.08
  -5   1  -3   28.65    1.07
  -5   1  -3   28.64    0.92
  -6  -1  -3    3.36    0.43
  -6   1  -3    3.19    0.43
  -7  -1  -3   16.48    0.88
  -7   1  -3   16.62    0.90
  -8  -1  -3    0.74    0.49
  -8   1  -3    0.71    0.47
  -9  -1  -3    6.48    0.81
  -9   1  -3    6.96    0.81
 -10  -1  -3    1.06    0.82
 -10   1  -3   -0.14    0.81
 -11  -1  -3    1.09    1.08
 -11   1  -3    1.72    1.05
 -12  -1  -3    0.36    1.56
 -12   1  -3    1.60    1.63
 -12  -2   3    2.43    1.30
 -12   2   3    5.25    1.49
 -11  -2   3    0.65    0.95
 -11   2   3   -0.68    0.94
 -10  -2   3   30.99    1.66
 -10   2   3   28.50    1.69
  -9  -2   3    7.54    0.89
  -9   2   3    7.18    0.81
  -8  -2   3    4.58    0.55
  -8  -2   3    3.57    0.41
  -8   2   3    3.91    0.57
  -8   2   3    3.74    0.41
  -7  -2   3    0.95    0.34
  -7  -2   3    1.45    0.35
  -7   2   3    0.75    0.37
  -7   2   3    0.71    0.33
  -6  -2   3   79.54    2.45
  -6  -2   3   80.71    2.54
  -6   2   3   77.39    2.47
  -6   2   3   73.26    2.55
  -5  -2   3   23.68    0.93
  -5  -2   3   24.42    0.88
  -5   2   3   25.47    0.97
  -5   2   3   25.69    0.91
  -4  -2   3   10.39    0.44
  -4  -2   3   10.21    0.48
  -4   2   3    9.41    0.46
  -3  -2   3   12.66    0.49
  -3  -2   3   13.10    0.51
  -3   2   3   12.78    0.52
  -2  -2   3    1.63    0.19
  -2  -2   3    1.07    0.14
  -2   2   3    1.38    0.18
  -1  -2   3   24.11    0.82
  -1  -2   3   24.43    0.78
  -1   2   3   25.77    0.84
   1   2  -3   23.84    0.81
  -1   2   3   24.84    0.85
  -1   2   3   25.46    0.84
   0  -2  -3   18.63    0.62
   0  -2  -3   18.43    0.59
   0  -2   3   18.66    0.60
   0  -2  -3   16.99    0.80
   0   2  -3   15.87    0.79
   0   2   3   18.87    0.62
   0   2   3   19.03    0.59
   0   2  -3   18.54    0.60
   1  -2   3    9.75    0.38
   1  -2   3   11.43    0.42
  -1  -2  -3   12.25    0.50
  -1  -2  -3   11.81    0.42
   1   2   3   11.98    0.42
  -1   2  -3   11.38    0.39
  -1   2  -3   11.82    0.54
  -1   2  -3   11.51    0.41
  -2  -2  -3    3.41    0.28
  -3  -2  -3   55.53    1.74
   3  -2   3   53.95    1.65
  -3   2  -3   53.00    1.70
   3   2   3   53.92    1.63
  -3   2  -3   53.97    1.65
  -4  -2  -3  143.58    4.22
  -4  -2  -3  142.45    4.34
  -4   2  -3  140.44    4.24
  -4   2  -3  139.28    4.23
  -4   2  -3  143.34    4.32
  -5  -2  -3   23.84    0.73
  -5  -2  -3   22.19    0.90
  -5   2  -3   21.67    0.76
   5   2   3   20.78    0.74
  -5   2  -3   22.48    0.74
  -5   2  -3   22.33    0.89
  -6  -2  -3    1.91    0.36
  -6   2  -3    1.53    0.39
  -7  -2  -3    4.05    0.49
  -7   2  -3    3.93    0.50
  -8  -2  -3   20.08    1.13
  -8   2  -3   21.98    1.17
  -9  -2  -3    0.99    0.62
  -9   2  -3    0.53    0.61
 -10  -2  -3    4.97    0.96
 -10   2  -3    5.45    0.96
 -11  -2  -3    1.43    1.14
 -11   2  -3   -0.35    1.04
 -12  -3   3   -0.66    1.29
 -12   3   3    3.56    1.48
 -11  -3   3   -0.03    0.96
 -11   3   3    1.27    1.04
 -10  -3   3    2.74    0.82
 -10   3   3    2.41    0.87
  -9  -3   3   22.99    1.29
  -9   3   3   25.57    1.37
  -8  -3   3    1.37    0.36
  -8  -3   3    1.08    0.47
  -8   3   3    1.10    0.47
  -8   3   3    1.55    0.38
  -7  -3   3    6.43    0.52
  -7  -3   3    6.81    0.63
  -7   3   3    6.78    0.57
  -6  -3   3   86.45    2.71
  -6  -3   3   86.09    2.79
  -6   3   3   86.30    2.75
  -6   3   3   86.78    2.83
  -5  -3   3   10.72    0.57
  -5  -3   3   11.43    0.53
  -5   3   3   12.40    0.58
  -4  -3   3   50.50    1.61
  -4  -3   3   50.71    1.64
  -4   3   3   50.52    1.64
  -3  -3   3   12.66    0.49
  -3  -3   3   12.00    0.48
  -3   3   3   11.80    0.52
  -2  -3   3  141.39    4.13
  -2  -3   3  126.60    4.10
  -2   3   3  141.87    4.18
  -2   3   3  140.61    4.16
   1  -3  -3    1.15    0.18
  -1  -3   3    1.44    0.20
   1  -3  -3    1.62    0.27
  -1  -3   3    1.24    0.12
   1   3  -3    1.08    0.24
   1   3  -3    0.98    0.11
   0  -3   3  385.67   11.19
   0  -3  -3  380.29   11.20
   0  -3  -3  364.04   11.32
   0   3  -3  387.67   11.19
   0   3   3  394.28   11.20
   0   3  -3  357.00   11.33
  -1  -3  -3    1.75    0.18
   1  -3   3    1.59    0.18
  -1  -3  -3    1.44    0.24
  -1   3  -3    1.59    0.18
  -1   3  -3    1.51    0.13
  -1   3  -3    2.38    0.34
   1   3   3    1.80    0.21
  -2  -3  -3   49.69    1.60
   3  -3   3   36.98    1.18
  -3  -3  -3   37.14    1.15
  -3  -3  -3   37.20    1.24
  -3   3  -3   35.70    1.18
  -3   3  -3   34.75    1.16
   3   3   3   35.69    1.13
  -4  -3  -3   71.76    2.28
  -4  -3  -3   72.36    2.16
  -4   3  -3   71.58    2.20
  -4   3  -3   71.05    2.19
  -4   3  -3   73.38    2.25
   4   3   3   65.20    2.14
  -5  -3  -3    7.29    0.35
  -5  -3  -3    7.87    0.55
  -5   3  -3    7.76    0.50
  -5   3  -3    6.96    0.37
  -6  -3  -3    1.39    0.34
  -6   3  -3    0.08    0.37
  -6   3  -3    0.87    0.20
  -7  -3  -3   50.29    1.85
  -7   3  -3   51.37    1.85
  -8  -3  -3    0.73    0.49
  -8   3  -3    0.28    0.47
  -9  -3  -3    2.40    0.69
  -9   3  -3    1.95    0.67
 -10  -3  -3    2.90    0.91
 -10   3  -3    3.68    0.89
 -11  -3  -3    3.47    1.19
 -11   3  -3    6.51    1.24
 -12  -4   3    3.08    1.38
 -12   4   3    1.06    1.49
 -11  -4   3    0.27    0.99
 -11   4   3   -1.84    1.03
 -10  -4   3    3.11    0.87
 -10   4   3    5.02    0.99
  -9  -4   3    2.14    0.62
  -9   4   3    2.03    0.67
  -8  -4   3    3.50    0.44
  -8  -4   3    3.47    0.55
  -8   4   3    3.23    0.59
  -8   4   3    3.36    0.45
  -7  -4   3    9.50    0.71
  -7  -4   3    9.56    0.59
  -7   4   3   11.41    0.75
  -7   4   3    9.42    0.65
  -6  -4   3   39.07    1.41
  -6  -4   3   35.43    1.32
  -6   4   3   37.69    1.39
  -6   4   3   37.39    1.42
  -5  -4   3    5.90    0.42
  -5  -4   3    5.76    0.44
  -5   4   3    6.15    0.51
  -4  -4   3    4.85    0.36
  -4  -4   3    5.07    0.35
  -4   4   3    4.65    0.41
  -3  -4   3  221.65    6.58
  -3  -4   3  218.57    6.58
  -3   4   3  219.78    6.65
  -3   4   3  221.09    6.63
   2  -4  -3   19.08    0.74
  -2  -4   3   19.49    0.70
  -2  -4   3   20.34    0.67
   1  -4  -3   21.24    0.83
  -1  -4   3   21.34    0.66
  -1  -4   3   20.30    0.70
   1  -4  -3   19.19    0.74
   1   4  -3   18.93    0.64
   1   4  -3   19.65    0.81
   0  -4  -3   22.54    0.96
   0  -4   3   23.15    0.78
   0  -4  -3   23.10    0.80
   0   4  -3   21.96    0.94
  -1  -4  -3  228.32    6.86
  -1  -4  -3  224.57    6.78
   1  -4   3  221.14    6.78
  -1   4  -3  234.75    6.90
  -2  -4  -3   19.12    0.78
  -2  -4  -3   21.47    0.72
   3  -4   3   42.60    1.40
  -3  -4  -3   43.39    1.36
  -3  -4  -3   42.07    1.44
  -3   4  -3   42.02    1.38
   4  -4   3   66.94    2.10
  -4  -4  -3   66.63    2.17
  -4  -4  -3   67.37    2.06
  -4   4  -3   65.05    2.12
  -5  -4  -3   11.27    0.68
  -5  -4  -3   11.01    0.47
  -5   4  -3   10.44    0.59
  -5   4  -3   10.51    0.51
  -6  -4  -3   33.34    1.12
  -6  -4  -3   33.15    1.31
  -6   4  -3   34.36    1.15
  -6   4  -3   33.30    1.33
  -7  -4  -3    1.75    0.47
  -7   4  -3    2.02    0.30
  -7   4  -3    2.73    0.52
  -8  -4  -3    4.76    0.66
  -8   4  -3    4.67    0.65
  -9  -4  -3    0.67    0.62
  -9   4  -3   -0.60    0.60
 -10  -4  -3   12.22    1.38
 -10   4  -3   13.23    1.43
 -11  -4  -3    1.40    1.21
 -11   4  -3    2.39    1.13
 -11  -5   3    3.28    1.13
 -11   5   3    3.61    1.17
 -10  -5   3    0.40    0.80
 -10   5   3    1.24    0.80
  -9  -5   3    0.27    0.60
  -9   5   3    2.70    0.68
  -8  -5   3    0.83    0.50
  -8  -5   3    1.93    0.39
  -8   5   3    1.74    0.46
  -8   5   3    2.07    0.55
  -7  -5   3   18.23    0.80
  -7  -5   3   18.42    0.94
  -7   5   3   17.79    0.97
  -7   5   3   17.13    0.86
  -6  -5   3    2.74    0.47
  -5  -5   3    3.33    0.43
  -5  -5   3    3.72    0.37
  -5   5   3    4.19    0.47
  -4  -5   3   24.95    0.93
  -4  -5   3   25.43    0.93
  -4   5   3   25.79    1.00
  -4   5   3   26.78    1.03
  -3  -5   3   15.72    0.63
  -3  -5   3   16.56    0.62
  -3   5   3   15.24    0.69
  -3   5   3   14.62    0.70
  -2  -5   3   70.36    2.20
   2  -5  -3   69.64    2.25
  -2  -5   3   71.51    2.17
   1  -5  -3    0.91    0.22
  -1  -5   3    0.98    0.19
  -1  -5   3    1.31    0.20
   1  -5  -3    1.31    0.31
   1   5  -3    1.41    0.28
   0  -5  -3   87.32    2.84
   0  -5   3   89.45    2.69
   0  -5  -3   87.68    2.71
   0   5  -3   84.23    2.83
  -1  -5  -3   29.11    1.04
  -1  -5  -3   29.29    1.15
   1  -5   3   30.34    1.05
  -1   5  -3   32.27    1.19
  -2  -5  -3  143.49    4.14
  -2  -5  -3  142.48    4.21
   2  -5   3  133.88    4.15
  -2   5  -3  125.01    4.22
  -3  -5  -3   29.06    1.01
   3  -5   3   29.74    1.07
  -3  -5  -3   29.08    1.09
  -3   5  -3   29.28    1.00
   4  -5   3   26.36    1.01
  -4  -5  -3   27.35    0.94
  -4  -5  -3   27.34    1.05
  -4   5  -3   25.97    0.98
  -5  -5  -3   78.80    2.43
  -5  -5  -3   78.78    2.58
  -5   5  -3   79.10    2.51
  -5   5  -3   77.01    2.50
  -5   5  -3   76.01    2.47
  -6  -5  -3   14.86    0.83
  -6  -5  -3   15.20    0.64
  -6   5  -3   14.26    0.69
  -6   5  -3   14.26    0.85
  -7  -5  -3    9.14    0.76
  -7   5  -3    7.44    0.56
  -7   5  -3    7.48    0.75
  -8  -5  -3    1.88    0.57
  -8   5  -3    1.77    0.56
  -9  -5  -3   15.83    1.21
  -9   5  -3   14.48    1.21
 -10  -5  -3    0.55    0.84
 -10   5  -3   -0.45    0.83
 -11  -5  -3    0.98    1.19
 -11   5  -3   -1.18    1.14
 -11  -6   3    1.75    1.17
 -11   6   3    0.09    1.13
 -10  -6   3    5.38    0.99
 -10   6   3    6.08    0.98
  -9  -6   3    0.60    0.65
  -9   6   3   -0.47    0.62
  -8  -6   3   -0.14    0.41
  -8  -6   3    1.03    0.50
  -8   6   3   -0.09    0.53
  -8   6   3   -0.45    0.45
  -7  -6   3   23.23    1.08
  -7  -6   3   23.12    0.95
  -7   6   3   20.42    1.02
  -7   6   3   21.75    1.13
  -6  -6   3   10.60    0.62
  -6  -6   3    9.37    0.77
  -6   6   3    9.58    0.71
  -5  -6   3    6.87    0.54
  -5  -6   3    6.91    0.53
  -5   6   3    6.96    0.64
  -4  -6   3    3.12    0.39
  -4  -6   3    2.97    0.34
  -4   6   3    2.88    0.44
  -4   6   3    2.82    0.42
  -3  -6   3  124.38    3.75
  -3  -6   3  121.86    3.77
   3  -6  -3  122.37    3.83
   2  -6  -3    3.49    0.41
  -2  -6   3    2.67    0.32
  -2  -6   3    2.93    0.30
   1  -6  -3   52.32    1.86
  -1  -6   3   52.03    1.74
  -1  -6   3   54.73    1.76
   1  -6  -3   54.95    1.80
   1   6  -3   56.29    1.85
  -1   6   3   55.68    1.70
   0  -6  -3    2.56    0.42
   0  -6   3    1.84    0.27
   0  -6  -3    1.64    0.26
   0   6  -3    2.15    0.38
  -1  -6  -3  238.99    7.17
  -1  -6  -3  234.14    7.29
   1  -6   3  239.11    7.18
  -1   6  -3  241.73    7.32
  -2  -6  -3   18.58    0.74
   2  -6   3   17.87    0.77
  -2  -6  -3   19.92    0.83
  -2   6  -3   18.76    0.87
  -3  -6  -3    6.79    0.42
   3  -6   3    6.65    0.51
  -3  -6  -3    6.46    0.52
  -3   6  -3    6.14    0.55
  -3   6  -3    5.60    0.39
  -5  -6  -3   60.85    2.09
  -5  -6  -3   62.04    1.95
  -5   6  -3   59.48    2.04
  -5   6  -3   62.04    2.02
  -5   6  -3   57.24    2.01
  -6  -6  -3   19.63    0.78
  -6  -6  -3   19.02    0.98
  -6   6  -3   18.69    0.86
  -6   6  -3   17.93    0.94
  -7  -6  -3   -0.30    0.42
  -7   6  -3    0.88    0.42
  -7   6  -3   -0.18    0.44
  -8  -6  -3    2.43    0.61
  -8   6  -3    2.30    0.56
  -9  -6  -3   -1.22    0.69
  -9   6  -3    0.14    0.69
 -10  -6  -3    1.49    0.96
 -10   6  -3    3.07    0.96
 -11  -6  -3    1.85    1.26
 -11   6  -3   -1.79    1.22
 -11  -7   3    2.98    1.26
 -11   7   3    1.93    1.27
 -10  -7   3    2.55    0.96
 -10   7   3    3.07    0.95
  -9  -7   3    1.45    0.74
  -9   7   3    2.50    0.69
  -8  -7   3    2.05    0.47
  -8  -7   3    3.50    0.65
  -8   7   3    1.42    0.60
  -8   7   3    2.90    0.60
  -7  -7   3    0.57    0.34
  -7  -7   3    0.09    0.43
  -7   7   3    0.06    0.45
  -7   7   3    0.92    0.45
  -6  -7   3    1.68    0.43
  -6  -7   3    1.55    0.34
  -6   7   3    2.25    0.43
  -5  -7   3    0.20    0.30
  -5  -7   3    0.22    0.31
  -5   7   3    0.81    0.37
  -5   7   3   -0.07    0.38
  -4  -7   3    5.91    0.51
  -4  -7   3    6.19    0.49
  -4   7   3    4.53    0.60
  -4   7   3    4.95    0.57
  -3  -7   3    8.06    0.53
   3  -7  -3    9.35    0.63
  -3  -7   3    8.59    0.50
  -2  -7   3    5.96    0.43
  -2  -7   3    5.97    0.45
   2  -7  -3    6.72    0.57
   1  -7  -3   20.27    0.86
   1  -7  -3   19.71    0.93
  -1  -7   3   20.47    0.84
  -1  -7   3   20.30    0.82
   1   7  -3   22.03    0.91
   0  -7  -3   14.29    0.78
   0  -7  -3   14.05    0.66
   0  -7   3   13.76    0.66
   0   7  -3   13.68    0.77
  -1  -7  -3    4.07    0.42
  -1  -7  -3    4.39    0.53
   1  -7   3    4.06    0.42
  -1   7  -3    5.08    0.59
  -2  -7  -3   20.14    0.94
   2  -7   3   20.08    0.86
  -2  -7  -3   20.87    0.83
  -2   7  -3   19.95    0.96
  -3  -7  -3    8.12    0.52
   3  -7   3    7.56    0.59
  -3  -7  -3    9.24    0.63
  -3   7  -3    7.98    0.64
   4  -7   3    0.81    0.41
  -4  -7  -3    1.59    0.31
  -4  -7  -3    1.64    0.40
  -4   7  -3    1.20    0.30
  -4   7  -3    0.68    0.35
  -5  -7  -3   22.62    1.08
   5  -7   3   25.16    1.19
  -5  -7  -3   22.29    0.93
  -5   7  -3   23.50    0.99
  -6  -7  -3    1.33    0.38
  -6  -7  -3    1.56    0.47
  -6   7  -3    1.35    0.43
  -6   7  -3    1.24    0.49
  -6   7  -3    0.95    0.50
  -7  -7  -3    2.63    0.56
  -7   7  -3    3.51    0.52
  -7   7  -3    3.20    0.55
  -8  -7  -3    6.20    0.76
  -8   7  -3    6.71    0.91
  -9  -7  -3    7.59    1.01
  -9   7  -3    8.48    0.99
 -10  -7  -3    1.13    1.02
 -10   7  -3    2.65    1.00
 -11  -7  -3   -0.43    1.31
 -11   7  -3    2.32    1.33
 -11  -8   3   -1.02    1.31
 -11   8   3    2.26    1.37
 -10  -8   3   -1.41    1.03
 -10   8   3    1.68    0.97
  -9  -8   3    3.34    0.88
  -9   8   3    3.82    0.84
  -8  -8   3    0.14    0.49
  -8  -8   3    1.38    0.65
  -8   8   3    0.84    0.58
  -8   8   3    0.61    0.65
  -7  -8   3    0.62    0.36
  -7  -8   3    2.30    0.54
  -7   8   3    0.80    0.49
  -7   8   3    1.11    0.51
  -6  -8   3   14.39    0.77
  -6  -8   3   15.12    0.88
  -6   8   3   15.30    0.93
  -5  -8   3   23.75    1.02
  -5  -8   3   23.08    0.98
  -5   8   3   23.87    1.10
  -5   8   3   24.40    1.14
  -4  -8   3    1.28    0.35
  -4  -8   3    1.23    0.34
   4  -8  -3    1.84    0.42
  -3  -8   3   37.44    1.32
  -3  -8   3   36.24    1.33
   3  -8  -3   37.51    1.42
  -2  -8   3   16.33    0.77
  -2  -8   3   16.70    0.76
   2  -8  -3   16.93    0.81
  -2   8   3   17.74    0.69
   1  -8  -3   41.06    1.47
  -1  -8   3   39.48    1.41
   1  -8  -3   39.31    1.51
  -1  -8   3   40.33    1.43
  -1   8   3   40.48    1.30
   1   8  -3   42.06    1.49
   0  -8  -3    1.36    0.41
   0  -8  -3    0.99    0.32
   0  -8   3    1.14    0.34
   0   8  -3    1.36    0.37
  -1  -8  -3   27.08    1.08
   1  -8   3   26.82    1.09
  -1  -8  -3   28.15    1.24
  -1   8  -3   28.86    1.24
   2  -8   3   10.63    0.75
  -2  -8  -3   13.73    0.70
  -2  -8  -3   12.22    0.79
  -2   8  -3   11.53    0.78
   3  -8   3   -0.33    0.41
  -3  -8  -3    0.33    0.34
  -3  -8  -3    0.21    0.37
  -3   8  -3   -0.08    0.33
  -4  -8  -3   14.03    0.94
  -4  -8  -3   13.42    0.80
   4  -8   3   14.93    0.91
  -4   8  -3   15.49    0.71
  -4   8  -3   13.98    0.90
  -5  -8  -3    1.80    0.49
   5  -8   3    1.09    0.53
  -5  -8  -3    1.73    0.41
  -5   8  -3    1.55    0.44
  -5   8  -3    2.00    0.49
  -6  -8  -3    0.72    0.46
  -6  -8  -3    0.60    0.37
  -6   8  -3    0.46    0.44
  -6   8  -3    0.59    0.41
  -6   8  -3    0.84    0.47
  -7  -8  -3    0.37    0.54
  -7   8  -3    0.96    0.57
  -7   8  -3    0.95    0.47
  -8  -8  -3    1.27    0.66
  -8   8  -3    0.44    0.60
  -9  -8  -3    1.67    0.91
  -9   8  -3    2.53    0.84
 -10  -8  -3    1.46    1.14
 -10   8  -3    2.12    1.14
 -11  -8  -3   -0.06    1.40
 -11   8  -3   -0.43    1.33
 -11  -9   3    1.06    1.45
 -11   9   3    0.18    1.33
 -10  -9   3    2.49    1.16
 -10   9   3    1.96    1.06
  -9  -9   3    0.67    0.92
  -9   9   3    0.20    0.80
  -8  -9   3    4.24    0.63
  -8  -9   3    3.62    0.77
  -8   9   3    2.30    0.64
  -8   9   3    2.38    0.78
  -7  -9   3    6.08    0.59
  -7  -9   3    6.67    0.75
  -7   9   3    5.41    0.69
  -7   9   3    5.47    0.71
  -6  -9   3    3.23    0.45
  -6  -9   3    3.66    0.56
  -6   9   3    3.52    0.53
  -6   9   3    3.99    0.58
  -5  -9   3    0.46    0.45
  -5  -9   3    0.95    0.35
  -5   9   3    0.57    0.45
  -5   9   3   -0.19    0.45
  -4  -9   3    4.43    0.56
  -4  -9   3    4.39    0.49
   4  -9  -3    4.17    0.58
  -3  -9   3    6.28    0.61
  -3  -9   3    7.05    0.57
   3  -9  -3    7.64    0.67
  -3   9   3    7.41    0.52
  -2  -9   3    1.51    0.34
   2  -9  -3    2.70    0.40
  -2  -9   3    1.66    0.42
  -2   9   3    1.56    0.28
  -1  -9   3    0.92    0.31
   1  -9  -3    0.77    0.32
   1  -9  -3    0.61    0.40
  -1  -9   3    0.61    0.30
   1   9  -3    0.91    0.34
   0  -9   3    4.18    0.42
   0  -9  -3    3.71    0.44
   0  -9  -3    4.73    0.55
   0   9  -3    4.48    0.61
  -1  -9  -3   11.83    0.86
   1  -9   3   11.04    0.68
  -1  -9  -3   11.06    0.66
  -1   9  -3   10.20    0.77
  -2  -9  -3    3.46    0.43
   2  -9   3    3.02    0.45
  -2  -9  -3    3.83    0.56
  -2   9  -3    1.94    0.46
  -3  -9  -3    5.08    0.50
   3  -9   3    4.95    0.56
  -3  -9  -3    5.28    0.63
  -3   9  -3    5.24    0.71
  -4  -9  -3    3.08    0.59
  -4   9  -3    2.22    0.55
  -5  -9  -3   11.09    0.91
  -5  -9  -3   12.91    0.74
   5  -9   3   13.94    1.02
  -5   9  -3   14.16    1.00
  -5   9  -3   12.42    0.85
  -6  -9  -3    0.46    0.39
  -6  -9  -3   -0.71    0.48
  -6   9  -3    1.08    0.53
  -6   9  -3    0.44    0.49
  -6   9  -3    0.48    0.40
  -6   9  -3    0.12    0.48
  -7  -9  -3    3.91    0.72
  -7   9  -3    3.18    0.69
  -7   9  -3    4.26    0.58
  -7   9  -3    4.50    0.73
  -8  -9  -3    0.14    0.73
  -8   9  -3   -0.72    0.64
  -8   9  -3   -0.22    0.77
  -9  -9  -3    2.10    0.98
  -9   9  -3    0.80    0.93
  -9   9  -3    1.72    0.97
 -10  -9  -3   -0.68    1.26
 -10   9  -3   -2.05    1.12
 -10   9  -3   -0.59    1.38
 -10 -10   3    1.55    1.28
 -10  10   3    2.97    1.16
  -9 -10   3    2.19    1.10
  -9  10   3    3.44    0.91
  -8 -10   3    1.23    0.79
  -8 -10   3    1.84    0.64
  -8  10   3   -0.43    0.66
  -8  10   3    0.85    0.87
  -7 -10   3    6.14    0.83
  -7 -10   3    6.11    0.63
  -7  10   3    7.57    0.83
  -7  10   3    6.89    0.74
  -6 -10   3    2.42    0.60
  -6 -10   3    2.04    0.44
  -6  10   3    1.50    0.51
  -6  10   3    2.63    0.56
  -5 -10   3    0.33    0.36
  -5 -10   3    1.06    0.57
  -5  10   3   -0.29    0.47
  -5  10   3    1.28    0.48
   4 -10  -3    3.51    0.55
  -4 -10   3    2.85    0.49
  -4 -10   3    3.17    0.45
  -4  10   3    2.96    0.42
  -3 -10   3   48.71    1.72
  -3 -10   3   46.82    1.74
   3 -10  -3   46.54    1.79
  -3  10   3   49.03    1.67
  -2 -10   3    2.16    0.46
   2 -10  -3    1.82    0.42
  -2 -10   3    1.71    0.38
  -2  10   3    1.07    0.32
  -1 -10   3    1.27    0.35
   1 -10  -3   -0.24    0.33
  -1 -10   3    0.37    0.33
   0 -10   3    2.75    0.41
   0 -10  -3    2.32    0.49
   0 -10  -3    1.61    0.39
   0  10  -3    2.17    0.43
  -1 -10  -3   51.94    1.97
  -1 -10  -3   52.35    1.86
   1 -10   3   50.49    1.85
  -1  10  -3   54.25    1.94
  -2 -10  -3    2.98    0.45
   2 -10   3    2.84    0.46
  -2 -10  -3    4.07    0.62
  -2  10  -3    2.03    0.51
   3 -10   3    0.22    0.44
  -3 -10  -3    0.14    0.35
  -3 -10  -3    0.18    0.60
  -3  10  -3    0.46    0.45
   4 -10   3    3.09    0.58
  -4 -10  -3    2.44    0.58
  -4 -10  -3    3.54    0.44
  -4  10  -3    2.39    0.38
  -4  10  -3    2.62    0.68
  -5 -10  -3    5.15    0.54
   5 -10   3    5.42    0.77
  -5 -10  -3    6.74    0.77
  -5  10  -3    5.31    0.59
  -5  10  -3    4.77    0.67
  -6 -10  -3    2.78    0.68
  -6 -10  -3    2.06    0.50
  -6  10  -3    2.09    0.60
  -6  10  -3    2.17    0.58
  -6  10  -3    2.30    0.60
  -6  10  -3    1.14    0.46
  -7 -10  -3    1.13    0.72
  -7  10  -3    1.15    0.57
  -7  10  -3    0.87    0.73
  -7  10  -3    0.56    0.68
  -7  10  -3    0.83    0.77
  -8 -10  -3    3.16    0.96
  -8  10  -3    3.88    0.80
  -8  10  -3    3.98    0.91
  -9 -10  -3   -0.73    1.07
  -9  10  -3    0.49    1.11
  -9  10  -3   -0.06    1.02
 -10 -10  -3    1.44    1.40
 -10  10  -3    1.01    1.26
 -10  10  -3    1.85    1.44
 -10 -11   3    0.39    1.41
 -10  11   3    0.21    1.18
  -9 -11   3    0.84    1.17
  -9  11   3   -0.77    0.96
  -8 -11   3    1.46    0.76
  -8 -11   3    1.17    0.93
  -8  11   3   -0.44    0.73
  -8  11   3    0.80    1.01
  -7 -11   3    1.81    0.60
  -7 -11   3    0.14    0.75
  -7  11   3   -0.14    0.57
  -7  11   3    1.56    0.73
  -6 -11   3    0.68    0.47
  -6 -11   3    0.60    0.63
  -6  11   3    1.73    0.61
  -6  11   3    0.57    0.55
  -6  11   3    0.25    0.56
  -5 -11   3    1.02    0.66
  -5 -11   3    1.12    0.42
  -5  11   3    1.76    0.51
  -5  11   3    1.20    0.50
  -5  11   3    0.64    0.58
  -4 -11   3    0.84    0.40
  -4 -11   3    2.70    0.56
   4 -11  -3    1.73    0.52
  -4  11   3    0.63    0.40
  -3 -11   3    7.12    0.80
  -3 -11   3    7.41    0.71
   3 -11  -3    7.79    0.81
  -3  11   3    7.59    0.65
   2 -11  -3    0.77    0.40
  -2 -11   3    1.01    0.47
  -2 -11   3    0.13    0.38
  -2  11   3    0.03    0.30
  -1 -11   3   12.15    0.75
  -1 -11   3   11.89    0.76
   1 -11  -3   12.46    0.81
   0 -11   3    2.96    0.46
   0 -11  -3    3.36    0.59
   0 -11  -3    2.89    0.49
   0  11  -3    3.49    0.45
  -1 -11  -3    3.68    0.61
   1 -11   3    3.04    0.49
  -1 -11  -3    2.39    0.46
  -1  11  -3    2.48    0.44
  -2 -11  -3    3.15    0.48
  -2 -11  -3    3.79    0.76
   2 -11   3    3.98    0.52
   3 -11   3   15.03    0.98
  -3 -11  -3   14.75    1.18
  -3 -11  -3   15.45    0.88
  -3  11  -3   15.48    1.16
  -4 -11  -3    0.77    0.62
   4 -11   3    1.19    0.58
  -4 -11  -3    0.66    0.39
  -4  11  -3    0.64    0.56
  -4  11  -3    0.76    0.36
   5 -11   3    4.06    0.81
  -5 -11  -3    3.30    0.49
  -5 -11  -3    3.07    0.75
  -5  11  -3    2.44    0.63
  -5  11  -3    3.66    0.53
  -6 -11  -3    4.14    0.61
  -6 -11  -3    2.92    0.80
   6 -11   3    2.71    0.99
  -6  11  -3    4.73    0.72
  -6  11  -3    4.04    0.61
  -7 -11  -3    0.74    0.83
  -7  11  -3    0.94    0.95
  -7  11  -3    0.33    0.71
  -7  11  -3    0.08    0.61
  -7  11  -3    0.37    0.96
  -8 -11  -3    1.27    1.15
  -8  11  -3    0.38    0.83
  -8  11  -3    0.55    0.97
  -9 -11  -3    0.36    1.31
  -9  11  -3    2.49    1.33
  -9  11  -3    0.71    1.07
 -10 -11  -3   -1.45    1.57
 -10  11  -3    1.54    1.54
 -10  11  -3   -0.25    1.60
  -9 -12   3   -0.21    1.22
  -9  12   3    2.03    1.09
  -8 -12   3    1.91    1.46
  -8 -12   3    2.59    1.04
  -8  12   3    1.45    1.08
  -8  12   3    1.60    0.91
  -7 -12   3    1.49    0.72
  -7 -12   3   -0.03    0.86
  -7  12   3    0.54    0.85
  -7  12   3    1.43    0.64
  -6 -12   3    1.67    0.79
  -6 -12   3    1.24    0.55
  -6  12   3    2.61    0.77
  -6  12   3    2.15    0.70
  -5 -12   3    9.30    1.14
  -5 -12   3   10.33    0.84
  -5  12   3    8.10    0.95
  -5  12   3   10.34    0.99
  -4 -12   3    0.06    0.43
   4 -12  -3    0.31    0.56
  -4 -12   3    0.11    0.68
  -3 -12   3    6.16    0.73
  -3 -12   3    5.92    0.69
   3 -12  -3    5.58    0.70
  -2 -12   3    3.75    0.54
  -2 -12   3    3.29    0.52
   2 -12  -3    2.16    0.52
  -1 -12   3   23.84    1.03
   1 -12  -3   22.63    1.17
  -1 -12   3   25.62    1.15
   0 -12  -3    1.26    0.65
   0 -12  -3    1.02    0.47
   0 -12   3    1.24    0.44
   0  12  -3    0.80    0.39
  -1 -12  -3    6.75    0.76
  -1 -12  -3    6.50    0.90
   1 -12   3    6.38    0.67
  -1  12  -3    7.18    0.75
  -2 -12  -3   12.07    0.84
   2 -12   3   13.37    0.92
  -2 -12  -3   16.72    1.22
  -2  12  -3   10.59    0.96
   3 -12   3   -0.38    0.53
  -3 -12  -3    0.28    0.68
  -3 -12  -3    0.54    0.40
  -3  12  -3   -0.09    0.73
   4 -12   3    0.74    0.63
  -4 -12  -3    1.82    0.77
  -4 -12  -3   -0.24    0.41
  -4  12  -3   -0.44    0.56
  -4  12  -3    1.34    0.52
  -5 -12  -3    1.18    0.49
  -5 -12  -3   -0.17    0.79
   5 -12   3   -0.09    0.83
  -5  12  -3    0.72    0.52
  -5  12  -3    1.20    0.62
  -6 -12  -3    2.95    0.63
   6 -12   3    1.59    1.08
  -6 -12  -3    3.86    0.98
  -6  12  -3    1.58    0.74
  -6  12  -3    1.63    0.64
  -7 -12  -3   -0.81    1.02
  -7  12  -3   -0.65    0.85
  -7  12  -3    0.41    0.75
  -8 -12  -3    0.46    1.19
  -8  12  -3    1.79    1.25
  -8  12  -3    1.10    1.03
  -9 -12  -3    0.88    1.50
  -9  12  -3   -3.29    1.35
  -9  13   3    0.42    1.17
  -8  13   3    1.46    0.98
  -8  13   3    0.01    1.16
  -7 -13   3    0.64    0.74
  -7 -13   3   -1.60    1.03
  -7  13   3   -1.71    0.88
  -7  13   3    1.62    0.75
  -6 -13   3    2.86    0.94
  -6 -13   3    2.55    0.70
  -6  13   3    0.91    0.79
  -6  13   3    1.40    0.74
  -5 -13   3    3.88    0.88
   5 -13  -3    1.40    0.87
  -5 -13   3    3.85    0.67
  -5  13   3    1.78    0.70
  -5  13   3    2.35    0.73
  -4 -13   3   11.67    1.33
  -4 -13   3   11.21    0.92
   4 -13  -3   11.81    1.08
   3 -13  -3    0.12    0.58
  -3 -13   3    1.70    0.60
  -3 -13   3    2.13    0.54
  -2 -13   3   16.42    0.93
   2 -13  -3   14.30    1.05
  -2 -13   3   12.74    0.96
  -1 -13   3    0.18    0.49
   1 -13  -3    0.55    0.52
   0 -13   3    3.19    0.58
   0 -13  -3    4.01    0.72
   0 -13  -3    2.39    0.58
   0  13  -3    3.30    0.51
  -1 -13  -3    1.10    0.51
   1 -13   3    1.78    0.54
  -1 -13  -3    1.14    0.69
  -1  13  -3    1.72    0.48
   2 -13   3   10.57    0.95
  -2 -13  -3   11.08    0.87
  -2 -13  -3   11.90    1.18
  -2  13  -3    9.92    1.06
  -3 -13  -3    0.65    0.46
  -3 -13  -3   -0.44    0.79
   3 -13   3   -0.20    0.59
  -3  13  -3    1.06    0.64
  -4 -13  -3    0.92    0.50
  -4 -13  -3    0.95    0.88
   4 -13   3    1.40    0.70
  -4  13  -3    1.14    0.71
  -5 -13  -3    0.28    0.94
   5 -13   3    0.50    0.94
  -5 -13  -3    1.60    0.57
  -5  13  -3    0.45    0.78
   6 -13   3   -0.51    1.29
  -6 -13  -3    1.30    0.72
  -6 -13  -3   -1.46    0.97
  -6  13  -3    0.47    0.92
  -7 -13  -3   -1.99    1.23
  -7  13  -3    0.25    1.06
  -8 -13  -3   -0.01    1.39
  -8  13  -3    0.26    1.30
  -9 -13  -3    0.26    1.74
  -9  13  -3    2.71    1.81
  -8  14   3    5.30    1.38
  -8  14   3    5.94    1.18
  -7 -14   3    1.30    0.89
  -7  14   3    0.43    0.90
  -7  14   3   -1.01    1.06
  -6 -14   3    5.60    0.89
  -6  14   3    4.28    0.96
  -6  14   3    5.40    1.08
  -5 -14   3    3.14    0.68
   5 -14  -3    2.09    0.93
  -5  14   3    1.72    0.72
  -5  14   3    2.48    0.74
  -4 -14   3    6.38    0.76
   4 -14  -3    5.38    0.90
  -3 -14   3    3.35    0.68
   3 -14  -3    2.62    0.79
   2 -14  -3    5.11    0.73
  -2 -14   3    3.58    0.64
  -1 -14   3    8.11    0.96
   1 -14  -3    9.20    1.02
   0 -14  -3   -0.10    0.54
   0 -14  -3    1.22    0.66
   0 -14   3    0.39    0.50
   1 -14   3    1.56    0.59
  -1 -14  -3    1.95    0.78
  -1 -14  -3    1.20    0.54
  -1  14  -3    1.38    0.62
   2 -14   3    0.98    0.61
  -2 -14  -3    1.26    0.56
  -2 -14  -3    2.62    0.80
  -2  14  -3    1.12    0.74
  -3 -14  -3    4.61    0.98
   3 -14   3    4.82    0.81
  -3 -14  -3    5.86    0.71
  -3  14  -3    4.56    0.84
  -4 -14  -3    4.99    0.71
  -4 -14  -3    5.45    1.14
   4 -14   3    5.32    1.02
  -4  14  -3    5.21    0.96
   5 -14   3   -1.06    1.10
  -5 -14  -3    0.66    0.72
  -5 -14  -3   -0.95    1.10
  -5  14  -3    1.21    0.98
  -6 -14  -3    3.50    0.91
   6 -14   3    1.69    1.39
  -6 -14  -3    2.43    1.33
  -6  14  -3    2.65    1.25
  -7 -14  -3    3.03    1.53
  -8 -14  -3    6.08    1.80
  -8  15   3    0.35    1.44
  -7 -15   3    2.79    1.00
  -7  15   3    1.14    1.13
  -7  15   3    3.11    1.05
  -6 -15   3   -0.08    0.89
  -6  15   3    0.04    1.00
  -6  15   3   -0.08    0.96
  -5 -15   3    0.28    0.76
  -5  15   3    0.94    0.82
  -5  15   3    1.38    0.85
   4 -15  -3    8.19    1.02
  -4 -15   3    7.66    0.88
  -3 -15   3    4.23    0.75
   3 -15  -3    3.92    0.86
  -2 -15   3    6.14    0.84
   2 -15  -3    6.28    0.91
   1 -15  -3    6.50    0.92
  -1 -15   3    9.03    1.12
   0 -15   3    9.03    0.93
   0 -15  -3   10.43    1.21
  -1 -15  -3   -0.68    0.63
  -1 -15  -3   -0.56    0.82
   1 -15   3    0.98    0.68
  -2 -15  -3   13.74    1.48
  -2 -15  -3   11.62    1.13
   2 -15   3   14.99    1.33
  -3 -15  -3    3.42    0.77
   3 -15   3    5.56    0.95
  -3 -15  -3    2.04    1.00
   4 -15   3    1.17    0.99
  -4 -15  -3    0.54    1.14
  -4 -15  -3    0.49    0.74
  -5 -15  -3    2.05    0.83
  -5 -15  -3    1.96    1.33
   5 -15   3    1.76    1.30
  -6 -15  -3    6.98    1.68
   6 -15   3    4.24    1.63
  -7 -15  -3    1.76    1.67
  -7 -16   3    0.05    1.15
  -7  16   3   -1.84    1.30
  -7  16   3   -1.45    1.34
  -6 -16   3   -1.23    0.95
  -6  16   3    2.44    1.09
  -6  16   3    1.19    1.19
  -5 -16   3    0.96    0.95
  -5  16   3   -0.66    0.93
  -5  16   3    0.77    1.00
   4 -16  -3    3.04    1.08
  -4 -16   3    1.93    0.83
  -3 -16   3    7.30    0.94
   3 -16  -3    7.03    1.13
   2 -16  -3    2.25    0.93
  -2 -16   3    0.67    0.77
   1 -16  -3    0.80    0.79
  -1 -16   3    1.18    0.74
   0 -16  -3    1.27    0.77
   0 -16   3    0.56    0.73
  -1 -16  -3   11.26    1.48
   1 -16   3    7.21    1.02
  -1 -16  -3    8.72    0.94
  -2 -16  -3    1.49    0.71
  -2 -16  -3    1.05    1.03
   2 -16   3    1.82    0.87
   3 -16   3    3.36    1.07
  -3 -16  -3    1.90    1.08
  -3 -16  -3    1.03    0.80
  -4 -16  -3    1.39    0.86
   4 -16   3    1.14    1.20
  -4 -16  -3    2.40    1.28
  -5 -16  -3    1.15    0.92
  -5 -16  -3    0.16    1.39
   5 -16   3   -0.11    1.43
  -6 -16  -3    0.54    1.65
   6 -16   3   -1.59    1.65
  -6 -17   3   -0.24    1.18
  -6  17   3   -1.45    1.64
  -6  17   3    0.25    1.30
  -5 -17   3    1.49    1.09
  -5  17   3    1.80    1.20
  -5  17   3    1.69    1.29
   4 -17  -3   -0.23    1.13
  -4 -17   3    0.79    0.99
  -3 -17   3    0.35    0.94
   3 -17  -3    0.16    1.07
   2 -17  -3    1.71    1.06
  -2 -17   3    1.21    0.89
   1 -17  -3    0.29    0.92
  -1 -17   3    0.11    0.87
   0 -17   3    0.97    0.92
   0 -17  -3   -0.53    0.87
  -1 -17  -3    2.70    0.91
   1 -17   3    3.10    1.00
   2 -17   3    1.30    1.05
  -2 -17  -3    0.03    0.88
  -3 -17  -3    1.42    0.94
   3 -17   3    3.04    1.22
  -4 -17  -3    0.57    0.95
   4 -17   3   -0.71    1.31
  -5 -17  -3    0.82    1.03
   5 -17   3   -1.04    1.47
   6 -17   3    0.89    1.88
  -4 -18   3    2.01    1.23
   4 -18  -3    1.48    1.50
  -3 -18   3    0.39    1.15
   3 -18  -3    2.77    1.38
   2 -18  -3    6.53    1.31
  -2 -18   3    3.97    1.18
  -1 -18   3    1.31    1.06
   1 -18  -3    1.72    1.13
   0 -18   3   -0.29    1.05
   0 -18  -3   -0.21    1.08
   1 -18   3    0.69    1.12
  -1 -18  -3    0.69    1.08
   2 -18   3   -0.08    1.23
  -2 -18  -3    1.07    1.04
  -3 -18  -3    0.33    1.03
   3 -18   3    0.12    1.30
  -4 -18  -3    4.19    1.21
   4 -18   3    0.71    1.64
  -5 -18  -3    1.03    1.28
  -2 -19   3    3.94    2.03
  -1 -19   3    0.56    1.34
   1 -19  -3    2.21    1.45
   0 -19   3    1.15    1.37
   0 -19  -3    1.91    1.36
   1 -19   3   -0.36    1.41
  -1 -19  -3   -0.21    1.33
  -2 -19  -3    4.13    1.44
   2 -19   3    1.39    1.57
 -12   0   4    5.69    1.40
 -11   0   4    1.14    0.94
 -10   0   4    6.53    0.93
  -9   0   4   11.47    0.96
  -9   0   4   10.64    0.78
  -8   0   4   11.70    0.68
  -8   0   4   12.20    0.82
  -6   0   4    0.67    0.34
  -6   0   4    0.61    0.28
  -5   0   4    0.63    0.21
  -5   0   4    0.62    0.25
  -4   0   4    9.05    0.43
  -4   0   4    8.97    0.46
  -3   0   4    2.73    0.25
  -2   0   4   29.65    0.96
   1   0  -4    9.21    0.35
  -1   0   4    9.60    0.36
   0   0  -4   15.45    0.68
   0   0   4   17.52    0.53
   0   0  -4   16.82    0.53
   0   0  -4   15.29    0.70
  -1   0  -4   24.05    0.75
   1   0   4   23.90    0.74
  -1   0  -4   24.87    0.87
  -1   0  -4   24.95    0.81
  -2   0  -4   88.82    2.71
  -3   0  -4    6.24    0.36
  -4   0  -4   32.82    1.15
  -5   0  -4    0.74    0.27
  -6   0  -4    0.23    0.32
  -7   0  -4    1.02    0.41
  -8   0  -4   16.69    1.03
  -9   0  -4    1.75    0.66
 -10   0  -4    0.53    0.86
 -11   0  -4    1.79    1.14
 -12  -1   4    1.49    1.28
 -12   1   4    1.49    1.36
 -11  -1   4    2.20    0.97
 -11   1   4    0.58    0.93
 -10  -1   4   14.34    1.33
 -10   1   4   12.40    1.31
  -9  -1   4    3.85    0.64
  -9  -1   4    2.36    0.49
  -9   1   4    2.96    0.63
  -9   1   4    3.66    0.50
  -8  -1   4   40.22    1.57
  -8  -1   4   39.75    1.41
  -8   1   4   38.89    1.41
  -8   1   4   39.74    1.57
  -7  -1   4    0.40    0.28
  -7  -1   4   -0.40    0.30
  -7   1   4    0.48    0.32
  -7   1   4    0.82    0.31
  -6  -1   4   29.78    1.14
  -6  -1   4   28.56    1.04
  -6   1   4   26.94    1.14
  -6   1   4   28.11    1.06
  -5  -1   4    0.22    0.19
  -5  -1   4    0.14    0.23
  -5   1   4    0.02    0.20
  -5   1   4    0.19    0.24
  -4  -1   4   56.50    1.79
  -4  -1   4   54.89    1.76
  -4   1   4   55.99    1.77
  -3  -1   4    4.58    0.28
  -3  -1   4    4.54    0.28
  -3   1   4    4.74    0.30
  -2  -1   4    7.97    0.34
  -2   1   4    8.55    0.36
  -1  -1   4    8.10    0.31
   1  -1  -4    7.97    0.32
  -1   1   4    7.62    0.32
   1   1  -4    6.49    0.40
   1   1  -4    7.83    0.30
   0  -1   4    3.31    0.22
   0  -1   4    2.78    0.17
   0  -1  -4    2.77    0.38
   0  -1  -4    2.74    0.18
   0  -1  -4    3.09    0.34
   0  -1  -4    2.87    0.19
   0   1   4    2.19    0.28
   0   1  -4    2.31    0.32
   0   1   4    2.88    0.19
   0   1  -4    2.58    0.34
   0   1  -4    2.80    0.16
  -1  -1  -4    3.17    0.28
   1  -1   4    2.85    0.16
  -1   1  -4    2.96    0.15
  -1   1  -4    2.97    0.33
   1   1   4    2.54    0.15
   1   1   4    2.75    0.17
  -2  -1  -4    4.44    0.30
  -2   1  -4    4.91    0.27
  -3  -1  -4   58.80    1.86
  -3   1  -4   57.52    1.84
  -4  -1  -4    3.32    0.35
  -4   1  -4    2.72    0.32
  -5  -1  -4   10.50    0.60
  -5   1  -4   10.71    0.59
  -6  -1  -4    0.48    0.33
  -6   1  -4    0.44    0.35
  -7  -1  -4    3.56    0.49
  -7   1  -4    4.41    0.53
  -8  -1  -4   19.51    1.11
  -8   1  -4   19.43    1.12
  -9  -1  -4    0.04    0.62
  -9   1  -4   -0.65    0.59
 -10  -1  -4   -0.06    0.82
 -10   1  -4    1.13    0.84
 -11  -1  -4   -1.56    1.10
 -11   1  -4    0.59    1.12
 -12  -2   4    0.99    1.28
 -12   2   4    1.99    1.42
 -11  -2   4    0.56    0.98
 -11   2   4    1.82    1.04
 -10  -2   4   14.16    1.31
 -10   2   4   13.53    1.41
  -9  -2   4    3.69    0.51
  -9  -2   4    3.68    0.64
  -9   2   4    3.63    0.51
  -9   2   4    4.73    0.70
  -8  -2   4    3.00    0.51
  -8  -2   4    2.71    0.40
  -8   2   4    2.74    0.52
  -8   2   4    2.47    0.39
  -7  -2   4   22.52    0.87
  -7  -2   4   21.30    0.96
  -7   2   4   18.76    0.97
  -7   2   4   21.18    0.89
  -6  -2   4    2.74    0.35
  -6  -2   4    3.37    0.42
  -6   2   4    2.97    0.44
  -6   2   4    3.05    0.39
  -5  -2   4    2.89    0.37
  -5  -2   4    3.19    0.33
  -5   2   4    3.28    0.37
  -4  -2   4    0.05    0.18
  -4  -2   4    0.33    0.16
  -4   2   4    0.58    0.19
  -3  -2   4   72.94    2.25
  -3  -2   4   74.96    2.25
  -3   2   4   71.34    2.27
  -2  -2   4   45.82    1.36
  -2  -2   4   40.07    1.34
  -2   2   4   44.32    1.38
   1  -2  -4    1.88    0.27
  -1  -2   4    1.63    0.18
  -1   2   4    1.74    0.22
  -1   2   4    1.65    0.17
   1   2  -4    1.13    0.14
   1   2  -4    1.29    0.24
  -1   2   4    1.59    0.17
   0  -2  -4    7.55    0.56
   0  -2   4    7.66    0.31
   0   2   4    7.72    0.34
   0   2  -4    7.08    0.55
   0   2  -4    7.38    0.30
   0   2   4    7.58    0.33
   0   2   4    7.56    0.33
   0   2   4    7.55    0.34
  -1  -2  -4   11.64    0.53
   1  -2   4   11.29    0.41
  -1  -2  -4   11.39    0.41
  -1   2  -4   11.56    0.40
  -1   2  -4   12.04    0.58
   1   2   4   11.87    0.43
  -1   2  -4   11.18    0.40
  -2  -2  -4  108.05    3.30
  -2  -2  -4  108.44    3.21
   2  -2   4  103.94    3.23
  -2   2  -4  107.00    3.25
   2   2   4  109.09    3.21
  -2   2  -4  110.18    3.21
  -3  -2  -4    0.56    0.21
   3  -2   4    0.60    0.14
  -3   2  -4    0.52    0.17
  -3   2  -4    0.53    0.11
  -4  -2  -4   55.98    1.84
  -4   2  -4   56.24    1.81
  -5  -2  -4   -0.04    0.28
  -5   2  -4   -0.05    0.26
  -6  -2  -4   44.01    1.57
  -6   2  -4   42.00    1.56
  -7  -2  -4    1.37    0.42
  -8  -2  -4   19.38    1.11
  -8   2  -4   21.08    1.14
  -9  -2  -4    0.93    0.66
  -9   2  -4    0.55    0.65
 -10  -2  -4    4.47    0.97
 -10   2  -4    1.96    0.89
 -11  -2  -4    3.13    1.14
 -11   2  -4    3.81    1.17
 -12  -3   4    0.12    1.30
 -12   3   4   -0.43    1.36
 -11  -3   4    2.00    0.98
 -11   3   4    0.92    1.05
 -10  -3   4   18.86    1.41
 -10   3   4   16.48    1.52
  -9  -3   4    1.39    0.48
  -9  -3   4    3.25    0.62
  -9   3   4    1.46    0.47
  -9   3   4    0.21    0.59
  -8  -3   4    2.30    0.37
  -8  -3   4    2.95    0.51
  -8   3   4    1.67    0.51
  -8   3   4    2.62    0.42
  -7  -3   4    1.77    0.40
  -7  -3   4    1.70    0.31
  -7   3   4    1.99    0.35
  -7   3   4    1.45    0.41
  -6  -3   4  226.70    6.65
  -6  -3   4  203.12    6.56
  -6   3   4  220.87    6.61
  -6   3   4  221.28    6.68
  -5  -3   4    0.48    0.25
  -5  -3   4    0.47    0.22
  -5   3   4    0.57    0.27
  -4  -3   4    1.35    0.20
  -4   3   4    1.35    0.24
  -3  -3   4    7.25    0.37
  -3  -3   4    7.15    0.35
  -3   3   4    7.39    0.40
  -2  -3   4  567.98   16.44
  -2  -3   4  553.08   16.47
  -2   3   4  553.42   16.51
  -2   3   4  553.92   16.50
  -1  -3   4    1.59    0.20
   1  -3  -4    1.94    0.31
   1  -3  -4    1.58    0.20
  -1  -3   4    1.40    0.11
   1   3  -4    1.52    0.27
   0  -3  -4   13.83    0.52
   0  -3  -4   13.31    0.73
   0  -3   4   14.19    0.50
   0   3  -4   12.23    0.72
   0   3   4   13.44    0.51
  -1  -3  -4   68.21    2.21
   1  -3   4   68.28    2.12
  -1  -3  -4   69.06    2.12
  -1   3  -4   70.88    2.27
  -1   3  -4   69.43    2.08
   1   3   4   71.13    2.13
  -1   3  -4   68.23    2.11
   2  -3   4   81.32    2.62
  -2  -3  -4   84.08    2.60
  -2  -3  -4   88.45    2.69
   2   3   4   85.17    2.60
  -2   3  -4   85.25    2.60
  -2   3  -4   85.83    2.60
  -2   3  -4   91.94    2.76
  -3  -3  -4   33.99    1.09
  -3  -3  -4   34.00    1.20
   3  -3   4   34.56    1.13
   3   3   4   33.89    1.08
  -3   3  -4   35.31    1.14
  -3   3  -4   35.08    1.10
  -4  -3  -4    0.21    0.25
  -4  -3  -4    0.04    0.14
  -4   3  -4    0.23    0.15
  -4   3  -4    0.03    0.16
   4   3   4    0.06    0.12
  -4   3  -4    0.39    0.22
  -4   3  -4    0.02    0.17
  -5  -3  -4   29.26    1.13
  -5   3  -4   28.49    1.08
  -5   3  -4   27.71    0.93
  -6  -3  -4    8.77    0.65
  -6   3  -4    8.57    0.72
  -7  -3  -4   13.65    0.84
  -7   3  -4   12.80    0.85
  -8  -3  -4    6.01    0.70
  -8   3  -4    6.34    0.72
  -9  -3  -4    1.61    0.70
  -9   3  -4    1.97    0.71
 -10  -3  -4   10.58    1.45
 -10   3  -4   10.00    1.13
 -11  -3  -4    1.93    1.22
 -11   3  -4    0.02    1.11
 -12  -4   4    1.30    1.32
 -12   4   4    1.62    1.51
 -11  -4   4    4.30    1.08
 -11   4   4    2.93    1.06
 -10  -4   4   11.92    1.17
 -10   4   4   10.12    1.34
  -9  -4   4    0.82    0.57
  -9  -4   4    0.36    0.54
  -9   4   4    1.14    0.63
  -9   4   4    0.76    0.53
  -8  -4   4    1.45    0.48
  -8  -4   4    1.68    0.37
  -8   4   4    0.74    0.40
  -8   4   4    1.01    0.50
  -7  -4   4   12.47    0.77
  -7  -4   4   14.13    0.68
  -7   4   4   12.57    0.82
  -7   4   4   12.42    0.72
  -6  -4   4    5.46    0.61
  -6  -4   4    6.05    0.52
  -6   4   4    6.17    0.60
  -6   4   4    6.22    0.62
  -5  -4   4   14.44    0.67
  -5  -4   4   15.37    0.68
  -5   4   4   15.95    0.77
  -4  -4   4    0.69    0.21
  -4  -4   4    0.68    0.21
  -4   4   4    1.20    0.26
  -3  -4   4   65.68    2.02
  -3  -4   4   65.93    2.04
  -3   4   4   63.84    2.11
  -3   4   4   65.38    2.09
  -2  -4   4  176.06    5.51
  -2  -4   4  187.06    5.55
  -2   4   4  188.30    5.60
  -2   4   4  189.38    5.61
   1  -4  -4    1.06    0.30
  -1  -4   4    1.14    0.11
  -1  -4   4    1.18    0.18
   1  -4  -4    1.30    0.21
   1   4  -4    0.97    0.11
   1   4  -4    1.20    0.27
   0  -4  -4   84.57    2.53
   0  -4   4   84.42    2.51
   0  -4  -4   78.24    2.67
   0   4  -4   79.55    2.69
  -1  -4  -4  120.99    3.65
   1  -4   4  119.35    3.64
  -1  -4  -4  118.54    3.75
  -1   4  -4  120.68    3.58
  -1   4  -4  122.09    3.80
   2  -4   4  550.06   16.89
  -2  -4  -4  570.95   16.96
  -2  -4  -4  566.17   16.87
  -2   4  -4  592.84   17.02
  -2   4  -4  573.18   16.85
  -3  -4  -4    0.02    0.22
   3  -4   4    0.30    0.22
  -3  -4  -4   -0.02    0.16
  -3   4  -4    0.22    0.17
   3   4   4    0.13    0.14
  -4  -4  -4   69.93    2.25
  -4  -4  -4   68.78    2.12
   4  -4   4   67.52    2.16
  -4   4  -4   67.80    2.18
  -5  -4  -4    4.83    0.61
  -5  -4  -4    4.78    0.34
  -5   4  -4    5.16    0.49
  -5   4  -4    6.15    0.38
  -6  -4  -4  106.27    3.24
  -6  -4  -4  106.40    3.45
  -6   4  -4  109.45    3.43
  -6   4  -4  105.32    3.26
  -7  -4  -4   14.54    0.90
  -7   4  -4   13.39    0.86
  -8  -4  -4    4.96    0.69
  -8   4  -4    5.06    0.67
  -9  -4  -4    1.02    0.66
  -9   4  -4    1.46    0.69
 -10  -4  -4    6.64    1.05
 -10   4  -4    6.58    0.99
 -11  -4  -4    1.48    1.19
 -11   4  -4    3.27    1.27
 -11  -5   4    0.59    1.07
 -11   5   4    2.24    1.16
 -10  -5   4    5.80    0.98
 -10   5   4    4.35    0.92
  -9  -5   4    0.38    0.60
  -9   5   4    0.30    0.56
  -9   5   4    0.70    0.63
  -8  -5   4   -0.03    0.37
  -8  -5   4   -0.04    0.49
  -8   5   4    0.70    0.54
  -8   5   4    0.04    0.40
  -7  -5   4    1.33    0.42
  -7  -5   4    1.18    0.31
  -7   5   4    0.62    0.45
  -7   5   4    1.28    0.36
  -6  -5   4   82.01    2.71
  -6  -5   4   82.67    2.65
  -6   5   4   85.22    2.73
  -5  -5   4    2.98    0.34
  -5  -5   4    2.38    0.36
  -5   5   4    3.01    0.43
  -4  -5   4   18.07    0.74
  -4  -5   4   18.65    0.73
  -4   5   4   18.80    0.82
  -4   5   4   18.22    0.85
  -3  -5   4   21.63    0.76
  -3  -5   4   21.54    0.80
  -3   5   4   21.31    0.88
  -3   5   4   21.28    0.86
  -2  -5   4  441.04   13.22
   2  -5  -4  438.53   13.26
  -2  -5   4  456.74   13.17
  -1  -5   4   12.23    0.51
   1  -5  -4   11.55    0.55
   1  -5  -4   11.39    0.68
  -1  -5   4   11.72    0.45
   1   5  -4   10.87    0.39
   1   5  -4   11.66    0.66
   0  -5  -4    7.63    0.65
   0  -5   4    8.25    0.41
   0  -5  -4    8.07    0.43
   0   5  -4    7.73    0.62
   1  -5   4    3.26    0.33
  -1  -5  -4    3.75    0.51
  -1  -5  -4    3.54    0.33
  -1   5  -4    3.60    0.51
  -2  -5  -4  129.36    3.94
   2  -5   4  124.02    3.95
  -2  -5  -4  127.95    4.03
  -2   5  -4  131.03    3.89
  -2   5  -4  134.79    4.09
  -3  -5  -4   87.98    2.70
  -3  -5  -4   87.86    2.80
   3  -5   4   87.13    2.74
  -3   5  -4   85.69    2.85
  -3   5  -4   87.82    2.69
  -4  -5  -4   17.60    0.82
   4  -5   4   18.29    0.78
  -4  -5  -4   16.18    0.67
  -4   5  -4   16.74    0.71
  -5  -5  -4   51.88    1.66
  -5  -5  -4   50.80    1.82
  -5   5  -4   53.82    1.76
  -5   5  -4   50.81    1.72
  -5   5  -4   50.67    1.70
  -6  -5  -4    0.30    0.24
  -6  -5  -4   -0.31    0.35
  -6   5  -4   -0.18    0.39
  -6   5  -4    0.65    0.27
  -7  -5  -4   13.26    0.90
  -7   5  -4   13.16    0.86
  -8  -5  -4    3.36    0.64
  -8   5  -4    2.74    0.60
  -9  -5  -4    7.05    0.91
  -9   5  -4    8.06    0.88
 -10  -5  -4    5.04    1.01
 -10   5  -4    3.44    0.96
 -11  -5  -4    0.02    1.18
 -11   5  -4    0.90    1.23
 -11  -6   4    1.88    1.17
 -11   6   4   -0.21    1.12
 -10  -6   4    0.34    0.88
 -10   6   4    0.22    0.83
  -9  -6   4    0.54    0.63
  -9   6   4   -0.29    0.62
  -9   6   4   -0.31    0.63
  -8  -6   4    0.35    0.41
  -8  -6   4    0.40    0.48
  -8   6   4   -0.40    0.46
  -8   6   4   -0.02    0.53
  -7  -6   4   31.46    1.30
  -7  -6   4   33.69    1.23
  -7   6   4   30.88    1.37
  -7   6   4   30.58    1.28
  -6  -6   4    1.16    0.32
  -6  -6   4    0.81    0.46
  -6   6   4    1.71    0.42
  -5  -6   4    8.97    0.57
  -5  -6   4    9.02    0.57
  -5   6   4    8.97    0.68
  -4  -6   4   48.97    1.75
  -4  -6   4   53.54    1.74
  -4   6   4   55.51    1.86
  -4   6   4   54.92    1.90
  -3  -6   4   41.26    1.40
  -3  -6   4   44.39    1.36
   3  -6  -4   40.86    1.48
  -3   6   4   39.32    1.49
  -2  -6   4    3.11    0.34
  -2  -6   4    3.27    0.29
   2  -6  -4    3.38    0.41
  -1  -6   4   10.86    0.51
   1  -6  -4   10.89    0.57
   1  -6  -4   10.35    0.71
  -1  -6   4   10.68    0.52
   1   6  -4   11.11    0.67
   0  -6   4  286.16    8.55
   0  -6  -4  288.41    8.71
   0  -6  -4  290.31    8.58
   0   6  -4  277.63    8.71
  -1  -6  -4   20.62    0.99
  -1  -6  -4   21.20    0.81
   1  -6   4   21.21    0.82
  -1   6  -4   20.43    1.01
  -2  -6  -4   36.96    1.25
  -2  -6  -4   37.26    1.37
   2  -6   4   34.97    1.27
  -2   6  -4   37.02    1.17
  -2   6  -4   35.86    1.40
   3  -6   4    9.18    0.57
  -3  -6  -4    9.07    0.62
  -3  -6  -4    9.20    0.50
  -3   6  -4    9.91    0.47
  -3   6  -4   10.37    0.66
  -4  -6  -4   39.69    1.49
   4  -6   4   40.58    1.45
  -4  -6  -4   41.42    1.37
  -4   6  -4   39.72    1.38
   5  -6   4   13.97    0.76
  -5  -6  -4   12.67    0.78
  -5  -6  -4   12.81    0.60
  -5   6  -4   12.61    0.70
  -6  -6  -4    4.90    0.62
  -6  -6  -4    4.71    0.44
  -6   6  -4    4.68    0.52
  -6   6  -4    6.23    0.67
  -7  -6  -4    7.25    0.81
  -7   6  -4    5.39    0.63
  -8  -6  -4    2.20    0.62
  -8   6  -4    3.25    0.62
  -9  -6  -4    1.49    0.79
  -9   6  -4    1.19    0.73
 -10  -6  -4    0.80    0.97
 -10   6  -4    2.93    0.98
 -11  -6  -4    2.35    1.33
 -11   6  -4   -0.18    1.27
 -11  -7   4    4.54    1.37
 -11   7   4    3.36    1.27
 -10  -7   4    1.93    1.01
 -10   7   4    1.89    0.92
  -9  -7   4   -0.17    0.70
  -9   7   4    0.75    0.75
  -9   7   4   -0.57    0.71
  -8  -7   4   52.23    1.98
  -8  -7   4   50.09    1.84
  -8   7   4   49.27    1.94
  -8   7   4   50.02    2.02
  -7  -7   4    0.68    0.37
  -7  -7   4    0.15    0.45
  -7   7   4    0.69    0.50
  -7   7   4    0.43    0.44
  -6  -7   4   18.46    0.99
  -6  -7   4   20.18    0.86
  -6   7   4   18.44    1.01
  -5  -7   4    2.63    0.36
  -5  -7   4    2.20    0.37
  -5   7   4    2.50    0.45
  -5   7   4    2.39    0.48
  -4  -7   4  175.91    5.32
  -4  -7   4  176.61    5.34
  -4   7   4  171.66    5.45
  -4   7   4  175.58    5.42
   3  -7  -4   35.44    1.36
  -3  -7   4   37.22    1.30
  -3  -7   4   37.22    1.25
  -2  -7   4   10.55    0.57
   2  -7  -4   10.13    0.64
  -2  -7   4   10.32    0.52
   1  -7  -4   12.99    0.79
  -1  -7   4   13.12    0.64
  -1  -7   4   14.01    0.62
   1  -7  -4   13.63    0.70
   1   7  -4   15.49    0.78
   0  -7   4   50.65    1.66
   0  -7  -4   49.16    1.67
   0  -7  -4   49.03    1.81
   0   7  -4   48.45    1.80
  -1  -7  -4   24.36    1.11
  -1  -7  -4   22.49    0.91
   1  -7   4   22.65    0.92
  -1   7  -4   24.53    1.11
   2  -7   4    5.22    0.47
  -2  -7  -4    4.50    0.59
  -2  -7  -4    4.10    0.42
  -2   7  -4    4.19    0.58
  -3  -7  -4    6.81    0.50
   3  -7   4    6.68    0.56
  -3  -7  -4    7.41    0.62
  -3   7  -4    7.26    0.62
  -3   7  -4    6.73    0.43
   4  -7   4    8.39    0.74
  -4  -7  -4    7.89    0.55
  -4  -7  -4    7.67    0.71
  -4   7  -4    7.10    0.72
  -4   7  -4    7.87    0.51
  -5  -7  -4    2.64    0.34
   5  -7   4    3.27    0.55
  -5  -7  -4    2.02    0.45
  -5   7  -4    3.44    0.42
  -5   7  -4    2.37    0.50
  -6  -7  -4    5.38    0.51
  -6  -7  -4    5.86    0.74
  -6   7  -4    4.21    0.58
  -6   7  -4    5.11    0.66
  -6   7  -4    4.54    0.62
  -7  -7  -4    0.68    0.54
  -7   7  -4    0.70    0.46
  -8  -7  -4    5.40    0.76
  -8   7  -4    5.52    0.71
  -9  -7  -4    2.57    0.88
  -9   7  -4    3.49    0.79
 -10  -7  -4    1.20    1.04
 -10   7  -4    1.91    1.05
 -11  -7  -4    2.43    1.45
 -11   7  -4    1.48    1.37
 -11  -8   4    4.06    1.41
 -11   8   4    5.81    1.37
 -10  -8   4    0.95    1.04
 -10   8   4    1.30    0.92
  -9  -8   4    1.87    0.85
  -9   8   4   -0.19    0.86
  -9   8   4    0.32    0.82
  -8  -8   4   13.27    0.92
  -8  -8   4    9.92    1.04
  -8   8   4   10.32    1.06
  -8   8   4    9.12    1.07
  -7  -8   4   32.69    1.42
  -7  -8   4   32.18    1.29
  -7   8   4   33.86    1.45
  -7   8   4   30.54    1.45
  -6  -8   4    0.11    0.33
  -6  -8   4    1.14    0.47
  -6   8   4    0.67    0.41
  -5  -8   4    8.54    0.63
  -5  -8   4    8.13    0.62
  -5   8   4    8.62    0.76
  -5   8   4    9.54    0.80
  -4  -8   4   21.31    0.88
  -4  -8   4   20.48    0.89
  -4   8   4   20.48    1.03
  -4   8   4   18.84    0.98
  -3  -8   4   63.68    2.07
   3  -8  -4   62.72    2.14
  -3  -8   4   61.42    2.03
  -2  -8   4   15.71    0.72
   2  -8  -4   14.91    0.78
  -2  -8   4   16.09    0.72
  -2   8   4   15.54    0.63
   1  -8  -4    1.77    0.35
   1  -8  -4    1.69    0.45
  -1  -8   4    1.54    0.29
  -1  -8   4    0.99    0.30
   1   8  -4    1.33    0.38
   0  -8  -4  104.91    3.28
   0  -8  -4   90.13    3.13
   0  -8   4   99.49    3.13
   0   8  -4  100.51    3.26
  -1  -8  -4   29.89    1.11
  -1  -8  -4   26.69    1.28
   1  -8   4   24.83    1.08
  -1   8  -4   29.52    1.28
  -2  -8  -4   32.65    1.17
   2  -8   4   26.45    1.18
  -2  -8  -4   30.37    1.30
  -2   8  -4   29.54    1.30
  -3  -8  -4    1.02    0.44
  -3  -8  -4    1.48    0.37
   3  -8   4    0.81    0.46
  -3   8  -4    1.23    0.25
  -3   8  -4    1.59    0.42
  -4  -8  -4   37.09    1.55
  -4  -8  -4   37.97    1.40
   4  -8   4   38.07    1.53
  -4   8  -4   37.69    1.33
  -4   8  -4   36.40    1.57
  -5  -8  -4    1.47    0.45
   5  -8   4    1.58    0.61
  -5  -8  -4    0.99    0.45
  -5   8  -4    1.54    0.42
  -5   8  -4    0.63    0.49
  -6  -8  -4    2.04    0.55
  -6  -8  -4    1.89    0.47
  -6   8  -4    1.63    0.51
  -6   8  -4    2.06    0.52
  -6   8  -4    1.18    0.43
  -6   8  -4    2.33    0.51
  -7  -8  -4    0.12    0.57
  -7   8  -4    0.53    0.47
  -8  -8  -4    2.20    0.73
  -8   8  -4    3.35    0.67
  -9  -8  -4    1.10    0.93
  -9   8  -4   -0.17    0.82
 -10  -8  -4   -0.35    1.16
 -10   8  -4   -1.49    1.09
 -11   9   4    0.17    1.35
 -10  -9   4    0.63    1.13
 -10   9   4   -0.23    1.01
  -9  -9   4    1.26    0.89
  -9   9   4    0.48    1.04
  -9   9   4    1.45    0.83
  -8  -9   4   42.59    1.73
  -8  -9   4   41.61    1.87
  -8   9   4   44.46    1.93
  -8   9   4   40.03    1.80
  -7  -9   4    0.80    0.57
  -7  -9   4   -0.04    0.44
  -7   9   4    0.53    0.57
  -6  -9   4    6.97    0.65
  -6  -9   4    7.60    0.80
  -6   9   4    4.96    0.62
  -5  -9   4    0.80    0.40
  -5  -9   4   -0.36    0.33
  -5   9   4   -0.17    0.40
  -5   9   4    0.05    0.43
  -4  -9   4  114.24    3.58
  -4  -9   4  113.91    3.61
   4  -9  -4  113.24    3.70
   3  -9  -4    5.81    0.64
  -3  -9   4    6.82    0.57
  -3  -9   4    6.03    0.57
  -3   9   4    6.61    0.50
  -2  -9   4   27.83    1.09
  -2  -9   4   27.14    1.10
   2  -9  -4   27.25    1.16
  -2   9   4   27.98    0.99
   1  -9  -4    5.03    0.57
  -1  -9   4    7.16    0.50
   1  -9  -4    7.09    0.71
  -1  -9   4    6.29    0.52
   1   9  -4    7.48    0.68
   0  -9  -4   87.82    2.85
   0  -9  -4   87.53    2.94
   0  -9   4   88.27    2.83
   0   9  -4   85.86    2.93
  -1  -9  -4    1.95    0.38
  -1  -9  -4    3.20    0.56
   1  -9   4    1.91    0.37
  -1   9  -4    1.84    0.45
   2  -9   4    8.30    0.69
  -2  -9  -4    8.01    0.85
  -2  -9  -4    8.18    0.62
  -2   9  -4    7.48    0.78
  -3  -9  -4    0.92    0.57
  -3  -9  -4    0.08    0.35
   3  -9   4    0.19    0.40
  -3   9  -4    0.98    0.26
  -3   9  -4    1.29    0.46
  -4  -9  -4   15.33    1.01
   4  -9   4   15.29    1.00
  -4  -9  -4   16.44    0.81
  -4   9  -4   16.41    0.74
  -4   9  -4   17.49    1.14
  -5  -9  -4    1.96    0.38
  -5  -9  -4    2.16    0.57
   5  -9   4    2.44    0.69
  -5   9  -4    2.70    0.55
  -5   9  -4    3.48    0.51
  -6  -9  -4    1.48    0.45
  -6  -9  -4    1.29    0.57
  -6   9  -4    2.03    0.53
  -6   9  -4    0.66    0.55
  -6   9  -4    1.30    0.54
  -6   9  -4    0.84    0.42
  -7  -9  -4   -0.32    0.60
  -7   9  -4    0.19    0.60
  -7   9  -4   -0.06    0.46
  -8  -9  -4    3.43    0.83
  -8   9  -4    3.19    0.88
  -8   9  -4    3.16    0.71
  -9  -9  -4    0.83    0.95
  -9   9  -4    0.84    0.95
  -9   9  -4    0.11    0.97
 -10  -9  -4    5.59    1.39
 -10   9  -4    1.94    1.21
 -10   9  -4    3.62    1.52
 -10 -10   4    2.97    1.27
 -10  10   4    3.70    1.23
  -9 -10   4    2.47    1.07
  -9  10   4    1.33    0.85
  -8 -10   4   10.83    1.24
  -8 -10   4   10.89    1.07
  -8  10   4    9.39    1.09
  -8  10   4    8.81    1.07
  -7 -10   4    2.23    0.52
  -7 -10   4    1.90    0.71
  -7  10   4    2.59    0.69
  -6 -10   4    0.80    0.56
  -6 -10   4    0.93    0.42
  -6  10   4    0.94    0.51
  -6  10   4    0.68    0.53
  -5 -10   4   37.58    1.55
  -5 -10   4   38.71    1.48
  -5  10   4   37.46    1.58
  -5  10   4   39.84    1.64
  -4 -10   4    2.81    0.45
   4 -10  -4    2.28    0.55
  -4 -10   4    2.41    0.47
  -4  10   4    3.25    0.40
  -3 -10   4    3.66    0.46
   3 -10  -4    2.89    0.49
  -3 -10   4    3.80    0.51
  -3  10   4    3.74    0.49
   2 -10  -4   13.11    0.83
  -2 -10   4   14.37    0.78
  -2 -10   4   14.03    0.82
  -2  10   4   12.76    0.64
   1 -10  -4   39.13    1.54
  -1 -10   4   38.29    1.41
  -1 -10   4   41.52    1.52
   1 -10  -4   41.98    1.64
   1  10  -4   42.96    1.61
   0 -10   4   -0.14    0.31
   0 -10  -4   -0.38    0.34
   0 -10  -4    0.23    0.45
   0  10  -4    0.49    0.39
  -1 -10  -4   20.71    1.00
  -1 -10  -4   21.66    1.15
   1 -10   4   20.55    0.98
  -1  10  -4   20.41    1.09
   2 -10   4   18.89    0.95
  -2 -10  -4   20.21    1.24
  -2 -10  -4   18.23    0.92
  -2  10  -4   20.14    1.13
  -3 -10  -4    9.36    0.69
  -3 -10  -4   10.35    1.02
   3 -10   4    9.96    0.80
  -3  10  -4   11.34    1.04
   4 -10   4   25.90    1.30
  -4 -10  -4   24.66    1.31
  -4 -10  -4   25.01    1.08
  -4  10  -4   24.07    1.35
  -4  10  -4   26.43    1.02
   5 -10   4   10.88    1.14
  -5 -10  -4    9.88    1.00
  -5 -10  -4    9.40    0.72
  -5  10  -4   10.29    0.89
  -5  10  -4   10.21    0.93
   6 -10   4   19.81    1.50
  -6 -10  -4   19.50    1.04
  -6 -10  -4   18.09    1.28
  -6  10  -4   19.09    1.28
  -6  10  -4   19.72    1.02
  -7 -10  -4    1.68    0.74
  -7  10  -4    2.02    0.71
  -7  10  -4    1.77    0.59
  -8 -10  -4   20.11    1.74
  -8  10  -4   19.93    1.71
  -8  10  -4   22.87    1.48
  -9 -10  -4    1.70    1.16
  -9  10  -4    2.30    1.09
  -9  10  -4    2.19    1.20
 -10 -10  -4    1.02    1.45
 -10  10  -4    2.89    1.34
 -10  10  -4    3.37    1.60
 -10 -11   4    7.66    1.49
 -10  11   4    4.70    1.31
  -9 -11   4    1.58    1.15
  -9  11   4    0.72    1.00
  -8 -11   4    5.86    1.03
  -8 -11   4    5.72    0.85
  -8  11   4    6.34    0.93
  -8  11   4    4.26    1.02
  -7 -11   4    1.15    0.54
  -7 -11   4    0.04    0.74
  -7  11   4    0.18    0.75
  -6 -11   4   42.26    1.80
  -6 -11   4   43.04    1.68
  -6  11   4   41.83    1.86
  -6  11   4   42.43    1.82
  -5 -11   4    0.89    0.65
  -5 -11   4    1.52    0.44
  -5  11   4    1.84    0.52
  -5  11   4    2.29    0.51
  -5  11   4    0.91    0.53
   4 -11  -4    5.72    0.74
  -4 -11   4    6.89    0.80
  -4 -11   4    7.35    0.71
  -4  11   4    6.66    0.68
   3 -11  -4   14.92    0.97
  -3 -11   4   14.77    0.87
  -3 -11   4   13.14    0.94
  -3  11   4   15.61    0.81
  -2 -11   4   26.18    1.13
  -2 -11   4   25.04    1.09
   2 -11  -4   23.47    1.17
   1 -11  -4    0.72    0.39
  -1 -11   4   -0.48    0.34
  -1 -11   4    0.17    0.32
   0 -11  -4   14.27    1.06
   0 -11  -4   11.43    0.80
   0 -11   4   11.93    0.76
   0  11  -4   12.34    0.84
  -1 -11  -4    9.32    0.97
   1 -11   4    7.56    0.71
  -1 -11  -4    7.94    0.72
  -1  11  -4    8.63    0.80
  -2 -11  -4    1.35    0.41
  -2 -11  -4    1.39    0.71
   2 -11   4    0.71    0.40
  -2  11  -4    0.20    0.54
  -3 -11  -4    2.04    0.65
   3 -11   4    1.27    0.49
  -3 -11  -4    0.65    0.41
  -3  11  -4    0.37    0.72
  -4 -11  -4    9.43    0.72
  -4 -11  -4    8.38    1.00
   4 -11   4    9.40    1.03
  -4  11  -4    9.54    0.65
  -4  11  -4    9.30    1.01
  -5 -11  -4   -1.45    0.56
   5 -11   4   -0.12    0.75
  -5 -11  -4    1.21    0.42
  -5  11  -4   -0.18    0.56
  -5  11  -4    0.43    0.49
   6 -11   4   15.69    1.60
  -6 -11  -4   15.75    1.04
  -6 -11  -4   14.14    1.33
  -6  11  -4   16.81    1.29
  -6  11  -4   16.27    1.03
  -7 -11  -4    2.89    0.88
  -7  11  -4    3.15    0.82
  -7  11  -4    2.91    0.71
  -8 -11  -4    0.42    1.06
  -8  11  -4    0.52    1.01
  -8  11  -4   -0.32    0.85
  -9 -11  -4    0.53    1.31
  -9  11  -4    0.40    1.21
  -9  11  -4   -0.47    1.35
  -9  12   4    0.46    1.10
  -8 -12   4    1.66    0.82
  -8 -12   4    0.99    1.01
  -8  12   4    0.55    1.09
  -8  12   4    1.44    0.89
  -7 -12   4    2.74    0.72
  -7 -12   4    2.79    0.91
  -7  12   4    3.00    0.89
  -6 -12   4    0.81    0.54
  -6 -12   4    0.64    0.76
  -6  12   4    0.53    0.74
  -6  12   4    0.53    0.67
  -5 -12   4    5.42    0.86
  -5 -12   4    3.93    0.58
  -5  12   4    3.79    0.73
  -5  12   4    6.19    0.72
  -4 -12   4    2.07    0.50
  -4 -12   4    1.69    0.62
   4 -12  -4    2.31    0.61
  -3 -12   4    8.76    0.83
   3 -12  -4    7.49    0.87
  -3 -12   4    7.86    0.78
  -2 -12   4   38.90    1.54
   2 -12  -4   37.93    1.60
  -2 -12   4   35.83    1.39
  -1 -12   4   13.03    0.88
   1 -12  -4   11.75    0.92
   0 -12   4   -0.05    0.42
   0 -12  -4   -0.56    0.64
   0 -12  -4    0.01    0.45
   0  12  -4    0.59    0.41
  -1 -12  -4    3.04    0.66
   1 -12   4    2.17    0.49
  -1 -12  -4    2.52    0.49
  -1  12  -4    2.34    0.50
   2 -12   4   72.72    2.63
  -2 -12  -4   75.59    2.59
  -2 -12  -4   76.07    2.78
  -2  12  -4   76.63    2.75
   3 -12   4    8.50    0.93
  -3 -12  -4    7.66    0.93
  -3 -12  -4    7.69    0.76
  -3  12  -4    7.43    1.03
   4 -12   4    5.94    0.82
  -4 -12  -4    5.70    0.93
  -4 -12  -4    4.52    0.57
  -4  12  -4    4.82    0.76
  -4  12  -4    6.28    0.68
   5 -12   4    0.08    0.86
  -5 -12  -4    0.74    0.79
  -5 -12  -4   -0.31    0.50
  -5  12  -4    0.08    0.64
  -5  12  -4    0.47    0.54
  -6 -12  -4   27.85    1.46
   6 -12   4   29.16    2.00
  -6 -12  -4   28.73    1.85
  -6  12  -4   31.55    1.75
  -6  12  -4   30.88    1.54
  -7 -12  -4    0.88    1.12
  -7  12  -4    0.36    0.93
  -8 -12  -4    5.66    1.38
  -8  12  -4    4.96    1.29
  -9 -12  -4    2.82    1.56
  -9  12  -4    1.20    1.52
  -9  13   4    0.96    1.17
  -8 -13   4    0.16    1.01
  -8  13   4    3.04    1.00
  -8  13   4   -0.36    1.14
  -7 -13   4    0.88    0.76
  -7  13   4    1.61    0.96
  -6 -13   4   24.43    1.36
  -6  13   4   24.25    1.57
  -6  13   4   24.14    1.51
  -5 -13   4    1.36    0.62
  -5  13   4    0.95    0.74
  -5  13   4    2.14    0.72
  -4 -13   4    3.31    0.58
   4 -13  -4    1.93    0.72
  -3 -13   4    0.69    0.52
   3 -13  -4    1.05    0.60
   2 -13  -4   22.48    1.30
  -2 -13   4   24.75    1.21
   1 -13  -4    4.54    0.68
  -1 -13   4    5.01    0.64
   0 -13   4    0.47    0.47
   0 -13  -4    0.19    0.51
   0 -13  -4    0.79    0.63
   0  13  -4   -0.64    0.46
  -1 -13  -4    0.13    0.47
  -1 -13  -4    0.71    0.63
   1 -13   4    0.06    0.50
  -1  13  -4    1.40    0.61
  -2 -13  -4   -0.02    0.44
   2 -13   4    0.24    0.52
  -2 -13  -4    0.01    0.66
  -2  13  -4    1.02    0.66
  -3 -13  -4   -0.09    0.81
  -3 -13  -4    0.48    0.46
   3 -13   4   -1.40    0.58
  -3  13  -4    0.77    0.63
   4 -13   4    1.49    0.78
  -4 -13  -4    0.18    0.92
  -4 -13  -4    0.21    0.48
  -4  13  -4    1.28    0.71
  -5 -13  -4    2.28    1.01
  -5 -13  -4    0.75    0.62
   5 -13   4    1.36    1.01
  -5  13  -4    1.18    0.77
  -6 -13  -4   15.19    1.85
   6 -13   4   12.90    1.57
  -6  13  -4   13.88    1.72
  -7 -13  -4    1.83    1.32
  -7  13  -4    2.29    1.18
  -8 -13  -4    1.12    1.47
  -8  13  -4   -0.65    1.31
  -9 -13  -4    3.67    1.79
  -9  13  -4   -2.11    1.73
  -8  14   4    0.61    1.27
  -8  14   4    1.49    1.06
  -7 -14   4    0.10    0.92
  -7  14   4    0.33    1.06
  -6 -14   4   -0.29    0.76
  -6  14   4   -0.46    0.84
  -6  14   4    0.22    0.89
  -5 -14   4    4.84    0.74
  -5  14   4    4.52    0.86
  -5  14   4    6.11    0.85
  -4 -14   4   -0.14    0.60
   4 -14  -4    0.42    0.76
  -3 -14   4    2.87    0.68
   3 -14  -4    2.13    0.79
  -2 -14   4    7.25    0.77
   2 -14  -4    6.74    0.86
  -1 -14   4   -0.41    0.53
   1 -14  -4    0.12    0.57
   0 -14  -4    6.35    0.78
   0 -14   4    7.31    0.81
   0 -14  -4    9.88    1.22
   1 -14   4   -0.07    0.56
  -1 -14  -4   -0.76    0.48
  -1 -14  -4    0.31    0.75
  -1  14  -4    0.55    0.67
  -2 -14  -4   15.16    1.35
  -2 -14  -4   13.61    1.02
   2 -14   4   14.78    1.14
  -2  14  -4   12.28    1.17
   3 -14   4    2.99    0.82
  -3 -14  -4    2.79    0.65
  -3 -14  -4    1.67    0.93
  -3  14  -4    3.32    0.77
  -4 -14  -4    3.34    1.14
   4 -14   4    3.50    1.06
  -4 -14  -4    5.25    0.74
  -4  14  -4    4.92    0.98
  -5 -14  -4    2.31    0.79
  -5 -14  -4    1.31    1.17
   5 -14   4    0.17    1.14
  -5  14  -4    0.94    1.02
  -6 -14  -4    0.37    1.36
   6 -14   4   -0.68    1.36
  -6  14  -4    2.60    1.18
  -7 -14  -4   -0.54    1.49
  -7  14  -4   -1.24    1.41
  -8 -14  -4    1.89    1.77
  -8  15   4    3.50    1.28
  -8  15   4    2.59    1.51
  -7 -15   4    3.06    1.03
  -7  15   4    1.42    1.13
  -6 -15   4    0.90    0.87
  -6  15   4    1.05    1.01
  -6  15   4    0.95    1.07
  -5 -15   4    1.98    0.83
  -5  15   4    2.16    0.87
  -5  15   4    0.38    0.89
  -4 -15   4   18.63    1.32
   4 -15  -4   15.56    1.56
   3 -15  -4    1.91    0.81
  -3 -15   4    0.46    0.64
   2 -15  -4    2.02    0.77
  -2 -15   4    1.62    0.70
  -1 -15   4    8.93    0.95
   1 -15  -4   11.61    1.24
   0 -15   4   23.69    1.46
   0 -15  -4   23.28    1.44
   1 -15   4    1.07    0.71
  -1 -15  -4    1.80    0.69
  -1 -15  -4    1.99    0.93
  -2 -15  -4    4.63    0.79
   2 -15   4    6.12    0.89
  -2 -15  -4    5.09    1.02
   3 -15   4    0.92    0.87
  -3 -15  -4   -0.75    1.00
  -3 -15  -4   -0.63    0.68
   4 -15   4    0.58    1.05
  -4 -15  -4    2.26    1.21
  -4 -15  -4    1.43    0.76
  -5 -15  -4    0.79    1.30
  -5 -15  -4    1.15    0.81
   5 -15   4    1.70    1.32
  -6 -15  -4    3.42    1.72
   6 -15   4    3.64    1.64
  -7 -15  -4    2.14    1.75
  -7 -16   4    1.65    1.16
  -7  16   4   -0.46    1.36
  -6 -16   4    0.38    0.96
  -6  16   4   -0.86    1.08
  -6  16   4    0.52    1.21
  -5 -16   4    1.35    0.88
  -5  16   4    4.15    1.08
  -5  16   4    0.98    1.11
   4 -16  -4    3.22    1.07
  -4 -16   4    1.09    0.83
   3 -16  -4    2.41    0.97
  -3 -16   4    2.09    0.85
  -2 -16   4    2.45    0.84
   2 -16  -4    2.70    0.90
   1 -16  -4    0.74    0.80
  -1 -16   4    1.56    0.77
   0 -16  -4    3.17    0.79
   0 -16   4    3.41    0.84
   1 -16   4    9.93    1.06
  -1 -16  -4    8.61    1.00
  -1 -16  -4    7.85    1.14
  -2 -16  -4    2.21    0.77
   2 -16   4    2.14    0.90
  -2 -16  -4    1.02    1.07
  -3 -16  -4    2.76    1.14
  -3 -16  -4    3.23    0.88
   3 -16   4    2.70    1.07
  -4 -16  -4    9.43    1.50
   4 -16   4   10.72    1.44
  -4 -16  -4   11.03    1.41
  -5 -16  -4    9.29    1.13
  -5 -16  -4    6.76    1.68
   5 -16   4    9.54    1.67
  -6 -16  -4    2.07    1.69
   6 -16   4    2.49    1.76
  -7 -16  -4    0.13    1.92
  -6 -17   4   -0.07    1.28
  -5 -17   4    0.88    1.12
  -5  17   4    1.18    1.23
  -5  17   4   -0.52    1.30
   4 -17  -4   10.50    1.44
  -4 -17   4   10.29    1.23
   3 -17  -4    4.00    1.20
  -3 -17   4    6.57    1.11
   2 -17  -4   -0.34    1.03
  -2 -17   4    1.98    0.96
   1 -17  -4    2.35    0.97
  -1 -17   4    0.63    0.87
   0 -17   4   20.03    1.71
   0 -17  -4   22.23    1.67
   1 -17   4    9.57    1.20
  -1 -17  -4    7.04    1.09
  -2 -17  -4    2.10    1.14
  -2 -17  -4    1.30    0.88
   2 -17   4   -1.22    1.01
  -3 -17  -4   -0.41    0.90
   3 -17   4    1.32    1.21
  -3 -17  -4    2.79    1.27
  -4 -17  -4    5.02    2.08
  -4 -17  -4    5.51    1.07
   4 -17   4    4.65    1.54
  -5 -17  -4    0.77    1.12
   5 -17   4    0.08    1.54
   6 -17   4    0.88    1.91
   4 -18  -4   -0.21    1.49
  -4 -18   4    0.95    1.23
  -3 -18   4   -0.73    1.15
   3 -18  -4   -0.22    1.34
   2 -18  -4    2.91    1.33
  -2 -18   4    2.83    1.12
  -1 -18   4    0.62    1.10
   1 -18  -4    0.46    1.12
   0 -18  -4    0.88    1.07
   0 -18   4    1.27    1.10
   1 -18   4    1.16    1.16
  -1 -18  -4   -0.89    0.98
  -2 -18  -4    3.53    1.13
   2 -18   4    4.85    1.35
   3 -18   4    0.44    1.35
  -3 -18  -4    0.18    1.04
   4 -18   4    4.25    1.73
  -4 -18  -4    3.19    1.19
  -1 -19   4    4.73    1.64
   1 -19  -4    4.37    1.52
   0 -19  -4   -2.42    1.35
   0 -19   4   -0.93    1.32
  -1 -19  -4    0.05    1.28
   1 -19   4    0.41    1.57
  -2 -19  -4    4.21    1.59
 -12   0   5    0.35    1.33
 -11   0   5    0.01    0.92
 -10   0   5   -0.03    0.75
  -9   0   5    1.28    0.43
  -9   0   5    0.70    0.57
  -8   0   5    0.58    0.33
  -8   0   5   -0.29    0.40
  -7   0   5    0.29    0.33
  -7   0   5    0.30    0.26
  -6   0   5    0.40    0.33
  -6   0   5    0.36    0.32
  -5   0   5    0.19    0.24
  -5   0   5    0.12    0.22
  -4   0   5    0.05    0.17
  -3   0   5    0.20    0.15
  -2   0   5    6.33    0.32
   1   0  -5    0.14    0.11
   1   0  -5    0.31    0.18
  -1   0   5    0.04    0.12
   0   0  -5    0.78    0.30
   0   0  -5    0.76    0.32
   0   0   5    0.18    0.12
   0   0  -5    0.01    0.11
  -1   0  -5    0.19    0.07
  -1   0  -5   -0.02    0.15
   1   0   5    0.03    0.07
  -1   0  -5   -0.05    0.18
  -3   0  -5    0.20    0.18
  -4   0  -5    0.22    0.22
  -5   0  -5    0.25    0.28
  -6   0  -5    0.32    0.36
  -7   0  -5    0.10    0.42
  -8   0  -5   -0.06    0.51
  -9   0  -5    1.16    0.66
 -10   0  -5   -0.69    0.81
 -11   0  -5    1.56    1.15
 -12  -1   5    1.05    1.21
 -12   1   5    1.34    1.43
 -11  -1   5    3.02    1.01
 -11   1   5    0.83    0.96
 -10  -1   5    4.30    0.84
 -10   1   5    3.30    0.82
  -9  -1   5    0.37    0.43
  -9  -1   5    1.00    0.54
  -9   1   5    0.15    0.44
  -9   1   5   -0.35    0.51
  -8  -1   5   18.70    1.02
  -8  -1   5   19.93    0.86
  -8   1   5   18.93    0.87
  -8   1   5   17.88    1.00
  -7  -1   5    0.97    0.30
  -7  -1   5   -0.11    0.33
  -7   1   5    0.32    0.34
  -7   1   5    0.58    0.30
  -6  -1   5    1.33    0.33
  -6  -1   5    0.85    0.34
  -6   1   5    1.41    0.34
  -6   1   5    1.17    0.37
  -5  -1   5    1.37    0.27
  -5  -1   5    1.16    0.23
  -5   1   5    1.55    0.26
  -5   1   5    0.91    0.29
  -4  -1   5   97.39    2.93
  -4  -1   5   94.26    2.90
  -4   1   5   91.84    2.91
  -3  -1   5    0.61    0.16
  -3   1   5    0.34    0.17
  -2  -1   5    4.45    0.26
  -2   1   5    4.35    0.27
  -1  -1   5   58.21    1.67
   1  -1  -5   58.51    1.76
   1  -1  -5   48.31    1.67
   1   1  -5   55.00    1.77
   1   1  -5   47.17    1.66
  -1   1   5   58.33    1.68
   0  -1  -5    2.09    0.37
   0  -1  -5    1.79    0.17
   0  -1  -5    1.51    0.18
   0  -1  -5    1.54    0.27
   0  -1   5    1.73    0.16
   0  -1   5    1.57    0.21
   0   1   5    1.75    0.17
   0   1  -5    1.69    0.29
   0   1  -5    1.59    0.15
   0   1  -5    1.54    0.33
   1  -1   5   12.09    0.41
  -1  -1  -5   10.78    0.51
  -1  -1  -5   11.86    0.53
  -1   1  -5   12.37    0.40
   1   1   5   12.11    0.41
  -1   1  -5   11.96    0.59
   1   1   5   12.71    0.42
  -1   1  -5   11.79    0.46
  -2  -1  -5    5.83    0.35
  -2   1  -5    6.15    0.32
  -3  -1  -5   43.77    1.41
  -3   1  -5   40.57    1.38
  -4  -1  -5   24.95    0.94
  -4   1  -5   24.29    0.92
  -5  -1  -5    0.52    0.30
  -5   1  -5    0.76    0.28
  -6  -1  -5    6.52    0.59
  -6   1  -5    6.53    0.61
  -7  -1  -5    0.28    0.39
  -7   1  -5   -0.09    0.38
  -8  -1  -5    7.03    0.91
  -8   1  -5    5.45    0.68
  -9  -1  -5    0.77    0.68
  -9   1  -5   -0.77    0.64
 -10  -1  -5    0.21    0.85
 -10   1  -5    0.90    0.88
 -11  -1  -5    2.69    1.22
 -11   1  -5    0.73    1.16
 -12  -2   5    0.86    1.32
 -12   2   5    0.33    1.27
 -11  -2   5    1.26    0.96
 -11   2   5   -0.23    1.00
 -10  -2   5   -0.24    0.74
 -10   2   5   -0.62    0.80
  -9  -2   5    0.04    0.52
  -9  -2   5    1.02    0.45
  -9   2   5    0.94    0.46
  -9   2   5    1.30    0.58
  -8  -2   5    3.18    0.39
  -8  -2   5    2.72    0.51
  -8   2   5    2.23    0.52
  -8   2   5    3.49    0.42
  -7  -2   5    5.42    0.58
  -7  -2   5    5.29    0.51
  -7   2   5    5.40    0.59
  -7   2   5    6.24    0.54
  -6  -2   5    4.35    0.48
  -6  -2   5    5.14    0.57
  -6   2   5    3.96    0.53
  -6   2   5    5.11    0.55
  -5  -2   5    1.74    0.25
  -5  -2   5    0.91    0.26
  -5   2   5    1.58    0.29
  -4  -2   5  283.61    8.35
  -4  -2   5  277.82    8.33
  -4   2   5  276.52    8.35
  -3  -2   5    0.27    0.15
  -3  -2   5    0.43    0.16
  -3   2   5    0.34    0.17
  -2   2   5    8.50    0.40
  -1  -2   5   14.54    0.52
   1  -2  -5   15.02    0.68
   1   2  -5   14.47    0.68
  -1   2   5   14.22    0.54
   0  -2  -5  837.68   25.79
   0  -2  -5  896.63   25.68
   0  -2   5  870.98   25.61
   0   2  -5  889.81   25.63
   0   2  -5  835.52   25.83
   0   2  -5  829.30   25.64
   0   2   5  929.16   25.65
   1  -2   5    1.10    0.17
  -1  -2  -5    1.54    0.24
  -1  -2  -5    1.33    0.26
  -1   2  -5    0.96    0.17
   1   2   5    1.18    0.17
   1   2   5    1.49    0.18
   1   2   5    1.05    0.18
  -1   2  -5    1.04    0.14
  -1   2  -5    1.23    0.27
   2  -2   5    6.33    0.31
  -2  -2  -5    7.43    0.27
  -2  -2  -5    6.90    0.40
  -2   2  -5    6.63    0.33
  -2   2  -5    6.51    0.26
   2   2   5    6.72    0.29
  -2   2  -5    6.85    0.47
  -3  -2  -5    4.41    0.38
   3  -2   5    3.89    0.26
  -3   2  -5    3.88    0.31
  -4  -2  -5   88.06    2.75
  -4   2  -5   85.04    2.71
  -5  -2  -5    5.93    0.55
  -5   2  -5    6.89    0.50
  -6  -2  -5    2.22    0.40
  -6   2  -5    1.89    0.42
  -7  -2  -5    1.66    0.47
  -7   2  -5    1.92    0.49
  -8  -2  -5    0.68    0.53
  -8   2  -5    0.40    0.51
  -9  -2  -5    0.80    0.67
  -9   2  -5    1.09    0.68
 -10  -2  -5    2.63    0.95
 -10   2  -5   -0.39    0.83
 -11  -2  -5    3.94    1.30
 -11   2  -5    5.70    1.29
 -12  -3   5    1.24    1.30
 -12   3   5    1.58    1.44
 -11  -3   5   -0.74    0.97
 -11   3   5   -0.16    1.01
 -10  -3   5    7.79    1.00
 -10   3   5    8.25    1.07
  -9  -3   5    0.03    0.52
  -9  -3   5   -0.67    0.45
  -9   3   5    0.94    0.50
  -9   3   5   -0.22    0.59
  -8  -3   5   10.91    0.67
  -8  -3   5    9.81    0.79
  -8   3   5   10.53    0.71
  -8   3   5   10.34    0.85
  -7  -3   5    3.95    0.40
  -7  -3   5    4.56    0.57
  -7   3   5    4.29    0.53
  -7   3   5    3.43    0.49
  -5  -3   5    0.54    0.25
  -5  -3   5    0.50    0.25
  -5   3   5    1.31    0.32
  -4  -3   5   60.06    1.93
  -4  -3   5   61.37    1.93
  -4   3   5   60.84    1.96
  -3  -3   5    1.23    0.19
  -3  -3   5    1.08    0.17
  -3   3   5    0.72    0.21
  -2  -3   5   22.31    0.78
  -2  -3   5   24.30    0.74
  -2   3   5   21.68    0.81
   1  -3  -5   25.54    1.00
  -1  -3   5   25.77    0.78
  -1  -3   5   25.23    0.85
  -1   3   5   25.90    0.89
  -1   3   5   26.30    0.88
   1   3  -5   23.92    0.99
   0  -3  -5    0.65    0.13
   0  -3  -5    0.47    0.15
   0  -3  -5    0.51    0.36
   0  -3   5    0.46    0.14
   0   3  -5    0.69    0.32
  -1  -3  -5   81.38    2.62
  -1  -3  -5   82.32    2.50
   1  -3   5   81.62    2.50
  -1   3  -5   81.08    2.49
  -1   3  -5   82.23    2.46
  -1   3  -5   80.24    2.67
   1   3   5   85.70    2.51
  -2  -3  -5    3.06    0.23
   2  -3   5    3.09    0.28
  -2  -3  -5    3.43    0.36
  -2   3  -5    2.85    0.21
  -2   3  -5    2.40    0.32
   2   3   5    3.11    0.25
  -2   3  -5    2.82    0.23
  -3  -3  -5   24.79    0.94
   3  -3   5   25.46    0.85
  -3  -3  -5   25.03    0.80
   3   3   5   24.11    0.79
  -3   3  -5   24.07    0.86
  -3   3  -5   24.23    0.80
  -4  -3  -5    1.93    0.32
  -4   3  -5    1.51    0.19
  -4   3  -5    1.49    0.16
  -4   3  -5    0.98    0.20
  -4   3  -5    1.80    0.27
  -5  -3  -5   17.26    0.84
  -5   3  -5   16.47    0.76
  -7  -3  -5   -0.46    0.40
  -7   3  -5    0.74    0.43
  -8  -3  -5    1.27    0.56
  -8   3  -5    1.18    0.55
  -9  -3  -5    0.29    0.71
  -9   3  -5   -0.08    0.61
 -10  -3  -5    1.15    0.88
 -10   3  -5    0.83    0.81
 -11  -3  -5    0.68    1.19
 -11   3  -5   -0.23    1.18
 -12  -4   5   -0.35    1.29
 -12   4   5    0.87    1.49
 -11  -4   5    0.82    0.99
 -11   4   5    1.55    1.08
 -10  -4   5    1.05    0.89
 -10   4   5    1.45    0.85
  -9  -4   5    4.43    0.58
  -9  -4   5    2.61    0.63
  -9   4   5    1.90    0.57
  -9   4   5    3.06    0.74
  -8  -4   5   -0.31    0.42
  -8  -4   5    0.15    0.35
  -8   4   5   -0.09    0.35
  -8   4   5    0.11    0.49
  -7  -4   5    4.92    0.50
  -7  -4   5    4.51    0.61
  -7   4   5    5.67    0.57
  -7   4   5    4.75    0.56
  -5  -4   5   22.19    0.92
  -5  -4   5   25.00    0.93
  -5   4   5   24.62    1.02
  -3  -4   5    3.32    0.30
  -3  -4   5    3.44    0.28
  -3   4   5    3.80    0.38
  -2  -4   5  111.64    3.19
  -2  -4   5  107.99    3.24
  -2   4   5  101.19    3.27
  -2   4   5  102.91    3.30
   1  -4  -5    6.16    0.55
   1  -4  -5    5.92    0.38
  -1  -4   5    6.14    0.34
   1   4  -5    6.82    0.53
   0  -4   5   42.42    1.35
   0  -4  -5   42.93    1.37
   0   4  -5   39.23    1.57
  -1  -4  -5    0.38    0.16
  -1  -4  -5    0.89    0.31
   1  -4   5    0.31    0.17
  -1   4  -5    0.65    0.29
  -1   4  -5    0.48    0.10
  -2  -4  -5   88.60    2.59
  -2  -4  -5   88.29    2.70
   2  -4   5   84.32    2.60
  -2   4  -5   75.80    2.55
   3  -4   5    3.24    0.35
  -3  -4  -5    3.03    0.36
  -3  -4  -5    3.20    0.27
  -3   4  -5    2.34    0.28
  -3   4  -5    2.62    0.37
   3   4   5    2.51    0.27
   4  -4   5   75.11    2.25
  -4  -4  -5   71.48    2.35
  -4  -4  -5   71.71    2.20
  -4   4  -5   71.36    2.27
   4   4   5   67.86    2.18
  -5  -4  -5   11.04    0.73
  -5   4  -5   11.56    0.64
   5   4   5   11.00    0.45
  -5   4  -5   11.85    0.51
  -6   4  -5    2.95    0.48
  -7  -4  -5   12.91    0.86
  -7   4  -5   12.84    0.86
  -8  -4  -5    6.82    0.91
  -8   4  -5    6.13    0.72
  -9  -4  -5    3.15    0.78
  -9   4  -5    2.64    0.71
 -10  -4  -5    0.12    0.87
 -10   4  -5    0.69    0.87
 -11  -4  -5    4.27    1.34
 -11   4  -5    8.15    1.41
 -11  -5   5    0.56    1.05
 -11   5   5   -0.02    1.08
 -10  -5   5    1.38    0.81
 -10   5   5    1.77    0.85
  -9  -5   5    1.08    0.53
  -9  -5   5    0.18    0.61
  -9   5   5   -0.29    0.65
  -9   5   5    0.85    0.60
  -8  -5   5   23.34    1.01
  -8  -5   5   21.20    1.16
  -8   5   5   21.59    1.22
  -8   5   5   22.99    1.07
  -7  -5   5    1.23    0.41
  -7  -5   5    0.12    0.29
  -7   5   5    0.76    0.43
  -7   5   5    0.02    0.37
  -6  -5   5    4.56    0.52
  -6  -5   5    6.93    0.54
  -6   5   5    6.04    0.60
  -5  -5   5   13.39    0.68
  -5  -5   5   14.69    0.68
  -5   5   5   15.20    0.78
  -4  -5   5   83.09    2.61
  -4  -5   5   83.66    2.64
  -4   5   5   84.96    2.71
  -3  -5   5   11.69    0.54
  -3  -5   5   11.58    0.49
  -3   5   5   11.90    0.61
  -3   5   5   11.91    0.64
  -2  -5   5   14.53    0.59
  -2  -5   5   15.36    0.51
   2  -5  -5   14.44    0.64
  -2   5   5   11.99    0.63
  -2   5   5   12.77    0.65
  -1  -5   5  108.74    3.29
   1  -5  -5  109.84    3.33
   1  -5  -5  104.28    3.45
   1   5  -5  106.36    3.45
   0  -5  -5    0.47    0.21
   0  -5   5    0.58    0.19
   0  -5  -5    0.66    0.38
   0   5  -5    0.95    0.35
  -1  -5  -5   82.37    2.80
   1  -5   5   85.85    2.64
  -1  -5  -5   87.66    2.65
  -1   5  -5   84.76    2.86
  -2  -5  -5    9.64    0.59
   2  -5   5    8.88    0.47
  -2  -5  -5    9.91    0.45
  -2   5  -5    8.09    0.37
  -2   5  -5    6.96    0.59
   3  -5   5   76.52    2.46
  -3  -5  -5   78.11    2.42
  -3  -5  -5   79.97    2.55
  -3   5  -5   77.45    2.61
  -3   5  -5   76.46    2.41
  -4  -5  -5   91.70    2.89
  -4  -5  -5   93.76    3.04
   4  -5   5   97.06    2.95
  -4   5  -5   93.32    2.93
  -5  -5  -5   37.40    1.42
  -5  -5  -5   37.70    1.24
  -5   5  -5   38.75    1.36
  -5   5  -5   36.85    1.30
  -5   5  -5   35.26    1.28
  -6  -5  -5   18.56    0.93
  -6   5  -5   17.88    0.93
  -6   5  -5   16.90    0.73
  -7  -5  -5    5.38    0.73
  -7   5  -5    5.10    0.59
  -8  -5  -5   46.60    1.91
  -8   5  -5   46.93    1.86
  -9  -5  -5    3.34    0.83
  -9   5  -5    3.96    0.76
 -10  -5  -5    5.68    1.09
 -10   5  -5    4.41    1.00
 -11  -5  -5    0.41    1.31
 -11   5  -5    0.68    1.28
 -11  -6   5    0.87    1.17
 -11   6   5    1.03    1.19
 -10  -6   5    0.96    0.91
 -10   6   5    1.69    0.86
  -9  -6   5    1.28    0.67
  -9  -6   5    0.80    0.59
  -9   6   5    1.07    0.68
  -9   6   5    1.34    0.70
  -8  -6   5    3.84    0.49
  -8  -6   5    4.13    0.64
  -8   6   5    3.82    0.59
  -8   6   5    3.58    0.68
  -7  -6   5    0.24    0.42
  -7  -6   5    0.74    0.32
  -7   6   5    0.89    0.46
  -6  -6   5   13.59    0.85
  -6  -6   5   15.07    0.74
  -6   6   5   15.10    0.86
  -5  -6   5    8.46    0.54
  -5  -6   5    8.63    0.57
  -5   6   5    7.70    0.68
  -4  -6   5  197.04    6.01
  -4  -6   5  196.59    5.98
  -4   6   5  202.74    6.12
  -4   6   5  197.64    6.09
  -3  -6   5    1.52    0.28
  -3  -6   5    1.22    0.23
  -3   6   5    1.75    0.34
  -3   6   5    0.78    0.34
   2  -6  -5   52.42    1.70
  -2  -6   5   44.89    1.54
  -2  -6   5   51.57    1.63
   1  -6  -5   14.78    0.86
   1  -6  -5   14.86    0.69
  -1  -6   5   15.58    0.64
   1   6  -5   14.74    0.82
   0  -6  -5  664.80   19.75
   0  -6  -5  673.25   19.92
   0  -6   5  663.34   19.73
   0   6  -5  662.76   19.93
   1  -6   5    5.82    0.42
  -1  -6  -5    6.31    0.42
  -1  -6  -5    6.74    0.65
  -1   6  -5    5.25    0.63
   2  -6   5   90.00    2.85
  -2  -6  -5   92.96    2.97
  -2  -6  -5   93.05    2.84
  -2   6  -5   87.51    3.01
  -2   6  -5   89.86    2.75
   3  -6   5   11.53    0.63
  -3  -6  -5   10.91    0.55
  -3  -6  -5   10.86    0.70
  -3   6  -5   10.64    0.72
  -3   6  -5   11.47    0.50
   4  -6   5  185.25    5.55
  -4  -6  -5  180.65    5.62
  -4  -6  -5  177.50    5.47
  -4   6  -5  178.78    5.48
  -4   6  -5  182.28    5.70
  -5  -6  -5    5.03    0.60
  -5  -6  -5    4.81    0.42
   5  -6   5    5.69    0.59
  -5   6  -5    4.30    0.52
  -6  -6  -5   13.45    0.62
  -6  -6  -5   12.66    0.83
  -6   6  -5   13.65    0.82
  -6   6  -5   11.57    0.67
  -7  -6  -5   10.62    0.93
  -7   6  -5   11.93    0.86
  -8  -6  -5    7.56    1.00
  -8   6  -5    8.84    0.95
  -9  -6  -5    9.56    1.12
  -9   6  -5    9.05    1.21
 -10  -6  -5    0.49    1.01
 -10   6  -5    0.16    0.97
 -11  -6  -5    1.33    1.35
 -11   6  -5   -0.34    1.29
 -11  -7   5   -0.17    1.29
 -11   7   5    0.37    1.27
 -10  -7   5    2.71    1.01
 -10   7   5    2.20    0.97
  -9  -7   5    3.02    0.80
  -9  -7   5    0.88    0.68
  -9   7   5    1.97    0.79
  -9   7   5    3.75    0.77
  -8  -7   5    4.24    0.56
  -8  -7   5    4.25    0.71
  -8   7   5    4.36    0.72
  -8   7   5    5.72    0.68
  -7  -7   5   16.72    0.86
  -7  -7   5   15.09    0.95
  -7   7   5   16.41    0.96
  -6  -7   5    0.59    0.33
  -6  -7   5    0.56    0.49
  -6   7   5    1.01    0.44
  -5  -7   5    1.71    0.35
  -5  -7   5    1.95    0.36
  -5   7   5    1.57    0.44
  -4  -7   5   16.98    0.78
  -4  -7   5   17.32    0.74
  -4   7   5   18.02    0.92
  -4   7   5   17.73    0.89
   3  -7  -5   41.62    1.53
  -3  -7   5   42.45    1.47
  -3  -7   5   43.32    1.40
  -3   7   5   42.19    1.55
   2  -7  -5    7.73    0.58
  -2  -7   5    7.20    0.49
  -2  -7   5    7.79    0.44
   1  -7  -5   50.80    1.76
   1  -7  -5   51.35    1.89
  -1  -7   5   50.65    1.71
   1   7  -5   52.98    1.88
   0  -7   5   10.12    0.56
   0  -7  -5   10.32    0.59
   0  -7  -5    9.28    0.75
   0   7  -5    8.46    0.75
   1  -7   5    0.29    0.26
  -1  -7  -5    0.19    0.40
  -1  -7  -5    0.70    0.26
  -1   7  -5    0.67    0.39
  -2  -7  -5    4.93    0.63
   2  -7   5    6.33    0.51
  -2  -7  -5    6.21    0.48
  -2   7  -5    6.54    0.34
  -2   7  -5    6.10    0.65
   3  -7   5   68.27    2.32
  -3  -7  -5   70.95    2.28
  -3  -7  -5   70.21    2.42
  -3   7  -5   71.57    2.22
  -3   7  -5   72.48    2.48
   4  -7   5   21.66    1.03
  -4  -7  -5   19.02    1.03
  -4  -7  -5   21.19    0.86
  -4   7  -5   21.36    0.84
  -4   7  -5   20.68    1.12
  -5  -7  -5   -0.07    0.38
  -5  -7  -5    0.45    0.28
   5  -7   5    1.09    0.52
  -5   7  -5    1.18    0.46
  -5   7  -5    0.41    0.33
  -6  -7  -5   21.47    1.14
  -6  -7  -5   23.16    0.92
  -6   7  -5   20.67    1.08
  -6   7  -5   20.22    1.11
  -6   7  -5   22.62    1.04
  -6   7  -5   24.19    1.28
  -7  -7  -5    5.60    0.73
  -7   7  -5    5.89    0.61
  -8  -7  -5    5.12    0.78
  -8   7  -5    3.91    0.67
  -9  -7  -5    0.79    0.89
  -9   7  -5    1.18    0.80
 -10  -7  -5    3.86    1.20
 -10   7  -5    6.50    1.21
 -11  -7  -5    0.25    1.53
 -11   7  -5    4.39    1.89
 -11   7  -5   -1.55    1.36
 -11  -8   5    3.36    1.40
 -11   8   5    0.30    1.30
 -10  -8   5    1.95    1.15
 -10   8   5    2.61    1.00
  -9  -8   5    6.12    0.96
  -9   8   5    4.78    1.00
  -9   8   5    8.20    1.05
  -8  -8   5    9.06    0.87
  -8  -8   5    6.57    0.82
  -8   8   5    6.64    0.82
  -8   8   5    7.24    0.88
  -7  -8   5    3.47    0.61
  -7  -8   5    4.38    0.51
  -7   8   5    4.73    0.64
  -6  -8   5    5.07    0.62
  -6  -8   5    4.86    0.60
  -6   8   5    4.07    0.56
  -5  -8   5   29.35    1.16
  -5  -8   5   29.33    1.14
  -5   8   5   27.29    1.31
  -5   8   5   29.30    1.28
  -4  -8   5   16.38    0.75
  -4  -8   5   15.82    0.79
  -4   8   5   14.96    0.88
  -4   8   5   16.49    0.87
  -3  -8   5   15.28    0.74
  -3  -8   5   15.70    0.69
   3  -8  -5   14.59    0.80
   2  -8  -5    5.35    0.53
  -2  -8   5    6.37    0.49
  -2  -8   5    4.89    0.46
  -2   8   5    4.59    0.34
  -1  -8   5    8.21    0.42
   1  -8  -5    7.45    0.57
  -1  -8   5    8.17    0.53
   1  -8  -5    7.53    0.76
   1   8  -5    8.21    0.72
   0  -8   5    1.11    0.30
   0  -8  -5    0.34    0.42
   0  -8  -5    0.44    0.32
   0   8  -5    0.25    0.38
   1  -8   5   20.32    0.93
  -1  -8  -5   19.91    1.12
  -1  -8  -5   21.17    0.92
  -1   8  -5   21.18    1.10
  -2  -8  -5    1.11    0.48
  -2  -8  -5    0.78    0.34
   2  -8   5    1.60    0.44
  -2   8  -5    1.24    0.19
  -2   8  -5    0.31    0.37
  -3  -8  -5    3.64    0.44
   3  -8   5    4.01    0.56
  -3  -8  -5    3.51    0.58
  -3   8  -5    3.43    0.52
  -3   8  -5    3.83    0.36
   4  -8   5   21.58    1.15
  -4  -8  -5   20.99    1.10
  -4  -8  -5   21.16    0.95
  -4   8  -5   21.50    0.86
  -4   8  -5   21.46    1.23
   5  -8   5    0.59    0.61
  -5  -8  -5    0.09    0.38
  -5  -8  -5    0.02    0.46
  -5   8  -5    0.46    0.37
  -5   8  -5    0.92    0.47
  -6  -8  -5    4.82    0.67
  -6  -8  -5    6.31    0.70
  -6   8  -5    6.97    0.97
  -6   8  -5    4.98    0.64
  -6   8  -5    5.22    0.61
  -6   8  -5    5.02    0.54
  -7  -8  -5    0.71    0.60
  -7   8  -5    0.47    0.65
  -7   8  -5    0.23    0.50
  -8  -8  -5    1.75    0.73
  -8   8  -5    1.34    0.74
  -8   8  -5    1.71    0.64
  -9  -8  -5    0.53    0.94
  -9   8  -5    1.94    0.95
  -9   8  -5    0.74    0.94
 -10  -8  -5   -0.48    1.19
 -10   8  -5    1.50    1.17
 -10   8  -5    0.84    1.26
 -10  -9   5   -0.77    1.10
 -10   9   5    1.95    1.06
  -9  -9   5    0.74    0.87
  -9   9   5    2.03    1.01
  -9   9   5   -0.50    0.81
  -8  -9   5   18.76    1.31
  -8  -9   5   20.30    1.18
  -8   9   5   17.19    1.22
  -8   9   5   18.28    1.38
  -7  -9   5   12.90    0.86
  -7  -9   5   11.60    1.02
  -7   9   5   12.75    1.05
  -6  -9   5   10.04    0.73
  -6  -9   5    8.22    0.82
  -6   9   5    8.96    0.85
  -5  -9   5    0.83    0.38
  -5  -9   5    1.12    0.37
  -5   9   5    1.36    0.49
  -5   9   5    1.03    0.52
  -4  -9   5   50.92    1.78
  -4  -9   5   51.05    1.75
  -4   9   5   51.60    1.88
  -4   9   5   49.99    1.90
  -3  -9   5    4.13    0.44
   3  -9  -5    3.77    0.51
  -3  -9   5    3.02    0.42
  -3   9   5    3.44    0.42
   2  -9  -5   29.79    1.24
  -2  -9   5   30.46    1.18
  -2  -9   5   31.41    1.18
  -1  -9   5    6.31    0.44
   1  -9  -5    6.19    0.79
   1  -9  -5    5.63    0.56
  -1  -9   5    6.17    0.53
   1   9  -5    8.06    0.72
   0  -9   5   17.43    0.84
   0  -9  -5   18.41    0.89
   0  -9  -5   18.30    1.04
   0   9  -5   19.35    1.04
   1  -9   5   28.10    1.17
  -1  -9  -5   29.61    1.40
  -1  -9  -5   29.85    1.20
  -1   9  -5   32.14    1.39
  -2  -9  -5    5.40    0.73
   2  -9   5    5.06    0.62
  -2  -9  -5    5.10    0.57
  -2   9  -5    5.43    0.36
  -2   9  -5    5.35    0.66
  -3  -9  -5    4.23    0.47
  -3  -9  -5    4.03    0.72
   3  -9   5    3.82    0.50
  -3   9  -5    3.41    0.62
  -3   9  -5    3.22    0.39
  -4  -9  -5   16.06    0.82
   4  -9   5   15.42    1.02
  -4  -9  -5   16.79    1.02
  -4   9  -5   17.61    1.15
  -4   9  -5   15.31    0.73
   5  -9   5   17.89    1.19
  -5  -9  -5   17.69    1.11
  -5  -9  -5   18.56    0.88
  -5   9  -5   17.07    1.15
  -5   9  -5   16.38    0.92
  -6  -9  -5    0.39    0.47
   6  -9   5   -0.07    0.72
  -6  -9  -5    1.28    0.60
  -6   9  -5    1.79    0.58
  -6   9  -5    0.36    0.55
  -6   9  -5    2.14    0.61
  -6   9  -5    1.45    0.43
  -7  -9  -5    0.37    0.65
  -7   9  -5    0.99    0.65
  -7   9  -5    0.49    0.53
  -8  -9  -5   13.15    1.49
  -8   9  -5   14.47    1.53
  -8   9  -5   18.94    1.31
  -9  -9  -5    1.17    1.08
  -9   9  -5    1.21    1.04
  -9   9  -5    2.19    1.00
 -10  -9  -5   -0.40    1.32
 -10   9  -5   -0.54    1.44
 -10   9  -5    1.09    1.25
 -10 -10   5    0.54    1.21
 -10  10   5   -1.52    1.08
  -9 -10   5    1.52    1.02
  -9  10   5    1.51    0.92
  -9  10   5   -0.37    1.12
  -8 -10   5    1.39    0.80
  -8 -10   5    1.60    0.67
  -8  10   5    1.01    0.84
  -8  10   5   -0.09    0.69
  -7 -10   5   -0.37    0.63
  -7 -10   5    0.30    0.49
  -7  10   5   -0.46    0.62
  -6 -10   5    0.41    0.55
  -6 -10   5    0.40    0.42
  -6  10   5   -0.21    0.50
  -5 -10   5   19.39    0.96
  -5 -10   5   17.84    0.99
  -5  10   5   19.21    1.13
  -5  10   5   19.65    1.10
  -4 -10   5   22.82    1.06
  -4 -10   5   23.91    1.07
  -4  10   5   23.12    1.16
  -4  10   5   25.00    1.21
  -4  10   5   24.19    1.01
   3 -10  -5    2.42    0.47
  -3 -10   5    1.97    0.39
  -3 -10   5    1.07    0.43
  -3  10   5    2.09    0.32
  -2 -10   5   21.71    0.92
  -2 -10   5   18.20    0.91
   2 -10  -5   19.33    0.98
   1 -10  -5   37.21    1.49
   1 -10  -5   38.52    1.65
  -1 -10   5   37.71    1.45
   1  10  -5   41.06    1.60
   0 -10  -5  147.59    4.72
   0 -10   5  142.53    4.58
   0 -10  -5  149.74    4.61
   0  10  -5  143.98    4.69
  -1 -10  -5    4.18    0.70
  -1 -10  -5    3.56    0.49
   1 -10   5    3.93    0.47
  -1  10  -5    3.77    0.58
  -2 -10  -5   38.50    1.43
   2 -10   5   36.40    1.45
  -2 -10  -5   37.52    1.78
  -2  10  -5   35.06    1.65
  -3 -10  -5    5.36    0.76
  -3 -10  -5    5.70    0.60
   3 -10   5    5.35    0.62
  -3  10  -5    5.26    0.85
  -3  10  -5    6.07    0.46
  -4 -10  -5   73.21    2.57
   4 -10   5   79.91    2.74
  -4 -10  -5   78.56    2.81
  -4  10  -5   79.55    2.88
  -4  10  -5   80.09    2.52
  -5 -10  -5    0.67    0.62
   5 -10   5    1.53    0.75
  -5 -10  -5    0.37    0.38
  -5  10  -5    0.18    0.46
  -5  10  -5    1.73    0.58
   6 -10   5    5.20    0.94
  -6 -10  -5    4.89    0.77
  -6 -10  -5    3.99    0.81
  -6  10  -5    4.71    0.76
  -6  10  -5    5.42    0.61
  -7 -10  -5   -0.38    0.73
  -7  10  -5    0.40    0.70
  -7  10  -5    0.95    0.64
  -8 -10  -5    7.87    1.21
  -8  10  -5    9.94    1.23
  -8  10  -5    8.91    1.02
  -9 -10  -5    1.83    1.22
  -9  10  -5    0.19    1.07
  -9  10  -5    0.13    1.17
 -10 -10  -5    0.51    1.46
 -10  10  -5    0.39    1.88
 -10  10  -5    0.70    1.61
 -10  11   5   -0.70    1.26
  -9 -11   5    2.68    1.17
  -9  11   5   -1.57    1.29
  -9  11   5    0.00    0.98
  -8 -11   5    4.89    0.82
  -8 -11   5    4.22    0.95
  -8  11   5    5.36    0.91
  -8  11   5    3.85    1.03
  -7 -11   5    0.70    0.74
  -7 -11   5    0.43    0.60
  -7  11   5    0.05    0.75
  -6 -11   5    2.53    0.56
  -6 -11   5    2.80    0.68
  -6  11   5    3.90    0.74
  -6  11   5    2.99    0.64
  -5 -11   5    2.19    0.65
  -5 -11   5    2.04    0.46
  -5  11   5    2.09    0.59
  -5  11   5    1.10    0.51
  -5  11   5    2.50    0.63
  -4 -11   5   12.92    0.91
  -4 -11   5   14.28    0.88
   4 -11  -5   14.97    1.05
  -3 -11   5    8.34    0.77
   3 -11  -5    6.89    0.77
  -3 -11   5    6.41    0.71
   2 -11  -5    8.05    0.78
  -2 -11   5    8.42    0.61
  -2 -11   5    8.18    0.69
  -1 -11   5    1.91    0.44
   1 -11  -5    2.12    0.70
   1 -11  -5    1.31    0.45
   1  11  -5    1.49    0.50
   0 -11   5    0.00    0.36
   0 -11  -5    1.19    0.73
   0 -11  -5    0.15    0.41
   0  11  -5    0.95    0.47
   1 -11   5    3.62    0.52
  -1 -11  -5    4.83    0.56
  -1 -11  -5    3.94    0.77
  -1  11  -5    4.94    0.65
   2 -11   5    7.13    0.73
  -2 -11  -5    7.49    0.86
  -2 -11  -5    6.50    0.68
  -2  11  -5    6.52    0.85
   3 -11   5   19.11    1.11
  -3 -11  -5   20.79    1.00
  -3 -11  -5   17.89    1.28
  -3  11  -5   19.58    0.81
  -3  11  -5   17.56    1.32
  -4 -11  -5    1.76    0.43
   4 -11   5    2.82    0.70
  -4 -11  -5    3.09    0.73
  -4  11  -5    2.93    0.41
  -4  11  -5    1.84    0.63
  -5 -11  -5    5.46    0.58
  -5 -11  -5    4.98    0.82
   5 -11   5    5.20    0.89
  -5  11  -5    5.47    0.75
  -5  11  -5    5.79    0.65
  -6 -11  -5    2.41    0.79
   6 -11   5    2.58    1.05
  -6  11  -5    1.58    0.61
  -6  11  -5    1.16    0.73
  -7 -11  -5    4.93    0.97
  -7  11  -5    4.29    0.78
  -7  11  -5    6.25    0.98
  -8 -11  -5   -0.68    1.01
  -8  11  -5   -0.10    1.28
  -8  11  -5    0.55    1.06
  -9 -11  -5    0.51    1.31
  -9  11  -5    1.07    1.39
  -9  12   5    2.12    1.18
  -8 -12   5   -0.74    0.80
  -8  12   5   -0.24    0.76
  -8  12   5   -0.01    1.04
  -7 -12   5    4.96    1.04
  -7 -12   5    2.94    0.75
  -7  12   5    4.11    0.90
  -6 -12   5    0.90    0.72
  -6 -12   5    1.10    0.59
  -6  12   5   -0.77    0.70
  -6  12   5    1.30    0.70
  -5 -12   5    1.27    0.50
  -5 -12   5    1.12    0.73
  -5  12   5    0.02    0.55
  -5  12   5    0.63    0.60
  -4 -12   5   -0.52    0.53
   4 -12  -5    0.51    0.59
  -4 -12   5    0.54    0.48
  -3 -12   5   -0.75    0.39
  -3 -12   5    0.50    0.54
   3 -12  -5   -1.01    0.47
  -2 -12   5    7.29    0.80
   2 -12  -5    8.39    0.85
  -1 -12   5    4.17    0.57
   1 -12  -5    5.43    0.65
   0 -12   5    0.51    0.42
   0 -12  -5    0.41    0.46
   0 -12  -5    0.31    0.63
   0  12  -5    0.06    0.50
  -1 -12  -5    0.55    0.44
   1 -12   5    0.39    0.47
  -1 -12  -5    0.47    0.61
  -1  12  -5   -0.20    0.60
  -2 -12  -5   15.95    0.96
   2 -12   5   15.71    1.05
  -2 -12  -5   17.09    1.24
   3 -12   5    0.98    0.61
  -3 -12  -5    0.60    0.42
  -3 -12  -5    0.09    0.67
  -3  12  -5    0.21    0.61
   4 -12   5    2.79    0.76
  -4 -12  -5    1.39    0.47
  -4 -12  -5    1.75    0.78
  -4  12  -5    1.96    0.67
   5 -12   5    1.77    0.91
  -5 -12  -5    1.82    0.55
  -5 -12  -5    1.02    0.81
  -5  12  -5    0.83    0.71
  -6 -12  -5   12.14    1.53
   6 -12   5   11.88    1.38
  -6  12  -5   13.81    1.45
  -7 -12  -5   -0.17    1.11
  -7  12  -5   -0.13    0.97
  -8 -12  -5    0.55    1.38
  -8  12  -5    1.57    1.30
  -9 -12  -5    1.27    1.66
  -9  12  -5    1.26    1.48
  -9  13   5   -2.31    1.12
  -8 -13   5    2.77    0.96
  -8  13   5    4.96    1.07
  -8  13   5    2.78    1.22
  -7 -13   5    1.02    0.78
  -7  13   5   -0.09    0.93
  -6 -13   5    2.83    0.69
  -6  13   5    0.66    0.73
  -6  13   5    0.77    0.78
  -5 -13   5    2.65    0.65
  -5  13   5    1.82    0.76
  -5  13   5    1.36    0.71
   4 -13  -5    2.48    0.79
  -4 -13   5    2.72    0.57
  -3 -13   5    0.90    0.53
   3 -13  -5    0.73    0.59
   2 -13  -5    1.24    0.58
  -2 -13   5    1.37    0.55
   1 -13  -5    0.64    0.52
  -1 -13   5   -0.50    0.48
   0 -13   5    0.11    0.48
   0 -13  -5    0.62    0.65
   0 -13  -5    0.60    0.50
   0  13  -5    1.09    0.67
  -1 -13  -5    0.90    0.67
  -1 -13  -5    1.63    0.51
   1 -13   5    0.49    0.51
  -1  13  -5    0.81    0.63
  -2 -13  -5    3.53    0.81
  -2 -13  -5    3.31    0.57
   2 -13   5    2.90    0.63
  -2  13  -5    3.39    0.65
  -3 -13  -5    1.71    0.85
   3 -13   5    1.62    0.67
  -3 -13  -5    1.40    0.52
  -3  13  -5    2.47    0.67
  -4 -13  -5    6.37    1.12
  -4 -13  -5    4.81    0.63
   4 -13   5    5.25    0.95
  -4  13  -5    5.75    0.88
   5 -13   5    1.53    1.03
  -5 -13  -5   -1.96    0.96
  -5 -13  -5    0.48    0.64
  -5  13  -5    1.46    0.83
   6 -13   5    0.82    1.31
  -6 -13  -5   -0.15    1.15
  -6  13  -5    0.28    0.95
  -7 -13  -5    0.13    1.32
  -7  13  -5   -0.27    1.20
  -8 -13  -5    2.16    1.62
  -8  13  -5    5.76    1.53
  -8 -14   5    1.79    1.12
  -8  14   5    1.16    1.11
  -8  14   5    0.98    1.23
  -7 -14   5    0.83    0.91
  -7  14   5    2.27    1.07
  -6 -14   5   -0.58    0.74
  -6  14   5   -0.98    0.81
  -6  14   5    0.19    0.90
  -5 -14   5    2.01    0.72
  -5  14   5    4.29    0.89
  -5  14   5    1.57    0.74
   4 -14  -5    7.18    0.98
  -4 -14   5    6.76    0.84
  -3 -14   5    2.59    0.67
   3 -14  -5    2.14    0.75
   2 -14  -5    7.71    0.90
  -2 -14   5    7.66    0.82
   1 -14  -5    4.03    0.73
  -1 -14   5    5.57    0.71
   0 -14   5   14.63    1.12
   0 -14  -5   17.52    1.38
   0 -14  -5   15.47    1.13
   0  14  -5   12.82    1.15
  -1 -14  -5    0.59    0.55
  -1 -14  -5    0.42    0.75
   1 -14   5    0.52    0.59
  -1  14  -5   -0.31    0.60
   2 -14   5    1.67    0.63
  -2 -14  -5    2.66    0.85
  -2 -14  -5    2.22    0.62
  -2  14  -5    2.02    0.64
   3 -14   5    8.73    1.01
  -3 -14  -5    7.88    0.93
  -3 -14  -5    7.93    1.15
  -3  14  -5    7.42    0.88
  -4 -14  -5    8.35    0.85
  -4 -14  -5   12.15    1.38
   4 -14   5    8.61    1.29
  -4  14  -5    9.85    1.13
   5 -14   5   -0.54    1.19
  -5 -14  -5   -0.47    0.75
  -5 -14  -5    1.74    1.23
  -5  14  -5   -0.30    1.01
   6 -14   5    0.19    1.37
  -6 -14  -5    1.38    1.48
  -6  14  -5    1.40    1.20
  -7 -14  -5    1.34    1.58
  -7  14  -5    1.38    1.42
  -8 -14  -5    0.54    1.76
  -8  14  -5    0.96    1.92
  -8  15   5    2.27    1.18
  -7 -15   5    1.74    0.99
  -7  15   5    1.21    1.17
  -6 -15   5    1.40    0.89
  -6  15   5    2.50    1.04
  -6  15   5    0.98    1.10
  -5 -15   5    2.51    0.85
  -5  15   5    4.35    1.08
  -5  15   5    2.20    0.90
  -4 -15   5    1.47    0.76
   4 -15  -5    1.09    0.89
   3 -15  -5    1.71    0.80
  -3 -15   5    2.35    0.73
  -2 -15   5    3.31    0.74
   2 -15  -5    4.33    0.85
   1 -15  -5    2.10    0.76
  -1 -15   5    2.18    0.75
   0 -15  -5   -0.93    0.65
   0 -15   5   -0.07    0.66
   0 -15  -5    1.47    0.85
  -1 -15  -5    0.26    0.91
  -1 -15  -5    0.26    0.65
   1 -15   5   -0.60    0.69
  -2 -15  -5    4.46    0.77
  -2 -15  -5    4.32    1.00
   2 -15   5    3.58    0.87
   3 -15   5    0.81    0.89
  -3 -15  -5    0.52    0.68
  -3 -15  -5   -1.58    1.01
  -4 -15  -5   -0.60    1.17
   4 -15   5   -1.09    1.07
  -4 -15  -5    0.91    0.77
  -5 -15  -5    0.50    0.83
  -5 -15  -5    1.93    1.41
   5 -15   5   -1.30    1.30
  -6 -15  -5    1.48    1.67
   6 -15   5   -1.63    1.51
  -7 -15  -5    1.93    1.93
  -7 -16   5    2.02    1.22
  -6 -16   5   -1.45    1.01
  -6  16   5    0.31    1.18
  -6  16   5    0.68    1.12
  -5 -16   5    0.89    0.94
  -5  16   5    0.08    1.15
  -5  16   5    0.81    1.02
  -4 -16   5    2.61    0.85
   4 -16  -5    2.67    1.12
   3 -16  -5    0.52    0.93
  -3 -16   5    0.56    0.78
   2 -16  -5    1.68    0.95
  -2 -16   5    0.43    0.78
   1 -16  -5   10.96    1.39
  -1 -16   5    9.24    1.07
   0 -16   5    3.11    0.86
   0 -16  -5    2.47    0.82
   1 -16   5    1.97    0.84
  -1 -16  -5    1.23    0.73
  -1 -16  -5    0.99    0.99
   2 -16   5    2.61    0.96
  -2 -16  -5    0.88    1.11
  -2 -16  -5    0.49    0.73
  -3 -16  -5    4.54    1.26
   3 -16   5    5.24    1.14
  -3 -16  -5    1.78    0.88
  -4 -16  -5    1.18    1.37
  -4 -16  -5   -0.11    0.84
   4 -16   5    1.18    1.26
  -5 -16  -5    1.71    1.08
  -5 -16  -5    4.05    1.65
   5 -16   5    1.08    1.57
  -6 -16  -5    4.88    1.82
   6 -16   5   -1.15    1.60
  -6 -17   5    0.46    1.74
  -5 -17   5    4.35    1.18
  -5  17   5    4.32    1.29
  -5  17   5    4.54    1.41
  -4 -17   5    2.32    1.01
   4 -17  -5    0.67    1.20
   3 -17  -5   -1.92    1.07
  -3 -17   5   -0.92    0.96
   2 -17  -5    3.81    1.13
  -2 -17   5    3.12    0.99
  -1 -17   5    0.49    0.93
   1 -17  -5   -0.13    0.96
   0 -17  -5    3.24    0.96
   0 -17   5    3.01    1.03
  -1 -17  -5    2.19    0.89
  -1 -17  -5    0.79    1.09
   1 -17   5    0.69    0.98
   2 -17   5    6.69    1.24
  -2 -17  -5    9.05    1.38
  -2 -17  -5    7.44    1.12
   3 -17   5    1.13    1.19
  -3 -17  -5   -0.54    1.27
  -3 -17  -5    0.02    0.98
   4 -17   5    4.94    1.54
  -4 -17  -5    4.06    1.54
  -4 -17  -5    3.60    1.01
   5 -17   5   -0.91    1.53
  -5 -17  -5   -1.01    1.62
  -4 -18   5    7.19    1.42
  -4  18   5    4.98    1.67
  -4  18   5    6.42    1.60
  -3 -18   5    1.96    1.26
   3 -18  -5    3.12    1.39
  -2 -18   5    6.16    1.26
   2 -18  -5    7.81    1.39
  -1 -18   5    4.36    1.19
   1 -18  -5    3.69    1.27
   0 -18   5    4.82    1.24
   0 -18  -5    3.83    1.23
  -1 -18  -5    2.96    1.08
   1 -18   5    6.70    1.28
  -2 -18  -5    0.16    1.01
   2 -18   5    0.34    1.26
   3 -18   5   -0.17    1.42
  -3 -18  -5    0.06    1.08
  -4 -18  -5    3.09    1.20
   4 -18   5    1.31    1.74
   0 -19  -5    3.18    1.45
   0 -19   5    2.93    1.41
  -1 -19  -5   -0.09    1.34
 -12   0   6    1.74    1.35
 -11   0   6    1.54    0.96
 -10   0   6   -0.34    0.75
  -9   0   6    9.01    0.91
  -9   0   6    7.41    0.76
  -8   0   6   14.67    0.80
  -8   0   6   15.15    0.93
  -6   0   6  115.33    3.40
  -6   0   6  102.35    3.45
  -5   0   6    5.91    0.49
  -5   0   6    5.46    0.46
  -4   0   6   76.90    2.41
  -3   0   6    0.74    0.19
  -2   0   6  452.47   13.40
   1   0  -6    0.47    0.20
  -1   0   6    0.29    0.13
   0   0  -6  323.70   11.35
   0   0   6  392.36   11.25
   0   0  -6  409.59   11.26
   0   0  -6  397.44   11.43
  -1   0  -6   62.78    1.86
  -1   0  -6   60.16    1.94
   1   0   6   61.71    1.86
  -1   0  -6   62.06    2.02
  -2   0  -6  123.35    3.75
  -3   0  -6  103.44    3.20
  -4   0  -6   77.11    2.46
  -5   0  -6    7.07    0.56
  -6   0  -6    4.75    0.50
  -7   0  -6  147.51    4.68
  -8   0  -6   10.23    0.99
  -9   0  -6    3.01    0.74
 -10   0  -6    1.55    0.92
 -11   0  -6   21.84    1.99
 -12  -1   6   15.36    1.66
 -12   1   6   16.18    2.11
 -11  -1   6    0.56    0.95
 -11   1   6    0.84    0.98
 -10  -1   6    0.42    0.73
 -10   1   6    0.37    0.75
  -9  -1   6    5.12    0.70
  -9  -1   6    4.89    0.56
  -9   1   6    4.23    0.68
  -9   1   6    6.26    0.77
  -8  -1   6   15.85    0.81
  -8  -1   6   15.08    0.91
  -8   1   6   16.40    0.97
  -8   1   6   15.13    0.83
  -7  -1   6    3.09    0.38
  -7  -1   6    2.11    0.41
  -7   1   6    2.73    0.42
  -7   1   6    4.06    0.49
  -6  -1   6   10.37    0.70
  -6  -1   6   10.35    0.61
  -6   1   6   11.08    0.68
  -6   1   6   10.54    0.65
  -5  -1   6   34.11    1.20
  -5  -1   6   34.39    1.23
  -5   1   6   35.43    1.23
  -4  -1   6    0.49    0.20
  -4  -1   6   -0.08    0.19
  -4   1   6    0.27    0.21
  -3  -1   6   90.24    2.79
  -3   1   6   91.98    2.80
  -2  -1   6   11.05    0.45
  -2   1   6   10.81    0.46
  -1  -1   6   49.44    1.49
   1  -1  -6   49.75    1.60
   1  -1  -6   45.11    1.53
  -1   1   6   49.28    1.50
   1   1  -6   46.37    1.62
   0  -1  -6  193.95    6.27
   0  -1  -6  208.58    6.24
   0  -1  -6  214.32    6.13
   0  -1   6  212.54    6.11
   0  -1  -6  216.01    6.12
   0   1  -6  209.77    6.11
   0   1  -6  193.17    6.19
   0   1   6  204.59    6.11
   0   1  -6  198.59    6.31
  -1  -1  -6  140.19    4.16
  -1  -1  -6  136.18    4.14
   1  -1   6  137.48    4.03
   1   1   6  139.11    4.03
  -1   1  -6  137.69    4.03
  -1   1  -6  138.64    4.22
  -1   1  -6  119.70    4.07
  -2  -1  -6   38.40    1.31
  -2   1  -6   39.45    1.39
  -2   1  -6   39.92    1.28
  -3  -1  -6   58.15    1.89
  -3   1  -6   58.88    1.87
  -4  -1  -6  400.15   11.87
  -4   1  -6  393.91   11.84
  -5  -1  -6    6.38    0.57
  -5   1  -6    5.34    0.51
  -6  -1  -6   13.68    0.80
  -6   1  -6   14.05    0.82
  -7  -1  -6    1.03    0.44
  -7   1  -6    1.59    0.47
  -8  -1  -6   65.24    2.44
  -8   1  -6   67.69    2.42
  -9  -1  -6    2.07    0.73
  -9   1  -6    1.87    0.71
 -10  -1  -6    4.51    0.98
 -10   1  -6    4.09    0.97
 -11  -1  -6    5.71    1.34
 -11   1  -6    5.41    1.36
 -12  -2   6    0.87    1.34
 -12   2   6    0.33    1.34
 -11  -2   6    2.40    1.01
 -11   2   6    0.21    0.98
 -10  -2   6    1.61    0.80
 -10   2   6   -1.22    0.75
  -9  -2   6    4.70    0.56
  -9  -2   6    5.67    0.70
  -9   2   6    5.33    0.59
  -9   2   6    6.99    0.88
  -8  -2   6   27.11    1.12
  -8  -2   6   27.90    1.24
  -8   2   6   28.29    1.16
  -8   2   6   27.80    1.28
  -7  -2   6    1.09    0.31
  -7  -2   6    0.96    0.36
  -7   2   6    1.15    0.34
  -7   2   6    0.51    0.35
  -6  -2   6    0.00    0.27
  -6  -2   6    0.79    0.34
  -6   2   6    0.02    0.32
  -6   2   6    1.13    0.35
  -5  -2   6    1.09    0.27
  -5  -2   6    1.24    0.26
  -5   2   6    1.71    0.32
  -4  -2   6  163.75    5.06
  -4  -2   6  172.62    5.08
  -4   2   6  167.20    5.09
  -3  -2   6    2.90    0.28
  -3  -2   6    3.16    0.26
  -3   2   6    3.04    0.30
  -2  -2   6    2.02    0.23
  -2   2   6    2.46    0.26
   1  -2  -6   20.59    0.88
  -1  -2   6   22.13    0.72
   1   2  -6   20.41    0.89
  -1   2   6   20.71    0.73
   0  -2   6  248.90    7.27
   0  -2  -6  243.59    7.46
   0  -2  -6  253.61    7.35
   0  -2   6  246.21    7.25
   0   2   6  244.87    7.28
   0   2   6  248.71    7.28
   0   2  -6  237.05    7.50
   0   2  -6  237.06    7.29
   1  -2   6   27.45    0.86
  -1  -2  -6   22.59    0.92
  -1  -2  -6   25.79    1.00
   1   2   6   26.35    0.86
  -1   2  -6   27.29    0.84
  -1   2  -6   27.23    1.07
   1   2   6   27.02    0.86
   1   2   6   28.19    0.87
  -1   2  -6   27.35    0.87
   2  -2   6    9.06    0.37
  -2  -2  -6    8.90    0.49
  -2   2  -6    9.94    0.42
   2   2   6    8.98    0.35
  -2   2  -6    9.48    0.57
  -2   2  -6    9.25    0.33
   2   2   6    9.70    0.37
   2   2   6    9.36    0.36
  -3  -2  -6   54.47    1.80
  -3   2  -6   54.62    1.74
  -4  -2  -6   26.19    1.02
  -4   2  -6   25.91    0.96
  -5  -2  -6    2.38    0.42
  -5   2  -6    2.44    0.36
  -6  -2  -6    0.32    0.35
  -6   2  -6   -0.22    0.37
  -7  -2  -6   26.90    1.23
  -7   2  -6   27.69    1.25
  -8  -2  -6    1.09    0.62
  -8   2  -6    1.21    0.58
  -9  -2  -6    1.42    0.77
  -9   2  -6    0.61    0.66
 -10  -2  -6    0.23    0.87
 -10   2  -6    3.35    0.91
 -11  -2  -6    2.96    1.24
 -11   2  -6    2.30    1.25
 -12  -3   6    6.68    1.42
 -12   3   6    5.03    1.55
 -11  -3   6    1.72    1.02
 -11   3   6    2.43    1.08
 -10  -3   6   19.54    1.53
 -10   3   6   19.75    1.54
  -9  -3   6    5.10    0.59
  -9  -3   6    6.23    0.73
  -9   3   6    6.02    0.82
  -9   3   6    5.44    0.65
  -8  -3   6   19.78    0.90
  -8  -3   6   17.73    1.04
  -8   3   6   19.10    0.94
  -8   3   6   19.66    1.11
  -7  -3   6   13.39    0.78
  -7  -3   6   12.67    0.67
  -7   3   6   11.52    0.79
  -7   3   6   12.81    0.72
  -6  -3   6   30.54    1.15
  -6  -3   6   31.04    1.20
  -6   3   6   31.43    1.21
  -5  -3   6   42.70    1.45
  -5  -3   6   41.64    1.44
  -5   3   6   43.30    1.50
  -4  -3   6    0.55    0.21
  -4  -3   6    0.55    0.21
  -4   3   6    0.63    0.25
  -3  -3   6   12.99    0.52
  -3  -3   6   13.89    0.56
  -3   3   6   13.16    0.59
  -2  -3   6   12.87    0.52
  -2  -3   6   13.54    0.47
  -2   3   6   13.32    0.56
  -1  -3   6   53.41    1.62
   1  -3  -6   49.51    1.79
  -1   3   6   52.58    1.64
   1   3  -6   49.07    1.80
  -1   3   6   51.72    1.65
   0  -3  -6   59.72    2.13
   0  -3  -6   59.38    1.91
   0  -3   6   63.07    1.91
   0   3   6   62.68    1.94
   0   3  -6   62.31    2.17
   0   3   6   63.36    1.92
  -1  -3  -6    0.55    0.27
  -1  -3  -6    0.72    0.18
   1  -3   6    0.68    0.15
   1   3   6    1.10    0.18
  -1   3  -6    0.93    0.13
  -1   3  -6    0.80    0.30
  -2  -3  -6  164.63    4.98
   2  -3   6  161.58    5.00
  -2  -3  -6  166.81    5.11
   2   3   6  173.95    5.00
  -2   3  -6  166.47    5.00
  -2   3  -6  164.36    4.97
  -2   3  -6  171.61    5.20
  -3  -3  -6    0.23    0.23
  -3  -3  -6    0.26    0.13
   3  -3   6    0.57    0.21
  -3   3  -6    0.90    0.29
   3   3   6    0.61    0.14
  -3   3  -6    0.61    0.19
  -3   3  -6    0.52    0.12
   4  -3   6   29.32    0.97
  -4  -3  -6   30.42    1.14
  -4   3  -6   29.07    0.93
  -4   3  -6   28.92    1.06
  -5  -3  -6    0.36    0.37
  -5   3  -6    0.48    0.28
  -6  -3  -6   85.93    2.85
  -6   3  -6   86.10    2.82
  -7  -3  -6    2.73    0.52
  -7   3  -6    2.63    0.51
  -8  -3  -6    6.67    0.76
  -8   3  -6    6.41    0.71
  -9  -3  -6    0.35    0.78
  -9   3  -6   -0.02    0.66
 -10  -3  -6    7.48    1.10
 -11  -3  -6    2.26    1.31
 -11   3  -6    2.13    1.30
 -11  -4   6    1.53    1.03
 -11   4   6    1.12    1.06
 -10  -4   6    3.98    0.92
 -10   4   6    4.67    0.94
  -9  -4   6    1.79    0.62
  -9  -4   6    0.80    0.53
  -9   4   6    0.35    0.55
  -9   4   6    0.30    0.65
  -8  -4   6   25.83    1.07
  -8  -4   6   24.89    1.21
  -8   4   6   24.93    1.27
  -8   4   6   25.16    1.12
  -7  -4   6    0.82    0.37
  -7  -4   6    0.28    0.30
  -7   4   6   -0.09    0.39
  -7   4   6   -0.28    0.36
  -6  -4   6  169.46    5.26
  -6  -4   6  173.48    5.30
  -6   4   6  174.50    5.32
  -5  -4   6    0.00    0.24
  -5  -4   6    0.38    0.27
  -5   4   6    0.42    0.32
  -4  -4   6  184.08    5.45
  -4  -4   6  178.84    5.47
  -4   4   6  179.66    5.52
  -3  -4   6    4.94    0.30
  -3  -4   6    4.93    0.36
  -3   4   6    4.06    0.40
  -2  -4   6  496.85   15.35
  -2  -4   6  541.11   15.29
  -2   4   6  517.83   15.41
  -2   4   6  517.53   15.39
  -1  -4   6   10.54    0.45
   1  -4  -6    8.63    0.66
  -1   4   6   10.69    0.50
  -1   4   6   10.48    0.51
   1   4  -6    9.09    0.68
   0  -4  -6   65.36    2.04
   0  -4  -6   64.59    2.25
   0  -4   6   66.33    2.02
   0   4  -6   63.42    2.28
  -1  -4  -6   11.85    0.48
  -1  -4  -6   10.17    0.68
  -1  -4  -6   11.57    0.49
   1  -4   6   11.40    0.48
  -1   4  -6   11.40    0.74
  -2  -4  -6  133.64    3.99
  -2  -4  -6  129.23    4.12
   2  -4   6  130.13    4.01
  -2   4  -6  133.62    3.97
  -2   4  -6  134.88    4.20
  -3  -4  -6    3.01    0.27
  -3  -4  -6    3.05    0.38
   3  -4   6    3.11    0.37
  -3   4  -6    2.25    0.30
   3   4   6    2.71    0.29
  -3   4  -6    2.43    0.39
  -4  -4  -6    2.64    0.24
  -4  -4  -6    2.17    0.38
   4  -4   6    2.61    0.31
  -4   4  -6    1.83    0.30
  -5  -4  -6    5.34    0.59
  -5   4  -6    5.14    0.35
  -5   4  -6    5.13    0.52
  -6  -4  -6    0.86    0.38
  -6   4  -6    0.95    0.42
  -7  -4  -6    8.62    0.81
  -7   4  -6    9.72    0.79
  -8  -4  -6    1.78    0.59
  -8   4  -6    0.18    0.54
  -9  -4  -6    1.43    0.77
  -9   4  -6    0.77    0.70
 -10  -4  -6    8.98    1.22
 -10   4  -6    9.74    1.14
 -11  -4  -6    2.11    1.37
 -11   4  -6    0.17    1.27
 -11  -5   6    2.86    1.12
 -11   5   6    0.45    1.09
 -10  -5   6   20.77    1.61
 -10   5   6   21.64    1.58
  -9  -5   6    2.30    0.65
  -9  -5   6    1.93    0.56
  -9   5   6    2.54    0.65
  -9   5   6    2.27    0.74
  -8  -5   6    5.95    0.64
  -8  -5   6    6.54    0.76
  -8   5   6    7.42    0.78
  -8   5   6    6.66    0.78
  -7  -5   6    4.65    0.54
  -7  -5   6    5.94    0.57
  -7   5   6    4.61    0.51
  -7   5   6    4.81    0.59
  -6  -5   6   33.92    1.28
  -6  -5   6   34.44    1.33
  -6   5   6   36.58    1.37
  -5  -5   6    3.04    0.36
  -5   5   6    2.45    0.41
  -4  -5   6    6.94    0.49
  -4  -5   6    6.13    0.41
  -4   5   6    6.44    0.55
  -3  -5   6   31.94    1.12
  -3  -5   6   32.42    1.06
  -3   5   6   31.50    1.18
  -3   5   6   32.45    1.21
  -2  -5   6   45.29    1.49
  -2  -5   6   46.55    1.41
  -2   5   6   45.04    1.56
  -2   5   6   45.35    1.55
   1  -5  -6   21.72    1.07
  -1  -5   6   23.71    0.85
   1  -5  -6   24.20    0.88
   1   5  -6   23.87    1.08
   0  -5  -6    2.14    0.45
   0  -5   6    1.90    0.24
   0  -5  -6    1.86    0.26
   0   5  -6    1.21    0.40
  -1  -5  -6   71.30    2.23
  -1  -5  -6   69.39    2.42
   1  -5   6   71.65    2.23
  -1  -5  -6   71.65    2.17
  -1   5  -6   70.08    2.48
  -2  -5  -6  152.91    4.83
  -2  -5  -6  152.97    4.68
   2  -5   6  153.38    4.70
  -2   5  -6  160.80    4.91
  -2   5  -6  154.35    4.63
   3  -5   6    2.25    0.33
  -3  -5  -6    2.48    0.26
  -3  -5  -6    2.72    0.40
  -3   5  -6    2.08    0.40
  -3   5  -6    2.36    0.26
  -4  -5  -6   15.31    0.86
   4  -5   6   17.43    0.77
  -4  -5  -6   15.31    0.63
  -4   5  -6   18.50    0.95
  -4   5  -6   15.55    0.70
  -5  -5  -6    0.52    0.21
  -5  -5  -6    0.21    0.34
  -5   5  -6    0.27    0.30
  -5   5  -6    0.23    0.28
  -6  -5  -6   47.90    1.82
  -6   5  -6   51.68    1.80
  -6   5  -6   49.03    1.61
  -7  -5  -6    0.36    0.45
  -7   5  -6   -0.05    0.43
  -8  -5  -6    0.25    0.57
  -8   5  -6    0.15    0.54
  -9  -5  -6    0.23    0.80
  -9   5  -6    0.06    0.73
 -10  -5  -6   12.05    1.33
 -10   5  -6   15.37    1.56
 -11  -5  -6    1.15    1.36
 -11   5  -6   -0.63    1.32
 -11  -6   6   -0.37    1.15
 -11   6   6   -0.58    1.20
 -10  -6   6    2.98    1.02
 -10   6   6    1.20    0.87
  -9  -6   6    9.63    1.01
  -9  -6   6   10.33    1.13
  -9   6   6    8.64    0.88
  -9   6   6    9.96    1.24
  -8  -6   6    2.94    0.47
  -8  -6   6    3.25    0.60
  -8   6   6    2.09    0.61
  -8   6   6    2.42    0.67
  -7  -6   6    0.90    0.44
  -7   6   6    1.07    0.43
  -6  -6   6   80.52    2.64
  -6  -6   6   78.77    2.60
  -6   6   6   82.21    2.70
  -5  -6   6    0.38    0.28
  -5  -6   6    0.53    0.30
  -5   6   6    0.12    0.36
  -4  -6   6   22.16    0.88
  -4  -6   6   22.00    0.83
  -4   6   6   21.24    0.95
  -3  -6   6    2.67    0.30
  -3  -6   6    2.63    0.32
  -3   6   6    2.34    0.36
  -3   6   6    2.58    0.39
  -2  -6   6  148.07    4.33
   2  -6  -6  143.15    4.46
  -2  -6   6  144.72    4.42
  -2   6   6  144.14    4.49
  -2   6   6  142.89    4.47
   1  -6  -6    9.89    0.56
   1  -6  -6    9.05    0.77
  -1  -6   6   10.37    0.52
   1   6  -6   11.41    0.76
   0  -6   6    4.70    0.39
   0  -6  -6    5.59    0.70
   0  -6  -6    4.23    0.41
   0   6  -6    4.86    0.67
  -1  -6  -6   75.60    2.63
  -1  -6  -6   77.64    2.43
   1  -6   6   75.60    2.42
  -1   6  -6   77.06    2.69
   2  -6   6    2.41    0.31
  -2  -6  -6    2.90    0.46
  -2  -6  -6    2.60    0.30
  -2   6  -6    2.53    0.24
  -2   6  -6    3.40    0.48
   3  -6   6    1.32    0.33
  -3  -6  -6    1.28    0.42
  -3  -6  -6    1.36    0.26
  -3   6  -6    1.14    0.40
  -3   6  -6    1.34    0.23
  -4  -6  -6    0.75    0.44
  -4  -6  -6    0.74    0.24
   4  -6   6    1.52    0.39
  -4   6  -6    0.71    0.43
  -4   6  -6    1.09    0.28
   5  -6   6   23.48    1.01
  -5  -6  -6   21.85    1.07
  -5  -6  -6   22.83    0.87
  -5   6  -6   24.02    1.19
  -5   6  -6   24.75    0.99
  -6  -6  -6    3.06    0.53
  -6   6  -6    2.59    0.48
  -6   6  -6    2.11    0.36
  -7  -6  -6    0.04    0.51
  -7   6  -6    1.31    0.46
  -8  -6  -6   -0.39    0.62
  -8   6  -6   -0.38    0.55
  -9  -6  -6    1.45    0.87
  -9   6  -6    1.44    0.77
 -10  -6  -6    3.78    1.20
 -10   6  -6    4.77    1.16
 -11  -6  -6    0.18    1.41
 -11   6  -6    0.93    1.42
 -11  -7   6    0.74    1.27
 -11   7   6   -0.40    1.26
 -10  -7   6    4.18    1.08
 -10   7   6    2.14    1.05
  -9  -7   6    8.32    0.97
  -9  -7   6    7.63    0.84
  -9   7   6    9.31    0.95
  -9   7   6    8.25    1.08
  -8  -7   6    0.70    0.46
  -8  -7   6    1.06    0.60
  -8   7   6    1.17    0.59
  -8   7   6    0.55    0.59
  -7  -7   6    7.20    0.76
  -7  -7   6    6.26    0.63
  -7   7   6    7.60    0.79
  -6  -7   6    2.07    0.37
  -6  -7   6    1.88    0.50
  -6   7   6    1.68    0.46
  -5  -7   6   30.01    1.19
  -5  -7   6   31.19    1.15
  -5   7   6   31.65    1.30
  -4  -7   6    0.52    0.28
  -4  -7   6    0.70    0.30
  -4   7   6    0.79    0.35
  -4   7   6    1.09    0.40
  -3  -7   6   72.65    2.24
  -3  -7   6   70.21    2.31
  -3   7   6   72.75    2.39
  -3   7   6   70.75    2.41
   2  -7  -6    0.83    0.31
  -2  -7   6    0.98    0.26
  -2  -7   6    0.93    0.23
  -1  -7   6    0.91    0.27
   1  -7  -6    0.99    0.33
   1  -7  -6    1.53    0.50
   1   7  -6    1.27    0.39
   0  -7   6    0.20    0.26
   0  -7  -6    0.25    0.27
   0  -7  -6    0.49    0.43
   0   7  -6    0.80    0.40
   1  -7   6   51.48    1.74
  -1  -7  -6   50.43    1.97
  -1  -7  -6   51.01    1.74
  -1   7  -6   53.64    2.01
  -2  -7  -6    0.18    0.42
   2  -7   6    0.37    0.30
  -2  -7  -6    0.64    0.27
  -2   7  -6   -0.32    0.34
  -2   7  -6    0.48    0.15
  -3  -7  -6   15.31    0.70
  -3  -7  -6   13.82    0.91
   3  -7   6   15.15    0.79
  -3   7  -6   15.42    0.61
  -3   7  -6   14.01    0.92
   4  -7   6    1.74    0.48
  -4  -7  -6    3.75    0.42
  -4  -7  -6    3.23    0.48
  -4   7  -6    3.03    0.60
  -5  -7  -6    1.14    0.28
   5  -7   6    1.27    0.52
  -5  -7  -6    0.73    0.42
  -5   7  -6    1.24    0.49
  -5   7  -6    0.31    0.35
  -6  -7  -6    0.36    0.46
  -6   7  -6   -0.23    0.49
  -6   7  -6    1.02    0.43
  -6   7  -6    1.35    0.43
  -6   7  -6    0.77    0.45
  -7  -7  -6    3.53    0.70
  -7   7  -6    4.64    0.79
  -7   7  -6    3.66    0.57
  -8  -7  -6    3.97    0.81
  -8   7  -6    3.52    0.82
  -8   7  -6    4.37    0.72
  -9  -7  -6    2.24    0.94
  -9   7  -6    2.48    0.87
  -9   7  -6    2.82    1.03
 -10  -7  -6    0.73    1.20
 -10   7  -6    1.21    1.33
 -10   7  -6   -1.48    1.11
 -11  -8   6    3.11    1.40
 -11   8   6   -0.65    1.32
 -10  -8   6    0.96    1.11
 -10   8   6    0.25    1.00
  -9  -8   6    2.07    0.76
  -9  -8   6    4.40    0.90
  -9   8   6    4.11    0.93
  -9   8   6    1.47    0.91
  -8  -8   6    1.72    0.64
  -8  -8   6    1.85    0.55
  -8   8   6    0.71    0.65
  -8   8   6   -0.12    0.65
  -7  -8   6    1.10    0.44
  -7  -8   6    0.95    0.53
  -7   8   6    0.86    0.53
  -6  -8   6    3.59    0.45
  -6  -8   6    3.28    0.59
  -6   8   6    4.07    0.58
  -5  -8   6    7.03    0.59
  -5  -8   6    8.13    0.64
  -5   8   6    7.25    0.73
  -4  -8   6    2.64    0.35
  -4  -8   6    1.43    0.34
  -4   8   6    2.03    0.44
  -4   8   6    1.73    0.41
  -3  -8   6    3.61    0.47
  -3  -8   6    4.09    0.43
  -3   8   6    4.48    0.55
  -3   8   6    4.92    0.58
   2  -8  -6    6.32    0.57
  -2  -8   6    5.68    0.47
  -2  -8   6    7.27    0.50
  -1  -8   6   -0.06    0.22
   1  -8  -6    0.21    0.30
   1  -8  -6   -0.27    0.45
   1   8  -6    0.04    0.40
   0  -8  -6    1.14    0.36
   0  -8  -6    1.55    0.51
   0  -8   6    1.35    0.31
   0   8  -6    1.61    0.47
  -1  -8  -6   16.69    1.07
   1  -8   6   16.43    0.81
  -1  -8  -6   14.62    0.81
  -1   8  -6   16.50    1.00
   2  -8   6    6.42    0.63
  -2  -8  -6    6.33    0.70
  -2  -8  -6    6.13    0.58
  -2   8  -6    4.73    0.60
  -2   8  -6    4.20    0.31
  -3  -8  -6    1.82    0.57
   3  -8   6    0.32    0.46
  -3  -8  -6    0.96    0.37
  -3   8  -6    1.33    0.53
  -3   8  -6    0.73    0.22
  -4  -8  -6    3.41    0.54
  -4  -8  -6    2.36    0.40
   4  -8   6    2.70    0.63
  -4   8  -6    1.19    0.53
  -4   8  -6    1.48    0.28
   5  -8   6   16.53    1.08
  -5  -8  -6   14.30    0.78
  -5  -8  -6   13.45    0.94
  -5   8  -6   13.49    0.75
  -5   8  -6   13.65    1.09
  -6  -8  -6    1.10    0.56
  -6   8  -6    0.37    0.56
  -6   8  -6    0.98    0.59
  -6   8  -6    0.44    0.43
  -6   8  -6    0.08    0.54
  -7  -8  -6    3.23    0.71
  -7   8  -6    4.99    0.63
  -7   8  -6    3.85    0.74
  -8  -8  -6    6.52    0.96
  -8   8  -6    6.28    0.96
  -8   8  -6    4.94    0.78
  -9  -8  -6    4.74    1.10
  -9   8  -6    5.61    1.15
  -9   8  -6    6.12    1.08
 -10  -8  -6    1.26    1.31
 -10   8  -6    1.79    1.51
 -10   8  -6    2.95    1.25
 -10  -9   6    2.97    1.16
 -10   9   6    1.08    1.13
  -9  -9   6    0.82    0.86
  -9  -9   6    1.35    0.81
  -9   9   6    0.90    0.96
  -9   9   6    0.10    0.81
  -8  -9   6    0.50    0.72
  -8  -9   6    1.12    0.59
  -8   9   6    0.05    0.66
  -8   9   6    0.09    0.75
  -7  -9   6   14.07    0.92
  -7  -9   6   14.00    1.04
  -7   9   6   12.74    1.11
  -6  -9   6    2.03    0.57
  -6  -9   6    2.22    0.45
  -6   9   6    2.36    0.55
  -5  -9   6    3.08    0.45
  -5  -9   6    2.96    0.44
  -5   9   6    2.85    0.52
  -5   9   6    3.67    0.59
  -4  -9   6    4.55    0.46
  -4  -9   6    4.37    0.54
  -4   9   6    4.22    0.54
  -4   9   6    4.62    0.59
  -3  -9   6   17.89    0.85
  -3  -9   6   17.24    0.80
   3  -9  -6   17.40    0.92
  -2  -9   6    7.44    0.56
   2  -9  -6    7.86    0.65
  -2  -9   6    9.15    0.60
  -1  -9   6   37.69    1.36
   1  -9  -6   37.39    1.62
   1  -9  -6   36.30    1.42
   1   9  -6   37.11    1.55
   0  -9  -6   24.04    1.22
   0  -9  -6   24.66    1.05
   0  -9   6   23.21    1.00
   0   9  -6   25.04    1.23
  -1  -9  -6   11.79    0.96
   1  -9   6    9.07    0.65
  -1  -9  -6   10.44    0.71
  -1   9  -6    9.48    0.89
  -2  -9  -6    6.56    0.83
   2  -9   6    4.79    0.63
  -2  -9  -6    6.02    0.60
  -2   9  -6    5.61    0.35
  -2   9  -6    5.96    0.71
  -3  -9  -6    6.89    0.62
   3  -9   6    6.36    0.68
  -3  -9  -6    7.75    0.81
  -3   9  -6    5.72    0.85
  -3   9  -6    6.89    0.44
   4  -9   6   48.99    1.90
  -4  -9  -6   49.53    1.74
  -4  -9  -6   49.75    1.95
  -4   9  -6   50.27    2.07
  -4   9  -6   48.99    1.66
   5  -9   6    2.44    0.72
  -5  -9  -6    1.99    0.42
  -5  -9  -6    2.16    0.58
  -5   9  -6    3.59    0.49
  -5   9  -6    2.02    0.58
  -6  -9  -6   13.95    1.18
   6  -9   6   16.25    1.31
  -6   9  -6   16.20    0.94
  -6   9  -6   15.52    1.26
  -7  -9  -6    1.25    0.70
  -7   9  -6    0.06    0.66
  -7   9  -6    1.70    0.58
  -8  -9  -6    9.27    1.16
  -8   9  -6    9.85    1.21
  -8   9  -6    8.96    1.18
  -9  -9  -6    1.84    1.12
  -9   9  -6    1.29    1.07
  -9   9  -6    2.06    1.14
 -10  -9  -6    4.39    1.47
 -10   9  -6    0.62    1.48
 -10   9  -6    2.88    1.37
 -10 -10   6    3.48    1.28
 -10  10   6    6.14    1.33
  -9 -10   6    0.46    0.94
  -9  10   6    0.43    0.85
  -9  10   6   -2.13    1.04
  -8 -10   6    2.17    0.73
  -8 -10   6    2.79    0.84
  -8  10   6    3.83    0.83
  -8  10   6    2.17    0.87
  -7 -10   6    1.80    0.55
  -7 -10   6    0.86    0.67
  -7  10   6    1.30    0.69
  -6 -10   6   15.84    0.93
  -6 -10   6   14.99    1.06
  -6  10   6   15.41    1.07
  -5 -10   6    5.41    0.57
  -5 -10   6    5.47    0.58
  -5  10   6    5.18    0.62
  -5  10   6    5.02    0.68
  -4 -10   6    4.97    0.51
  -4 -10   6    5.05    0.65
  -4  10   6    4.74    0.63
  -4  10   6    4.17    0.60
  -3 -10   6    0.68    0.38
   3 -10  -6    0.18    0.42
  -3 -10   6    0.11    0.38
  -3  10   6    0.38    0.29
  -2 -10   6   72.84    2.43
  -2 -10   6   72.51    2.31
   2 -10  -6   73.57    2.51
  -1 -10   6    5.27    0.58
   1 -10  -6    5.06    0.55
   1 -10  -6    6.29    0.80
   1  10  -6    5.13    0.63
   0 -10   6    5.31    0.54
   0 -10  -6    7.32    0.83
   0 -10  -6    6.42    0.64
   0  10  -6    6.73    0.83
  -1 -10  -6    1.36    0.43
   1 -10   6    1.90    0.45
  -1 -10  -6    1.55    0.70
  -1  10  -6    2.32    0.56
   2 -10   6   92.58    3.10
  -2 -10  -6   92.96    3.33
  -2 -10  -6   94.96    3.08
  -2  10  -6   92.21    2.88
  -2  10  -6   99.26    3.40
  -3 -10  -6    2.05    0.61
  -3 -10  -6    1.35    0.38
   3 -10   6    1.36    0.50
  -3  10  -6    1.35    0.29
  -3  10  -6    1.71    0.65
  -4 -10  -6    0.75    0.37
  -4 -10  -6    0.87    0.59
   4 -10   6    0.51    0.62
  -4  10  -6    0.49    0.57
  -4  10  -6    0.87    0.32
  -5 -10  -6    5.03    0.76
  -5 -10  -6    5.64    0.56
   5 -10   6    5.57    0.88
  -5  10  -6    3.45    0.70
  -5  10  -6    4.28    0.60
   6 -10   6    2.35    0.96
  -6 -10  -6    2.06    0.72
  -6  10  -6    2.87    0.55
  -6  10  -6    3.45    0.71
  -7 -10  -6    0.91    0.80
  -7  10  -6   -0.85    0.64
  -7  10  -6   -1.14    0.73
  -8 -10  -6    4.14    1.06
  -8  10  -6    3.53    1.04
  -8  10  -6    5.41    0.96
  -9 -10  -6    5.46    1.38
  -9  10  -6    3.75    1.34
  -9  10  -6    4.66    1.53
 -10 -10  -6    0.59    1.59
 -10  10  -6    0.31    1.71
 -10  11   6    9.53    1.49
  -9  11   6   -0.20    1.20
  -9  11   6    0.04    0.97
  -8 -11   6    3.98    0.80
  -8 -11   6    3.03    0.92
  -8  11   6    2.90    0.86
  -8  11   6    3.91    1.05
  -7 -11   6    2.05    0.78
  -7 -11   6    2.34    0.69
  -7  11   6    0.91    0.82
  -6 -11   6    3.77    0.72
  -6 -11   6    4.31    0.63
  -6  11   6    2.96    0.71
  -5 -11   6    0.08    0.42
  -5 -11   6   -0.48    0.49
  -5  11   6    0.33    0.58
  -5  11   6    1.04    0.53
  -4 -11   6    1.26    0.44
  -4 -11   6    1.51    0.46
  -4  11   6    0.87    0.56
  -4  11   6    1.42    0.50
  -3 -11   6    0.51    0.42
   3 -11  -6    0.06    0.45
  -3 -11   6   -0.38    0.40
  -2 -11   6    7.83    0.59
   2 -11  -6    6.08    0.78
  -2 -11   6    6.16    0.66
   1 -11  -6   15.25    0.95
  -1 -11   6   14.77    0.89
   1 -11  -6   16.81    1.15
   1  11  -6   17.48    1.16
   0 -11  -6    4.81    0.71
   0 -11  -6    4.14    0.53
   0 -11   6    3.80    0.52
   0  11  -6    5.18    0.70
  -1 -11  -6    1.35    0.44
   1 -11   6    1.54    0.44
  -1 -11  -6    1.91    0.62
  -1  11  -6    1.18    0.64
  -2 -11  -6  100.61    3.61
   2 -11   6  102.98    3.42
  -2 -11  -6  104.50    3.39
  -2  11  -6  106.07    3.68
  -3 -11  -6   14.88    1.19
   3 -11   6   15.38    0.98
  -3 -11  -6   13.25    0.85
  -3  11  -6   12.76    1.20
  -4 -11  -6   13.60    1.17
  -4 -11  -6   12.05    0.81
   4 -11   6   13.28    1.21
  -4  11  -6   13.25    1.19
  -5 -11  -6    3.09    0.52
  -5 -11  -6    3.87    0.78
   5 -11   6    2.99    0.92
  -5  11  -6    3.07    0.91
  -5  11  -6    2.70    0.71
  -6 -11  -6   71.00    2.83
   6 -11   6   75.43    2.93
  -6  11  -6   71.37    2.91
  -7 -11  -6    5.59    1.08
  -7  11  -6    4.32    1.06
  -8 -11  -6   -0.34    1.12
  -8  11  -6    1.94    1.07
  -9 -11  -6   -0.82    1.40
  -9  11  -6    2.66    1.49
  -9  12   6    3.33    1.37
  -9  12   6    0.52    1.19
  -8 -12   6    1.08    0.82
  -8  12   6   -0.17    0.82
  -8  12   6   -1.11    1.05
  -7 -12   6    0.69    0.70
  -7  12   6    0.66    0.84
  -6 -12   6   36.23    1.62
  -6  12   6   35.76    1.81
  -6  12   6   36.19    1.76
  -5 -12   6    6.86    0.72
  -5  12   6    7.82    0.95
  -5  12   6    7.84    1.04
  -4 -12   6    1.08    0.49
  -4  12   6    1.41    0.56
  -4  12   6    0.41    0.55
   3 -12  -6   -0.44    0.49
  -3 -12   6    0.33    0.46
   2 -12  -6   71.85    2.59
  -2 -12   6   72.13    2.50
  -1 -12   6    7.72    0.78
   1 -12  -6    9.24    0.89
   1 -12  -6    9.52    0.99
   0 -12  -6    3.91    0.73
   0 -12  -6    3.40    0.56
   0 -12   6    2.29    0.51
   0  12  -6    3.44    0.75
  -1 -12  -6    0.77    0.59
  -1 -12  -6    0.24    0.43
   1 -12   6    0.35    0.47
  -1  12  -6   -0.29    0.60
  -2 -12  -6   40.10    1.57
   2 -12   6   38.73    1.65
  -2 -12  -6   40.40    1.86
  -2  12  -6   39.18    1.77
  -3 -12  -6    1.29    0.44
   3 -12   6    1.38    0.61
  -3 -12  -6    0.31    0.69
  -3  12  -6    1.38    0.64
  -4 -12  -6    2.15    0.49
  -4 -12  -6    1.78    0.81
   4 -12   6    2.85    0.82
  -4  12  -6    0.82    0.65
  -5 -12  -6    4.98    0.96
  -5 -12  -6    4.42    0.66
   5 -12   6    5.42    1.09
  -5  12  -6    4.72    0.85
  -6 -12  -6    2.23    0.94
   6 -12   6    2.13    1.20
  -6  12  -6    1.81    0.83
  -7 -12  -6    0.89    1.13
  -7  12  -6    0.71    1.08
  -8 -12  -6   -2.96    1.26
  -8  12  -6   -2.35    1.30
  -9 -12  -6    3.30    1.64
  -9  12  -6    3.66    1.69
  -9  13   6    3.20    1.69
  -9  13   6    1.12    1.29
  -8 -13   6    3.19    0.94
  -8  13   6    3.69    1.05
  -8  13   6    5.12    1.22
  -7 -13   6    0.00    0.80
  -7  13   6    1.16    0.95
  -6 -13   6   -0.18    0.64
  -6  13   6   -0.94    0.69
  -6  13   6    0.73    0.78
  -5 -13   6    0.60    0.56
  -5  13   6    0.69    0.74
  -5  13   6    0.76    0.66
  -4 -13   6    6.82    0.77
  -4  13   6    5.35    0.81
  -4  13   6    5.24    0.85
  -3 -13   6    0.70    0.51
   3 -13  -6   -0.07    0.58
  -2 -13   6   23.12    1.28
   2 -13  -6   23.59    1.34
   1 -13  -6    2.23    0.64
  -1 -13   6    2.36    0.55
   0 -13   6    1.27    0.54
   0 -13  -6    0.38    0.51
   0 -13  -6    1.21    0.73
   0  13  -6    0.56    0.56
  -1 -13  -6    1.08    0.51
   1 -13   6    0.57    0.58
  -1 -13  -6   -0.90    0.63
  -1  13  -6    0.12    0.56
  -2 -13  -6   35.30    1.50
  -2 -13  -6   35.13    1.78
   2 -13   6   34.18    1.58
  -2  13  -6   34.89    1.61
  -3 -13  -6    0.09    0.81
   3 -13   6    0.80    0.70
  -3 -13  -6    0.68    0.49
  -3  13  -6    1.27    0.64
   4 -13   6    1.40    0.87
  -4 -13  -6    0.12    0.86
  -4 -13  -6    0.69    0.51
  -4  13  -6    0.47    0.70
  -5 -13  -6    1.44    0.68
   5 -13   6    0.98    1.12
  -5 -13  -6   -0.49    1.01
  -5  13  -6    1.93    0.90
   6 -13   6    8.99    1.56
  -6 -13  -6   11.72    1.52
  -6  13  -6   12.52    1.75
  -7 -13  -6    3.37    1.45
  -7  13  -6    0.40    1.28
  -8 -13  -6   -1.06    1.58
  -8  13  -6   -1.66    1.45
  -8 -14   6    1.08    1.04
  -8  14   6    0.76    1.14
  -8  14   6   -1.96    1.24
  -7 -14   6    0.49    0.89
  -7  14   6   -1.27    1.03
  -6 -14   6    5.80    0.90
  -6  14   6    4.51    0.92
  -6  14   6    4.30    1.03
  -5 -14   6    7.74    0.86
  -5  14   6    7.96    1.02
  -5  14   6    7.01    1.08
  -4 -14   6    5.02    0.78
  -4  14   6    4.21    0.83
  -4  14   6    3.18    0.77
   3 -14  -6   -0.57    0.69
  -2 -14   6    1.14    0.66
   2 -14  -6   -0.03    0.70
  -1 -14   6    5.09    0.74
   1 -14  -6    4.30    0.74
   0 -14   6    3.33    0.67
   0 -14  -6    3.89    0.85
   0 -14  -6    2.99    0.62
   0  14  -6    2.40    0.66
  -1 -14  -6    4.69    0.93
  -1 -14  -6    5.35    0.71
   1 -14   6    4.95    0.76
  -1  14  -6    4.85    0.71
   2 -14   6    0.19    0.68
  -2 -14  -6    2.07    0.59
  -2 -14  -6    2.07    0.88
  -2  14  -6    2.39    0.66
  -3 -14  -6    3.03    0.65
   3 -14   6    5.06    0.97
  -3 -14  -6    3.57    1.02
  -3  14  -6    2.96    0.83
  -4 -14  -6    1.89    1.10
  -4 -14  -6    0.71    0.68
   4 -14   6    1.69    1.07
  -4  14  -6    0.22    0.84
  -5 -14  -6    1.03    0.83
   5 -14   6    2.63    1.33
  -5 -14  -6    0.95    1.24
  -5  14  -6    3.88    1.14
   6 -14   6   -1.26    1.43
  -6 -14  -6   -0.04    1.44
  -6  14  -6    1.25    1.32
  -7 -14  -6    5.36    1.70
  -7  14  -6    3.45    1.50
  -8 -14  -6   -0.45    1.82
  -8  14  -6   -0.98    1.79
  -8 -15   6    4.08    2.02
  -8  15   6    5.54    1.22
  -7 -15   6   -0.03    1.01
  -7  15   6   -0.59    1.18
  -6 -15   6   -1.47    0.91
  -6  15   6   -0.05    0.99
  -6  15   6   -0.07    1.10
  -5 -15   6    0.09    0.82
  -5  15   6    0.34    0.95
  -5  15   6   -1.09    0.86
  -4 -15   6   -0.34    0.71
  -4  15   6    0.28    0.86
  -4  15   6    0.07    0.80
  -3 -15   6    1.02    0.69
   3 -15  -6    0.80    0.84
  -2 -15   6    0.89    0.68
   2 -15  -6   -0.22    0.72
  -1 -15   6    6.02    0.83
   1 -15  -6    3.69    0.82
   0 -15   6    9.68    0.99
   0 -15  -6   11.22    1.18
   0 -15  -6   11.31    1.46
   1 -15   6    2.46    0.74
  -1 -15  -6    0.52    0.96
  -1 -15  -6    2.31    0.70
  -1  15  -6    1.42    0.72
  -2 -15  -6    2.74    0.72
  -2 -15  -6    1.79    0.96
   2 -15   6    2.80    0.83
  -2  15  -6    3.63    0.83
  -3 -15  -6    1.91    0.73
   3 -15   6    1.74    0.96
  -3 -15  -6    0.73    1.04
  -3  15  -6    0.07    0.84
  -4 -15  -6    6.55    0.93
   4 -15   6    7.75    1.32
  -4 -15  -6    7.29    1.35
  -4  15  -6    7.46    1.18
  -5 -15  -6   -1.24    1.14
   5 -15   6    0.30    1.38
  -5 -15  -6    0.15    1.48
  -5  15  -6    0.48    1.28
  -6 -15  -6    2.77    1.68
   6 -15   6    3.99    1.77
  -7 -15  -6    2.19    1.97
  -6 -16   6    1.48    1.07
  -6  16   6   -0.10    1.18
  -6  16   6   -1.65    1.26
  -5 -16   6    0.54    0.94
  -5  16   6    0.52    1.06
  -5  16   6    2.73    1.20
  -4 -16   6   22.43    1.67
  -4  16   6   20.18    1.81
  -4  16   6   22.94    1.76
   3 -16  -6   -0.47    0.93
  -3 -16   6    0.00    0.77
  -2 -16   6   -0.96    0.75
   2 -16  -6    0.38    0.89
  -1 -16   6    9.90    1.07
   1 -16  -6    9.00    1.05
   0 -16   6   10.22    1.09
   0 -16  -6   10.54    1.34
   1 -16   6    1.87    0.87
  -1 -16  -6   -0.69    0.70
  -1 -16  -6    0.92    1.01
   2 -16   6    0.67    0.96
  -2 -16  -6   -1.44    1.10
  -2 -16  -6    0.35    0.79
  -3 -16  -6   10.21    1.41
   3 -16   6    7.90    1.30
  -3 -16  -6    9.12    1.08
  -4 -16  -6    0.46    1.39
  -4 -16  -6    1.62    0.92
   4 -16   6   -1.29    1.37
   5 -16   6    2.53    1.60
  -5 -16  -6    0.85    1.62
  -6 -16  -6    0.47    1.85
  -5 -17   6    1.60    1.20
  -5  17   6    3.70    1.32
  -5  17   6    3.84    1.43
  -4 -17   6    0.37    1.05
  -4  17   6    2.04    1.26
  -4  17   6    2.04    1.21
   3 -17  -6    1.33    1.15
  -3 -17   6   -0.54    0.97
  -2 -17   6    3.35    1.05
   2 -17  -6    5.01    1.13
   1 -17  -6   -0.27    0.97
  -1 -17   6   -0.32    0.93
   0 -17   6   16.23    1.64
   0 -17  -6   15.35    1.62
   1 -17   6    2.25    1.08
  -1 -17  -6    0.83    1.18
  -1 -17  -6   -0.40    0.91
  -2 -17  -6    1.28    1.27
  -2 -17  -6    1.52    0.93
   2 -17   6    4.00    1.18
  -3 -17  -6    0.49    1.35
   3 -17   6    0.94    1.23
  -3 -17  -6   -0.92    0.93
   4 -17   6   13.05    1.74
  -4 -17  -6   11.28    1.23
  -4 -17  -6   12.51    1.70
   5 -17   6   -2.69    1.54
  -5 -17  -6   -1.03    1.65
  -3 -18   6    0.97    1.24
   3 -18  -6    1.76    1.42
  -2 -18   6    6.95    1.33
   2 -18  -6    4.83    1.37
   1 -18  -6    2.52    1.21
  -1 -18   6    3.10    1.16
   0 -18   6    9.72    1.40
   0 -18  -6    8.78    1.31
  -1 -18  -6   -0.35    1.08
   1 -18   6    0.09    1.20
   2 -18   6    2.80    1.33
  -2 -18  -6    3.64    1.11
  -2 -18  -6    0.25    1.57
   3 -18   6   -1.99    1.53
  -3 -18  -6    2.38    1.10
   4 -18   6    1.98    1.72
  -4 -18  -6    2.04    1.20
  -1 -19  -6   -0.37    1.28
 -12   0   7   -0.48    1.32
 -11   0   7   -0.54    0.96
 -10   0   7   -0.33    0.76
  -9   0   7    0.63    0.55
  -9   0   7    0.41    0.45
  -8   0   7    0.80    0.37
  -8   0   7   -0.54    0.39
  -7   0   7   -0.13    0.29
  -7   0   7    0.39    0.37
  -6   0   7    0.67    0.37
  -6   0   7    0.29    0.31
  -5   0   7    0.05    0.26
  -4   0   7   -0.13    0.18
  -3   0   7    0.03    0.18
  -2   0   7    8.90    0.40
   1   0  -7    0.17    0.22
  -1   0   7    0.21    0.13
   1   0  -7   -0.02    0.21
   0   0   7    0.16    0.11
   0   0  -7    0.22    0.27
   0   0  -7    0.11    0.31
   0   0  -7    0.21    0.11
  -1   0  -7   -0.15    0.23
  -1   0  -7   -0.04    0.21
   1   0   7    0.16    0.10
  -1   0  -7    0.16    0.09
  -2   0  -7    0.58    0.24
  -2   0  -7    0.21    0.21
  -3   0  -7    0.55    0.24
  -4   0  -7    0.41    0.26
  -5   0  -7   -0.15    0.33
  -6   0  -7    1.10    0.39
  -7   0  -7    0.47    0.48
  -8   0  -7    0.89    0.62
  -9   0  -7    0.62    0.68
 -10   0  -7    0.98    0.89
 -11   0  -7   -1.03    1.23
 -12  -1   7    2.46    1.36
 -12   1   7   -0.44    1.33
 -11  -1   7    0.29    0.92
 -11   1   7   -0.17    0.97
 -10  -1   7    1.54    0.79
 -10   1   7   -0.02    0.75
  -9  -1   7   10.33    0.96
  -9  -1   7    8.79    0.79
  -9   1   7   11.31    1.01
  -9   1   7    8.92    0.84
  -8  -1   7    1.63    0.38
  -8  -1   7    1.72    0.46
  -8   1   7    2.21    0.50
  -8   1   7    1.63    0.41
  -7  -1   7    6.65    0.63
  -7  -1   7    7.79    0.58
  -7   1   7    7.42    0.60
  -7   1   7    7.49    0.64
  -6  -1   7    3.51    0.39
  -6  -1   7    3.57    0.45
  -6   1   7    3.86    0.42
  -6   1   7    4.55    0.52
  -5  -1   7   17.95    0.76
  -5  -1   7   17.00    0.75
  -5   1   7   18.35    0.79
  -4  -1   7    2.66    0.32
  -4   1   7    3.21    0.34
  -3  -1   7   25.79    0.92
  -3   1   7   26.95    0.93
  -2  -1   7   26.82    0.91
  -2   1   7   26.97    0.92
   1  -1  -7   12.09    0.62
   1  -1  -7   11.31    0.55
  -1  -1   7   12.65    0.47
  -1   1   7   12.41    0.48
   1   1  -7   12.44    0.65
   0  -1  -7    2.61    0.41
   0  -1   7    2.40    0.20
   0  -1  -7    2.46    0.32
   0   1   7    2.12    0.20
   0   1  -7    1.72    0.37
   0   1  -7    2.45    0.34
  -1  -1  -7    2.51    0.20
  -1  -1  -7    2.25    0.19
  -1  -1  -7    1.90    0.31
  -1  -1  -7    2.59    0.37
   1  -1   7    2.29    0.19
  -1   1  -7    2.41    0.17
  -1   1  -7    2.89    0.38
   1   1   7    2.64    0.19
  -1   1  -7    2.26    0.30
  -3  -1  -7    0.33    0.24
  -3   1  -7    0.27    0.22
  -4  -1  -7    2.22    0.35
  -4   1  -7    2.10    0.31
  -5  -1  -7    0.73    0.38
  -5   1  -7    0.31    0.33
  -7  -1  -7    7.56    0.82
  -7   1  -7    6.97    0.81
  -8  -1  -7    3.20    0.68
  -8   1  -7    4.31    0.69
  -9  -1  -7    4.40    0.85
  -9   1  -7    3.64    0.78
 -10  -1  -7    0.79    0.90
 -10   1  -7    0.67    0.92
 -11  -1  -7    0.17    1.23
 -11   1  -7    0.15    1.35
 -12  -2   7    0.20    1.27
 -12   2   7    0.06    1.38
 -11  -2   7    2.32    1.02
 -11   2   7    1.73    1.04
 -10  -2   7    6.81    0.99
 -10   2   7    9.91    1.27
  -9  -2   7    0.24    0.50
  -9  -2   7    0.22    0.45
  -9   2   7    0.34    0.56
  -9   2   7   -0.01    0.49
  -8  -2   7   24.77    1.18
  -8  -2   7   24.41    1.04
  -8   2   7   24.44    1.20
  -8   2   7   23.53    1.07
  -7  -2   7    3.02    0.38
  -7  -2   7    3.15    0.46
  -7   2   7    3.25    0.42
  -7   2   7    2.47    0.46
  -6  -2   7   79.88    2.59
  -6  -2   7   81.79    2.64
  -6   2   7   81.06    2.62
  -5  -2   7   14.33    0.67
  -5  -2   7   15.63    0.69
  -5   2   7   15.20    0.73
  -4  -2   7   33.34    1.12
  -4  -2   7   31.36    1.12
  -4   2   7   32.21    1.15
  -3  -2   7   89.92    2.77
  -3   2   7   89.60    2.79
  -2  -2   7   30.90    1.02
  -2   2   7   30.27    1.04
   1  -2  -7   61.21    2.09
  -1  -2   7   65.04    1.93
  -1   2   7   62.33    1.94
   1   2  -7   59.30    2.10
   0  -2  -7    0.96    0.38
   0  -2  -7    1.08    0.26
   0  -2   7    1.35    0.16
   0   2  -7    1.06    0.23
   0   2   7    1.24    0.16
   0   2  -7    0.94    0.35
  -1  -2  -7   36.08    1.26
   1  -2   7   36.84    1.14
  -1  -2  -7   36.31    1.31
   1   2   7   36.66    1.14
  -1   2  -7   31.78    1.16
   1   2   7   38.18    1.15
  -1   2  -7   34.79    1.12
  -1   2  -7   36.69    1.39
   2  -2   7    1.68    0.17
  -2  -2  -7    1.69    0.30
  -2   2  -7    1.92    0.22
  -2   2  -7    1.28    0.31
   2   2   7    1.74    0.19
  -2   2  -7    1.57    0.15
   2   2   7    1.68    0.18
  -3  -2  -7  117.11    3.72
  -3   2  -7  119.70    3.82
  -3   2  -7  121.45    3.66
  -4  -2  -7    0.27    0.29
  -4   2  -7    0.55    0.25
  -5  -2  -7   37.84    1.47
  -5   2  -7   40.72    1.43
  -6  -2  -7    4.95    0.62
  -6   2  -7    5.86    0.57
  -7  -2  -7   17.08    1.01
  -7   2  -7   19.02    1.02
  -8  -2  -7    7.08    0.83
  -8   2  -7    9.17    0.96
  -9  -2  -7   12.65    1.27
  -9   2  -7   13.55    1.17
 -10  -2  -7    1.21    0.96
 -10   2  -7    0.34    0.94
 -11  -2  -7    1.26    1.32
 -11   2  -7    2.19    1.33
 -12  -3   7   -0.37    1.33
 -12   3   7   -0.64    1.47
 -11  -3   7    1.15    1.01
 -11   3   7    2.12    1.11
 -10  -3   7    0.84    0.83
 -10   3   7    0.51    0.78
  -9  -3   7   23.27    1.22
  -9  -3   7   21.82    1.11
  -9   3   7   20.79    1.32
  -9   3   7   21.17    1.17
  -8  -3   7    2.59    0.39
  -8  -3   7    1.93    0.49
  -8   3   7    1.85    0.44
  -8   3   7    2.11    0.53
  -7  -3   7   14.94    0.84
  -7  -3   7   14.79    0.75
  -7   3   7   15.10    0.81
  -7   3   7   14.56    0.89
  -6  -3   7    5.13    0.59
  -6  -3   7    5.14    0.50
  -6   3   7    5.92    0.58
  -5  -3   7   12.96    0.64
  -5  -3   7   13.97    0.64
  -5   3   7   13.11    0.71
  -4  -3   7    0.68    0.21
  -4  -3   7    0.37    0.23
  -4   3   7    1.01    0.28
  -3  -3   7   64.72    2.07
  -3  -3   7   67.31    2.04
  -3   3   7   64.87    2.10
  -2  -3   7   20.98    0.76
  -2   3   7   21.11    0.79
  -1  -3   7    0.94    0.17
   1  -3  -7    0.97    0.37
  -1   3   7    0.85    0.19
   1   3  -7    0.81    0.34
   0  -3   7   24.13    0.81
   0  -3  -7   24.10    0.85
   0  -3  -7   23.02    1.08
   0   3   7   24.87    0.83
   0   3   7   23.24    0.83
   0   3  -7   23.19    1.09
   1  -3   7    0.30    0.14
  -1  -3  -7    0.41    0.32
  -1  -3  -7    0.44    0.21
  -1   3  -7    0.21    0.30
   1   3   7    0.26    0.16
  -1   3  -7    0.45    0.16
   1   3   7    0.35    0.15
   2  -3   7   34.56    1.05
  -2  -3  -7   34.15    1.21
   2   3   7   32.34    1.02
  -2   3  -7   32.22    1.05
  -2   3  -7   30.10    1.25
   2   3   7   30.04    1.04
   2   3   7   32.46    1.03
  -2   3  -7   28.40    1.01
  -3  -3  -7    0.92    0.30
   3  -3   7    1.17    0.23
  -3   3  -7    0.93    0.22
  -3   3  -7    1.08    0.12
  -3   3  -7    0.59    0.31
  -4  -3  -7    7.40    0.57
  -4   3  -7    5.68    0.46
  -5  -3  -7    0.65    0.37
  -5   3  -7    0.14    0.31
  -6  -3  -7    7.12    0.67
  -6   3  -7    7.56    0.72
  -7  -3  -7    6.45    0.69
  -7   3  -7    6.86    0.69
  -8  -3  -7    5.06    0.78
  -8   3  -7    5.66    0.72
  -9  -3  -7    4.35    0.90
  -9   3  -7    7.79    0.88
 -10  -3  -7    1.16    1.00
 -10   3  -7    0.62    0.94
 -11  -3  -7    2.29    1.36
 -11   3  -7    0.79    1.35
 -11  -4   7    0.46    1.08
 -11   4   7   -0.22    1.10
 -10  -4   7    7.21    1.00
 -10   4   7    4.61    0.94
  -9  -4   7    0.21    0.51
  -9  -4   7    0.54    0.59
  -9   4   7   -0.63    0.56
  -9   4   7    0.60    0.66
  -8  -4   7    2.68    0.53
  -8  -4   7    2.68    0.44
  -8   4   7    2.68    0.50
  -8   4   7    2.38    0.60
  -7  -4   7    0.98    0.35
  -7  -4   7    1.81    0.42
  -7   4   7    1.44    0.40
  -7   4   7    1.43    0.43
  -6  -4   7   24.27    1.05
  -6  -4   7   24.94    1.00
  -6   4   7   25.45    1.08
  -5  -4   7    1.40    0.29
  -5  -4   7    1.45    0.29
  -5   4   7    0.76    0.35
  -4  -4   7    8.79    0.46
  -4  -4   7    9.08    0.52
  -4   4   7    9.29    0.60
  -3  -4   7   21.08    0.80
  -3  -4   7   21.79    0.74
  -3   4   7   20.60    0.84
  -2  -4   7   13.64    0.45
  -2  -4   7   12.23    0.53
  -2   4   7   11.40    0.58
  -1  -4   7    2.06    0.23
   1  -4  -7    1.25    0.43
   1   4  -7    1.91    0.42
  -1   4   7    2.38    0.28
  -1   4   7    2.15    0.26
   0  -4  -7    7.06    0.33
   0  -4   7    6.83    0.37
   0  -4  -7    6.57    0.68
   0   4  -7    7.17    0.70
   0   4   7    7.10    0.39
   0   4   7    7.06    0.41
   1  -4   7   11.12    0.48
  -1  -4  -7   11.93    0.73
  -1  -4  -7   11.36    0.51
  -1  -4  -7   11.32    0.48
  -1   4  -7   10.78    0.41
  -1   4  -7   10.17    0.78
   2  -4   7    1.22    0.23
  -2  -4  -7    1.50    0.20
  -2  -4  -7    1.34    0.33
  -2   4  -7    1.41    0.36
  -2   4  -7    1.62    0.20
   3  -4   7    0.28    0.25
  -3  -4  -7    0.01    0.15
  -3  -4  -7   -0.10    0.28
   3   4   7    0.41    0.21
  -3   4  -7   -0.12    0.29
  -3   4  -7   -0.06    0.19
   4  -4   7    0.33    0.27
  -4  -4  -7    0.47    0.36
  -4   4  -7   -0.07    0.25
  -4   4  -7    0.21    0.34
  -5  -4  -7    3.15    0.46
  -5   4  -7    2.40    0.39
  -6  -4  -7    2.23    0.47
  -6   4  -7    2.42    0.48
  -7  -4  -7    0.65    0.51
  -7   4  -7    0.36    0.47
  -8  -4  -7    0.79    0.60
  -8   4  -7    2.16    0.60
  -9  -4  -7   -0.03    0.82
  -9   4  -7    0.06    0.73
 -10  -4  -7   -0.06    0.96
 -10   4  -7    0.57    0.98
 -11  -4  -7    2.29    1.40
 -11   4  -7    0.89    1.40
 -11  -5   7    0.78    1.16
 -11   5   7    2.15    1.20
 -10  -5   7    0.84    0.91
 -10   5   7    1.04    0.88
  -9  -5   7    2.96    0.60
  -9  -5   7    2.73    0.70
  -9   5   7    2.21    0.76
  -9   5   7    1.98    0.67
  -8  -5   7    1.35    0.51
  -8  -5   7    1.17    0.44
  -8   5   7    1.12    0.50
  -8   5   7    1.24    0.63
  -7  -5   7    4.65    0.54
  -7  -5   7    4.87    0.65
  -7   5   7    3.67    0.53
  -6  -5   7    0.22    0.30
  -6  -5   7    0.33    0.38
  -6   5   7    0.85    0.39
  -5  -5   7    1.70    0.31
  -5  -5   7    1.77    0.31
  -5   5   7    2.22    0.40
  -4  -5   7   21.15    0.80
  -4  -5   7   22.11    0.85
  -4   5   7   21.48    0.92
  -3  -5   7   10.24    0.53
  -3  -5   7    9.66    0.44
  -3   5   7   10.23    0.60
  -2  -5   7   16.98    0.67
  -2  -5   7   18.28    0.57
  -2   5   7   14.76    0.73
  -2   5   7   15.08    0.71
   1  -5  -7    7.60    0.72
  -1  -5   7    9.08    0.46
  -1   5   7    9.54    0.53
  -1   5   7    9.23    0.51
  -1   5   7    8.87    0.40
   1   5  -7    8.61    0.73
   0  -5   7   45.40    1.46
   0  -5  -7   44.81    1.48
   0  -5  -7   45.21    1.71
   0   5  -7   43.02    1.75
  -1  -5  -7   20.66    0.73
  -1  -5  -7   19.74    0.76
   1  -5   7   19.79    0.76
  -1  -5  -7   18.16    0.99
  -1   5  -7   20.24    1.07
  -2  -5  -7    6.81    0.41
   2  -5   7    7.44    0.45
  -2  -5  -7    7.13    0.63
  -2   5  -7    6.58    0.64
  -2   5  -7    7.35    0.35
   3  -5   7    0.13    0.28
  -3  -5  -7   -0.08    0.19
  -3  -5  -7    0.10    0.33
  -3   5  -7    0.49    0.21
  -3   5  -7    0.02    0.34
  -4  -5  -7   13.74    0.55
   4  -5   7   14.41    0.71
  -4  -5  -7   12.99    0.84
  -4   5  -7   11.86    0.63
  -4   5  -7   12.39    0.93
   5  -5   7    6.37    0.51
  -5  -5  -7    4.69    0.63
  -5   5  -7    4.29    0.53
  -5   5  -7    4.71    0.60
  -6  -5  -7    0.76    0.43
  -6   5  -7   -0.19    0.40
  -7  -5  -7    6.33    0.72
  -7   5  -7    5.62    0.65
  -8  -5  -7    1.09    0.70
  -8   5  -7    0.83    0.61
  -9  -5  -7    1.79    0.88
  -9   5  -7    1.20    0.73
 -10  -5  -7    0.89    1.05
 -10   5  -7    1.30    1.07
 -11  -5  -7   -1.27    1.46
 -11   5  -7    2.92    1.43
 -11  -6   7    1.53    1.22
 -11   6   7    0.57    1.18
 -10  -6   7    1.49    0.98
 -10   6   7    0.30    0.93
  -9  -6   7    2.09    0.64
  -9  -6   7    2.97    0.76
  -9   6   7    2.15    0.75
  -9   6   7    2.19    0.81
  -8  -6   7   47.79    1.84
  -8  -6   7   45.61    1.71
  -8   6   7   44.19    1.91
  -8   6   7   46.15    1.82
  -7  -6   7    0.60    0.44
  -7  -6   7    0.13    0.35
  -7   6   7   -0.32    0.44
  -6  -6   7    0.17    0.30
  -6  -6   7   -0.29    0.39
  -6   6   7    0.77    0.41
  -5  -6   7   12.66    0.65
  -5  -6   7   12.47    0.67
  -5   6   7   12.13    0.78
  -4  -6   7   79.57    2.55
  -4  -6   7   80.36    2.49
  -4   6   7   79.42    2.62
  -3  -6   7    4.73    0.42
  -3  -6   7    4.94    0.34
  -3   6   7    4.67    0.50
  -3   6   7    5.80    0.52
  -2  -6   7    2.35    0.24
  -2  -6   7    2.20    0.30
  -2   6   7    2.25    0.37
  -2   6   7    2.33    0.39
   1  -6  -7   17.33    0.76
  -1  -6   7   17.68    0.72
   1  -6  -7   16.23    1.00
   1   6  -7   18.20    1.01
   0  -6  -7    6.57    0.73
   0  -6  -7    5.93    0.45
   0  -6   7    6.42    0.42
   0   6  -7    5.31    0.69
  -1  -6  -7    1.08    0.46
  -1  -6  -7    1.39    0.25
   1  -6   7    1.04    0.25
  -1   6  -7    0.51    0.41
  -2  -6  -7    0.54    0.23
  -2  -6  -7    0.12    0.39
   2  -6   7    0.13    0.25
  -2   6  -7    0.25    0.15
  -2   6  -7    0.11    0.38
  -3  -6  -7   24.08    1.18
  -3  -6  -7   26.89    0.97
   3  -6   7   26.95    1.05
  -3   6  -7   27.21    0.93
  -3   6  -7   25.45    1.24
  -4  -6  -7    0.55    0.23
   4  -6   7    0.08    0.38
  -4  -6  -7    0.32    0.39
  -4   6  -7    0.38    0.46
  -4   6  -7    0.42    0.26
  -5  -6  -7   15.67    0.66
  -5  -6  -7   15.13    0.90
   5  -6   7   16.44    0.85
  -5   6  -7   14.16    1.00
  -5   6  -7   16.14    0.80
  -6  -6  -7    5.66    0.66
  -6   6  -7    3.46    0.62
  -6   6  -7    6.14    0.59
  -7  -6  -7    4.99    0.72
  -7   6  -7    4.48    0.77
  -7   6  -7    5.61    0.75
  -8  -6  -7    0.89    0.70
  -8   6  -7    2.41    0.64
  -9  -6  -7    4.00    0.96
  -9   6  -7    4.82    0.91
 -10  -6  -7    1.06    1.23
 -10   6  -7    1.53    1.14
 -10   6  -7   -0.71    1.29
 -11   6  -7   -1.14    1.41
 -11  -7   7    4.35    1.38
 -11   7   7    4.04    1.38
 -10  -7   7    1.45    1.05
 -10   7   7    3.04    1.07
  -9  -7   7    0.79    0.74
  -9  -7   7    1.30    0.69
  -9   7   7    0.24    0.78
  -9   7   7    2.36    0.88
  -8  -7   7    4.88    0.74
  -8  -7   7    6.16    0.78
  -8   7   7    6.96    0.78
  -8   7   7    6.14    0.82
  -7  -7   7    3.73    0.58
  -7  -7   7    3.70    0.50
  -7   7   7    4.53    0.62
  -6  -7   7    1.84    0.46
  -6  -7   7    2.27    0.40
  -6   7   7    1.80    0.47
  -5  -7   7   14.10    0.69
  -5  -7   7   12.71    0.73
  -5   7   7   14.59    0.85
  -4  -7   7    3.68    0.42
  -4  -7   7    4.72    0.47
  -4   7   7    3.64    0.46
  -4   7   7    3.30    0.49
  -3  -7   7    0.04    0.24
  -3  -7   7   -0.07    0.22
  -3   7   7    0.16    0.34
  -3   7   7    0.07    0.30
  -2  -7   7    3.05    0.39
  -2   7   7    3.32    0.39
  -2   7   7    2.99    0.40
   1  -7  -7   23.37    1.01
   1  -7  -7   24.26    1.25
  -1  -7   7   25.70    0.97
   1   7  -7   26.93    1.23
   0  -7  -7    1.41    0.34
   0  -7   7    0.97    0.30
   0  -7  -7    1.30    0.50
   0   7  -7    1.36    0.44
  -1  -7  -7    4.87    0.68
   1  -7   7    4.75    0.49
  -1  -7  -7    4.50    0.46
  -1   7  -7    4.78    0.63
  -2  -7  -7   50.19    1.70
   2  -7   7   50.50    1.73
  -2  -7  -7   47.82    1.93
  -2   7  -7   50.32    1.56
  -2   7  -7   52.73    2.00
   3  -7   7    3.90    0.46
  -3  -7  -7    4.38    0.64
  -3  -7  -7    4.32    0.46
  -3   7  -7    2.93    0.61
  -3   7  -7    3.54    0.34
   4  -7   7    0.39    0.45
  -4  -7  -7    1.12    0.43
  -4  -7  -7    1.65    0.29
  -4   7  -7    1.30    0.29
  -4   7  -7    0.63    0.48
   5  -7   7    0.30    0.51
  -5  -7  -7   -0.31    0.26
  -5  -7  -7   -0.03    0.43
  -5   7  -7    0.11    0.35
  -5   7  -7    0.10    0.46
  -6  -7  -7    5.50    0.70
  -6   7  -7    4.95    0.73
  -6   7  -7    5.05    0.66
  -7  -7  -7    6.30    0.79
  -7   7  -7    6.69    0.70
  -7   7  -7    5.30    0.85
  -8  -7  -7    4.14    0.83
  -8   7  -7    3.11    0.84
  -8   7  -7    2.49    0.71
  -9  -7  -7    0.15    0.87
  -9   7  -7    0.07    0.88
  -9   7  -7   -0.50    0.96
 -10  -7  -7   -1.42    1.20
 -10   7  -7   -0.02    1.15
 -10   7  -7   -1.19    1.35
 -11  -8   7    1.75    1.41
 -11   8   7    3.80    1.48
 -10  -8   7    0.47    1.09
 -10   8   7   -0.80    1.03
  -9  -8   7    2.33    0.87
  -9  -8   7    1.31    0.76
  -9   8   7    1.26    0.90
  -9   8   7    2.41    0.93
  -8  -8   7    4.97    0.77
  -8  -8   7    4.30    0.62
  -8   8   7    3.54    0.80
  -8   8   7    3.84    0.77
  -7  -8   7    0.73    0.52
  -7  -8   7    0.92    0.43
  -7   8   7   -0.70    0.53
  -6  -8   7    1.82    0.42
  -6  -8   7    1.37    0.50
  -6   8   7    2.63    0.55
  -5  -8   7    2.50    0.38
  -5  -8   7    2.31    0.43
  -5   8   7    1.87    0.50
  -4  -8   7   15.12    0.76
  -4  -8   7   14.64    0.69
  -4   8   7   14.59    0.84
  -4   8   7   14.26    0.88
  -3  -8   7    4.19    0.43
  -3  -8   7    4.35    0.48
  -3   8   7    5.37    0.58
  -3   8   7    5.59    0.60
  -2  -8   7   27.96    1.08
   2  -8  -7   29.06    1.16
  -1  -8   7   21.04    0.90
   1  -8  -7   20.36    0.96
   1  -8  -7   22.79    1.22
   1   8  -7   24.44    1.21
   0  -8  -7    4.66    0.66
   0  -8   7    4.22    0.44
   0  -8  -7    4.24    0.52
   0   8  -7    5.36    0.76
  -1  -8  -7   -0.39    0.50
   1  -8   7    1.00    0.35
  -1  -8  -7    0.92    0.38
  -1   8  -7    0.62    0.46
   2  -8   7    5.10    0.62
  -2  -8  -7    5.72    0.78
  -2  -8  -7    5.54    0.61
  -2   8  -7    5.52    0.32
  -2   8  -7    4.85    0.69
   3  -8   7    8.01    0.82
  -3  -8  -7    9.21    0.83
  -3  -8  -7    9.31    0.68
  -3   8  -7    9.71    0.49
  -3   8  -7    8.33    1.02
   4  -8   7    6.76    0.75
  -4  -8  -7    6.56    0.68
  -4  -8  -7    7.86    0.62
  -4   8  -7    5.68    0.50
  -4   8  -7    6.15    0.89
  -5  -8  -7    4.10    0.63
  -5  -8  -7    4.90    0.57
   5  -8   7    4.38    0.77
  -5   8  -7    4.60    0.58
  -5   8  -7    3.49    0.67
  -6  -8  -7    0.42    0.53
  -6   8  -7    0.50    0.58
  -6   8  -7    0.25    0.43
  -7  -8  -7    0.91    0.67
  -7   8  -7    0.48    0.53
  -7   8  -7    0.81    0.68
  -8  -8  -7   -0.39    0.81
  -8   8  -7    1.46    0.75
  -8   8  -7   -0.58    0.86
  -9  -8  -7   -0.91    1.00
  -9   8  -7   -0.73    0.99
  -9   8  -7   -1.66    1.08
 -10  -8  -7    0.71    1.35
 -10   8  -7    1.08    1.25
 -10   8  -7    0.08    1.54
 -10  -9   7    2.19    1.12
 -10   9   7    0.39    1.15
  -9  -9   7    0.02    0.87
  -9  -9   7    1.10    0.75
  -9   9   7   -1.26    0.93
  -9   9   7   -0.57    0.83
  -8  -9   7    0.57    0.63
  -8  -9   7    0.05    0.71
  -8   9   7    1.55    0.78
  -7  -9   7    1.71    0.59
  -7  -9   7    0.37    0.50
  -7   9   7    1.60    0.66
  -6  -9   7    1.34    0.58
  -6  -9   7    1.45    0.43
  -6   9   7    0.70    0.50
  -5  -9   7   26.08    1.14
  -5  -9   7   25.21    1.07
  -5   9   7   26.79    1.28
  -5   9   7   26.03    1.31
  -4  -9   7   13.33    0.78
  -4  -9   7   13.35    0.71
  -4   9   7   11.77    0.90
  -4   9   7   14.06    0.88
  -3  -9   7   -0.17    0.28
  -3  -9   7    0.01    0.33
  -3   9   7   -0.34    0.38
  -3   9   7   -0.02    0.37
  -2  -9   7    2.02    0.35
   2  -9  -7    2.25    0.44
   1  -9  -7   64.05    2.43
   1  -9  -7   64.28    2.21
  -1  -9   7   62.09    2.14
   1   9  -7   66.09    2.39
   0  -9   7   37.72    1.44
   0  -9  -7   41.71    1.73
   0  -9  -7   39.90    1.49
   0   9  -7   37.59    1.66
  -1  -9  -7    0.57    0.36
  -1  -9  -7    0.38    0.61
   1  -9   7   -0.29    0.33
  -1   9  -7    0.24    0.47
  -2  -9  -7   18.30    1.26
   2  -9   7   19.60    0.93
  -2  -9  -7   18.94    0.92
  -2   9  -7   17.20    0.66
  -2   9  -7   18.91    1.31
   3  -9   7   12.67    0.86
  -3  -9  -7   11.91    1.01
  -3  -9  -7   13.48    0.76
  -3   9  -7   14.23    1.16
  -3   9  -7   13.48    0.60
  -4  -9  -7   12.18    0.99
   4  -9   7   12.42    0.98
  -4  -9  -7   12.11    0.73
  -4   9  -7   12.35    1.04
  -4   9  -7   10.97    0.63
  -5  -9  -7    0.88    0.44
  -5  -9  -7   -0.19    0.55
   5  -9   7   -0.38    0.70
  -5   9  -7    0.27    0.39
  -5   9  -7    0.43    0.57
   6  -9   7    2.15    0.82
  -6  -9  -7    3.20    0.74
  -6   9  -7    2.84    0.67
  -6   9  -7    1.40    0.53
  -7  -9  -7    1.70    0.79
  -7   9  -7    0.59    0.76
  -7   9  -7    1.11    0.61
  -8  -9  -7    2.46    0.93
  -8   9  -7    1.96    0.82
  -8   9  -7    0.50    0.89
  -9  -9  -7    0.85    1.18
  -9   9  -7    0.84    1.16
  -9   9  -7    2.36    1.16
 -10  -9  -7    0.17    1.40
 -10   9  -7    2.07    1.66
 -10  10   7    0.56    1.26
  -9 -10   7    0.62    0.88
  -9 -10   7    0.17    0.91
  -9  10   7    1.34    0.90
  -9  10   7   -0.01    1.09
  -8 -10   7   10.41    1.01
  -8 -10   7    9.32    0.94
  -8  10   7    8.92    1.11
  -7 -10   7    1.10    0.66
  -7 -10   7    2.83    0.62
  -7  10   7    3.69    0.81
  -6 -10   7    1.80    0.48
  -6 -10   7    2.00    0.66
  -6  10   7    2.03    0.61
  -5 -10   7    2.03    0.47
  -5 -10   7    2.54    0.48
  -5  10   7    2.16    0.55
  -5  10   7    2.36    0.59
  -4 -10   7    8.32    0.71
  -4 -10   7    9.81    0.67
  -4  10   7    6.44    0.82
  -4  10   7    6.49    0.78
  -3 -10   7    4.33    0.46
   3 -10  -7    4.24    0.58
  -3 -10   7    4.10    0.48
  -3  10   7    4.12    0.55
  -3  10   7    4.14    0.56
   2 -10  -7   14.14    0.86
  -2 -10   7   12.43    0.76
  -1 -10   7    4.39    0.49
   1 -10  -7    6.19    0.79
   1 -10  -7    4.82    0.54
   1  10  -7    5.75    0.76
   0 -10  -7    5.98    0.82
   0 -10   7    5.36    0.62
   0 -10  -7    6.79    0.69
   0  10  -7    7.67    0.94
  -1 -10  -7    1.24    0.39
   1 -10   7    1.72    0.43
  -1 -10  -7    0.83    0.61
  -1  10  -7    1.17    0.64
  -2 -10  -7   33.01    1.63
   2 -10   7   33.07    1.38
  -2 -10  -7   32.48    1.34
  -2  10  -7   35.18    1.74
  -3 -10  -7    7.18    0.85
  -3 -10  -7    5.66    0.63
   3 -10   7    6.64    0.80
  -3  10  -7    6.30    0.49
  -3  10  -7    7.77    1.08
  -4 -10  -7   10.90    0.73
  -4 -10  -7   10.61    1.04
   4 -10   7   13.10    1.08
  -4  10  -7   10.77    0.65
  -4  10  -7    9.15    1.08
  -5 -10  -7    0.45    0.66
  -5 -10  -7    0.05    0.46
   5 -10   7    0.90    0.81
  -5  10  -7    0.36    0.47
  -5  10  -7   -0.62    0.58
  -6 -10  -7   22.54    1.52
   6 -10   7   25.20    1.68
  -6  10  -7   26.66    1.58
  -6  10  -7   24.91    1.27
  -7 -10  -7    4.32    0.90
  -7  10  -7    3.66    0.77
  -7  10  -7    3.51    0.88
  -8 -10  -7    2.55    1.03
  -8  10  -7    2.82    1.07
  -9 -10  -7   -0.51    1.30
  -9  10  -7   -1.11    1.32
 -10  11   7   -1.33    1.30
  -9 -11   7    1.45    1.16
  -9  11   7    0.54    1.20
  -9  11   7    1.05    1.01
  -8 -11   7    1.63    0.78
  -8  11   7   -0.31    0.96
  -7 -11   7    1.10    0.64
  -7  11   7    0.23    0.72
  -6 -11   7    2.55    0.88
  -6 -11   7    2.34    0.58
  -6  11   7    2.18    0.66
  -5 -11   7    3.55    0.75
  -5 -11   7    2.78    0.54
  -5  11   7    3.77    0.65
  -5  11   7    3.31    0.67
  -4 -11   7   11.30    0.81
  -4  11   7   10.70    0.98
  -4  11   7    9.79    0.93
  -3 -11   7    1.36    0.46
   3 -11  -7    1.10    0.53
  -2 -11   7   27.64    1.28
   2 -11  -7   32.76    1.37
   1 -11  -7    0.97    0.44
   1 -11  -7    1.60    0.64
  -1 -11   7    1.38    0.41
   1  11  -7    0.39    0.70
   0 -11  -7   19.00    1.23
   0 -11   7   16.88    0.94
   0 -11  -7   17.40    0.99
   0  11  -7   16.78    1.34
  -1 -11  -7    5.18    0.65
  -1 -11  -7    5.52    0.78
   1 -11   7    5.31    0.66
  -1  11  -7    5.98    0.85
  -2 -11  -7   33.14    1.63
   2 -11   7   31.99    1.41
  -2 -11  -7   32.13    1.35
  -2  11  -7   31.55    1.63
  -3 -11  -7   15.64    1.30
  -3 -11  -7   15.85    0.91
   3 -11   7   18.04    1.14
  -3  11  -7   16.89    1.32
  -4 -11  -7    1.16    0.44
   4 -11   7    1.23    0.76
  -4 -11  -7    1.30    0.72
  -4  11  -7    1.04    0.65
  -5 -11  -7    5.60    0.67
   5 -11   7    8.14    1.05
  -5 -11  -7    8.41    1.04
  -5  11  -7    7.87    0.92
  -6 -11  -7    1.00    0.82
   6 -11   7   -0.07    1.05
  -6  11  -7    0.13    0.71
  -7 -11  -7    1.70    1.06
  -7  11  -7    1.25    1.02
  -8 -11  -7    2.69    1.25
  -8  11  -7   -0.29    1.18
  -9 -11  -7    2.87    1.49
  -9  11  -7    3.54    1.62
  -9  12   7   -1.67    1.27
  -9  12   7    1.21    1.13
  -8 -12   7    1.59    0.89
  -8  12   7    1.50    1.13
  -7 -12   7    0.81    0.71
  -7  12   7    0.79    0.90
  -6 -12   7    7.64    0.96
  -6  12   7    6.64    0.86
  -5 -12   7    1.34    0.54
  -5  12   7    1.49    0.71
  -5  12   7    1.19    0.68
  -4 -12   7    1.29    0.53
  -4  12   7    1.27    0.58
  -4  12   7    1.69    0.63
  -3 -12   7    4.16    0.60
   3 -12  -7    3.78    0.69
   2 -12  -7   12.41    0.99
  -2 -12   7    9.64    0.86
   1 -12  -7   36.61    1.68
  -1 -12   7   33.97    1.48
   1 -12  -7   35.11    1.55
   1  12  -7   36.86    1.66
   0 -12  -7    4.99    0.62
   0 -12  -7    5.30    0.81
   0 -12   7    3.56    0.56
   0  12  -7    3.94    0.69
   1 -12   7    1.44    0.52
  -1 -12  -7    2.33    0.48
  -1 -12  -7    1.06    0.63
  -1  12  -7    1.20    0.57
  -2 -12  -7    6.86    0.77
  -2 -12  -7    8.99    0.98
   2 -12   7    8.53    0.91
  -2  12  -7    5.32    0.76
  -3 -12  -7    9.05    1.19
  -3 -12  -7    8.68    0.81
   3 -12   7   11.21    1.06
  -3  12  -7    9.33    1.10
  -4 -12  -7   -0.42    0.83
   4 -12   7    0.78    0.81
  -4 -12  -7    1.22    0.51
  -4  12  -7    0.25    0.66
  -5 -12  -7   -0.73    0.59
   5 -12   7    1.67    1.02
  -5 -12  -7   -1.21    0.84
  -5  12  -7    0.32    0.76
   6 -12   7    9.09    1.41
  -6 -12  -7   13.28    1.40
  -6  12  -7   10.17    1.22
  -7 -12  -7   -1.19    1.07
  -7  12  -7   -1.10    1.06
  -8 -12  -7    0.30    1.33
  -8  12  -7    1.48    1.34
  -9 -12  -7   -1.04    1.60
  -9  12  -7    0.62    1.68
  -9  13   7    2.97    1.58
  -9  13   7    1.78    1.26
  -8 -13   7    1.11    0.93
  -8  13   7   -2.40    1.12
  -7 -13   7    1.89    0.84
  -7  13   7    1.23    0.99
  -6 -13   7    1.85    0.68
  -6  13   7   -0.30    0.78
  -5 -13   7   14.17    1.13
  -5  13   7   15.68    1.27
  -5  13   7   15.30    1.36
  -4 -13   7    1.20    0.64
  -4  13   7    1.08    0.74
  -4  13   7   -0.87    0.63
   3 -13  -7   -0.47    0.63
  -3 -13   7    0.18    0.48
  -2 -13   7    9.05    0.91
   2 -13  -7    9.56    1.01
  -1 -13   7    6.74    0.75
   1 -13  -7    8.06    0.93
   0 -13   7    5.77    0.68
   0 -13  -7    5.22    0.70
   0 -13  -7    7.35    0.89
   0  13  -7    4.97    0.68
  -1 -13  -7    0.18    0.63
   1 -13   7   -0.05    0.51
  -1 -13  -7    0.90    0.51
  -1  13  -7    1.46    0.57
  -2 -13  -7   11.75    1.26
  -2 -13  -7   12.97    0.92
   2 -13   7   11.11    1.09
  -2  13  -7    9.25    1.14
   3 -13   7    0.89    0.73
  -3 -13  -7    1.12    0.51
  -3 -13  -7    0.89    0.85
  -3  13  -7    1.18    0.72
  -4 -13  -7   10.57    1.00
   4 -13   7    8.96    1.13
  -4 -13  -7    9.47    1.19
  -4  13  -7    7.91    0.96
  -5 -13  -7    2.09    1.11
  -5 -13  -7    0.39    0.75
   5 -13   7    1.63    1.18
  -5  13  -7    1.54    0.91
  -6 -13  -7    1.48    1.27
   6 -13   7   -1.26    1.51
  -6  13  -7   -1.11    1.04
  -7 -13  -7    1.46    1.44
  -7  13  -7    0.67    1.33
  -8 -13  -7    2.36    1.71
  -8  13  -7    2.19    1.60
  -8 -14   7    0.31    1.02
  -8  14   7   -1.36    1.33
  -7 -14   7    1.23    0.93
  -7  14   7    0.70    1.07
  -6 -14   7    0.64    0.78
  -6  14   7   -0.89    0.96
  -6  14   7   -0.61    0.90
  -5 -14   7    4.71    0.79
  -5  14   7    6.62    0.97
  -5  14   7    5.75    1.04
  -4 -14   7    0.98    0.62
  -4  14   7    1.56    0.76
  -4  14   7    0.84    0.69
   3 -14  -7    0.57    0.74
  -3 -14   7    1.10    0.69
  -2 -14   7    1.05    0.68
   2 -14  -7    1.50    0.75
   1 -14  -7    8.94    1.12
  -1 -14   7   10.37    1.11
   0 -14  -7    0.77    0.79
   0 -14   7    1.14    0.62
   0 -14  -7    1.46    0.61
   0  14  -7    1.11    0.59
  -1 -14  -7    1.17    0.57
  -1 -14  -7    1.04    0.78
   1 -14   7   -0.01    0.65
  -1  14  -7    1.04    0.61
  -2 -14  -7   10.91    1.14
   2 -14   7   10.03    1.23
  -2 -14  -7    8.82    0.86
  -2  14  -7    8.44    0.94
   3 -14   7    2.10    0.94
  -3 -14  -7    0.91    0.97
  -3 -14  -7    2.46    0.67
  -3  14  -7    2.01    0.82
  -4 -14  -7    5.02    0.82
  -4 -14  -7    6.87    1.27
   4 -14   7    4.19    1.23
  -4  14  -7    3.70    1.02
   5 -14   7    1.85    1.40
  -5 -14  -7    3.54    1.41
  -5  14  -7    0.19    1.07
  -6 -14  -7    5.07    1.63
  -6  14  -7    9.77    1.58
  -7 -14  -7    0.25    1.72
  -7  14  -7    2.02    1.55
  -8 -14  -7    2.28    1.96
  -7 -15   7    2.01    1.11
  -7  15   7    2.70    1.28
  -6 -15   7    0.29    0.93
  -6  15   7   -0.11    1.04
  -6  15   7   -0.26    1.10
  -5 -15   7   -0.02    0.82
  -5  15   7    0.03    0.96
  -5  15   7   -0.34    0.87
  -4 -15   7    2.09    0.85
  -4  15   7    1.13    0.85
  -4  15   7    2.69    0.93
  -3 -15   7    2.28    0.78
   3 -15  -7    0.99    0.87
  -2 -15   7    6.21    0.86
   2 -15  -7    6.21    0.94
   1 -15  -7    2.32    0.77
  -1 -15   7    1.50    0.74
   0 -15  -7    7.58    0.87
   0 -15   7    7.06    0.91
   0 -15  -7    7.34    1.09
   0  15  -7    6.72    0.90
  -1 -15  -7    7.66    0.89
   1 -15   7    8.43    0.95
  -1 -15  -7    8.49    1.16
  -1  15  -7    7.49    0.94
  -2 -15  -7    6.13    1.11
   2 -15   7    4.64    0.92
  -2 -15  -7    5.29    0.82
  -2  15  -7    5.79    0.94
  -3 -15  -7    8.34    1.28
   3 -15   7    6.89    1.16
  -3 -15  -7    6.66    0.91
  -3  15  -7    5.39    1.03
  -4 -15  -7    2.82    1.35
   4 -15   7    2.03    1.28
  -4  15  -7    3.88    1.10
   5 -15   7    3.03    1.52
  -5 -15  -7    5.38    1.60
  -5  15  -7    8.12    1.42
  -6 -15  -7    0.32    1.68
  -6  15  -7   -0.02    1.58
  -7 -15  -7    2.36    1.95
  -6 -16   7    1.96    1.16
  -6  16   7    0.96    1.34
  -6  16   7   -1.32    1.21
  -5 -16   7    0.50    0.97
  -5  16   7   -0.67    1.04
  -5  16   7   -0.59    1.16
  -4 -16   7    1.75    0.90
  -4  16   7    0.44    0.95
  -4  16   7    2.56    1.07
   3 -16  -7    3.76    1.07
  -3 -16   7    2.87    0.90
  -2 -16   7    0.44    0.82
   2 -16  -7    0.59    0.92
  -1 -16   7   11.30    1.39
   1 -16  -7    8.60    1.10
   0 -16   7    8.84    1.11
   0 -16  -7    8.97    1.02
  -1 -16  -7   -0.94    1.05
  -1 -16  -7    0.25    0.81
   1 -16   7   -0.97    0.86
   2 -16   7    6.48    1.13
  -2 -16  -7    6.08    0.99
  -2 -16  -7    5.42    1.28
  -3 -16  -7    6.46    1.37
   3 -16   7    4.56    1.22
  -3 -16  -7    3.67    0.91
  -4 -16  -7    1.96    0.94
   4 -16   7    4.77    1.52
  -4 -16  -7    4.12    1.56
  -5 -16  -7    1.92    1.67
   5 -16   7   -0.16    1.59
  -6 -16  -7    8.21    2.10
  -5 -17   7    1.35    1.24
  -5  17   7    1.11    1.41
  -5  17   7    0.12    1.23
  -4 -17   7    1.67    1.06
  -4  17   7    3.58    1.32
  -4  17   7    0.59    1.15
   3 -17  -7    0.97    1.20
  -3 -17   7    1.20    1.01
   2 -17  -7    1.09    1.10
  -2 -17   7   -0.27    1.00
   1 -17  -7    0.92    1.00
  -1 -17   7    0.49    1.02
   0 -17  -7    1.28    1.03
   0 -17   7    1.25    1.01
  -1 -17  -7    2.01    0.99
   1 -17   7    4.84    1.15
  -1 -17  -7    5.66    1.35
  -2 -17  -7    0.63    0.95
   2 -17   7    2.86    1.18
  -2 -17  -7   -0.74    1.40
  -3 -17  -7    4.54    1.51
  -3 -17  -7    4.66    1.04
   3 -17   7    7.20    1.51
  -4 -17  -7    3.04    1.13
   4 -17   7    3.46    1.57
  -4 -17  -7    2.22    1.56
  -5 -17  -7    2.85    1.84
   5 -17   7    4.25    1.72
  -3 -18   7    2.00    1.31
  -3  18   7    1.74    1.38
  -3  18   7    3.16    1.46
   2 -18  -7   -0.32    1.32
  -2 -18   7    1.11    1.29
  -1 -18   7    6.88    1.32
   1 -18  -7    4.70    1.30
   0 -18  -7    5.98    1.27
   0 -18   7    5.12    1.30
  -1 -18  -7    1.53    1.09
   1 -18   7    2.83    1.32
   2 -18   7   -0.52    1.35
  -2 -18  -7   -0.08    1.40
  -2 -18  -7   -0.12    1.08
  -3 -18  -7    1.92    1.65
  -3 -18  -7    0.01    1.11
   3 -18   7    1.17    1.68
   4 -18   7    0.12    2.77
  -4 -18  -7    0.44    1.67
 -12   0   8    6.36    1.45
 -11   0   8    1.30    1.00
 -10   0   8   11.49    1.31
 -10   0   8    9.12    1.11
  -9   0   8   -0.12    0.44
  -9   0   8    0.05    0.51
  -8   0   8    9.86    0.86
  -8   0   8   10.39    0.72
  -7   0   8    0.47    0.39
  -7   0   8    0.86    0.35
  -6   0   8    2.85    0.38
  -6   0   8    3.20    0.46
  -5   0   8    6.38    0.50
  -4   0   8   18.29    0.74
  -3   0   8   57.19    1.82
  -2   0   8    2.21    0.24
   1   0  -8    3.15    0.41
  -1   0   8    3.49    0.26
   1   0  -8    3.19    0.40
   0   0  -8   10.46    0.66
   0   0  -8   10.85    0.70
   0   0   8   10.96    0.42
  -1   0  -8  510.49   15.18
   1   0   8  502.77   15.05
  -1   0  -8  507.95   15.27
  -1   0  -8  518.88   15.05
  -2   0  -8   63.39    2.04
   2   0   8   61.74    1.90
  -2   0  -8   64.77    2.14
  -3   0  -8   16.71    0.72
  -4   0  -8   26.24    1.03
  -5   0  -8  152.90    4.77
  -6   0  -8   34.87    1.42
  -7   0  -8    1.33    0.51
  -9   0  -8    1.24    0.79
 -10   0  -8    8.46    1.21
 -11   0  -8    1.82    1.42
 -12  -1   8    1.41    1.32
 -12   1   8    1.52    1.39
 -11  -1   8    1.07    0.95
 -11   1   8    1.45    1.02
 -10  -1   8   -0.01    0.77
 -10  -1   8    0.96    0.69
 -10   1   8   -0.15    0.66
 -10   1   8    0.33    0.79
  -9  -1   8    4.16    0.55
  -9  -1   8    2.56    0.63
  -9   1   8    2.96    0.65
  -9   1   8    3.05    0.53
  -8  -1   8    3.07    0.44
  -8  -1   8    2.98    0.53
  -8   1   8    3.12    0.45
  -8   1   8    2.34    0.54
  -7  -1   8    0.28    0.34
  -7  -1   8    0.96    0.35
  -7   1   8    0.34    0.37
  -7   1   8    0.70    0.34
  -6  -1   8    2.76    0.44
  -6  -1   8    2.40    0.36
  -6   1   8    1.18    0.35
  -6   1   8    2.02    0.38
  -5  -1   8    0.47    0.26
  -5  -1   8    0.01    0.24
  -5   1   8    0.56    0.29
  -4  -1   8   76.08    2.40
  -4   1   8   75.63    2.40
  -3  -1   8    0.48    0.19
  -3   1   8    0.55    0.20
  -2  -1   8  198.72    5.93
  -2   1   8  197.30    5.94
  -1  -1   8    3.04    0.26
   1  -1  -8    3.01    0.38
   1  -1  -8    2.78    0.40
  -1   1   8    3.22    0.27
   1   1  -8    3.29    0.40
   0  -1   8   99.91    2.95
   0  -1  -8   97.70    3.12
   0  -1  -8   93.35    3.15
   0   1  -8   96.28    3.08
   0   1   8  101.69    2.96
   0   1  -8   96.74    3.21
  -1  -1  -8   42.17    1.55
   1  -1   8   43.73    1.36
  -1  -1  -8   42.67    1.54
  -1  -1  -8   45.48    1.37
  -1  -1  -8   44.16    1.38
  -1   1  -8   46.13    1.47
   1   1   8   44.04    1.36
  -1   1  -8   43.76    1.63
  -1   1  -8   42.17    1.36
  -2  -1  -8  271.41    8.17
  -2  -1  -8  272.30    8.21
   2  -1   8  266.60    8.02
   2   1   8  269.06    8.02
  -2   1  -8  272.33    8.26
  -2   1  -8  268.71    8.12
  -2   1  -8  278.58    8.02
   2   1   8  271.23    8.03
  -3  -1  -8    1.40    0.31
  -3   1  -8    1.18    0.26
  -3   1  -8    0.71    0.31
  -5  -1  -8  155.58    4.94
  -5   1  -8  161.59    4.93
  -6  -1  -8   15.33    0.88
  -6   1  -8   15.25    0.90
  -7  -1  -8    2.90    0.56
  -7   1  -8    2.65    0.59
  -8  -1  -8    2.44    0.68
  -8   1  -8    2.03    0.64
  -9  -1  -8   32.21    1.77
  -9   1  -8   30.01    1.70
 -10  -1  -8   -0.65    1.00
 -10   1  -8    1.33    0.96
 -11  -1  -8   -0.09    1.34
 -11   1  -8   -1.38    1.35
 -12  -2   8    4.63    1.40
 -12   2   8    4.84    1.51
 -11  -2   8    0.46    1.01
 -11   2   8    0.29    1.02
 -10  -2   8    6.71    0.83
 -10  -2   8    5.52    0.96
 -10   2   8    4.36    0.83
 -10   2   8    5.63    0.92
  -9  -2   8    0.74    0.47
  -9  -2   8    0.82    0.56
  -9   2   8    0.12    0.48
  -9   2   8    0.33    0.62
  -8  -2   8   11.85    0.88
  -8  -2   8   11.69    0.75
  -8   2   8   12.71    0.78
  -8   2   8   11.85    0.95
  -7  -2   8   -0.22    0.33
  -7  -2   8    0.03    0.32
  -7   2   8    0.46    0.39
  -7   2   8    0.95    0.37
  -6  -2   8    8.69    0.66
  -6  -2   8    9.44    0.61
  -6   2   8    8.95    0.65
  -5  -2   8    8.42    0.51
  -5  -2   8    7.77    0.51
  -5   2   8    7.57    0.55
  -4  -2   8   13.44    0.58
  -4  -2   8   13.02    0.62
  -4   2   8   12.32    0.65
  -3  -2   8    7.82    0.42
  -3   2   8    7.07    0.43
  -2  -2   8    0.94    0.20
  -2   2   8    1.09    0.21
  -1  -2   8    7.33    0.37
   1  -2  -8    6.42    0.60
   1  -2  -8    6.94    0.42
   1   2  -8    7.48    0.63
  -1   2   8    7.23    0.37
   0  -2   8    1.46    0.18
   0  -2  -8    1.33    0.28
   0  -2  -8    2.22    0.44
   0   2  -8    1.31    0.38
   0   2  -8    1.11    0.27
   0   2   8    1.55    0.19
  -1  -2  -8   41.33    1.54
  -1  -2  -8   41.95    1.49
   1  -2   8   44.08    1.35
  -1   2  -8   42.25    1.40
   1   2   8   43.24    1.34
  -1   2  -8   43.35    1.64
   2  -2   8   71.28    2.13
  -2  -2  -8   72.09    2.28
  -2  -2  -8   69.07    2.28
  -2   2  -8   67.93    2.36
   2   2   8   70.89    2.11
  -2   2  -8   68.17    2.18
  -2   2  -8   68.30    2.10
   2   2   8   69.54    2.13
  -3  -2  -8   -0.36    0.25
  -3   2  -8    0.21    0.31
  -4  -2  -8    5.19    0.55
  -4   2  -8    5.93    0.48
  -5  -2  -8   12.06    0.77
  -5   2  -8   13.45    0.76
  -6  -2  -8   35.07    1.43
  -6   2  -8   35.35    1.41
  -7  -2  -8    0.20    0.48
  -7   2  -8   -0.16    0.46
  -8  -2  -8    2.55    0.63
  -8   2  -8    0.93    0.58
  -9  -2  -8    0.87    0.84
  -9   2  -8    0.56    0.76
 -10  -2  -8    7.52    1.17
 -10   2  -8    8.47    1.16
 -11  -2  -8   -1.03    1.28
 -11   2  -8    0.73    1.39
 -11  -3   8    0.82    1.01
 -11   3   8    1.30    1.11
 -10  -3   8    1.96    0.88
 -10  -3   8    4.29    0.85
 -10   3   8    2.41    0.81
 -10   3   8    4.47    0.93
  -9  -3   8    1.62    0.50
  -9  -3   8    1.77    0.62
  -9   3   8    0.95    0.65
  -9   3   8    2.05    0.59
  -8  -3   8    0.77    0.45
  -8  -3   8    1.09    0.39
  -8   3   8    0.56    0.51
  -8   3   8    2.57    0.46
  -7  -3   8    1.05    0.40
  -7  -3   8    1.10    0.33
  -7   3   8    0.79    0.40
  -7   3   8    0.50    0.36
  -6  -3   8   92.25    2.98
  -6  -3   8   92.82    2.96
  -6   3   8   93.81    3.00
  -5  -3   8    0.35    0.27
  -5  -3   8    0.16    0.24
  -5   3   8    0.23    0.30
  -4  -3   8   15.11    0.63
  -4  -3   8   15.26    0.67
  -4   3   8   15.08    0.72
  -3  -3   8   10.11    0.44
  -3  -3   8    9.54    0.49
  -3   3   8   10.36    0.53
  -2  -3   8  163.50    4.94
  -2   3   8  163.89    4.96
   1  -3  -8   -0.07    0.38
  -1  -3   8    0.23    0.16
  -1   3   8    0.01    0.17
   1   3  -8   -0.31    0.32
   0  -3  -8   25.02    0.96
   0  -3  -8   27.53    1.20
   0  -3   8   28.63    0.91
   0   3   8   27.00    0.91
   0   3  -8   25.26    0.88
   0   3  -8   27.45    1.21
  -1  -3  -8    5.66    0.59
  -1  -3  -8    6.99    0.48
   1  -3   8    6.44    0.34
  -1   3  -8    6.46    0.37
   1   3   8    6.46    0.34
  -1   3  -8    5.94    0.66
  -2  -3  -8   69.37    2.16
  -2  -3  -8   72.82    2.11
   2  -3   8   66.92    1.98
  -2   3  -8   61.61    1.99
   2   3   8   62.94    1.96
  -2   3  -8   55.69    2.20
   2   3   8   57.76    1.98
   3  -3   8    1.43    0.24
  -3  -3  -8    1.05    0.32
  -3   3  -8    0.71    0.12
  -3   3  -8    0.85    0.32
   3   3   8    0.61    0.15
  -3   3  -8    0.96    0.24
  -4  -3  -8   11.22    0.73
  -4   3  -8   11.08    0.60
  -4   3  -8   11.30    0.81
  -5  -3  -8    1.96    0.42
  -5   3  -8    1.49    0.39
  -6  -3  -8    0.55    0.40
  -6   3  -8    0.28    0.41
  -7  -3  -8    1.32    0.54
  -7   3  -8    1.78    0.50
  -8  -3  -8    0.02    0.59
  -8   3  -8    0.09    0.59
  -9  -3  -8    2.40    0.92
  -9   3  -8    1.02    0.74
 -10  -3  -8    0.65    1.03
 -10   3  -8    4.25    1.10
 -11  -3  -8   -0.26    1.39
 -11   3  -8   -0.63    1.42
 -11  -4   8    0.67    1.11
 -11   4   8   -0.89    1.10
 -10  -4   8   48.52    2.26
 -10   4   8   50.75    2.26
 -10   4   8   49.75    2.18
  -9  -4   8    1.98    0.66
  -9  -4   8    2.33    0.58
  -9   4   8    1.27    0.70
  -9   4   8    0.96    0.59
  -8  -4   8   13.21    0.94
  -8  -4   8   13.36    0.80
  -8   4   8   12.48    0.90
  -8   4   8   11.86    1.04
  -7  -4   8    1.25    0.35
  -7  -4   8    0.48    0.40
  -7   4   8    2.11    0.42
  -6  -4   8   54.77    1.88
  -6  -4   8   56.74    1.91
  -6   4   8   55.54    1.95
  -5  -4   8    0.42    0.27
  -5  -4   8    1.08    0.29
  -5   4   8    1.38    0.35
  -4  -4   8    6.05    0.40
  -4  -4   8    6.16    0.45
  -4   4   8    6.02    0.51
  -3  -4   8    0.37    0.16
  -3  -4   8    0.19    0.21
  -3   4   8    0.12    0.25
  -2  -4   8    2.32    0.26
  -2  -4   8    2.64    0.21
   2   4  -8    2.82    0.42
  -2   4   8    2.42    0.29
   1  -4  -8    0.89    0.41
  -1  -4   8    0.94    0.20
  -1   4   8    1.06    0.22
  -1   4   8    0.71    0.22
   1   4  -8    1.14    0.40
   0  -4  -8    5.54    0.66
   0  -4   8    5.89    0.35
   0  -4  -8    5.12    0.35
   0   4   8    5.72    0.39
   0   4   8    5.70    0.37
   0   4  -8    5.13    0.63
   1  -4   8   69.66    2.20
  -1  -4  -8   71.58    2.44
  -1  -4  -8   63.34    2.24
  -1   4  -8   71.00    2.16
  -1   4  -8   72.46    2.53
   1   4   8   72.84    2.20
   1   4   8   73.05    2.22
  -2  -4  -8   26.26    0.99
  -2  -4  -8   25.37    1.11
   2  -4   8   25.94    0.92
  -2   4  -8   25.08    1.19
  -2   4  -8   26.17    0.89
   2   4   8   27.26    0.92
   2   4   8   27.10    0.90
   3  -4   8    7.52    0.48
  -3  -4  -8    7.24    0.61
  -3   4  -8    7.01    0.69
  -3   4  -8    6.72    0.43
   3   4   8    6.76    0.43
  -4  -4  -8    2.11    0.43
   4  -4   8    1.47    0.31
  -4   4  -8    1.19    0.29
  -4   4  -8    0.57    0.46
  -5  -4  -8   25.85    1.16
  -5   4  -8   26.42    1.07
  -5   4  -8   25.70    1.26
  -6  -4  -8   31.69    1.35
  -6   4  -8   30.35    1.30
  -7  -4  -8    1.72    0.56
  -7   4  -8    1.12    0.46
  -8  -4  -8    3.53    0.79
  -8   4  -8    5.00    0.71
  -9  -4  -8    1.46    0.86
  -9   4  -8   -1.32    0.77
 -10  -4  -8    9.81    1.35
 -10   4  -8   12.04    1.38
 -11  -4  -8    2.81    1.51
 -11   4  -8   -1.34    1.39
 -11  -5   8    0.59    1.16
 -11   5   8    1.87    1.24
 -10  -5   8    2.71    1.01
 -10   5   8    1.29    0.94
 -10   5   8    2.19    0.97
  -9  -5   8    0.55    0.71
  -9  -5   8    0.80    0.58
  -9   5   8    1.39    0.67
  -9   5   8    0.96    0.74
  -8  -5   8    0.89    0.43
  -8  -5   8    1.83    0.56
  -8   5   8    1.02    0.60
  -8   5   8    0.58    0.50
  -7  -5   8    2.78    0.48
  -7  -5   8    1.69    0.40
  -7   5   8    2.84    0.47
  -6  -5   8   53.53    1.84
  -6  -5   8   54.70    1.87
  -6   5   8   53.03    1.92
  -5  -5   8    7.12    0.51
  -5  -5   8    7.28    0.54
  -5   5   8    7.29    0.62
  -4  -5   8    3.72    0.37
  -4  -5   8    3.58    0.40
  -4   5   8    4.04    0.50
  -3  -5   8    1.22    0.25
  -3  -5   8    0.87    0.20
  -3   5   8    1.08    0.27
  -2  -5   8   27.54    0.84
  -2  -5   8   25.89    0.97
  -2   5   8   26.46    1.05
  -2   5   8   25.44    1.01
   2   5  -8   26.41    1.20
   1  -5  -8    0.71    0.43
  -1  -5   8    0.99    0.23
  -1   5   8    0.49    0.26
  -1   5   8    0.78    0.25
   1   5  -8    0.00    0.38
   0  -5   8    0.35    0.20
   0  -5  -8    0.36    0.41
   0   5   8    0.16    0.22
   0   5   8    0.57    0.22
   0   5  -8    0.54    0.40
  -1  -5  -8    0.69    0.25
   1  -5   8    0.51    0.21
  -1  -5  -8    0.46    0.21
  -1  -5  -8    0.34    0.40
  -1   5  -8    0.62    0.41
  -2  -5  -8    3.06    0.47
  -2  -5  -8    2.84    0.32
   2  -5   8    2.60    0.31
  -2  -5  -8    3.19    0.33
  -2   5  -8    2.18    0.26
  -2   5  -8    2.35    0.46
   3  -5   8    0.23    0.29
  -3  -5  -8    0.48    0.38
  -3  -5  -8    0.40    0.19
  -3   5  -8    0.07    0.38
  -3   5  -8    1.10    0.23
   4  -5   8   17.55    0.80
  -4  -5  -8   14.94    0.89
  -4  -5  -8   15.61    0.61
  -4   5  -8   15.72    1.00
  -4   5  -8   16.03    0.73
  -5  -5  -8    9.51    0.74
   5  -5   8   11.35    0.61
  -5   5  -8   10.43    0.70
  -5   5  -8   10.39    0.87
  -6  -5  -8    0.67    0.46
  -6   5  -8    0.82    0.43
  -6   5  -8    1.87    0.53
  -7  -5  -8   -0.11    0.50
  -7   5  -8    0.08    0.59
  -7   5  -8    0.16    0.46
  -8  -5  -8    3.09    0.75
  -8   5  -8    3.34    0.69
  -9  -5  -8   -0.03    0.82
  -9   5  -8   -0.26    0.78
 -10  -5  -8    1.98    1.18
 -10   5  -8    3.24    1.21
 -10   5  -8    2.84    1.38
 -11  -5  -8    0.11    1.57
 -11   5  -8    2.09    1.47
 -11  -6   8    0.58    1.20
 -11   6   8   -0.04    1.25
 -10  -6   8   12.02    1.24
 -10   6   8    9.82    1.18
 -10   6   8   11.51    1.49
  -9  -6   8    1.13    0.72
  -9  -6   8   -0.71    0.59
  -9   6   8    0.20    0.74
  -9   6   8    0.50    0.81
  -8  -6   8   21.16    1.20
  -8  -6   8   19.09    1.04
  -8   6   8   19.09    1.27
  -8   6   8   19.98    1.17
  -7  -6   8    3.91    0.49
  -7  -6   8    4.70    0.57
  -7   6   8    4.15    0.58
  -6  -6   8   12.44    0.73
  -6  -6   8   12.09    0.78
  -6   6   8   13.92    0.88
  -5  -6   8   18.89    0.81
  -5  -6   8   18.51    0.86
  -5   6   8   19.71    0.95
  -4  -6   8   10.57    0.59
  -4  -6   8   10.88    0.54
  -4   6   8   10.77    0.69
  -3  -6   8   29.83    0.98
  -3  -6   8   29.67    1.09
  -3   6   8   28.35    1.17
  -3   6   8   29.63    1.15
  -2  -6   8    0.14    0.22
  -2   6   8    0.14    0.29
  -2   6   8    0.48    0.28
   2   6  -8    0.82    0.44
  -1  -6   8   46.64    1.54
   1  -6  -8   42.88    1.80
  -1   6   8   45.18    1.58
  -1   6   8   46.65    1.60
   1   6  -8   46.28    1.85
   0  -6  -8    0.96    0.46
   0  -6   8    0.93    0.25
   0  -6  -8    1.25    0.27
   0   6  -8    0.87    0.45
   1  -6   8    2.97    0.37
  -1  -6  -8    3.44    0.56
  -1  -6  -8    2.73    0.32
  -1   6  -8    3.32    0.57
  -2  -6  -8    3.54    0.55
  -2  -6  -8    3.38    0.37
  -2  -6  -8    4.13    0.40
   2  -6   8    2.73    0.34
  -2   6  -8    2.56    0.26
  -2   6  -8    2.64    0.54
  -3  -6  -8    5.55    0.43
  -3  -6  -8    5.89    0.65
   3  -6   8    5.04    0.54
  -3   6  -8    5.95    0.70
  -3   6  -8    5.55    0.38
  -4  -6  -8   10.18    0.78
  -4  -6  -8   11.06    0.54
   4  -6   8   11.64    0.74
  -4   6  -8    9.62    0.87
  -4   6  -8   10.89    0.59
  -5  -6  -8    0.28    0.39
   5  -6   8    1.27    0.43
  -5   6  -8    1.40    0.37
  -5   6  -8    1.31    0.50
  -6  -6  -8   20.40    1.13
  -6   6  -8   20.51    1.01
  -6   6  -8   19.33    1.28
  -7  -6  -8    0.55    0.57
  -7   6  -8    0.79    0.51
  -7   6  -8    1.44    0.69
  -8  -6  -8   21.35    1.41
  -8   6  -8   23.95    1.70
  -8   6  -8   20.47    1.30
  -9  -6  -8    1.03    0.90
  -9   6  -8    1.83    0.93
  -9   6  -8    2.38    1.10
 -10  -6  -8    6.84    1.41
 -10   6  -8    6.64    1.59
 -10   6  -8    6.32    1.32
 -11  -7   8    1.51    1.31
 -11   7   8    0.94    1.34
 -10  -7   8   -0.07    1.05
 -10   7   8    0.65    1.09
 -10   7   8   -1.60    1.09
  -9  -7   8    2.48    0.83
  -9  -7   8    3.89    0.75
  -9   7   8    2.66    0.86
  -9   7   8    3.74    0.99
  -8  -7   8    3.26    0.55
  -8  -7   8    3.10    0.67
  -8   7   8    1.60    0.66
  -7  -7   8    3.33    0.48
  -7  -7   8    3.15    0.58
  -7   7   8    2.89    0.56
  -6  -7   8    0.78    0.34
  -6  -7   8    1.16    0.43
  -6   7   8    0.56    0.45
  -5  -7   8   21.79    0.95
  -5  -7   8   20.94    0.88
  -5   7   8   21.36    1.05
  -4  -7   8   29.56    1.04
  -4  -7   8   29.04    1.13
  -4   7   8   29.05    1.21
  -3  -7   8    2.62    0.34
  -3  -7   8    3.05    0.36
  -3   7   8    2.14    0.38
  -3   7   8    4.05    0.53
  -2  -7   8    4.87    0.44
  -2   7   8    3.95    0.48
  -2   7   8    3.99    0.50
   2   7  -8    4.72    0.63
   1  -7  -8   12.83    1.01
  -1  -7   8   12.66    0.62
   1  -7  -8   12.82    0.72
   1   7  -8   12.44    0.97
   0  -7  -8   50.76    1.90
   0  -7  -8   47.47    1.63
   0  -7   8   42.61    1.58
   0   7  -8   45.05    1.89
  -1  -7  -8    3.55    0.65
  -1  -7  -8    2.56    0.36
   1  -7   8    2.56    0.37
  -1   7  -8    2.31    0.55
  -2  -7  -8    4.43    0.41
  -2  -7  -8    4.90    0.46
  -2  -7  -8    3.77    0.65
   2  -7   8    3.68    0.45
  -2   7  -8    2.92    0.58
   3  -7   8    0.66    0.41
  -3  -7  -8    1.13    0.47
  -3  -7  -8    1.33    0.32
  -3   7  -8    1.03    0.59
  -3   7  -8    1.27    0.25
   4  -7   8   23.86    1.12
  -4  -7  -8   24.78    1.20
  -4  -7  -8   26.75    0.94
  -4   7  -8   22.54    1.25
  -4   7  -8   21.97    0.93
  -5  -7  -8    9.23    0.57
  -5  -7  -8    8.90    0.87
   5  -7   8   10.63    0.89
  -5   7  -8   10.35    0.65
  -5   7  -8    9.06    0.95
  -6  -7  -8    1.20    0.54
  -6   7  -8    1.01    0.60
  -6   7  -8    0.82    0.44
  -7  -7  -8   14.09    1.16
  -7   7  -8   13.06    0.97
  -7   7  -8   13.07    1.29
  -8  -7  -8   -0.42    0.78
  -8   7  -8    2.00    0.95
  -8   7  -8   -0.17    0.65
  -9  -7  -8    4.01    1.13
  -9   7  -8    3.59    1.04
  -9   7  -8    5.43    1.20
 -10  -7  -8   -0.34    1.32
 -10   7  -8    0.65    1.23
 -10   7  -8    2.52    1.49
 -11  -8   8    0.15    1.32
 -11   8   8    1.65    1.47
 -10  -8   8   -1.24    1.06
 -10   8   8    0.74    1.16
  -9  -8   8    0.86    0.74
  -9  -8   8    0.47    0.85
  -9   8   8    0.53    0.88
  -9   8   8    0.29    0.85
  -8  -8   8   24.83    1.28
  -8  -8   8   22.19    1.32
  -8   8   8   24.37    1.53
  -7  -8   8    6.66    0.65
  -7  -8   8    6.98    0.72
  -7   8   8    6.91    0.77
  -6  -8   8    1.39    0.44
  -6  -8   8    2.23    0.51
  -6   8   8    1.18    0.51
  -5  -8   8    3.88    0.48
  -5  -8   8    4.37    0.45
  -5   8   8    3.60    0.53
  -4  -8   8   34.74    1.21
  -4  -8   8   34.10    1.30
  -4   8   8   33.97    1.38
  -4   8   8   33.72    1.42
  -3  -8   8   16.88    0.79
  -3  -8   8   16.19    0.68
  -3   8   8   16.74    0.87
  -3   8   8   16.18    0.90
  -2  -8   8    2.72    0.34
  -2   8   8    3.57    0.45
  -2   8   8    3.60    0.44
   1  -8  -8   32.71    1.58
   1  -8  -8   32.71    1.28
  -1  -8   8   32.61    1.22
   1   8  -8   33.76    1.55
   0  -8   8    4.50    0.49
   0  -8  -8    5.36    0.57
   0  -8  -8    4.35    0.70
   0   8  -8    6.93    0.88
   1  -8   8   20.91    0.94
  -1  -8  -8   22.01    0.97
  -1  -8  -8   19.02    1.25
  -1   8  -8   22.33    1.27
  -2  -8  -8    7.70    0.69
   2  -8   8    6.90    0.68
  -2  -8  -8    7.36    0.95
  -2   8  -8    7.47    1.00
  -3  -8  -8   46.37    1.63
   3  -8   8   45.22    1.71
  -3  -8  -8   44.73    1.84
  -3   8  -8   45.30    1.48
  -3   8  -8   46.28    1.98
   4  -8   8   82.06    2.78
  -4  -8  -8   83.03    2.85
  -4  -8  -8   82.75    2.61
  -4   8  -8   76.42    2.55
  -4   8  -8   78.30    2.94
   5  -8   8    1.19    0.75
  -5  -8  -8    2.25    0.58
  -5  -8  -8    2.42    0.40
  -5   8  -8    1.78    0.62
  -5   8  -8    1.95    0.41
  -6  -8  -8    1.57    0.63
  -6   8  -8    1.92    0.64
  -6   8  -8    1.70    0.49
  -7  -8  -8    5.04    0.88
  -7   8  -8    4.90    0.71
  -7   8  -8    2.98    0.86
  -8  -8  -8   32.39    1.88
  -8   8  -8   28.86    2.02
  -8   8  -8   29.94    1.68
  -9  -8  -8    3.49    1.14
  -9   8  -8    1.83    1.10
  -9   8  -8    1.25    1.15
 -10  -8  -8    1.49    1.44
 -10   8  -8    0.48    1.55
 -10   8  -8   -1.31    1.39
 -10  -9   8    1.38    1.08
 -10   9   8    0.17    1.20
  -9  -9   8    0.98    0.81
  -9  -9   8    0.43    0.89
  -9   9   8    0.55    1.01
  -9   9   8   -0.95    0.85
  -8  -9   8    4.13    0.77
  -8  -9   8    3.29    0.78
  -8   9   8    3.01    0.86
  -7  -9   8    4.11    0.67
  -7  -9   8    4.51    0.63
  -7   9   8    4.84    0.75
  -6  -9   8    0.70    0.52
  -6  -9   8    1.87    0.46
  -6   9   8    0.84    0.53
  -5  -9   8    3.85    0.45
  -5  -9   8    3.65    0.50
  -5   9   8    3.25    0.56
  -4  -9   8   67.62    2.34
  -4  -9   8   70.31    2.24
  -4   9   8   70.40    2.49
  -4   9   8   69.42    2.44
  -3  -9   8    8.74    0.53
  -3  -9   8    8.62    0.62
  -3   9   8    6.15    0.70
  -3   9   8    8.85    0.71
  -2  -9   8    9.37    0.62
   2  -9  -8   10.17    0.74
   1  -9  -8   15.04    1.17
   1  -9  -8   15.49    0.85
  -1  -9   8   14.88    0.77
   1   9  -8   14.49    1.18
   0  -9  -8  193.62    5.96
   0  -9  -8  200.05    6.17
   0  -9   8  187.20    5.92
   0   9  -8  190.90    6.19
  -1  -9  -8    2.75    0.44
  -1  -9  -8    3.00    0.71
   1  -9   8    3.22    0.45
  -1   9  -8    2.60    0.67
  -2  -9  -8    1.16    0.56
   2  -9   8    0.77    0.39
  -2  -9  -8    1.23    0.38
  -2   9  -8    1.10    0.66
  -3  -9  -8    6.01    0.58
  -3  -9  -8    5.40    0.76
   3  -9   8    4.71    0.58
  -3   9  -8    5.11    0.43
  -3   9  -8    5.66    0.81
   4  -9   8   30.59    1.41
  -4  -9  -8   28.31    1.16
  -4  -9  -8   30.73    1.47
  -4   9  -8   25.49    1.06
  -4   9  -8   28.72    1.55
  -5  -9  -8    4.73    0.75
   5  -9   8    3.03    0.82
  -5  -9  -8    3.86    0.55
  -5   9  -8    3.21    0.49
  -5   9  -8    4.51    0.75
  -6  -9  -8    3.97    0.76
  -6   9  -8    2.46    0.59
  -6   9  -8    3.72    0.80
  -7  -9  -8   21.00    1.52
  -7   9  -8   24.03    1.69
  -7   9  -8   24.13    1.37
  -8  -9  -8    0.55    1.01
  -8   9  -8    0.88    0.89
  -8   9  -8   -0.51    0.95
  -9  -9  -8   -0.33    1.22
 -10  -9  -8    0.61    1.60
 -10   9  -8   -2.50    1.62
 -10  10   8    1.07    1.31
  -9 -10   8    1.69    0.87
  -9  10   8   -1.39    0.95
  -9  10   8   -0.96    1.10
  -8 -10   8    6.11    0.84
  -8 -10   8    5.73    0.88
  -8  10   8    5.76    1.02
  -7 -10   8    1.27    0.63
  -7 -10   8    1.09    0.61
  -7  10   8    0.93    0.71
  -6 -10   8    3.14    0.55
  -6 -10   8    2.31    0.60
  -6  10   8    2.85    0.63
  -5 -10   8    0.58    0.43
  -5 -10   8    1.20    0.40
  -5  10   8    1.49    0.52
  -4 -10   8   11.73    0.70
  -4 -10   8   10.11    0.81
  -4  10   8   12.49    0.93
  -4  10   8   11.77    0.99
  -3 -10   8   21.63    1.03
  -3  10   8   21.86    1.12
  -3  10   8   22.75    1.15
   2 -10  -8    3.27    0.51
  -2 -10   8    2.28    0.45
   1 -10  -8    2.90    0.48
  -1 -10   8    3.21    0.43
   1 -10  -8    3.23    0.66
   1  10  -8    2.99    0.76
   0 -10  -8    9.95    0.96
   0 -10  -8   10.34    0.78
   0 -10   8    9.64    0.68
   0  10  -8    8.91    1.19
   1 -10   8    9.93    0.76
  -1 -10  -8    9.92    1.02
  -1 -10  -8    9.55    0.75
  -1  10  -8   13.00    1.21
  -2 -10  -8   10.57    1.08
  -2 -10  -8   11.15    0.75
   2 -10   8   12.29    0.83
  -2  10  -8   11.63    1.16
   3 -10   8   20.27    1.10
  -3 -10  -8   18.39    0.91
  -3 -10  -8   19.64    1.31
  -3  10  -8   17.66    1.33
  -4 -10  -8   43.32    1.96
   4 -10   8   48.48    1.91
  -4 -10  -8   42.44    1.62
  -4  10  -8   42.76    2.02
  -5 -10  -8    1.39    0.68
  -5 -10  -8    1.11    0.53
   5 -10   8    0.61    0.84
  -5  10  -8    1.61    0.68
  -6 -10  -8    0.66    0.74
  -6  10  -8    1.06    0.71
  -7 -10  -8    0.78    0.94
  -7  10  -8   -0.05    0.89
  -8 -10  -8    6.74    1.21
  -8  10  -8    6.29    1.20
  -9 -10  -8    1.62    1.41
  -9  10  -8    2.26    1.44
 -10  11   8   -1.02    1.33
  -9 -11   8    1.79    0.99
  -9  11   8   -0.07    1.17
  -9  11   8    2.41    1.08
  -8 -11   8    3.80    0.86
  -8  11   8    3.62    1.04
  -7 -11   8    2.25    0.68
  -7  11   8    0.81    0.78
  -6 -11   8    7.99    0.80
  -6  11   8    8.28    0.91
  -5 -11   8    8.79    0.83
  -5  11   8    8.25    0.94
  -5  11   8    8.84    0.90
  -4 -11   8   23.27    1.18
  -4  11   8   24.13    1.33
  -4  11   8   26.08    1.27
  -3 -11   8    0.44    0.45
  -3  11   8    0.40    0.51
  -3  11   8   -0.07    0.47
  -2 -11   8   48.60    1.79
   2 -11  -8   48.03    1.90
   1 -11  -8    9.15    1.01
   1 -11  -8   10.83    0.84
  -1 -11   8   10.09    0.77
   1  11  -8    9.63    1.07
   0 -11  -8   61.17    2.23
   0 -11  -8   62.82    2.42
   0 -11   8   62.23    2.20
   0  11  -8   62.20    2.45
   1 -11   8    5.88    0.73
  -1 -11  -8    7.07    0.84
  -1 -11  -8    6.29    0.71
  -1  11  -8    6.33    0.84
   2 -11   8   16.04    0.98
  -2 -11  -8   13.79    1.21
  -2 -11  -8   14.30    0.86
  -2  11  -8   15.09    1.23
   3 -11   8   20.86    1.28
  -3 -11  -8   23.50    1.45
  -3 -11  -8   22.37    1.07
  -3  11  -8   23.96    1.45
   4 -11   8    8.30    0.96
  -4 -11  -8    7.32    0.96
  -4 -11  -8    6.99    0.77
  -4  11  -8    9.31    1.15
  -5 -11  -8    1.92    0.81
   5 -11   8    2.24    0.99
  -5  11  -8    2.91    0.85
  -6 -11  -8   -0.15    0.81
  -6  11  -8   -0.67    0.81
  -7 -11  -8   10.06    1.34
  -7  11  -8    5.29    1.12
  -8 -11  -8    1.22    1.23
  -8  11  -8   -0.74    1.24
  -9 -11  -8    3.58    1.64
  -9  11  -8    1.69    1.71
  -9 -12   8    1.15    1.10
  -9  12   8   -0.13    1.34
  -9  12   8    0.26    1.15
  -8 -12   8    0.66    0.87
  -8  12   8    0.60    1.06
  -7 -12   8   11.25    1.27
  -7  12   8   12.76    1.47
  -6 -12   8   29.70    1.47
  -6  12   8   28.38    1.59
  -5 -12   8    1.82    0.58
  -5  12   8    1.17    0.74
  -5  12   8    1.63    0.67
  -4 -12   8    9.11    0.87
  -4  12   8    7.53    1.02
  -4  12   8    7.98    0.83
  -3 -12   8   15.39    1.02
  -3  12   8   16.47    1.12
  -3  12   8   17.92    1.17
  -2 -12   8   22.24    1.17
   2 -12  -8   23.28    1.27
   1 -12  -8    1.24    0.51
   1 -12  -8    1.70    0.71
  -1 -12   8    1.26    0.47
   1  12  -8    1.13    0.62
   0 -12  -8   12.81    1.22
   0 -12   8   11.19    0.89
   0 -12  -8   12.68    0.96
   0  12  -8   12.88    1.11
  -1 -12  -8    0.20    0.60
  -1 -12  -8    1.30    0.47
   1 -12   8    1.24    0.50
  -1  12  -8    0.43    0.55
  -2 -12  -8    0.89    0.70
  -2 -12  -8    0.72    0.46
   2 -12   8    0.77    0.56
  -2  12  -8    0.64    0.61
   3 -12   8   -0.09    0.65
  -3 -12  -8    0.07    0.75
  -3 -12  -8   -0.50    0.44
  -3  12  -8    1.61    0.72
  -4 -12  -8    1.11    0.54
   4 -12   8    2.66    0.93
  -4 -12  -8    3.48    0.93
  -4  12  -8    3.04    0.80
   5 -12   8    0.38    1.04
  -5 -12  -8   -1.19    0.91
  -5  12  -8    1.33    0.80
  -6 -12  -8    0.40    1.16
  -6  12  -8    2.52    0.98
  -7 -12  -8    0.57    1.20
  -7  12  -8    2.80    1.21
  -8 -12  -8    0.24    1.50
  -8  12  -8   -0.78    1.44
  -9  13   8    1.56    1.31
  -8 -13   8    3.02    0.98
  -8  13   8    1.96    1.20
  -7 -13   8   11.76    1.46
  -7  13   8    9.76    1.28
  -6 -13   8    0.75    0.69
  -6  13   8   -1.11    0.72
  -5 -13   8    9.70    0.90
  -5  13   8    8.17    1.02
  -5  13   8    8.80    0.92
  -4 -13   8    4.00    0.71
  -4  13   8    5.78    0.89
  -4  13   8    4.44    0.78
  -3 -13   8   25.92    1.35
  -3  13   8   26.62    1.48
  -2 -13   8   15.97    1.04
   2 -13  -8   13.58    1.14
   1 -13  -8   38.74    1.72
  -1 -13   8   39.55    1.68
   0 -13   8    1.27    0.55
   0 -13  -8    1.49    0.73
   0 -13  -8    0.34    0.56
   0  13  -8   -0.04    0.55
  -1 -13  -8    8.90    1.01
  -1 -13  -8    8.48    0.89
   1 -13   8    8.29    0.95
  -1  13  -8    8.66    1.03
  -2 -13  -8   30.12    1.42
   2 -13   8   32.69    1.57
  -2 -13  -8   30.64    1.74
  -2  13  -8   30.56    1.64
  -3 -13  -8   16.27    1.49
  -3 -13  -8   13.49    1.03
   3 -13   8   17.32    1.34
  -3  13  -8   15.46    1.38
   4 -13   8   -0.34    0.92
  -4 -13  -8    0.48    0.63
  -4 -13  -8   -0.30    0.97
  -4  13  -8   -0.20    0.81
   5 -13   8    0.49    1.18
  -5 -13  -8   -0.83    1.01
  -5  13  -8    0.05    0.96
  -6 -13  -8    7.75    1.47
  -6  13  -8    6.35    1.33
  -7 -13  -8    1.66    1.43
  -7  13  -8    0.08    1.33
  -8 -13  -8    1.17    1.69
  -8  13  -8   -1.73    1.67
  -8 -14   8    1.05    1.10
  -8  14   8   -1.51    1.35
  -7 -14   8    1.81    0.94
  -7  14   8    0.75    1.10
  -6 -14   8   10.32    1.09
  -6  14   8   11.06    1.18
  -5 -14   8    6.63    0.92
  -5  14   8    5.93    0.97
  -5  14   8    7.03    1.11
  -4 -14   8   10.38    1.10
  -4  14   8    9.35    1.04
  -4  14   8   11.03    1.35
  -3 -14   8    5.40    0.79
  -3  14   8    9.53    1.20
  -3  14   8    7.37    0.88
  -2 -14   8   17.19    1.31
   2 -14  -8   16.38    1.35
   1 -14  -8    0.99    0.68
  -1 -14   8    2.29    0.72
   0 -14  -8    9.49    1.13
   0 -14  -8   11.40    1.35
   0 -14   8   11.33    1.13
   0  14  -8    8.11    1.09
   1 -14   8   22.25    1.41
  -1 -14  -8   19.19    1.28
  -1 -14  -8   22.34    1.58
  -1  14  -8   19.89    1.37
  -2 -14  -8    5.39    0.73
   2 -14   8    5.05    0.92
  -2 -14  -8    6.21    1.02
  -2  14  -8    2.79    0.76
  -3 -14  -8    1.86    0.65
   3 -14   8    3.14    1.05
  -3 -14  -8    0.25    0.95
  -3  14  -8    1.67    0.80
  -4 -14  -8    1.21    1.08
   4 -14   8    1.88    1.23
  -4 -14  -8    1.50    0.77
  -4  14  -8    2.09    0.99
  -5 -14  -8    8.63    1.64
   5 -14   8    7.45    1.51
  -5  14  -8    9.13    1.34
  -6 -14  -8    4.52    1.63
  -6  14  -8    3.61    1.44
  -7 -14  -8   -1.47    1.80
  -7  14  -8    1.08    1.61
  -7 -15   8    4.07    1.19
  -7  15   8    6.73    1.45
  -6 -15   8    0.11    0.92
  -6  15   8    0.53    1.05
  -5 -15   8    0.41    0.86
  -5  15   8   -1.37    0.89
  -5  15   8   -1.52    0.98
  -4 -15   8    7.43    1.00
  -4  15   8    8.10    1.07
  -4  15   8   10.06    1.24
  -3 -15   8    4.56    0.84
  -3  15   8    4.72    0.94
  -3  15   8    4.39    0.98
   2 -15  -8    1.10    0.80
  -2 -15   8    1.61    0.74
   1 -15  -8    2.44    0.79
  -1 -15   8    2.97    0.76
   0 -15  -8    1.09    0.71
   0 -15   8   -0.10    0.73
   0 -15  -8    0.56    0.92
   0  15  -8    0.23    0.73
  -1 -15  -8    0.80    0.99
  -1 -15  -8    0.57    0.70
   1 -15   8    1.79    0.79
  -1  15  -8    0.27    0.74
   2 -15   8    4.69    0.99
  -2 -15  -8    3.28    0.77
  -2 -15  -8    5.11    1.17
  -2  15  -8    4.83    0.90
   3 -15   8    0.54    1.05
  -3 -15  -8   -0.19    1.12
  -3 -15  -8    0.16    0.76
  -3  15  -8    0.29    0.91
   4 -15   8   -1.06    1.27
  -4 -15  -8    1.18    0.86
  -4 -15  -8    1.08    1.36
  -4  15  -8    0.48    1.06
   5 -15   8    1.16    1.52
  -5 -15  -8    3.97    1.62
  -5  15  -8    4.36    1.42
  -6 -15  -8    2.03    1.85
  -6  15  -8    5.12    1.67
  -7 -15  -8   -0.61    1.99
  -7  15  -8   -0.47    1.96
  -6 -16   8   -0.07    1.18
  -6  16   8   -0.87    1.26
  -5 -16   8    1.67    1.03
  -5  16   8   -1.22    1.04
  -5  16   8    1.05    1.19
  -4 -16   8    1.12    0.96
  -4  16   8   -0.57    1.01
  -4  16   8    2.12    1.15
  -3 -16   8    7.27    1.07
  -3  16   8    7.33    1.14
  -3  16   8    8.84    1.24
  -2 -16   8    0.83    0.88
   2 -16  -8    2.03    0.96
   1 -16  -8   -0.77    0.84
  -1 -16   8    1.70    0.88
   0 -16   8    0.85    0.87
   0 -16  -8    2.09    0.85
  -1 -16  -8    4.07    0.88
   1 -16   8    1.18    0.93
  -1 -16  -8    5.34    1.18
  -2 -16  -8    0.96    0.83
  -2 -16  -8   -0.48    1.13
   2 -16   8    0.26    0.97
  -3 -16  -8   -1.61    0.85
  -3 -16  -8    0.14    1.33
   3 -16   8    1.90    1.26
  -4 -16  -8    5.95    1.16
   4 -16   8    6.76    1.62
  -4 -16  -8    6.44    1.61
   5 -16   8   -1.63    1.55
  -5 -16  -8    2.45    1.75
  -6 -16  -8    4.27    2.06
  -5 -17   8    3.09    1.97
  -4 -17   8    6.14    1.31
  -4  17   8    6.28    1.48
  -4  17   8    5.05    1.31
  -3 -17   8    1.37    1.06
  -3  17   8    3.15    1.19
  -3  17   8    4.16    1.29
   2 -17  -8    2.28    1.11
  -2 -17   8    1.70    1.07
   1 -17  -8    2.79    1.10
  -1 -17   8    4.63    1.17
   0 -17  -8    7.47    1.13
   0 -17   8    7.46    1.24
   1 -17   8   -0.21    1.12
  -1 -17  -8    0.99    0.97
  -1 -17  -8    2.33    1.40
   2 -17   8    0.57    1.21
  -2 -17  -8   -0.77    1.44
  -2 -17  -8    0.34    0.97
   3 -17   8   -0.59    1.40
  -3 -17  -8    0.55    0.99
  -3 -17  -8    1.12    1.48
  -4 -17  -8   -0.62    1.57
   4 -17   8    1.67    1.59
  -5 -17  -8   -1.72    1.82
   5 -17   8    0.29    1.95
  -3 -18   8   -1.92    1.42
  -3  18   8   -1.10    2.02
  -3  18   8    3.59    2.18
   2 -18  -8    1.87    1.36
  -2 -18   8    0.58    1.29
   1 -18  -8    0.23    1.25
  -1 -18   8    0.22    1.27
   0 -18   8    0.68    1.27
   0 -18  -8    0.98    1.18
   1 -18   8    0.60    1.33
  -1 -18  -8    0.10    1.15
   2 -18   8    4.44    1.54
  -2 -18  -8    3.38    1.24
  -2 -18  -8    5.08    1.56
  -3 -18  -8    3.12    1.25
  -3 -18  -8   -0.90    1.61
   3 -18   8    2.33    1.74
  -4 -18  -8    1.89    1.73
 -12   0   9    0.70    1.35
 -11   0   9    1.38    1.05
 -10   0   9    1.12    0.78
 -10   0   9    0.23    0.70
  -9   0   9    0.18    0.48
  -9   0   9    0.04    0.54
  -8   0   9   -0.20    0.39
  -8   0   9    0.33    0.44
  -7   0   9    0.12    0.33
  -7   0   9    0.83    0.40
  -6   0   9   -0.01    0.30
  -6   0   9    0.17    0.38
  -5   0   9    0.33    0.26
  -4   0   9   -0.10    0.23
  -3   0   9    0.07    0.19
  -2   0   9    4.10    0.34
   1   0  -9    0.88    0.29
   0   0  -9   -0.15    0.30
   0   0   9    0.10    0.13
   0   0  -9   -0.05    0.35
  -1   0  -9    1.42    0.36
  -1   0  -9    0.72    0.32
   1   0   9    0.59    0.14
  -2   0  -9    3.98    0.47
  -2   0  -9    3.54    0.42
   2   0   9    2.90    0.21
  -2   0  -9    3.27    0.21
  -2   0  -9    3.35    0.20
  -3   0  -9   -0.38    0.27
  -3   0  -9    0.48    0.27
  -4   0  -9    0.82    0.33
  -5   0  -9   -0.14    0.42
  -6   0  -9    0.16    0.43
  -7   0  -9   -0.53    0.50
  -8   0  -9    0.56    0.65
  -9   0  -9   -0.22    0.88
 -10   0  -9   -1.39    0.94
 -11   0  -9    2.69    1.38
 -12  -1   9    1.28    1.36
 -12   1   9    1.88    1.43
 -11  -1   9    2.76    1.09
 -11   1   9    3.26    1.08
 -10  -1   9    2.47    0.87
 -10  -1   9    3.07    0.75
 -10   1   9    1.76    0.74
 -10   1   9    1.86    0.83
  -9  -1   9    1.22    0.58
  -9  -1   9    1.82    0.52
  -9   1   9    0.56    0.53
  -9   1   9    1.19    0.59
  -8  -1   9   26.29    1.12
  -8  -1   9   25.04    1.19
  -8   1   9   25.41    1.15
  -8   1   9   22.79    1.24
  -7  -1   9    3.06    0.47
  -7  -1   9    4.41    0.45
  -7   1   9    3.42    0.50
  -7   1   9    3.39    0.45
  -6  -1   9   71.77    2.40
  -6  -1   9   71.61    2.35
  -6   1   9   72.34    2.36
  -5  -1   9    0.48    0.26
  -5   1   9    0.62    0.28
  -4  -1   9   42.04    1.42
  -4   1   9   41.60    1.43
  -3  -1   9    2.73    0.33
  -3   1   9    2.63    0.33
  -2  -1   9  237.96    7.08
  -2   1   9  235.14    7.08
   1  -1  -9    0.51    0.33
  -1  -1   9    0.22    0.15
   1  -1  -9    0.26    0.24
  -1   1   9    0.16    0.16
   1   1  -9    0.08    0.31
   0  -1   9   12.16    0.46
   0  -1  -9   10.86    0.73
   0  -1  -9   11.23    0.69
   0   1   9   11.62    0.46
   0   1  -9   10.74    0.76
   0   1  -9   11.13    0.66
  -1  -1  -9   98.02    3.28
  -1  -1  -9  102.50    3.27
   1  -1   9  104.56    3.08
  -1   1  -9  101.18    3.36
   1   1   9  105.89    3.08
  -1   1  -9   99.52    3.20
  -2  -1  -9   26.88    1.07
   2  -1   9   25.77    0.85
  -2  -1  -9   25.48    1.03
  -2   1  -9   27.80    1.15
  -2   1  -9   26.15    0.98
   2   1   9   25.39    0.85
   2   1   9   26.59    0.84
  -2   1  -9   26.02    0.83
  -3  -1  -9    7.53    0.59
  -3  -1  -9    7.81    0.57
  -3   1  -9    8.92    0.68
  -3   1  -9    8.47    0.52
  -4  -1  -9    1.46    0.36
  -4   1  -9    0.38    0.38
  -4   1  -9    1.28    0.32
  -5  -1  -9   40.33    1.54
  -5   1  -9   38.84    1.52
  -6  -1  -9    0.81    0.44
  -6   1  -9    0.78    0.43
  -7  -1  -9   -0.14    0.53
  -7   1  -9    0.23    0.50
  -8  -1  -9    3.01    0.72
  -8   1  -9    3.94    0.74
  -9  -1  -9    0.81    0.87
  -9   1  -9    1.73    0.81
 -10  -1  -9    2.57    1.08
 -10   1  -9    1.52    1.09
 -11  -1  -9    1.01    1.40
 -11   1  -9    0.72    1.36
 -11  -2   9    2.17    1.06
 -11   2   9    2.97    1.12
 -10  -2   9    3.02    0.92
 -10  -2   9    3.50    0.77
 -10   2   9    3.78    0.90
 -10   2   9    2.78    0.79
  -9  -2   9    6.51    0.78
  -9  -2   9    7.33    0.84
  -9   2   9    7.55    0.92
  -9   2   9    6.62    0.82
  -8  -2   9   12.25    0.91
  -8  -2   9   11.35    0.77
  -8   2   9    9.66    0.89
  -8   2   9   11.86    0.84
  -7  -2   9   22.64    0.99
  -7  -2   9   22.53    1.05
  -7   2   9   23.26    1.10
  -7   2   9   23.17    1.04
  -6  -2   9    2.54    0.45
  -6  -2   9    2.42    0.39
  -6   2   9    3.28    0.44
  -5  -2   9   54.63    1.80
  -5  -2   9   53.08    1.79
  -5   2   9   53.80    1.82
  -4  -2   9    6.10    0.44
  -4   2   9    6.50    0.49
  -3  -2   9  229.39    6.94
  -3   2   9  232.56    6.96
  -2  -2   9  138.14    4.20
  -2   2   9  138.66    4.21
  -1  -2   9    3.71    0.29
   1  -2  -9    3.04    0.39
   1  -2  -9    3.30    0.48
   1   2  -9    2.49    0.44
  -1   2   9    2.99    0.30
   0  -2   9   56.20    1.70
   0  -2  -9   56.18    1.85
   0  -2  -9   52.01    1.95
   0   2   9   54.91    1.70
   0   2  -9   51.61    1.77
   0   2  -9   54.03    2.01
  -1  -2  -9  224.85    6.93
  -1  -2  -9  225.53    6.97
   1  -2   9  228.55    6.76
   1   2   9  228.11    6.76
  -1   2  -9  227.79    7.08
  -1   2  -9  227.93    6.84
  -2  -2  -9  234.85    7.14
   2  -2   9  232.82    6.97
  -2  -2  -9  230.41    7.14
  -2   2  -9  233.24    7.04
  -2   2  -9  237.35    7.26
  -2   2  -9  224.81    6.95
   2   2   9  242.28    6.96
   2   2   9  239.43    6.98
  -3  -2  -9    1.55    0.35
  -3  -2  -9    1.69    0.33
  -3   2  -9    0.98    0.29
  -3   2  -9    0.47    0.35
  -4  -2  -9   65.19    2.23
  -4   2  -9   65.51    2.37
  -4   2  -9   65.93    2.16
  -5  -2  -9    4.90    0.56
  -5   2  -9    4.63    0.55
  -6  -2  -9   19.71    1.03
  -6   2  -9   20.21    1.04
  -7  -2  -9   -0.12    0.51
  -7   2  -9    0.19    0.51
  -8  -2  -9    6.41    0.81
  -8   2  -9    5.25    0.75
  -9  -2  -9    1.71    0.88
  -9   2  -9   -0.59    0.79
 -10  -2  -9    2.18    1.10
 -10   2  -9    2.66    1.09
 -11  -2  -9    1.88    1.45
 -11   2  -9   -0.41    1.40
 -11  -3   9    4.71    1.17
 -11   3   9    3.19    1.19
 -10  -3   9    3.61    0.93
 -10  -3   9    3.81    0.80
 -10   3   9    4.53    0.86
 -10   3   9    3.70    0.90
  -9  -3   9    5.27    0.75
  -9  -3   9    4.50    0.62
  -9   3   9    4.90    0.68
  -9   3   9    5.04    0.82
  -8  -3   9   34.79    1.38
  -8  -3   9   33.99    1.46
  -8   3   9   34.19    1.55
  -8   3   9   37.70    1.45
  -7  -3   9    2.38    0.40
  -7  -3   9    3.13    0.46
  -7   3   9    3.61    0.50
  -6  -3   9  133.77    4.20
  -6  -3   9  136.13    4.22
  -6   3   9  135.53    4.24
  -5  -3   9    0.38    0.28
  -5  -3   9    0.69    0.27
  -5   3   9    0.74    0.31
  -4  -3   9   56.42    1.78
  -4  -3   9   54.11    1.80
  -4   3   9   54.37    1.83
  -3  -3   9    3.35    0.37
  -3   3   9    3.28    0.41
  -2  -3   9  401.41   11.71
   2   3  -9  385.64   11.92
  -2   3   9  394.05   11.73
   1  -3  -9    2.91    0.49
  -1  -3   9    2.01    0.23
   1   3  -9    2.05    0.43
  -1   3   9    2.54    0.27
   0  -3   9   45.63    1.42
   0  -3  -9   44.70    1.71
   0  -3  -9   43.82    1.49
   0   3  -9   44.56    1.74
   0   3  -9   41.26    1.40
   0   3   9   44.73    1.43
   1  -3   9  158.84    4.69
  -1  -3  -9  153.12    4.92
  -1  -3  -9  155.54    4.82
  -1   3  -9  155.01    5.02
   1   3   9  157.46    4.68
  -1   3  -9  154.89    4.72
   2  -3   9   54.32    1.72
  -2  -3  -9   55.30    1.86
  -2  -3  -9   55.65    1.93
  -2   3  -9   54.36    1.75
   2   3   9   54.97    1.70
  -2   3  -9   53.35    2.02
  -3  -3  -9    2.09    0.41
   3  -3   9    1.64    0.27
  -3   3  -9    2.05    0.29
  -3   3  -9    1.58    0.41
   3   3   9    1.58    0.18
  -3   3  -9    1.92    0.16
  -4  -3  -9    2.45    0.48
  -4   3  -9    3.15    0.56
  -4   3  -9    2.88    0.37
  -5  -3  -9   69.27    2.40
  -5   3  -9   66.78    2.50
  -5   3  -9   71.65    2.33
  -6  -3  -9    0.49    0.46
  -6   3  -9    0.51    0.43
  -7  -3  -9    2.38    0.63
  -7   3  -9    3.37    0.59
  -8  -3  -9    3.23    0.75
  -8   3  -9    5.75    0.77
  -9  -3  -9    2.35    0.95
  -9   3  -9    2.45    0.90
 -10  -3  -9    2.26    1.10
 -10   3  -9    1.77    1.22
 -11  -3  -9   -0.64    1.43
 -11   3  -9   -1.04    1.72
 -11   3  -9    3.32    1.47
 -11  -4   9    0.21    1.16
 -11   4   9    2.33    1.22
 -10  -4   9    0.38    0.91
 -10  -4   9    1.10    0.78
 -10   4   9    0.40    0.90
 -10   4   9   -0.03    0.80
  -9  -4   9   11.52    1.11
  -9  -4   9   11.85    0.98
  -9   4   9    8.55    1.06
  -9   4   9   13.26    1.20
  -8  -4   9    4.31    0.60
  -8  -4   9    4.34    0.52
  -8   4   9    5.27    0.73
  -8   4   9    3.58    0.57
  -7  -4   9    1.29    0.35
  -7  -4   9    1.23    0.43
  -7   4   9    1.13    0.44
  -6  -4   9    0.53    0.39
  -6  -4   9    0.32    0.33
  -6   4   9    0.19    0.38
  -5  -4   9   72.54    2.33
  -5  -4   9   71.39    2.36
  -5   4   9   74.72    2.42
  -4  -4   9    1.99    0.30
  -4  -4   9    1.98    0.27
  -4   4   9    1.85    0.33
  -3  -4   9   18.51    0.76
  -3  -4   9   19.75    0.69
  -3   4   9   18.68    0.81
  -2  -4   9   22.04    0.75
  -2  -4   9   22.71    0.86
  -2   4   9   22.64    0.89
   2   4  -9   23.78    1.13
  -1  -4   9   45.97    1.46
   1  -4  -9   40.62    1.72
   1   4  -9   43.83    1.77
  -1   4   9   46.65    1.49
   0  -4   9    4.92    0.34
   0  -4  -9    5.13    0.67
   0  -4  -9    4.17    0.38
   0   4  -9    5.01    0.69
   0   4   9    3.98    0.34
  -1  -4  -9   46.39    1.61
   1  -4   9   47.85    1.51
  -1  -4  -9   45.80    1.79
  -1   4  -9   46.24    1.86
   1   4   9   46.74    1.52
   1   4   9   46.35    1.50
  -1   4  -9   47.02    1.50
   2  -4   9   31.39    1.05
  -2  -4  -9   33.02    1.15
  -2  -4  -9   31.94    1.29
   2   4   9   29.67    1.02
   2   4   9   30.47    1.04
  -2   4  -9   28.24    1.03
  -2   4  -9   28.18    1.34
   3  -4   9    3.79    0.44
  -3  -4  -9    5.19    0.61
  -3   4  -9    4.98    0.60
   3   4   9    4.47    0.32
   3   4   9    5.08    0.35
  -3   4  -9    4.67    0.40
   4  -4   9   53.76    1.68
  -4  -4  -9   49.47    1.86
  -4   4  -9   48.51    1.96
  -4   4  -9   50.33    1.71
  -5  -4  -9    4.13    0.54
  -5   4  -9    3.46    0.48
  -5   4  -9    3.42    0.55
  -6  -4  -9    1.77    0.51
  -6   4  -9    1.74    0.53
  -6   4  -9    1.14    0.47
  -7  -4  -9    1.20    0.61
  -7   4  -9    0.48    0.58
  -7   4  -9   -0.20    0.49
  -8  -4  -9   15.86    1.29
  -8   4  -9   15.68    1.17
  -9  -4  -9    3.03    0.92
  -9   4  -9    1.33    0.87
 -10  -4  -9    3.98    1.23
 -10   4  -9    0.46    1.17
 -10   4  -9   -1.25    1.33
 -11  -5   9   -0.28    1.18
 -11   5   9    0.06    1.25
 -10  -5   9    1.00    1.03
 -10  -5   9    1.32    0.85
 -10   5   9   -0.09    0.88
 -10   5   9    0.34    0.95
  -9  -5   9    2.17    0.74
  -9  -5   9    2.73    0.65
  -9   5   9    1.98    0.75
  -9   5   9    1.64    0.84
  -8  -5   9    2.67    0.58
  -8  -5   9    1.34    0.43
  -8   5   9    2.06    0.65
  -8   5   9    2.64    0.56
  -7  -5   9    1.50    0.44
  -7  -5   9    1.27    0.38
  -7   5   9    1.23    0.47
  -6  -5   9    1.74    0.42
  -6  -5   9    2.07    0.37
  -5  -5   9    0.54    0.28
  -5  -5   9    0.28    0.29
  -5   5   9    0.80    0.36
  -4  -5   9    1.21    0.26
  -4  -5   9    2.27    0.32
  -4   5   9    1.05    0.32
  -3  -5   9    2.15    0.30
  -3  -5   9    2.39    0.23
  -3   5   9    2.18    0.34
  -2  -5   9    0.82    0.26
  -2   5   9    0.52    0.30
  -1  -5   9   13.92    0.62
   1  -5  -9   11.96    0.91
   1   5  -9   11.95    0.94
  -1   5   9   15.08    0.68
  -1   5   9   14.20    0.65
   0  -5   9    8.59    0.47
   0  -5  -9    7.21    0.77
   0   5  -9    8.69    0.84
   0   5   9    8.98    0.49
   0   5   9    8.64    0.51
  -1  -5  -9    1.37    0.31
  -1  -5  -9    1.53    0.48
   1  -5   9    1.74    0.27
   1   5   9    1.99    0.27
  -1   5  -9    1.53    0.50
   1   5   9    2.06    0.29
  -2  -5  -9    3.59    0.54
  -2  -5  -9    3.14    0.45
   2  -5   9    3.01    0.32
   2   5   9    2.75    0.35
  -2   5  -9    2.24    0.28
  -2   5  -9    2.51    0.52
   2   5   9    2.38    0.29
  -3  -5  -9   51.69    1.92
   3  -5   9   50.43    1.70
  -3   5  -9   50.55    1.65
  -3   5  -9   50.11    2.02
  -4  -5  -9    7.95    0.74
   4  -5   9    7.66    0.64
   4   5   9    9.32    0.46
  -4   5  -9    9.55    0.86
  -4   5  -9    8.04    0.56
   5  -5   9    1.95    0.34
  -5  -5  -9    1.30    0.46
  -5   5  -9    2.23    0.44
  -5   5  -9    1.77    0.50
  -6  -5  -9    0.98    0.52
  -6   5  -9    1.50    0.56
  -6   5  -9    1.62    0.47
  -7  -5  -9   18.30    1.19
  -7   5  -9   17.33    1.02
  -7   5  -9   16.09    1.30
  -8  -5  -9    0.63    0.74
  -8   5  -9    0.23    0.78
  -8   5  -9    0.94    0.66
  -9  -5  -9   -0.06    0.90
  -9   5  -9    1.39    0.91
  -9   5  -9    1.48    1.06
 -10  -5  -9   -0.21    1.23
 -10   5  -9   -2.58    1.33
 -10   5  -9   -1.09    1.19
 -11  -6   9   -0.07    1.25
 -11   6   9   -2.15    1.27
 -10  -6   9    0.90    0.93
 -10  -6   9    0.72    1.02
 -10   6   9   -0.17    0.91
 -10   6   9   -0.18    1.02
  -9  -6   9    3.88    0.72
  -9  -6   9    3.51    0.84
  -9   6   9    2.92    0.96
  -9   6   9    4.10    0.89
  -8  -6   9    1.02    0.50
  -8  -6   9    0.72    0.59
  -8   6   9    1.19    0.58
  -7  -6   9    0.15    0.39
  -7  -6   9    0.40    0.47
  -7   6   9    0.70    0.48
  -6  -6   9    1.74    0.39
  -6  -6   9    2.18    0.44
  -6   6   9    1.11    0.44
  -5  -6   9   11.47    0.67
  -5  -6   9   11.52    0.62
  -5   6   9   11.83    0.79
  -4  -6   9    0.92    0.25
  -4  -6   9    0.12    0.28
  -4   6   9    0.38    0.33
  -3  -6   9    8.65    0.42
  -3  -6   9    8.35    0.52
  -3   6   9    9.50    0.59
  -2  -6   9   12.83    0.63
   2   6  -9   14.49    1.01
  -2   6   9   13.86    0.71
  -2   6   9   12.50    0.66
  -1  -6   9   38.22    1.41
   1  -6  -9   37.67    1.71
  -1   6   9   43.78    1.47
  -1   6   9   44.37    1.51
   1   6  -9   40.49    1.74
   0  -6  -9    2.47    0.57
   0  -6   9    2.77    0.34
   0   6   9    3.30    0.44
   0   6   9    3.10    0.35
   0   6  -9    3.75    0.60
   1  -6   9   15.79    0.71
  -1  -6  -9   16.58    1.06
  -1   6  -9   16.57    1.09
  -2  -6  -9   22.45    0.88
  -2  -6  -9   21.57    0.84
   2  -6   9   21.70    0.89
  -2  -6  -9   20.99    1.19
  -2   6  -9   21.96    0.76
  -2   6  -9   22.15    1.26
  -3  -6  -9    6.12    0.42
  -3  -6  -9    7.35    0.81
   3  -6   9    5.49    0.58
  -3   6  -9    6.61    0.90
  -3   6  -9    5.73    0.41
  -4  -6  -9    2.71    0.54
   4  -6   9    2.55    0.47
  -4  -6  -9    2.63    0.28
  -4   6  -9    2.46    0.52
  -4   6  -9    2.25    0.33
   5  -6   9    0.01    0.41
  -5  -6  -9    0.19    0.45
  -5   6  -9    0.66    0.51
  -5   6  -9    0.25    0.35
  -6  -6  -9    2.87    0.61
  -6   6  -9    2.39    0.61
  -6   6  -9    2.04    0.47
  -7  -6  -9    0.78    0.67
  -7   6  -9    1.10    0.68
  -7   6  -9    1.33    0.53
  -8  -6  -9    3.92    0.94
  -8   6  -9    1.50    0.69
  -8   6  -9    1.69    0.92
  -9  -6  -9    0.68    0.96
  -9   6  -9   -0.93    0.93
  -9   6  -9   -0.45    1.02
 -10  -6  -9    1.50    1.34
 -10   6  -9   -0.94    1.23
 -10   6  -9   -0.18    1.42
 -11  -7   9    0.66    1.31
 -11   7   9   -2.58    1.35
 -10  -7   9   -0.17    1.04
 -10   7   9   -0.08    1.06
 -10   7   9   -0.24    1.09
  -9  -7   9    1.23    0.71
  -9  -7   9    1.08    0.79
  -9   7   9    0.16    0.90
  -9   7   9    0.69    0.84
  -8  -7   9    1.33    0.67
  -8  -7   9    0.62    0.50
  -8   7   9    0.81    0.68
  -7  -7   9    0.85    0.50
  -7  -7   9   -0.20    0.42
  -7   7   9    0.42    0.53
  -6  -7   9    9.08    0.74
  -6  -7   9    9.63    0.73
  -6   7   9   10.15    0.87
  -5  -7   9    2.21    0.35
  -5  -7   9    1.76    0.41
  -5   7   9    2.33    0.48
  -4  -7   9    3.50    0.40
  -4  -7   9    4.09    0.50
  -4   7   9    3.53    0.47
  -3  -7   9   10.92    0.49
  -3  -7   9    9.81    0.61
  -3   7   9   11.20    0.72
  -3   7   9   10.32    0.67
  -2  -7   9   39.16    1.41
  -2   7   9   40.54    1.52
   2   7  -9   42.53    1.80
  -2   7   9   40.25    1.48
   1  -7  -9   18.54    1.21
  -1  -7   9   17.44    0.78
   1   7  -9   17.76    1.16
  -1   7   9   18.43    0.85
  -1   7   9   18.04    0.82
   0  -7   9   -0.06    0.29
   0  -7  -9    0.19    0.34
   0  -7  -9    0.49    0.52
   0   7  -9    0.09    0.49
  -1  -7  -9   -0.28    0.56
  -1  -7  -9    0.30    0.32
   1  -7   9    0.04    0.34
  -1   7  -9   -0.01    0.50
  -2  -7  -9    0.44    0.30
   2  -7   9    0.89    0.39
  -2  -7  -9    0.91    0.55
  -2  -7  -9    0.97    0.28
  -2   7  -9    1.01    0.60
  -3  -7  -9   46.72    1.56
   3  -7   9   47.13    1.68
  -3  -7  -9   45.28    1.83
  -3   7  -9   44.96    1.50
  -3   7  -9   44.95    1.96
  -4  -7  -9    2.12    0.50
   4  -7   9    1.66    0.54
  -4  -7  -9    1.83    0.29
  -4   7  -9    1.45    0.55
  -4   7  -9    1.52    0.33
  -5  -7  -9    1.04    0.52
   5  -7   9    1.07    0.54
  -5   7  -9   -0.68    0.51
  -5   7  -9    0.51    0.36
  -6  -7  -9    0.30    0.56
  -6   7  -9    2.25    0.69
  -6   7  -9   -0.03    0.45
  -7  -7  -9    5.79    0.86
  -7   7  -9    2.66    0.63
  -7   7  -9    3.44    0.83
  -8  -7  -9    1.95    0.95
  -8   7  -9    1.63    0.78
  -8   7  -9    2.64    1.00
  -9  -7  -9    0.13    1.03
  -9   7  -9    0.55    1.10
  -9   7  -9    1.40    1.05
 -10  -7  -9   -0.51    1.40
 -10   7  -9    1.69    1.57
 -10   7  -9    1.24    1.34
 -11  -8   9    2.58    1.37
 -11   8   9   -0.24    1.61
 -10  -8   9   -0.03    1.03
 -10   8   9   -0.32    1.19
 -10   8   9    0.54    1.23
  -9  -8   9    0.38    0.74
  -9  -8   9   -0.31    0.83
  -9   8   9   -1.25    0.89
  -9   8   9    0.78    0.90
  -8  -8   9    0.86    0.63
  -8  -8   9    0.60    0.69
  -8   8   9    0.93    0.77
  -7  -8   9   19.74    1.05
  -7  -8   9   17.50    1.07
  -7   8   9   18.36    1.18
  -6  -8   9   -0.77    0.45
  -6  -8   9    0.77    0.41
  -6   8   9    1.46    0.51
  -5  -8   9    6.16    0.65
  -5  -8   9    4.94    0.54
  -5   8   9    7.29    0.77
  -4  -8   9   10.67    0.69
  -4  -8   9    9.62    0.57
  -4   8   9   10.74    0.78
  -3  -8   9   16.48    0.65
  -3  -8   9   17.52    0.80
  -3   8   9   15.76    0.85
  -3   8   9   15.78    0.89
  -2  -8   9    0.36    0.27
  -2   8   9    0.89    0.38
  -2   8   9    1.16    0.35
   2   8  -9    0.84    0.63
   1  -8  -9   -0.17    0.65
  -1  -8   9    0.68    0.28
   1   8  -9    1.25    0.60
  -1   8   9   -0.08    0.31
  -1   8   9   -0.08    0.34
   0  -8  -9   27.71    1.52
   0  -8   9   29.99    1.15
   0  -8  -9   29.32    1.19
   0   8  -9   30.18    1.53
   1  -8   9    0.92    0.35
  -1  -8  -9    0.89    0.36
  -1  -8  -9   -0.05    0.55
  -1   8  -9    0.68    0.59
  -2  -8  -9    5.32    0.52
   2  -8   9    4.59    0.52
  -2  -8  -9    5.34    0.73
  -2   8  -9    3.30    0.77
  -3  -8  -9   -0.01    0.37
  -3  -8  -9   -0.33    0.47
   3  -8   9    1.16    0.50
  -3  -8  -9    0.30    0.30
  -3   8  -9    0.05    0.55
  -3   8  -9    0.27    0.24
   4  -8   9    1.57    0.66
  -4  -8  -9    1.62    0.41
  -4  -8  -9    2.23    0.58
  -4   8  -9    1.47    0.61
  -4   8  -9    1.54    0.34
   5  -8   9    0.85    0.81
  -5  -8  -9    0.65    0.60
  -5   8  -9    0.08    0.38
  -5   8  -9   -0.01    0.59
  -6  -8  -9   15.87    1.19
  -6   8  -9   13.76    0.97
  -6   8  -9   13.49    1.32
  -7  -8  -9    2.24    0.82
  -7   8  -9   -0.02    0.60
  -7   8  -9    1.31    0.76
  -8  -8  -9    4.84    1.06
  -8   8  -9    4.70    1.10
  -8   8  -9    3.27    0.90
  -9  -8  -9   -0.61    1.18
  -9   8  -9    0.37    1.18
  -9   8  -9    1.29    1.23
 -10  -8  -9   -0.64    1.50
 -10   8  -9    2.21    1.77
 -10   9   9    1.72    1.37
 -10   9   9    3.56    1.30
  -9  -9   9    1.91    0.87
  -9  -9   9    2.73    0.92
  -9   9   9    2.85    1.00
  -9   9   9    0.75    1.08
  -8  -9   9    6.96    0.85
  -8  -9   9    7.01    0.81
  -8   9   9    6.28    1.02
  -7  -9   9    0.68    0.55
  -7  -9   9    0.82    0.58
  -7   9   9   -0.43    0.67
  -6  -9   9    7.92    0.82
  -6  -9   9    9.70    0.81
  -6   9   9    9.23    0.97
  -5  -9   9    1.95    0.37
  -5  -9   9    2.29    0.45
  -5   9   9    2.57    0.55
  -4  -9   9   31.93    1.30
  -4  -9   9   31.11    1.14
  -4   9   9   32.31    1.37
  -4   9   9   30.62    1.41
  -3  -9   9    0.33    0.34
  -3   9   9   -0.19    0.36
  -3   9   9    0.55    0.41
  -2  -9   9    6.95    0.57
  -2   9   9    6.31    0.68
  -2   9   9    6.92    0.67
   1  -9  -9   -0.17    0.37
  -1  -9   9    0.14    0.32
   1  -9  -9    0.18    0.55
   1   9  -9    1.07    0.69
   0  -9   9    9.54    0.68
   0  -9  -9   10.91    0.94
   0  -9  -9    9.50    0.74
   0   9  -9   10.05    1.16
   1  -9   9    0.35    0.35
  -1  -9  -9    0.80    0.53
  -1  -9  -9   -0.20    0.34
  -1   9  -9   -0.19    0.60
   2  -9   9    2.48    0.47
  -2  -9  -9    3.56    0.71
  -2  -9  -9    4.00    0.46
  -2   9  -9    5.17    0.82
   3  -9   9    0.95    0.53
  -3  -9  -9    1.07    0.59
  -3  -9  -9    0.71    0.35
  -3   9  -9    1.13    0.64
  -4  -9  -9    1.59    0.63
   4  -9   9    0.88    0.64
  -4  -9  -9    1.08    0.41
  -4   9  -9    1.26    0.69
  -4   9  -9    0.09    0.38
  -5  -9  -9    0.25    0.61
   5  -9   9    0.03    0.78
  -5   9  -9    0.98    0.44
  -5   9  -9    1.24    0.68
  -6  -9  -9   -0.68    0.68
  -6   9  -9   -0.08    0.60
  -6   9  -9   -0.02    0.72
  -7  -9  -9    3.45    0.96
  -7   9  -9    2.19    0.88
  -7   9  -9    3.20    1.05
  -8  -9  -9   -1.10    0.95
  -8   9  -9    0.19    1.00
  -9  -9  -9    1.21    1.35
  -9   9  -9    1.93    1.40
 -10  10   9    2.64    2.19
 -10  10   9    1.24    1.35
  -9 -10   9    2.04    0.92
  -9  10   9    0.47    1.12
  -9  10   9   -0.30    1.03
  -8 -10   9    1.11    0.75
  -8  10   9   -1.20    0.90
  -7 -10   9    3.92    0.68
  -7  10   9    2.97    0.77
  -6 -10   9    0.70    0.49
  -6  10   9   -0.50    0.58
  -5 -10   9    4.70    0.60
  -5  10   9    4.97    0.67
  -4 -10   9    1.49    0.48
  -4  10   9    1.36    0.57
  -4  10   9    1.37    0.53
  -3 -10   9    8.71    0.72
  -3  10   9    9.10    0.79
  -3  10   9    6.53    0.80
  -2 -10   9    7.06    0.65
  -2  10   9    6.95    0.76
  -2  10   9    7.81    0.74
   1 -10  -9    3.14    0.50
   1 -10  -9    5.18    0.77
  -1 -10   9    3.16    0.46
   1  10  -9    5.03    0.77
   0 -10  -9    0.51    0.58
   0 -10   9   -0.06    0.37
   0 -10  -9    0.28    0.42
   0  10  -9   -0.74    0.57
  -1 -10  -9   13.64    1.11
  -1 -10  -9   15.39    0.88
   1 -10   9   14.85    0.88
  -1  10  -9   15.61    1.22
   2 -10   9   18.08    0.99
  -2 -10  -9   17.61    1.26
  -2 -10  -9   19.18    0.92
  -2  10  -9   18.11    1.31
   3 -10   9    1.45    0.58
  -3 -10  -9    0.73    0.39
  -3 -10  -9    0.97    0.66
  -3  10  -9    0.11    0.64
  -4 -10  -9    2.19    0.48
   4 -10   9    2.29    0.76
  -4 -10  -9    2.68    0.77
  -4  10  -9    1.56    0.70
  -5 -10  -9    7.65    0.99
   5 -10   9    5.52    1.03
  -5  10  -9    6.09    0.92
  -6 -10  -9    6.22    0.98
  -6  10  -9    6.53    0.99
  -7 -10  -9    6.13    1.17
  -7  10  -9    3.02    1.03
  -8 -10  -9    0.95    1.12
  -8  10  -9    2.52    1.22
  -9 -10  -9    1.45    1.54
  -9  10  -9    3.40    1.60
  -9 -11   9   -0.98    0.97
  -9  11   9   -1.22    1.16
  -9  11   9   -0.77    1.10
  -8 -11   9   -0.62    0.82
  -8  11   9   -0.81    1.05
  -7 -11   9    0.43    0.67
  -7  11   9   -1.68    0.74
  -6 -11   9    7.45    0.95
  -6  11   9    5.36    0.85
  -5 -11   9   -0.43    0.48
  -5  11   9   -0.41    0.60
  -4 -11   9    0.12    0.46
  -4  11   9    0.65    0.56
  -4  11   9   -0.44    0.57
  -3 -11   9   14.98    0.93
  -3  11   9   14.15    1.07
  -3  11   9   13.67    1.00
   2 -11  -9    6.71    0.83
  -2 -11   9    5.32    0.59
   1 -11  -9    3.79    0.59
   1 -11  -9    4.07    0.75
  -1 -11   9    3.52    0.52
   1  11  -9    4.25    0.72
   0 -11   9    4.18    0.56
   0 -11  -9    5.37    0.80
   0 -11  -9    4.90    0.57
   0  11  -9    4.79    0.76
  -1 -11  -9   13.83    0.89
   1 -11   9   15.11    0.92
  -1 -11  -9   13.56    1.16
  -1  11  -9   14.52    1.19
  -2 -11  -9    0.45    0.68
   2 -11   9    0.25    0.49
  -2 -11  -9    1.19    0.42
  -2  11  -9   -0.24    0.57
   3 -11   9   12.53    1.15
  -3 -11  -9   11.26    0.83
  -3 -11  -9   14.22    1.25
  -3  11  -9   13.63    1.30
  -4 -11  -9   11.57    0.92
  -4 -11  -9   12.37    1.41
   4 -11   9   13.32    1.30
  -4  11  -9   15.26    1.34
   5 -11   9   -0.59    0.99
  -5 -11  -9    0.43    0.83
  -5  11  -9   -0.85    0.75
  -6 -11  -9   -0.11    0.95
  -6  11  -9    0.16    0.85
  -7 -11  -9    1.14    1.12
  -7  11  -9   -0.13    1.04
  -8 -11  -9   -0.39    1.33
  -8  11  -9    0.69    1.36
  -9 -11  -9    0.60    1.63
  -9  11  -9   -0.12    1.61
  -9 -12   9    0.77    1.05
  -9  12   9    1.82    1.22
  -9  12   9    1.01    1.45
  -8 -12   9   -0.58    0.88
  -8  12   9    2.53    1.14
  -7 -12   9   11.40    1.26
  -7  12   9   10.03    1.14
  -6 -12   9   -0.28    0.61
  -6  12   9   -0.11    0.74
  -5 -12   9   -0.15    0.59
  -5  12   9    0.63    0.71
  -5  12   9    1.22    0.66
  -4 -12   9    3.97    0.65
  -4  12   9    3.45    0.79
  -4  12   9    4.13    0.73
  -3 -12   9   14.33    0.99
  -3  12   9   14.29    1.06
  -3  12   9   14.81    1.11
  -2 -12   9    1.69    0.50
   2 -12  -9    0.84    0.58
   1 -12  -9    1.18    0.69
   1 -12  -9    1.13    0.53
  -1 -12   9    1.26    0.50
   1  12  -9    0.85    0.60
   0 -12  -9   31.61    1.46
   0 -12   9   32.95    1.44
   0 -12  -9   37.07    1.77
   0  12  -9   32.87    1.66
  -1 -12  -9    0.07    0.63
   1 -12   9    0.23    0.52
  -1 -12  -9   -0.32    0.45
  -1  12  -9   -0.59    0.59
  -2 -12  -9   12.22    0.87
   2 -12   9   11.72    1.04
  -2 -12  -9   12.72    1.30
  -2  12  -9    9.97    1.15
   3 -12   9    0.46    0.71
  -3 -12  -9    0.62    0.49
  -3 -12  -9    1.99    0.84
  -3  12  -9    1.21    0.73
  -4 -12  -9    1.42    0.60
  -4 -12  -9    1.20    0.94
   4 -12   9    1.99    0.93
  -4  12  -9    0.23    0.80
  -5 -12  -9    1.58    0.96
   5 -12   9    1.06    1.11
  -5  12  -9    2.60    0.94
  -6 -12  -9   11.49    1.51
  -6  12  -9    7.27    1.30
  -7 -12  -9    1.59    1.36
  -7  12  -9    1.91    1.26
  -8 -12  -9    3.29    1.59
  -8  12  -9    3.85    1.63
  -9  13   9   -1.62    1.30
  -8 -13   9    4.46    1.08
  -8  13   9    2.73    1.27
  -7 -13   9    1.23    0.88
  -7  13   9    0.80    1.04
  -6 -13   9   10.51    1.21
  -6  13   9    9.69    1.12
  -5 -13   9    0.16    0.60
  -5  13   9    0.19    0.66
  -5  13   9   -0.58    0.74
  -4 -13   9   30.78    1.54
  -4  13   9   31.62    1.59
  -4  13   9   28.56    1.67
  -3 -13   9    2.49    0.68
  -3  13   9    2.28    0.74
  -3  13   9    2.39    0.78
   2 -13  -9   12.53    1.11
  -2 -13   9   12.20    1.06
  -1 -13   9    0.17    0.53
   1 -13  -9   -0.04    0.55
   1 -13  -9   -0.61    0.73
   1  13  -9   -0.78    0.63
   0 -13  -9   12.92    1.29
   0 -13  -9   10.11    0.95
   0 -13   9    9.31    0.94
   0  13  -9    9.29    1.12
  -1 -13  -9    2.20    0.59
   1 -13   9    3.97    0.68
  -1 -13  -9    2.92    0.81
  -1  13  -9    4.56    0.69
   2 -13   9    4.60    0.76
  -2 -13  -9    5.33    0.68
  -2 -13  -9    5.90    0.96
  -2  13  -9    6.10    0.88
  -3 -13  -9    2.07    0.62
   3 -13   9    2.67    0.85
  -3 -13  -9    4.52    1.02
  -3  13  -9    3.28    0.82
   4 -13   9    0.57    1.02
  -4 -13  -9   -0.19    0.96
  -4 -13  -9   -0.89    0.64
  -4  13  -9    0.90    0.90
  -5 -13  -9    2.24    1.27
   5 -13   9    1.11    1.28
  -5  13  -9    1.46    1.03
  -6 -13  -9    1.58    1.34
  -6  13  -9    1.65    1.32
  -7 -13  -9    0.40    1.55
  -7  13  -9    0.10    1.48
  -8 -13  -9    1.81    1.78
  -8  13  -9   -0.95    1.74
  -8 -14   9    1.85    1.19
  -8  14   9    0.74    1.89
  -7 -14   9    4.75    1.07
  -7  14   9    6.31    1.24
  -6 -14   9    1.72    0.87
  -6  14   9   -1.54    0.96
  -5 -14   9    1.27    0.76
  -5  14   9   -0.01    0.90
  -5  14   9    0.66    0.79
  -4 -14   9    0.30    0.70
  -4  14   9    0.48    0.85
  -4  14   9    0.19    0.74
  -3 -14   9   10.99    1.09
  -3  14   9   10.87    1.30
  -3  14   9   10.08    1.22
  -2 -14   9    4.53    0.76
   2 -14  -9    3.00    0.79
  -1 -14   9    3.95    0.76
   1 -14  -9    4.58    0.79
   0 -14   9    2.43    0.76
   0 -14  -9    1.81    0.68
   0 -14  -9    1.36    0.86
   0  14  -9    1.03    0.64
  -1 -14  -9   10.37    1.10
  -1 -14  -9   11.55    1.40
   1 -14   9    8.72    1.06
  -1  14  -9    9.58    0.97
   2 -14   9   13.30    1.39
  -2 -14  -9   16.13    1.53
  -2 -14  -9   14.03    1.17
  -2  14  -9   13.88    1.35
   3 -14   9    4.50    1.08
  -3 -14  -9    4.56    1.08
  -3 -14  -9    3.42    0.80
  -3  14  -9    5.20    0.97
  -4 -14  -9    2.57    1.21
   4 -14   9   -0.28    1.26
  -4 -14  -9   -0.16    0.82
  -4  14  -9    2.86    1.05
   5 -14   9    4.06    1.43
  -5 -14  -9    5.83    1.42
  -5  14  -9    4.63    1.30
  -6 -14  -9    9.74    1.82
  -6  14  -9   10.19    1.68
  -7 -14  -9    2.69    1.90
  -7  14  -9    1.17    1.72
  -7 -15   9    0.76    1.18
  -7  15   9   -2.63    1.52
  -6 -15   9    6.53    1.09
  -6  15   9    5.77    1.23
  -5 -15   9    0.65    0.91
  -5  15   9    1.43    0.98
  -5  15   9    1.07    1.07
  -4 -15   9    4.45    0.91
  -4  15   9    3.48    1.07
  -4  15   9    2.32    0.92
  -3 -15   9    2.98    0.84
  -3  15   9    3.43    1.00
  -3  15   9    5.01    0.97
   2 -15  -9    5.49    0.96
  -2 -15   9    7.24    0.94
   1 -15  -9   -0.78    0.69
  -1 -15   9   -0.39    0.74
   0 -15  -9   12.92    1.26
   0 -15  -9   14.80    1.66
   0 -15   9   12.71    1.34
   0  15  -9   17.27    1.49
   1 -15   9    2.92    0.91
  -1 -15  -9    3.33    0.77
  -1 -15  -9    2.91    1.07
  -1  15  -9    4.74    0.90
  -2 -15  -9    1.18    1.01
   2 -15   9    1.69    0.93
  -2 -15  -9    1.49    0.79
  -2  15  -9    1.90    0.89
   3 -15   9    1.65    1.14
  -3 -15  -9   -0.66    1.20
  -3 -15  -9    0.45    0.80
  -3  15  -9   -1.44    0.92
  -4 -15  -9   10.78    1.64
  -4 -15  -9   10.16    1.27
   4 -15   9    9.75    1.57
  -4  15  -9    9.03    1.32
   5 -15   9    0.53    1.58
  -5 -15  -9   -0.64    1.54
  -5  15  -9   -1.73    1.39
  -6 -15  -9    1.13    1.88
  -6  15  -9    0.97    1.58
  -6 -16   9    0.04    1.36
  -6  16   9   -0.54    1.28
  -5 -16   9    3.44    1.19
  -5  16   9    0.52    1.15
  -5  16   9    2.71    1.36
  -4 -16   9    0.64    0.97
  -4  16   9    1.34    1.18
  -4  16   9    0.97    1.02
  -3 -16   9   -1.54    0.85
  -3  16   9    0.81    1.07
  -3  16   9    0.71    0.99
  -2 -16   9   -0.55    0.86
   2 -16  -9   -0.12    0.90
   1 -16  -9    3.03    0.93
  -1 -16   9    2.23    0.91
   0 -16   9    6.44    1.04
   0 -16  -9    3.09    0.90
   0 -16  -9    4.51    1.22
  -1 -16  -9   -0.14    1.21
  -1 -16  -9    0.30    0.84
   1 -16   9    1.88    1.02
  -1  16  -9    0.59    0.93
  -2 -16  -9   -1.20    1.31
  -2 -16  -9    0.26    0.92
   2 -16   9    1.73    1.10
  -2  16  -9   -0.30    1.02
  -3 -16  -9    7.08    1.08
  -3 -16  -9    4.07    1.44
   3 -16   9    7.40    1.45
  -3  16  -9    3.07    1.23
  -4 -16  -9   -0.34    1.50
   4 -16   9    1.84    1.56
  -4  16  -9    1.07    1.53
  -5 -16  -9    1.37    1.81
  -6 -16  -9   -0.44    1.96
  -4 -17   9    2.59    1.23
  -4  17   9   -0.07    1.35
  -4  17   9    1.81    1.24
  -3 -17   9    0.80    1.13
  -3  17   9   -1.61    1.23
  -3  17   9    0.21    1.16
  -2 -17   9   -0.79    1.03
  -2  17   9    1.56    1.10
   1 -17  -9    2.45    1.05
  -1 -17   9    1.02    1.08
   0 -17   9    0.37    1.09
   0 -17  -9    0.67    1.00
  -1 -17  -9    0.05    1.36
  -1 -17  -9    1.48    1.01
   1 -17   9   -0.74    1.12
  -2 -17  -9   -0.91    1.01
  -2 -17  -9    0.48    1.48
   2 -17   9   -0.35    1.23
  -3 -17  -9   -1.25    1.53
  -3 -17  -9   -0.59    1.07
   3 -17   9    0.56    1.49
   4 -17   9    3.41    1.54
  -4 -17  -9    1.95    1.74
  -5 -17  -9   -0.83    1.85
  -2 -18   9    1.51    1.35
  -2  18   9    2.42    1.57
  -2  18   9    1.08    1.44
   1 -18  -9   -0.94    1.24
  -1 -18   9    0.62    1.29
   0 -18   9   -0.09    1.34
   1 -18   9   -0.10    1.40
  -1 -18  -9    1.22    1.20
  -1 -18  -9    0.59    1.50
   2 -18   9    2.45    1.58
  -2 -18  -9    3.07    1.64
  -2 -18  -9    1.48    1.23
  -3 -18  -9    0.82    1.72
  -3 -18  -9   -3.39    1.18
   3 -18   9   -2.06    2.05
 -11   0  10    3.94    1.11
 -10   0  10    0.47    0.81
 -10   0  10    0.74    0.74
  -9   0  10    7.79    0.96
  -9   0  10    5.78    0.69
  -8   0  10    2.81    0.56
  -8   0  10    1.42    0.43
  -7   0  10   19.47    0.94
  -6   0  10   10.86    0.73
  -6   0  10   10.18    0.69
  -5   0  10   14.64    0.71
  -4   0  10  199.70    6.05
  -3   0  10   25.32    0.94
  -2   0  10   37.45    1.25
  -1   0  10   72.45    2.22
   1   0 -10   70.22    2.39
   1   0 -10   70.75    2.34
   0   0  10  545.23   16.20
   0   0 -10  542.36   16.38
   0   0 -10  555.93   16.45
   1   0  10    3.26    0.26
  -1   0 -10    3.63    0.49
  -1   0 -10    4.28    0.47
  -2   0 -10    4.51    0.48
  -2   0 -10    3.57    0.46
  -2   0 -10    4.63    0.25
  -2   0 -10    4.93    0.24
   2   0  10    3.89    0.25
  -3   0 -10    1.56    0.35
  -3   0 -10    2.11    0.40
  -4   0 -10  153.51    4.82
  -4   0 -10  156.26    4.96
  -5   0 -10    2.97    0.53
  -6   0 -10    0.68    0.47
  -7   0 -10    6.08    0.72
  -8   0 -10    8.63    1.05
  -9   0 -10    2.43    0.88
 -10   0 -10    1.46    1.10
 -11   0 -10    2.27    1.49
 -11  -1  10    1.12    1.09
 -11   1  10    0.40    1.00
 -10  -1  10   14.61    1.44
 -10  -1  10   12.73    1.22
 -10   1  10    9.52    1.24
 -10   1  10   15.92    1.36
  -9  -1  10    0.22    0.53
  -9  -1  10    0.29    0.58
  -9   1  10    0.90    0.56
  -9   1  10   -0.05    0.59
  -8  -1  10   34.80    1.46
  -8  -1  10   31.92    1.33
  -8   1  10   33.81    1.47
  -8   1  10   32.35    1.37
  -7  -1  10    2.05    0.41
  -7  -1  10    2.54    0.47
  -7   1  10    2.10    0.44
  -7   1  10    2.16    0.49
  -6  -1  10   76.05    2.48
  -6  -1  10   73.89    2.44
  -6   1  10   73.02    2.45
  -5  -1  10    0.91    0.29
  -5   1  10    0.37    0.28
  -4  -1  10  108.13    3.36
  -4   1  10  107.59    3.36
  -3  -1  10   56.59    1.81
  -3   1  10   54.25    1.81
  -2  -1  10   35.62    1.18
  -2   1  10   33.64    1.18
  -1  -1  10  111.70    3.29
   1  -1 -10  105.78    3.41
   1  -1 -10  105.53    3.46
  -1   1  10  108.84    3.29
   1   1 -10  107.79    3.52
   1   1 -10  107.08    3.34
   0  -1 -10    5.97    0.59
   0  -1  10    5.05    0.35
   0  -1 -10    6.83    0.67
   0   1 -10    6.85    0.57
   0   1 -10    7.29    0.68
   0   1  10    6.21    0.35
   1  -1  10   77.40    2.30
  -1  -1 -10   72.65    2.52
  -1  -1 -10   74.20    2.55
   1   1  10   79.12    2.30
  -1   1 -10   72.76    2.62
  -1   1 -10   72.86    2.45
   2  -1  10    0.60    0.16
  -2  -1 -10    0.64    0.33
  -2  -1 -10    0.68    0.33
   2   1  10    0.48    0.14
  -2   1 -10    0.62    0.13
   2   1  10    0.85    0.18
  -2   1 -10    1.05    0.37
  -2   1 -10    0.69    0.29
  -3  -1 -10   96.30    3.18
  -3  -1 -10   96.54    3.11
  -3   1 -10   98.00    3.07
  -3   1 -10   96.16    3.24
  -4  -1 -10   23.80    1.14
  -4  -1 -10   24.02    1.09
  -4   1 -10   23.40    1.24
  -4   1 -10   24.78    1.03
  -5  -1 -10    0.09    0.42
  -5   1 -10    0.02    0.47
  -5   1 -10    0.89    0.41
  -6  -1 -10    0.53    0.48
  -6   1 -10    0.11    0.44
  -7  -1 -10    5.27    0.68
  -7   1 -10    5.86    0.72
  -8  -1 -10   27.86    1.48
  -8   1 -10   26.28    1.42
  -9  -1 -10    0.66    0.86
  -9   1 -10    0.78    0.87
 -10  -1 -10    0.21    1.08
 -10   1 -10   -0.43    1.03
 -11  -1 -10   -0.15    1.49
 -11   1 -10   -0.38    1.45
 -11  -2  10    0.32    1.03
 -11   2  10    1.62    1.09
 -10  -2  10    0.90    0.74
 -10  -2  10    0.13    0.79
 -10   2  10    1.61    0.84
 -10   2  10    3.20    0.79
  -9  -2  10    7.18    0.81
  -9  -2  10    7.64    0.88
  -9   2  10    7.20    0.77
  -9   2  10    7.01    0.84
  -8  -2  10    1.28    0.51
  -8  -2  10    1.69    0.42
  -8   2  10    1.61    0.59
  -8   2  10    1.58    0.45
  -7  -2  10    7.84    0.64
  -7  -2  10    8.01    0.69
  -7   2  10    6.98    0.68
  -7   2  10    6.42    0.72
  -6  -2  10   17.63    0.92
  -6  -2  10   16.83    0.83
  -6   2  10   16.04    0.86
  -5  -2  10    9.10    0.56
  -5  -2  10    9.14    0.58
  -5   2  10    8.66    0.59
  -4  -2  10   15.73    0.70
  -4   2  10   16.51    0.73
  -3  -2  10   20.75    0.81
  -3   2  10   20.34    0.84
  -2  -2  10  118.26    3.64
  -2   2  10  118.10    3.65
   2   2 -10  120.34    3.86
  -1  -2  10    1.89    0.23
   1  -2 -10    2.70    0.47
   1  -2 -10    1.86    0.31
   1   2 -10    0.83    0.43
  -1   2  10    1.39    0.23
   0  -2 -10   15.31    0.77
   0  -2  10   14.96    0.57
   0  -2 -10   15.21    0.90
   0   2  10   14.90    0.57
   0   2 -10   13.04    0.68
   0   2 -10   12.92    0.89
  -1  -2 -10    2.89    0.44
  -1  -2 -10    3.23    0.50
   1  -2  10    2.83    0.27
  -1   2 -10    3.48    0.40
  -1   2 -10    3.02    0.52
   1   2  10    2.55    0.27
   2  -2  10   43.84    1.36
  -2  -2 -10   42.95    1.58
  -2  -2 -10   42.44    1.57
   2   2  10   44.13    1.34
  -2   2 -10   42.15    1.46
   2   2  10   40.34    1.37
  -2   2 -10   43.97    1.71
  -3  -2 -10    1.75    0.40
  -3  -2 -10    2.46    0.41
  -3   2 -10    2.28    0.34
  -3   2 -10    2.41    0.47
  -4  -2 -10    6.14    0.69
  -4   2 -10    6.24    0.56
  -5  -2 -10    0.68    0.42
  -5   2 -10    0.62    0.47
  -5   2 -10    0.97    0.46
  -6  -2 -10    2.19    0.54
  -6   2 -10    1.04    0.51
  -6   2 -10    2.57    0.51
  -7  -2 -10    1.91    0.63
  -7   2 -10    3.32    0.63
  -8  -2 -10    0.11    0.65
  -8   2 -10    0.92    0.63
  -9  -2 -10    1.70    0.89
  -9   2 -10    1.36    0.89
 -10  -2 -10    1.56    1.12
 -10   2 -10   -1.26    1.09
 -11  -3  10    0.91    1.14
 -11   3  10    0.83    1.16
 -10  -3  10   23.09    1.65
 -10  -3  10   23.09    1.42
 -10   3  10   18.16    1.63
 -10   3  10   22.78    1.52
  -9  -3  10    1.62    0.57
  -9  -3  10    2.03    0.67
  -9   3  10    1.68    0.66
  -9   3  10    1.69    0.69
  -8  -3  10    2.04    0.57
  -8  -3  10    3.06    0.48
  -8   3  10    3.11    0.52
  -8   3  10    2.18    0.59
  -7  -3  10    0.24    0.34
  -7  -3  10    0.21    0.41
  -7   3  10   -0.08    0.39
  -6  -3  10   55.72    1.95
  -6  -3  10   58.42    1.93
  -6   3  10   55.33    1.96
  -5  -3  10    0.30    0.28
  -5  -3  10    0.53    0.28
  -5   3  10   -0.03    0.31
  -4  -3  10   30.82    1.05
  -4  -3  10   28.56    1.08
  -4   3  10   29.43    1.13
  -3  -3  10    2.94    0.36
  -3   3  10    2.64    0.33
  -2  -3  10   40.48    1.35
  -2   3  10   40.02    1.37
   2   3 -10   39.29    1.60
  -1  -3  10   36.38    1.21
   1  -3 -10   36.04    1.50
  -1   3  10   36.21    1.22
   1   3 -10   34.85    1.53
   0  -3 -10   13.54    0.68
   0  -3  10   13.64    0.56
   0  -3 -10   13.91    0.89
   0   3 -10   13.90    0.91
   0   3  10   13.95    0.57
   0   3 -10   12.81    0.57
   1  -3  10   22.11    0.77
  -1  -3 -10   21.75    0.97
  -1  -3 -10   20.63    1.07
  -1   3 -10   20.87    1.17
  -1   3 -10   21.99    0.87
   1   3  10   21.19    0.77
  -2  -3 -10    4.35    0.59
  -2  -3 -10    4.07    0.49
   2  -3  10    3.97    0.33
  -2   3 -10    4.15    0.40
   2   3  10    3.81    0.31
  -2   3 -10    3.96    0.56
  -3  -3 -10   22.00    1.00
  -3  -3 -10   22.64    1.06
   3  -3  10   22.52    0.84
   3   3  10   23.33    0.75
  -3   3 -10   22.52    0.89
  -3   3 -10   20.83    1.16
  -4  -3 -10   -0.10    0.42
  -4   3 -10    0.93    0.44
  -4   3 -10    0.71    0.32
  -5  -3 -10   20.68    1.07
  -5   3 -10   20.68    1.05
  -5   3 -10   20.02    1.12
  -6  -3 -10   20.06    1.11
  -6   3 -10   20.60    1.23
  -6   3 -10   19.43    1.03
  -7  -3 -10    0.82    0.65
  -7   3 -10    1.22    0.52
  -7   3 -10    1.14    0.63
  -8  -3 -10    0.56    0.73
  -8   3 -10   -0.95    0.71
  -8   3 -10   -0.39    0.61
  -9  -3 -10    2.36    0.91
  -9   3 -10    1.33    1.01
  -9   3 -10    1.56    0.86
 -10  -3 -10    3.97    1.25
 -10   3 -10    2.36    1.40
 -10   3 -10    3.80    1.27
 -11  -4  10    0.40    1.22
 -11   4  10   -0.12    1.20
 -10  -4  10    1.02    0.77
 -10  -4  10    1.53    0.98
 -10   4  10    0.68    0.91
 -10   4  10    0.54    0.84
  -9  -4  10    0.68    0.61
  -9  -4  10    1.10    0.69
  -9   4  10    0.79    0.68
  -9   4  10    0.60    0.74
  -8  -4  10    0.85    0.45
  -8  -4  10    1.09    0.56
  -8   4  10    0.74    0.58
  -8   4  10    0.57    0.50
  -7  -4  10    3.69    0.52
  -7  -4  10    3.56    0.45
  -7   4  10    4.03    0.54
  -6  -4  10   10.32    0.74
  -6  -4  10    9.33    0.66
  -6   4  10    9.08    0.75
  -5  -4  10   28.22    1.05
  -5  -4  10   27.80    1.10
  -5   4  10   28.46    1.16
  -4  -4  10   32.33    1.20
  -4  -4  10   35.47    1.16
  -4   4  10   32.31    1.25
  -3  -4  10    4.26    0.32
  -3  -4  10    4.48    0.39
  -3   4  10    4.53    0.43
  -2  -4  10  100.24    3.09
  -2   4  10   99.76    3.12
   2   4 -10   97.87    3.38
  -1  -4  10   73.94    2.25
   1  -4 -10   67.28    2.52
  -1   4  10   74.86    2.27
   1   4 -10   67.14    2.57
   0  -4 -10  104.13    3.46
   0  -4  10  101.62    3.16
   0  -4 -10  103.28    3.18
   0   4  10  100.60    3.16
   0   4 -10  103.47    3.53
   1  -4  10   13.35    0.55
  -1  -4 -10   11.82    0.89
  -1  -4 -10   12.79    0.73
   1   4  10   12.68    0.55
  -1   4 -10   12.61    0.95
  -1   4 -10   11.20    0.59
  -2  -4 -10  204.06    6.40
   2  -4  10  201.98    6.16
  -2  -4 -10  208.49    6.28
  -2   4 -10  205.17    6.52
   2   4  10  208.34    6.14
  -2   4 -10  202.57    6.17
   3  -4  10    8.68    0.55
  -3  -4 -10    7.28    0.77
  -3  -4 -10    9.20    0.66
   3   4  10    8.81    0.42
  -3   4 -10    8.32    0.52
  -3   4 -10    8.01    0.90
  -4  -4 -10   22.99    1.13
   4  -4  10   23.53    0.92
  -4   4 -10   22.61    0.95
  -4   4 -10   22.22    1.18
  -5  -4 -10    0.62    0.46
  -5   4 -10    0.06    0.44
  -5   4 -10   -0.46    0.41
  -6  -4 -10   25.48    1.29
  -6   4 -10   27.12    1.20
  -6   4 -10   25.96    1.44
  -7  -4 -10    7.40    0.86
  -7   4 -10    7.42    0.84
  -7   4 -10    6.12    0.84
  -8  -4 -10    5.09    0.89
  -8   4 -10    5.31    0.80
  -8   4 -10    3.74    0.91
  -9  -4 -10    9.00    1.18
  -9   4 -10    8.87    1.28
  -9   4 -10    9.21    1.13
 -10  -4 -10    0.28    1.28
 -10   4 -10    2.17    1.51
 -10   4 -10    0.82    1.26
 -11  -5  10   -0.41    1.21
 -11   5  10    0.21    1.27
 -10  -5  10   11.31    1.30
 -10  -5  10   10.58    1.23
 -10   5  10   10.79    1.31
 -10   5  10    9.82    1.13
  -9  -5  10    0.39    0.73
  -9  -5  10    0.32    0.67
  -9   5  10    1.49    0.73
  -9   5  10    0.53    0.82
  -8  -5  10    0.20    0.58
  -8  -5  10    0.54    0.47
  -8   5  10    0.51    0.53
  -7  -5  10   -0.03    0.43
  -7  -5  10    0.46    0.39
  -7   5  10    0.47    0.47
  -6  -5  10    7.92    0.64
  -6  -5  10    8.63    0.71
  -6   5  10    7.40    0.74
  -5  -5  10    2.38    0.39
  -5  -5  10    3.05    0.38
  -5   5  10    3.63    0.47
  -4  -5  10   15.20    0.72
  -4  -5  10   16.25    0.66
  -4   5  10   14.59    0.77
  -3  -5  10    0.72    0.20
  -3  -5  10    0.34    0.23
  -3   5  10    0.88    0.29
  -2  -5  10   15.48    0.67
  -2   5  10   15.44    0.72
   2   5 -10   14.68    1.02
  -1  -5  10   18.29    0.76
   1  -5 -10   17.40    1.10
  -1   5  10   19.05    0.80
   1   5 -10   17.49    1.14
   0  -5 -10    7.60    0.84
   0  -5 -10    7.13    0.42
   0  -5  10    6.45    0.44
   0   5  10    7.24    0.48
   0   5  10    7.30    0.46
   0   5 -10    6.54    0.85
  -1  -5 -10    1.22    0.51
   1  -5  10    0.52    0.24
  -1  -5 -10    0.78    0.33
  -1   5 -10    0.62    0.46
   1   5  10    1.57    0.26
   2  -5  10    0.54    0.27
  -2  -5 -10    1.07    0.34
  -2  -5 -10    1.18    0.50
  -2   5 -10    0.92    0.46
   2   5  10    0.33    0.23
   2   5  10    0.50    0.25
  -2   5 -10    0.84    0.23
  -3  -5 -10   14.54    0.97
  -3  -5 -10   15.20    0.80
   3  -5  10   14.57    0.73
   3   5  10   14.06    0.64
  -3   5 -10   13.98    1.07
   3   5  10   15.44    0.62
  -3   5 -10   14.34    0.64
  -4  -5 -10   11.42    0.86
   4  -5  10   12.46    0.76
   4   5  10   12.68    0.55
  -4   5 -10   13.53    0.99
  -4   5 -10   13.77    0.67
  -5  -5 -10   17.01    1.04
  -5   5 -10   17.74    1.11
  -5   5 -10   18.07    0.93
  -6  -5 -10   21.55    1.23
  -6   5 -10   20.87    1.06
  -6   5 -10   20.30    1.32
  -7  -5 -10    0.46    0.64
  -7   5 -10    0.87    0.55
  -7   5 -10    0.77    0.72
  -8  -5 -10    1.09    0.87
  -8   5 -10    3.03    0.98
  -8   5 -10    1.80    0.72
  -9  -5 -10    3.80    1.05
  -9   5 -10    3.96    1.22
  -9   5 -10    3.69    1.09
 -10  -5 -10    2.43    1.38
 -10   5 -10    3.33    1.60
 -10   5 -10    4.80    1.40
 -11  -6  10    0.15    1.27
 -11   6  10    0.93    1.43
 -10  -6  10    1.67    0.87
 -10  -6  10    0.85    1.04
 -10   6  10    0.01    0.96
 -10   6  10    0.35    1.13
  -9  -6  10   14.12    1.36
  -9  -6  10   15.47    1.24
  -9   6  10   14.39    1.50
  -9   6  10   13.00    1.40
  -8  -6  10    0.04    0.61
  -8  -6  10    0.35    0.50
  -8   6  10    0.27    0.59
  -7  -6  10    5.80    0.62
  -7  -6  10    4.73    0.56
  -7   6  10    5.14    0.65
  -6  -6  10    0.95    0.42
  -6  -6  10    1.17    0.39
  -6   6  10    1.08    0.47
  -5  -6  10   17.06    0.74
  -5  -6  10   16.04    0.80
  -5   6  10   14.97    0.89
  -4  -6  10   13.86    0.72
  -4  -6  10   14.71    0.62
  -4   6  10   14.36    0.81
  -3  -6  10   -0.07    0.23
  -3  -6  10    0.24    0.19
  -3   6  10    0.35    0.28
  -2  -6  10    2.33    0.32
   2   6 -10    3.00    0.63
  -2   6  10    2.90    0.36
  -1  -6  10    0.95    0.27
   1  -6 -10   -0.62    0.53
   1   6 -10    0.75    0.55
  -1   6  10    1.32    0.31
  -1   6  10    1.20    0.33
   0  -6 -10  121.08    3.99
   0  -6  10  117.32    3.69
   0   6  10  119.20    3.71
   0   6 -10  119.27    4.07
   0   6  10  118.83    3.74
  -1  -6 -10    0.46    0.26
  -1  -6 -10    0.56    0.55
   1  -6  10    0.19    0.27
   1   6  10    0.27    0.27
   1   6  10    0.47    0.26
  -1   6 -10    0.09    0.51
  -2  -6 -10   63.60    2.37
  -2  -6 -10   65.27    2.07
   2  -6  10   62.52    2.05
  -2   6 -10   60.41    2.45
   2   6  10   61.19    2.04
   2   6  10   62.63    2.02
  -2   6 -10   60.28    1.95
  -3  -6 -10   17.43    0.86
  -3  -6 -10   16.97    1.05
   3  -6  10   17.17    0.87
   3   6  10   16.59    0.76
  -3   6 -10   18.23    0.72
   3   6  10   18.61    0.75
  -3   6 -10   16.32    1.15
   4  -6  10   66.09    2.22
  -4  -6 -10   61.88    2.37
   4   6  10   68.50    2.11
   4   6  10   68.53    2.08
  -4   6 -10   62.90    2.14
  -4   6 -10   65.10    2.51
   5  -6  10    1.65    0.45
  -5  -6 -10    1.48    0.54
  -5   6 -10    1.30    0.51
  -5   6 -10    1.15    0.44
  -6  -6 -10   28.71    1.46
  -6   6 -10   25.75    1.21
  -6   6 -10   28.52    1.59
  -7  -6 -10   16.54    1.31
  -7   6 -10   14.99    1.05
  -7   6 -10   17.10    1.47
  -8  -6 -10    2.04    0.92
  -8   6 -10    0.78    0.74
  -8   6 -10    1.70    1.03
  -9  -6 -10    7.86    1.34
  -9   6 -10    7.48    1.21
  -9   6 -10    7.95    1.39
 -10  -6 -10    1.95    1.46
 -10   6 -10    2.48    1.36
 -10   6 -10    0.40    1.66
 -11  -7  10    2.39    1.30
 -11   7  10    0.29    1.54
 -10  -7  10    1.93    1.09
 -10  -7  10   -0.31    0.96
 -10   7  10   -2.12    1.03
 -10   7  10   -1.01    1.13
  -9  -7  10   -0.62    0.81
  -9  -7  10    0.17    0.66
  -9   7  10    0.42    0.88
  -9   7  10    0.16    0.87
  -8  -7  10   50.13    1.99
  -8  -7  10   49.49    1.93
  -8   7  10   49.20    2.08
  -7  -7  10    0.71    0.52
  -7  -7  10    0.62    0.44
  -7   7  10    0.61    0.57
  -6  -7  10    0.48    0.45
  -6  -7  10    0.83    0.41
  -6   7  10    0.84    0.50
  -5  -7  10   13.19    0.76
  -5  -7  10   12.25    0.67
  -5   7  10   12.96    0.88
  -4  -7  10   69.40    2.22
  -4  -7  10   70.29    2.35
  -4   7  10   72.95    2.43
  -3  -7  10    2.96    0.33
  -3  -7  10    4.01    0.46
  -3   7  10    3.76    0.46
  -2  -7  10    0.45    0.28
  -2   7  10    0.72    0.32
  -2   7  10    0.48    0.34
   2   7 -10    0.69    0.62
   1  -7 -10   63.11    2.52
  -1  -7  10   64.42    2.14
  -1   7  10   66.50    2.22
  -1   7  10   65.43    2.18
   1   7 -10   66.02    2.57
   0  -7  10    0.60    0.30
   0  -7 -10    0.82    0.61
   0   7 -10    0.32    0.57
   0   7  10    0.93    0.38
   0   7  10    0.35    0.32
   1  -7  10    2.46    0.41
  -1  -7 -10    3.37    0.73
   1   7  10    2.36    0.42
  -1   7 -10    3.62    0.70
   1   7  10    2.41    0.42
  -2  -7 -10    5.55    0.72
   2  -7  10    4.17    0.53
  -2  -7 -10    5.23    0.55
  -3  -7 -10   42.98    1.52
  -3  -7 -10   42.19    1.78
   3  -7  10   42.08    1.60
  -3   7 -10   41.60    1.40
  -3   7 -10   43.48    1.93
  -4  -7 -10   50.15    2.03
   4  -7  10   54.23    1.94
  -4   7 -10   51.49    2.13
  -4   7 -10   50.39    1.73
  -5  -7 -10    1.16    0.58
   5  -7  10    2.42    0.56
  -5   7 -10    1.12    0.41
  -5   7 -10    1.56    0.61
  -6  -7 -10   -0.22    0.63
  -6   7 -10   -0.28    0.63
  -6   7 -10    1.04    0.53
  -7  -7 -10    3.09    0.80
  -7   7 -10    1.71    0.82
  -7   7 -10    2.65    0.66
  -8  -7 -10   22.41    1.79
  -8   7 -10   22.48    1.55
  -8   7 -10   24.52    1.97
  -9  -7 -10    1.06    1.24
  -9   7 -10    0.99    1.17
  -9   7 -10   -1.30    1.16
 -10  -7 -10    3.24    1.56
 -10   7 -10    2.65    1.66
 -10   7 -10    1.30    1.90
 -10  -8  10    1.93    1.18
 -10  -8  10   -0.74    1.03
 -10   8  10    0.87    1.29
 -10   8  10   -0.85    1.19
  -9  -8  10   10.03    1.27
  -9  -8  10    9.10    1.04
  -9   8  10    9.34    1.15
  -9   8  10    8.86    1.19
  -8  -8  10    3.82    0.69
  -8  -8  10    2.82    0.72
  -8   8  10    4.19    0.81
  -7  -8  10    0.52    0.52
  -7  -8  10    0.82    0.48
  -7   8  10    1.25    0.60
  -6  -8  10    2.97    0.52
  -6  -8  10    3.73    0.54
  -6   8  10    3.07    0.59
  -5  -8  10   39.88    1.48
  -5  -8  10   35.71    1.33
  -5   8  10   37.76    1.58
  -4  -8  10  164.58    5.14
  -4  -8  10  165.26    4.99
  -4   8  10  166.49    5.22
  -3  -8  10    1.76    0.36
  -3   8  10    2.40    0.46
  -3   8  10    1.45    0.40
  -2  -8  10    2.76    0.38
  -2   8  10    2.26    0.46
   2   8 -10    3.60    0.79
  -2   8  10    2.98    0.45
  -1  -8  10   17.34    0.83
   1  -8 -10   17.63    1.22
   1   8 -10   17.14    1.37
  -1   8  10   19.06    0.90
  -1   8  10   18.53    0.93
   0  -8  10  369.04   11.04
   0  -8 -10  381.54   11.32
   0   8  10  377.58   11.07
   0   8 -10  339.86   11.36
   0   8  10  369.25   11.09
  -1  -8 -10   -0.78    0.47
  -1  -8 -10    0.43    0.35
   1  -8  10   -0.32    0.32
  -1   8 -10   -0.33    0.60
  -2  -8 -10    0.63    0.54
   2  -8  10    0.69    0.40
  -2  -8 -10    0.46    0.36
  -2   8 -10    0.76    0.59
  -3  -8 -10    4.81    0.52
  -3  -8 -10    3.72    0.53
  -3  -8 -10    3.59    0.68
   3  -8  10    4.83    0.61
  -3   8 -10    4.32    0.74
  -3   8 -10    3.85    0.40
  -4  -8 -10   97.27    3.08
   4  -8  10   97.60    3.27
  -4  -8 -10   93.82    3.40
  -4   8 -10  102.47    3.58
  -4   8 -10   95.26    3.05
   5  -8  10    3.79    0.90
  -5  -8 -10    5.01    0.74
  -5   8 -10    4.67    0.80
  -5   8 -10    3.55    0.49
  -6  -8 -10    2.02    0.75
  -6   8 -10    1.83    0.59
  -6   8 -10    0.85    0.73
  -7  -8 -10    4.47    0.95
  -7   8 -10    4.42    0.98
  -7   8 -10    5.02    0.79
  -8  -8 -10    4.99    1.10
  -8   8 -10    4.68    1.11
  -8   8 -10    4.74    1.16
  -9  -8 -10    3.25    1.36
  -9   8 -10    2.70    1.41
 -10   9  10   -0.33    1.26
 -10   9  10    0.68    1.36
  -9  -9  10    0.88    0.87
  -9   9  10    1.40    1.04
  -9   9  10   -0.12    1.09
  -8  -9  10   50.31    2.08
  -8  -9  10   49.90    2.21
  -8   9  10   50.83    2.29
  -7  -9  10    4.95    0.68
  -7  -9  10    3.88    0.63
  -7   9  10    4.15    0.81
  -6  -9  10    3.28    0.53
  -6  -9  10    3.07    0.53
  -6   9  10    3.21    0.62
  -5  -9  10    2.69    0.40
  -5  -9  10    2.14    0.49
  -5   9  10    3.52    0.60
  -4  -9  10   53.24    1.94
  -4   9  10   55.43    2.05
  -3  -9  10    4.27    0.50
  -3   9  10    4.84    0.55
  -3   9  10    5.69    0.70
  -2  -9  10    0.32    0.33
  -2   9  10    0.43    0.36
   2   9 -10    0.05    0.65
  -2   9  10   -0.09    0.38
   1  -9 -10   41.76    1.86
  -1  -9  10   40.79    1.54
  -1   9  10   43.42    1.61
  -1   9  10   42.86    1.63
   1   9 -10   43.11    1.96
   0  -9  10    1.13    0.38
   0  -9 -10    1.24    0.56
   0  -9 -10    0.85    0.39
   0   9 -10    1.13    0.62
  -1  -9 -10    3.05    0.65
   1  -9  10    2.69    0.45
  -1  -9 -10    3.46    0.45
  -1   9 -10    3.08    0.69
  -2  -9 -10    3.25    0.44
  -2  -9 -10    1.80    0.63
   2  -9  10    3.42    0.52
  -2   9 -10    3.71    0.73
  -3  -9 -10   28.74    1.16
   3  -9  10   29.55    1.35
  -3  -9 -10   27.87    1.57
  -3   9 -10   28.82    1.65
  -4  -9 -10    5.98    0.70
   4  -9  10    6.46    0.84
  -4  -9 -10    5.89    0.86
  -4   9 -10    7.14    0.91
  -5  -9 -10   -0.12    0.67
   5  -9  10   -0.28    0.82
  -5   9 -10    0.22    0.70
  -6  -9 -10    0.81    0.81
  -6   9 -10    0.84    0.78
  -7  -9 -10    1.29    1.03
  -7   9 -10    1.43    0.99
  -8  -9 -10    2.23    1.22
  -8   9 -10    2.14    1.16
  -9  -9 -10   -1.50    1.36
  -9   9 -10    0.96    1.49
 -10  10  10    2.42    1.55
 -10  10  10    1.40    1.45
  -9 -10  10    1.84    0.93
  -9  10  10    1.95    1.09
  -9  10  10   -2.97    1.11
  -8 -10  10    1.41    0.82
  -8  10  10    2.36    0.99
  -7 -10  10    7.68    0.83
  -7  10  10    9.78    0.98
  -6 -10  10    4.02    0.66
  -6  10  10    3.64    0.79
  -5 -10  10    0.99    0.48
  -5  10  10    0.65    0.55
  -4 -10  10   29.32    1.29
  -4  10  10   31.08    1.46
  -4  10  10   28.52    1.37
  -3 -10  10    0.66    0.41
  -3  10  10   -0.16    0.48
  -3  10  10    0.34    0.47
  -2 -10  10   22.12    1.03
  -2  10  10   22.99    1.17
  -2  10  10   22.00    1.12
   1 -10 -10    4.28    0.80
  -1 -10  10    4.91    0.53
  -1  10  10    4.11    0.56
   1  10 -10    4.61    0.79
  -1  10  10    5.75    0.73
   0 -10 -10    8.50    1.03
   0 -10 -10    7.23    0.71
   0 -10  10    7.67    0.65
   0  10 -10    7.58    0.88
  -1 -10 -10    0.76    0.40
   1 -10  10    0.63    0.41
  -1 -10 -10    0.71    0.60
  -1  10 -10    0.78    0.60
   2 -10  10    4.89    0.62
  -2 -10 -10    4.97    0.52
  -2 -10 -10    5.31    0.81
  -2  10 -10    3.57    0.77
   3 -10  10   -0.10    0.61
  -3 -10 -10    2.70    0.74
  -3 -10 -10    0.54    0.40
  -3  10 -10   -0.38    0.68
   4 -10  10    2.87    0.83
  -4 -10 -10    1.56    0.80
  -4 -10 -10   -0.15    0.45
  -4  10 -10    0.74    0.72
   5 -10  10    4.22    1.04
  -5 -10 -10    4.86    0.93
  -5  10 -10    4.65    0.87
  -6 -10 -10    0.55    0.88
  -6  10 -10    1.12    0.85
  -7 -10 -10    1.48    1.07
  -7  10 -10    0.42    0.99
  -8 -10 -10   -1.25    1.21
  -8  10 -10    1.79    1.26
  -9 -10 -10    0.30    1.60
  -9  10 -10    1.73    1.66
  -9 -11  10    0.13    0.95
  -9  11  10    0.93    1.22
  -9  11  10    1.80    1.26
  -8 -11  10    3.03    0.90
  -8  11  10    2.02    1.12
  -7 -11  10    0.11    0.68
  -7  11  10   -0.67    0.82
  -6 -11  10   11.27    1.05
  -6  11  10   10.90    1.19
  -5 -11  10    0.24    0.54
  -5  11  10    0.86    0.66
  -4 -11  10    5.43    0.64
  -4  11  10    5.15    0.77
  -4  11  10    5.25    0.70
  -3 -11  10    2.38    0.54
  -3  11  10    2.98    0.66
  -3  11  10    4.27    0.64
  -2 -11  10    0.43    0.42
  -2  11  10   -0.06    0.50
  -2  11  10    0.44    0.48
  -1 -11  10    0.19    0.41
   1 -11 -10    0.80    0.50
   1 -11 -10    0.14    0.64
   1  11 -10    0.17    0.60
   0 -11 -10    4.69    0.79
   0 -11  10    3.14    0.55
   0 -11 -10    3.22    0.52
   0  11 -10    3.59    0.72
  -1 -11 -10   13.15    0.89
  -1 -11 -10   14.92    1.19
   1 -11  10   14.14    0.94
  -1  11 -10   12.85    1.24
  -2 -11 -10   13.24    1.22
   2 -11  10   11.67    0.97
  -2 -11 -10   11.78    0.85
  -2  11 -10   14.71    1.32
   3 -11  10    1.21    0.68
  -3 -11 -10    1.19    0.76
  -3 -11 -10   -0.21    0.43
  -3  11 -10   -0.33    0.71
  -4 -11 -10   10.58    0.94
  -4 -11 -10   11.81    1.44
   4 -11  10   11.78    1.38
  -4  11 -10    9.75    1.13
   5 -11  10    1.37    1.06
  -5 -11 -10    0.37    0.89
  -5  11 -10    0.15    0.83
  -6 -11 -10    8.93    1.35
  -6  11 -10   12.77    1.79
  -7 -11 -10   -0.67    1.14
  -7  11 -10    0.83    1.11
  -8 -11 -10    2.80    1.49
  -8  11 -10    0.36    1.42
  -9 -12  10    1.06    1.16
  -9  12  10   -1.17    1.29
  -9  12  10    0.52    1.47
  -8 -12  10    3.26    1.04
  -8  12  10    2.39    1.20
  -7 -12  10    1.39    0.82
  -7  12  10    0.94    0.99
  -6 -12  10   14.28    1.20
  -6  12  10   15.39    1.40
  -5 -12  10    0.77    0.60
  -5  12  10   -0.94    0.65
  -4 -12  10    9.76    0.99
  -4  12  10   10.11    1.19
  -4  12  10    8.84    1.10
  -3 -12  10    5.25    0.66
  -3  12  10    5.47    0.72
  -3  12  10    5.09    0.75
  -2 -12  10   44.79    1.84
  -2  12  10   47.86    1.93
  -2  12  10   49.92    1.99
   1 -12 -10    2.28    0.60
   1 -12 -10    2.26    0.75
  -1 -12  10    2.52    0.53
   1  12 -10    1.57    0.69
   0 -12 -10   19.82    1.43
   0 -12  10   15.79    1.03
   0 -12 -10   16.69    1.05
   0  12 -10   16.49    1.26
  -1 -12 -10    9.92    1.15
   1 -12  10    7.98    0.88
  -1 -12 -10    7.65    0.84
  -1  12 -10    9.49    1.09
  -2 -12 -10   16.73    1.40
   2 -12  10   15.78    1.18
  -2 -12 -10   16.09    1.01
  -2  12 -10   17.36    1.37
  -3 -12 -10    0.96    0.85
  -3 -12 -10    1.45    0.56
   3 -12  10    2.10    0.80
  -3  12 -10    2.33    0.82
   4 -12  10    4.49    1.04
  -4 -12 -10    4.33    1.03
  -4 -12 -10    3.13    0.69
  -4  12 -10    2.58    0.96
  -5 -12 -10    4.05    1.14
   5 -12  10    4.03    1.20
  -5  12 -10    5.21    1.11
  -6 -12 -10    0.43    1.19
  -6  12 -10   -0.36    1.08
  -7 -12 -10   -2.14    1.33
  -7  12 -10    1.19    1.39
  -8 -12 -10   -1.95    1.63
  -8  12 -10   -1.93    1.61
  -8 -13  10   -0.34    1.05
  -8  13  10    2.85    1.35
  -7 -13  10    7.65    1.05
  -7  13  10    6.96    1.21
  -6 -13  10    3.66    0.84
  -6  13  10    1.16    0.88
  -5 -13  10    0.46    0.70
  -5  13  10    0.22    0.79
  -4 -13  10    9.98    1.09
  -4  13  10   12.06    1.30
  -4  13  10   10.52    1.16
  -3 -13  10   20.25    1.24
  -3  13  10   19.54    1.37
  -3  13  10   20.87    1.45
  -2 -13  10   -0.24    0.58
  -2  13  10    1.72    0.69
  -2  13  10    0.36    0.69
   1 -13 -10    1.21    0.60
   1 -13 -10    0.12    0.76
  -1 -13  10    1.19    0.56
   1  13 -10   -1.45    0.59
   0 -13 -10   33.20    1.74
   0 -13  10   29.28    1.47
   0 -13 -10   28.22    1.44
   0  13 -10   29.31    1.57
  -1 -13 -10    5.13    0.70
   1 -13  10    6.64    0.78
  -1 -13 -10    4.69    0.92
  -1  13 -10    6.62    0.81
  -2 -13 -10    7.91    1.01
   2 -13  10    8.15    0.92
  -2 -13 -10    6.55    0.77
  -2  13 -10    6.25    0.89
  -3 -13 -10    0.63    0.66
  -3 -13 -10    1.32    0.95
   3 -13  10   -0.08    0.88
  -3  13 -10    0.30    0.81
   4 -13  10    4.51    1.15
  -4 -13 -10    5.92    1.16
  -4 -13 -10    3.90    0.84
  -4  13 -10    3.98    1.04
  -5 -13 -10    2.07    1.28
   5 -13  10   -1.27    1.37
  -5  13 -10   -1.42    1.07
  -6 -13 -10   12.08    1.75
  -6  13 -10   13.93    1.69
  -7 -13 -10   -0.04    1.64
  -7  13 -10    1.78    1.57
  -7 -14  10    2.88    1.09
  -7  14  10    1.81    1.29
  -6 -14  10    6.21    1.04
  -6  14  10    6.92    1.14
  -5 -14  10    4.48    0.87
  -5  14  10    1.91    0.94
  -4 -14  10    0.37    0.75
  -4  14  10    1.33    0.82
  -4  14  10    0.40    0.89
  -3 -14  10    3.73    0.76
  -3  14  10    4.54    0.91
  -3  14  10    3.20    0.79
  -2 -14  10    9.47    1.13
  -2  14  10    9.43    1.20
  -2  14  10   10.49    1.25
  -1 -14  10    6.02    0.84
   1 -14 -10    6.80    0.87
   0 -14  10    9.72    1.15
   0 -14 -10   11.11    1.20
   0 -14 -10    9.13    1.12
   0  14 -10    8.19    1.19
  -1 -14 -10    5.78    0.84
   1 -14  10    7.43    0.98
  -1 -14 -10    8.33    1.08
  -1  14 -10    6.36    0.90
   2 -14  10   10.61    1.13
  -2 -14 -10    8.76    0.95
  -2 -14 -10    9.52    1.17
  -2  14 -10    7.90    1.01
  -3 -14 -10    3.88    0.86
  -3 -14 -10    6.96    1.16
   3 -14  10    2.52    1.09
  -3  14 -10    2.83    0.94
  -4 -14 -10   21.32    2.13
   4 -14  10   22.01    2.18
  -4  14 -10   17.68    1.91
  -5 -14 -10    3.31    1.44
  -5  14 -10    2.93    1.40
  -6 -14 -10    3.68    1.63
  -6  14 -10    2.49    1.58
  -7 -14 -10    2.34    1.92
  -7  14 -10    2.61    1.73
  -6 -15  10    0.06    1.03
  -6  15  10   -0.49    1.11
  -5 -15  10    0.68    0.95
  -5  15  10   -0.87    1.01
  -5  15  10   -1.72    1.11
  -4 -15  10   10.04    1.10
  -4  15  10    9.30    1.27
  -4  15  10    8.07    1.13
  -3 -15  10    3.50    0.92
  -3  15  10    5.09    1.07
  -3  15  10    3.61    0.94
  -2 -15  10   -0.38    0.77
  -2  15  10   -0.27    0.83
  -2  15  10    1.30    0.92
   1 -15 -10   -0.64    0.76
  -1 -15  10   -1.08    0.76
   0 -15 -10    6.70    1.16
   0 -15 -10    6.73    0.92
   0 -15  10    7.08    0.96
   0  15 -10    6.35    0.99
   1 -15  10    1.20    0.88
  -1 -15 -10   -0.97    0.70
  -1 -15 -10    1.15    1.03
  -1  15 -10   -0.87    0.82
  -2 -15 -10    2.23    0.83
  -2 -15 -10    2.45    1.16
   2 -15  10    2.63    1.08
  -2  15 -10    2.04    0.92
  -3 -15 -10    2.62    0.92
   3 -15  10    5.79    1.28
  -3 -15 -10    4.60    1.31
  -3  15 -10    4.42    1.11
  -4 -15 -10    1.13    1.42
   4 -15  10    0.51    1.41
  -4  15 -10    2.80    1.27
  -5 -15 -10   -1.56    1.59
  -5  15 -10   -0.21    1.37
  -6 -15 -10    2.87    1.97
  -6  15 -10    3.40    1.71
  -5 -16  10    1.26    1.16
  -5  16  10   -2.06    1.32
  -5  16  10    1.58    1.29
  -4 -16  10   10.08    1.27
  -4  16  10    9.74    1.42
  -4  16  10    9.76    1.27
  -3 -16  10   -0.15    1.00
  -3  16  10    0.71    1.16
  -3  16  10    1.24    1.06
  -2 -16  10    0.62    0.95
  -2  16  10    0.26    1.01
  -2  16  10    0.57    1.07
   1 -16 -10    2.69    0.95
  -1 -16  10    2.21    0.99
   0 -16  10   24.14    1.80
   0 -16 -10   19.60    1.61
   0 -16 -10   25.37    2.30
   0  16 -10   19.14    1.88
  -1 -16 -10    0.08    1.28
  -1 -16 -10    0.55    0.92
   1 -16  10    0.62    1.05
  -1  16 -10    1.34    0.97
  -2 -16 -10    1.22    1.34
  -2 -16 -10    1.39    0.94
   2 -16  10    3.43    1.21
  -2  16 -10    0.43    1.08
   3 -16  10    4.34    1.39
  -3 -16 -10    3.58    1.44
  -3 -16 -10    2.66    1.01
  -3  16 -10    3.21    1.27
  -4 -16 -10   15.98    1.96
   4 -16  10   14.70    1.83
  -4  16 -10   10.81    1.65
  -5 -16 -10    4.19    1.95
  -5  16 -10    3.50    1.77
  -4 -17  10    0.05    1.22
  -4  17  10    0.57    1.34
  -4  17  10    0.43    1.43
  -3 -17  10    0.53    1.18
  -3  17  10    0.53    1.24
  -3  17  10   -0.11    1.34
  -2 -17  10   -0.83    1.05
  -2  17  10    1.96    1.25
  -2  17  10    0.17    1.17
  -1 -17  10    0.14    1.10
   1 -17 -10    0.24    1.07
   0 -17 -10    1.44    1.07
   0 -17  10    1.64    1.13
  -1 -17 -10   -1.16    0.97
   1 -17  10    0.39    1.15
  -1 -17 -10   -3.04    1.35
   2 -17  10    3.68    1.29
  -2 -17 -10    1.36    1.07
  -2 -17 -10    2.23    1.52
  -3 -17 -10    1.50    1.11
   3 -17  10    1.23    1.44
  -3 -17 -10   -0.59    1.52
   4 -17  10    2.94    1.73
  -4 -17 -10    4.93    1.80
  -1 -18  10   -0.34    1.44
  -1  18  10    3.91    1.48
  -1  18  10    1.78    1.58
   0 -18 -10    1.66    1.34
   0 -18  10    0.71    1.42
  -1 -18 -10   -1.14    1.59
   1 -18  10    0.64    1.46
  -1 -18 -10   -0.91    1.21
  -2 -18 -10    1.77    1.69
   2 -18  10    0.79    1.67
  -2 -18 -10    1.99    1.22
  -3 -18 -10    0.48    1.80
 -11   0  11    0.74    1.10
 -10   0  11    0.74    0.71
 -10   0  11   -0.26    0.79
  -9   0  11    0.03    0.60
  -9   0  11    1.26    0.58
  -8   0  11    0.99    0.44
  -8   0  11   -0.17    0.47
  -7   0  11    0.89    0.42
  -7   0  11    0.08    0.36
  -6   0  11    1.17    0.36
  -4   0  11    0.15    0.26
  -3   0  11   -0.03    0.22
  -2   0  11    0.48    0.22
  -1   0  11    0.10    0.18
   1   0 -11    0.38    0.33
   1   0 -11    0.12    0.32
   0   0 -11    0.58    0.35
   0   0 -11    1.19    0.40
  -1   0 -11   -0.01    0.36
   1   0  11   -0.26    0.14
  -1   0 -11    0.05    0.37
  -2   0 -11    0.16    0.17
  -2   0 -11    0.19    0.33
  -2   0 -11    0.38    0.16
   2   0  11    0.07    0.15
  -2   0 -11    0.47    0.37
  -3   0 -11    0.01    0.37
  -3   0 -11   -0.02    0.32
  -4   0 -11    0.99    0.42
  -4   0 -11    0.61    0.49
  -5   0 -11    0.04    0.49
  -5   0 -11   -0.67    0.43
  -6   0 -11    0.13    0.48
  -7   0 -11    0.48    0.54
  -8   0 -11   -0.84    0.68
  -9   0 -11   -1.07    0.90
 -10   0 -11   -1.36    1.10
 -11  -1  11    0.25    1.06
 -11   1  11    0.25    1.10
 -10  -1  11    4.00    0.79
 -10  -1  11    4.98    0.94
 -10   1  11    6.08    0.85
 -10   1  11    5.25    0.97
  -9  -1  11    0.44    0.63
  -9  -1  11    0.78    0.57
  -9   1  11    1.00    0.59
  -9   1  11    2.07    0.68
  -8  -1  11    4.23    0.59
  -8  -1  11    4.63    0.55
  -8   1  11    5.00    0.67
  -8   1  11    4.07    0.56
  -7  -1  11    1.13    0.38
  -7  -1  11    1.11    0.43
  -7   1  11    1.39    0.41
  -7   1  11    1.09    0.44
  -6  -1  11    8.45    0.65
  -6  -1  11    8.28    0.68
  -6   1  11    9.05    0.68
  -5  -1  11   32.54    1.21
  -5   1  11   32.85    1.23
  -4  -1  11    5.20    0.45
  -4   1  11    5.93    0.47
  -3  -1  11    3.08    0.36
  -3   1  11    2.07    0.29
  -2  -1  11    1.73    0.26
  -2   1  11    1.98    0.28
   1  -1 -11   34.90    1.39
   1  -1 -11   33.98    1.33
  -1  -1  11   35.79    1.17
   1   1 -11   33.65    1.24
  -1   1  11   35.50    1.18
   1   1 -11   35.13    1.44
   0  -1 -11    6.23    0.61
   0  -1  11    6.41    0.36
   0  -1 -11    6.30    0.69
   0   1 -11    5.29    0.68
   0   1 -11    6.12    0.61
   0   1  11    6.45    0.37
  -1  -1 -11    0.73    0.39
  -1  -1 -11    0.74    0.39
   1  -1  11    0.67    0.18
  -1   1 -11    0.50    0.41
   1   1  11    0.98    0.18
  -1   1 -11    1.21    0.39
  -2  -1 -11    7.35    0.68
   2  -1  11    7.20    0.35
  -2  -1 -11    6.65    0.63
  -2   1 -11    7.23    0.57
   2   1  11    7.13    0.34
  -2   1 -11    5.97    0.71
  -3  -1 -11    4.45    0.58
  -3  -1 -11    3.29    0.50
  -3   1 -11    2.91    0.42
  -3   1 -11    2.27    0.48
  -4  -1 -11    5.21    0.64
  -4  -1 -11    6.06    0.74
  -4   1 -11    4.40    0.65
  -4   1 -11    5.84    0.63
  -5  -1 -11    0.47    0.45
  -5  -1 -11    0.17    0.46
  -5   1 -11    0.10    0.45
  -6  -1 -11   11.58    0.94
  -6   1 -11   10.06    0.84
  -6   1 -11    8.71    1.00
  -7  -1 -11    2.18    0.64
  -7   1 -11    1.65    0.56
  -7   1 -11    1.43    0.66
  -8  -1 -11    1.63    0.71
  -8   1 -11    1.48    0.70
  -9  -1 -11    0.05    0.88
  -9   1 -11    0.87    0.88
 -10  -1 -11    2.44    1.24
 -10   1 -11    3.50    1.43
 -10   1 -11    2.80    1.24
 -11  -2  11    1.23    1.13
 -11   2  11    0.27    1.11
 -10  -2  11    2.82    0.91
 -10  -2  11    0.66    0.74
 -10   2  11    1.76    0.79
 -10   2  11    2.50    0.90
  -9  -2  11    0.15    0.54
  -9  -2  11    0.43    0.65
  -9   2  11   -0.02    0.66
  -9   2  11    0.14    0.60
  -8  -2  11    3.79    0.59
  -8  -2  11    3.19    0.54
  -8   2  11    3.52    0.64
  -8   2  11    4.25    0.58
  -7  -2  11    0.91    0.38
  -7  -2  11    0.48    0.40
  -7   2  11    1.41    0.44
  -6  -2  11   47.83    1.68
  -6  -2  11   46.65    1.70
  -6   2  11   47.49    1.71
  -5  -2  11    4.91    0.49
  -5  -2  11    5.05    0.49
  -5   2  11    4.99    0.54
  -4  -2  11   28.52    1.07
  -4   2  11   29.45    1.10
  -3  -2  11    2.89    0.37
  -3   2  11    3.63    0.40
  -2  -2  11   42.27    1.42
  -2   2  11   42.83    1.44
   2   2 -11   42.60    1.69
   1  -2 -11   11.83    0.85
   1  -2 -11   12.70    0.68
  -1  -2  11   12.22    0.54
   1   2 -11   11.82    0.89
  -1   2  11   12.07    0.56
   0  -2 -11    1.34    0.36
   0  -2 -11    1.34    0.49
   0  -2  11    1.43    0.21
   0   2  11    1.20    0.23
   0   2 -11    1.60    0.34
   0   2 -11    1.57    0.46
  -1  -2 -11    1.41    0.47
  -1  -2 -11    2.61    0.43
   1  -2  11    1.60    0.22
   1   2  11    2.24    0.23
  -1   2 -11    2.94    0.42
  -1   2 -11    2.27    0.51
  -2  -2 -11    4.59    0.61
  -2  -2 -11    3.99    0.48
   2  -2  11    3.37    0.31
  -2   2 -11    5.66    0.50
  -2   2 -11    4.24    0.59
   2   2  11    4.02    0.30
  -3  -2 -11    0.90    0.40
  -3  -2 -11    1.11    0.38
  -3   2 -11    1.28    0.47
  -3   2 -11    1.09    0.34
  -4  -2 -11    1.36    0.50
  -4  -2 -11    1.74    0.45
  -4   2 -11    1.69    0.41
  -4   2 -11    2.02    0.48
  -5  -2 -11   16.29    0.99
  -5   2 -11   18.13    1.09
  -5   2 -11   16.90    1.01
  -6  -2 -11    0.79    0.53
  -6   2 -11   -0.39    0.43
  -6   2 -11    0.10    0.52
  -7  -2 -11    7.57    1.01
  -7   2 -11    6.12    0.89
  -7   2 -11    8.07    0.77
  -8  -2 -11    0.40    0.71
  -8   2 -11    0.90    0.70
  -8   2 -11    0.97    0.78
  -9  -2 -11    6.08    1.05
  -9   2 -11    4.80    1.05
  -9   2 -11    4.62    1.17
 -10  -2 -11    1.60    1.20
 -10   2 -11    0.85    1.47
 -10   2 -11    3.22    1.26
 -11  -3  11    0.07    1.17
 -11   3  11    1.20    1.22
 -10  -3  11    7.48    1.14
 -10  -3  11    7.37    0.93
 -10   3  11    7.73    1.09
 -10   3  11    5.52    0.98
  -9  -3  11    0.35    0.68
  -9  -3  11    0.42    0.57
  -9   3  11   -1.45    0.63
  -9   3  11    0.70    0.65
  -8  -3  11    4.26    0.59
  -8  -3  11    5.58    0.69
  -8   3  11    7.14    0.83
  -8   3  11    6.14    0.77
  -7  -3  11    0.73    0.43
  -7  -3  11    1.09    0.41
  -7   3  11    1.11    0.45
  -6  -3  11    4.60    0.59
  -6  -3  11    5.06    0.69
  -6   3  11    6.97    0.66
  -5  -3  11   30.59    1.12
  -5  -3  11   28.26    1.14
  -5   3  11   29.84    1.19
  -4  -3  11   10.77    0.54
  -4  -3  11   10.08    0.58
  -4   3  11   10.04    0.61
  -3  -3  11    4.76    0.41
  -3   3  11    3.99    0.41
  -2  -3  11    4.46    0.41
   2   3 -11    4.03    0.59
  -2   3  11    3.98    0.43
   1  -3 -11   78.80    2.81
  -1  -3  11   84.01    2.53
   1   3 -11   78.04    2.87
  -1   3  11   82.27    2.54
   0  -3 -11   13.90    0.95
   0  -3 -11   15.32    0.75
   0  -3  11   14.66    0.60
   0   3 -11   14.07    0.63
   0   3  11   14.83    0.61
   0   3 -11   14.00    1.00
  -1  -3 -11    1.09    0.40
  -1  -3 -11    1.19    0.49
   1  -3  11    1.00    0.21
   1   3  11    1.29    0.22
  -1   3 -11    1.39    0.51
  -1   3 -11    1.21    0.37
  -2  -3 -11    0.58    0.43
  -2  -3 -11   -0.01    0.33
   2  -3  11    0.40    0.21
   2   3  11    0.21    0.19
  -2   3 -11    0.85    0.30
  -2   3 -11   -0.07    0.43
   3  -3  11    2.09    0.29
  -3  -3 -11    1.75    0.41
  -3  -3 -11    2.66    0.55
   3   3  11    2.01    0.21
  -3   3 -11    2.01    0.35
  -3   3 -11    1.89    0.56
  -4  -3 -11    6.02    0.65
  -4  -3 -11    6.11    0.72
  -4   3 -11    5.31    0.57
  -4   3 -11    6.27    0.79
  -5  -3 -11    1.52    0.51
  -5   3 -11    1.91    0.57
  -5   3 -11    2.81    0.57
  -6   3 -11    3.13    0.54
  -6   3 -11    3.10    0.64
  -7  -3 -11    0.13    0.63
  -7   3 -11    0.26    0.54
  -7   3 -11   -0.94    0.64
  -8  -3 -11    5.36    0.95
  -8   3 -11    5.28    0.98
  -8   3 -11    7.31    0.87
  -9  -3 -11    1.42    0.95
  -9   3 -11   -0.54    0.96
  -9   3 -11    0.95    1.07
 -10  -3 -11    3.14    1.33
 -10   3 -11    1.70    1.50
 -10   3 -11    1.77    1.26
 -11  -4  11    1.83    1.28
 -11   4  11    0.34    1.21
 -10  -4  11    0.00    0.79
 -10  -4  11    1.05    1.01
 -10   4  11    1.17    1.02
 -10   4  11    1.31    0.93
  -9  -4  11    2.37    0.76
  -9  -4  11    2.14    0.66
  -9   4  11    0.81    0.70
  -9   4  11    1.78    0.78
  -8  -4  11    1.28    0.49
  -8  -4  11    1.66    0.61
  -8   4  11    1.48    0.62
  -8   4  11    0.71    0.53
  -7  -4  11    0.59    0.44
  -7  -4  11    0.45    0.39
  -7   4  11    1.63    0.47
  -6  -4  11    2.69    0.42
  -6  -4  11    3.15    0.49
  -6   4  11    2.61    0.48
  -5  -4  11    4.36    0.50
  -5  -4  11    4.62    0.46
  -5   4  11    3.79    0.48
  -4  -4  11    8.21    0.54
  -4  -4  11    7.64    0.47
  -4   4  11    7.16    0.58
  -3  -4  11    0.87    0.25
  -3  -4  11    1.36    0.23
  -3   4  11    1.06    0.29
  -2  -4  11   42.14    1.40
  -2   4  11   40.96    1.42
   2   4 -11   39.50    1.76
  -1  -4  11    3.32    0.33
   1  -4 -11    2.31    0.58
  -1   4  11    3.22    0.40
   1   4 -11    2.84    0.60
   0  -4 -11    1.85    0.33
   0  -4 -11    1.84    0.53
   0  -4  11    1.46    0.26
   0   4  11    1.08    0.25
   0   4 -11    1.76    0.54
   1  -4  11    1.94    0.26
  -1  -4 -11    2.62    0.57
  -1  -4 -11    1.95    0.41
  -1   4 -11    2.08    0.35
  -1   4 -11    1.63    0.54
   1   4  11    2.49    0.27
   2  -4  11   70.70    2.24
  -2  -4 -11   70.19    2.53
  -2  -4 -11   71.41    2.39
  -2   4 -11   70.62    2.27
  -2   4 -11   70.41    2.67
   2   4  11   72.56    2.22
  -3  -4 -11    0.51    0.36
   3  -4  11    0.43    0.30
  -3  -4 -11    1.13    0.51
  -3   4 -11    0.51    0.50
   3   4  11    0.56    0.21
  -3   4 -11    0.71    0.30
  -4  -4 -11    0.93    0.50
  -4  -4 -11    1.97    0.46
  -4   4 -11    1.92    0.36
  -4   4 -11    2.03    0.53
  -5  -4 -11   24.70    1.22
  -5   4 -11   23.69    1.17
  -5   4 -11   22.62    1.31
  -6  -4 -11    6.64    0.77
  -6   4 -11    5.41    0.80
  -6   4 -11    6.59    0.65
  -7  -4 -11    3.04    0.72
  -7   4 -11    2.49    0.61
  -7   4 -11    2.20    0.73
  -8  -4 -11   -0.30    0.84
  -8   4 -11    0.33    0.72
  -8   4 -11    0.77    0.92
  -9  -4 -11    8.58    1.25
  -9   4 -11    6.60    1.34
  -9   4 -11    7.51    1.19
 -10  -4 -11   -0.38    1.32
 -10   4 -11    0.02    1.54
 -10   4 -11   -0.68    1.26
 -11  -5  11    1.10    1.32
 -11   5  11    0.12    1.33
 -10  -5  11    1.59    1.09
 -10  -5  11    4.37    0.90
 -10   5  11    2.32    0.99
 -10   5  11    1.22    1.07
  -9  -5  11    2.64    0.80
  -9  -5  11    2.33    0.71
  -9   5  11    2.09    0.97
  -9   5  11    2.08    0.80
  -8  -5  11    0.46    0.59
  -8  -5  11    0.94    0.51
  -8   5  11    1.36    0.59
  -7  -5  11   -0.16    0.45
  -7  -5  11    0.20    0.39
  -7   5  11    1.04    0.49
  -6  -5  11    3.58    0.48
  -6  -5  11    4.67    0.52
  -6   5  11    3.90    0.56
  -5  -5  11    3.38    0.38
  -5  -5  11    3.44    0.41
  -5   5  11    3.34    0.48
  -4  -5  11    0.25    0.29
  -4  -5  11    0.83    0.25
  -4   5  11    1.20    0.34
  -3  -5  11    3.45    0.37
  -3  -5  11    3.11    0.31
  -3   5  11    3.56    0.39
  -2  -5  11    3.72    0.39
   2   5 -11    3.01    0.66
  -2   5  11    3.97    0.45
   1  -5 -11    8.04    0.96
  -1  -5  11    9.21    0.55
  -1   5  11    9.08    0.60
   1   5 -11    9.99    1.01
   0  -5 -11    4.48    0.67
   0  -5 -11    3.27    0.40
   0  -5  11    3.54    0.42
   0   5 -11    4.20    0.68
   0   5  11    3.19    0.41
  -1  -5 -11   19.47    1.20
   1  -5  11   20.37    0.80
  -1  -5 -11   19.76    0.91
   1   5  11   20.54    0.80
  -1   5 -11   19.66    1.26
   2  -5  11   71.12    2.33
  -2  -5 -11   76.02    2.44
  -2  -5 -11   74.89    2.68
   2   5  11   72.67    2.30
  -2   5 -11   75.10    2.81
  -2   5 -11   69.55    2.30
  -3  -5 -11   35.03    1.50
  -3  -5 -11   35.15    1.36
   3  -5  11   32.98    1.25
  -3   5 -11   33.04    1.20
   3   5  11   33.28    1.15
  -3   5 -11   33.95    1.58
   4  -5  11   20.62    0.95
  -4  -5 -11   19.52    1.10
  -4  -5 -11   21.41    1.05
  -4   5 -11   19.51    1.22
  -4   5 -11   19.61    0.86
  -5  -5 -11    5.18    0.69
  -5   5 -11    5.67    0.73
  -5   5 -11    4.72    0.72
  -6  -5 -11   58.01    2.26
  -6   5 -11   57.43    2.42
  -6   5 -11   56.90    2.06
  -7  -5 -11    2.25    0.75
  -7   5 -11    2.10    0.81
  -7   5 -11    3.72    0.63
  -8  -5 -11   12.08    1.29
  -8   5 -11    8.06    1.26
  -8   5 -11    9.20    0.99
  -9  -5 -11    1.51    1.08
  -9   5 -11    0.58    1.17
  -9   5 -11    1.08    1.06
 -10  -5 -11    9.09    1.63
 -10   5 -11    7.80    1.85
 -10   5 -11    7.73    1.52
 -11  -6  11   -1.19    1.21
 -11   6  11    1.21    1.55
 -10  -6  11    0.07    0.85
 -10  -6  11    2.28    1.12
 -10   6  11    0.55    1.03
 -10   6  11    1.15    1.14
  -9  -6  11    2.60    0.73
  -9  -6  11    1.20    0.81
  -9   6  11    1.65    0.86
  -9   6  11    1.81    0.94
  -8  -6  11   -0.81    0.63
  -8  -6  11    0.08    0.57
  -8   6  11    0.03    0.63
  -7  -6  11    0.76    0.44
  -7  -6  11    1.49    0.54
  -7   6  11    0.76    0.52
  -6  -6  11   39.31    1.55
  -6  -6  11   42.32    1.53
  -6   6  11   41.53    1.67
  -5  -6  11    4.12    0.49
  -5  -6  11    4.40    0.47
  -5   6  11    3.78    0.52
  -4  -6  11    0.71    0.26
  -4  -6  11    0.73    0.31
  -4   6  11    0.32    0.34
  -3  -6  11    0.12    0.26
  -3  -6  11   -0.03    0.19
  -3   6  11   -0.53    0.29
  -2  -6  11  101.43    3.14
   2   6 -11   96.02    3.54
  -2   6  11  100.93    3.18
   1  -6 -11    0.19    0.62
  -1  -6  11    0.13    0.25
  -1   6  11    0.15    0.29
   1   6 -11   -0.29    0.60
   0  -6 -11   14.41    1.09
   0  -6  11   12.42    0.66
   0   6  11   10.53    0.72
   0   6  11   11.52    0.70
   0   6 -11   12.38    1.10
   1  -6  11   14.92    0.74
  -1  -6 -11   14.30    0.72
  -1  -6 -11   13.59    1.15
   1   6  11   15.86    0.75
   1   6  11   15.29    0.72
  -1   6 -11   17.82    1.26
  -2  -6 -11   59.18    2.25
  -2  -6 -11   61.65    1.98
   2  -6  11   57.24    1.92
  -2   6 -11   53.40    2.33
  -2   6 -11   56.59    1.83
   2   6  11   56.97    1.91
   2   6  11   56.84    1.88
  -3  -6 -11   12.43    0.80
  -3  -6 -11   11.47    0.96
   3  -6  11   12.38    0.76
   3   6  11   13.03    0.65
  -3   6 -11   12.06    1.05
   3   6  11   13.38    0.63
  -3   6 -11   12.75    0.62
  -4  -6 -11    2.40    0.54
  -4  -6 -11    2.47    0.49
   4  -6  11    1.68    0.50
  -4   6 -11    2.22    0.56
  -5  -6 -11    8.33    0.92
  -5   6 -11    5.87    0.78
  -5   6 -11    8.15    0.78
  -6  -6 -11    4.44    0.82
  -6   6 -11    5.97    0.90
  -6   6 -11    4.80    0.61
  -7  -6 -11   26.56    1.59
  -7   6 -11   28.48    1.79
  -7   6 -11   24.73    1.37
  -8  -6 -11    4.06    1.03
  -8   6 -11    2.78    0.86
  -8   6 -11    2.54    1.06
  -9  -6 -11    2.44    1.22
  -9   6 -11    2.05    1.29
  -9   6 -11    1.90    1.17
 -10  -6 -11    0.90    1.55
 -10   6 -11    4.72    1.57
 -10   6 -11    1.32    1.71
 -11  -7  11    1.01    1.36
 -11   7  11    0.72    1.65
 -10  -7  11    4.54    0.98
 -10  -7  11    2.04    1.07
 -10   7  11    2.25    1.10
 -10   7  11    0.66    1.21
  -9  -7  11    2.60    0.88
  -9  -7  11    1.82    0.73
  -9   7  11    1.73    0.90
  -9   7  11    1.65    0.96
  -8  -7  11    4.64    0.68
  -8  -7  11    3.34    0.73
  -8   7  11    3.87    0.81
  -7  -7  11    1.09    0.54
  -7  -7  11    0.21    0.46
  -7   7  11    0.39    0.55
  -6  -7  11    0.51    0.42
  -6  -7  11   -0.44    0.43
  -6   7  11    0.73    0.49
  -5  -7  11    0.27    0.31
  -5  -7  11    0.77    0.40
  -5   7  11    0.13    0.44
  -4  -7  11   11.09    0.54
  -4  -7  11   10.09    0.68
  -4   7  11   10.90    0.80
  -3  -7  11   19.58    0.72
  -3  -7  11   21.65    0.92
  -3   7  11   22.03    0.98
  -2  -7  11   34.73    1.29
  -2   7  11   35.41    1.35
   2   7 -11   34.52    1.74
   1  -7 -11    2.69    0.72
  -1  -7  11    1.88    0.34
  -1   7  11    1.99    0.39
   1   7 -11    2.29    0.75
  -1   7  11    2.20    0.38
   0  -7  11   55.52    1.87
   0  -7 -11   56.86    2.21
   0   7  11   55.15    1.93
   0   7 -11   52.57    2.28
   0   7  11   55.83    1.90
  -1  -7 -11    6.97    0.93
   1  -7  11    7.51    0.59
   1   7  11    6.56    0.70
  -1   7 -11    8.63    1.02
   1   7  11    7.32    0.67
   2  -7  11   31.12    1.29
  -2  -7 -11   34.97    1.59
  -2  -7 -11   36.21    1.24
   2   7  11   31.04    1.24
  -2   7 -11   28.12    1.60
   2   7  11   32.32    1.27
  -3  -7 -11    1.85    0.42
  -3  -7 -11    1.25    0.58
   3  -7  11    1.18    0.53
   3   7  11    2.05    0.40
  -3   7 -11    2.17    0.33
  -3   7 -11    1.21    0.65
   3   7  11    2.11    0.37
   4  -7  11   58.47    2.13
  -4  -7 -11   59.59    2.05
  -4  -7 -11   53.23    2.22
   4   7  11   58.25    1.90
  -4   7 -11   55.15    1.90
  -4   7 -11   55.74    2.37
   4   7  11   58.23    1.87
  -5  -7 -11   -0.53    0.58
  -5   7 -11    0.64    0.66
  -5   7 -11    0.46    0.45
  -6  -7 -11   15.38    1.24
  -6   7 -11   11.55    0.97
  -6   7 -11   12.83    1.39
  -7  -7 -11    0.50    0.81
  -7   7 -11   -0.20    0.66
  -7   7 -11   -0.73    0.81
  -8  -7 -11    3.45    1.05
  -8   7 -11    3.17    1.13
  -8   7 -11    2.33    0.91
  -9  -7 -11    1.17    1.31
  -9   7 -11    0.73    1.94
  -9   7 -11   -0.04    1.38
 -10  -7 -11    4.55    1.82
 -10   7 -11    4.38    1.98
 -10  -8  11    1.61    1.02
 -10   8  11    1.89    1.22
 -10   8  11    1.68    1.39
  -9  -8  11    2.19    0.83
  -9  -8  11    0.18    0.91
  -9   8  11    0.46    0.97
  -9   8  11    2.23    0.97
  -8  -8  11    1.35    0.63
  -8  -8  11    1.74    0.71
  -8   8  11    2.17    0.82
  -7  -8  11    4.14    0.65
  -7  -8  11    3.58    0.61
  -7   8  11    4.04    0.78
  -6  -8  11   10.15    0.77
  -6  -8  11   11.53    0.84
  -6   8  11   11.74    0.98
  -5  -8  11   13.16    0.85
  -5  -8  11   11.98    0.66
  -5   8  11   13.63    0.98
  -4  -8  11    4.07    0.49
  -4  -8  11    3.64    0.41
  -4   8  11    3.92    0.55
  -3  -8  11   14.67    0.80
  -3   8  11   15.84    0.87
  -2  -8  11    3.09    0.41
  -2   8  11    2.94    0.46
  -2   8  11    2.64    0.47
   2   8 -11    2.77    0.72
   1  -8 -11   27.60    1.49
  -1  -8  11   28.28    1.14
  -1   8  11   30.33    1.25
  -1   8  11   29.31    1.20
   1   8 -11   29.09    1.61
   0  -8  11   15.29    0.79
   0  -8 -11   16.22    1.10
   0   8  11   16.45    0.87
   0   8 -11   14.96    1.23
   0   8  11   15.54    0.83
   1  -8  11   21.48    0.96
  -1  -8 -11   21.27    1.27
   1   8  11   21.56    1.01
  -1   8 -11   22.87    1.37
   1   8  11   22.04    0.99
  -2  -8 -11   41.27    1.78
   2  -8  11   37.88    1.47
  -2   8 -11   36.58    1.86
  -3  -8 -11   18.32    1.23
   3  -8  11   18.78    1.04
  -3  -8 -11   18.65    0.89
  -3   8 -11   19.19    1.36
  -4  -8 -11    2.38    0.67
   4  -8  11    2.72    0.76
  -4  -8 -11    2.46    0.44
   4   8  11    1.40    0.45
   5  -8  11   -0.53    1.42
  -5  -8 -11   -0.55    0.66
  -5   8 -11   -0.20    0.66
  -6  -8 -11    3.40    0.86
  -6   8 -11    3.90    0.89
  -7  -8 -11    6.42    1.13
  -7   8 -11    5.25    1.18
  -8  -8 -11    0.15    1.11
  -8   8 -11   -1.18    1.05
  -9  -8 -11    2.71    1.45
  -9   8 -11   -0.09    1.46
 -10  -9  11    1.27    1.15
 -10   9  11    3.61    1.52
 -10   9  11    3.64    1.42
  -9  -9  11    4.21    0.95
  -9   9  11    5.97    1.30
  -9   9  11    4.18    1.19
  -8  -9  11    3.69    0.80
  -8   9  11    2.34    0.92
  -7  -9  11    4.58    0.69
  -7   9  11    4.46    0.79
  -6  -9  11    7.57    0.85
  -6   9  11    8.53    0.86
  -5  -9  11    3.97    0.56
  -5   9  11    3.49    0.63
  -4  -9  11    8.79    0.76
  -4   9  11   10.12    0.85
  -3  -9  11    5.31    0.65
  -3   9  11    5.65    0.61
  -3   9  11    6.43    0.74
  -2  -9  11    2.92    0.43
  -2   9  11    3.81    0.50
   2   9 -11    3.79    0.80
  -2   9  11    4.03    0.54
  -1  -9  11    4.34    0.48
   1  -9 -11    4.39    0.79
  -1   9  11    5.22    0.63
  -1   9  11    4.86    0.57
   1   9 -11    4.85    0.82
   0  -9 -11   13.68    1.08
   0  -9  11   13.27    0.77
   0   9  11   14.31    0.87
   0   9 -11   11.76    1.21
   0   9  11   12.60    0.81
   1  -9  11    3.96    0.52
  -1  -9 -11    3.01    0.70
  -1   9 -11    3.97    0.76
  -2  -9 -11   14.52    0.78
  -2  -9 -11   14.12    1.17
   2  -9  11   14.21    0.93
  -2   9 -11   15.78    1.31
  -3  -9 -11   10.04    0.70
  -3  -9 -11   10.27    1.13
   3  -9  11    9.68    0.97
  -3   9 -11   11.58    1.26
  -4  -9 -11    0.89    0.71
   4  -9  11    1.21    0.73
  -4   9 -11    0.88    0.76
   5  -9  11    6.51    1.69
  -5  -9 -11    6.14    0.96
  -5   9 -11    5.70    0.97
  -6  -9 -11   11.47    1.41
  -6   9 -11   14.38    1.54
  -7  -9 -11    2.86    1.05
  -7   9 -11    1.88    1.07
  -8  -9 -11    1.30    1.28
  -8   9 -11    0.41    1.28
  -9  -9 -11   -0.40    1.54
  -9   9 -11    0.44    1.69
 -10  10  11   -2.70    1.60
 -10  10  11    0.37    1.47
  -9 -10  11    1.34    0.97
  -9  10  11   -2.69    1.15
  -8 -10  11   -0.60    0.79
  -8  10  11    0.00    0.95
  -7 -10  11    6.70    0.81
  -7  10  11    7.50    0.95
  -6 -10  11    7.50    0.78
  -6  10  11    7.40    0.86
  -5 -10  11    0.66    0.50
  -5  10  11    0.91    0.56
  -4 -10  11   -0.22    0.44
  -4  10  11    0.61    0.51
  -3 -10  11   11.13    0.81
  -3  10  11   11.17    0.93
  -3  10  11   11.78    0.87
  -2 -10  11   42.45    1.63
  -2  10  11   42.29    1.75
  -2  10  11   44.63    1.71
   1 -10 -11    1.81    0.71
  -1 -10  11    1.73    0.42
   1  10 -11    2.06    0.73
  -1  10  11    2.07    0.47
  -1  10  11    2.37    0.53
   0 -10  11    3.43    0.51
   0 -10 -11    4.87    0.78
   0  10  11    3.74    0.53
   0  10 -11    4.21    0.80
   0  10  11    3.76    0.53
  -1 -10 -11   -0.29    0.58
  -1 -10 -11   -0.28    0.36
   1 -10  11    0.96    0.45
  -1  10 -11    1.18    0.67
   2 -10  11   35.16    1.48
  -2 -10 -11   33.84    1.74
  -2 -10 -11   33.51    1.36
  -2  10 -11   36.44    1.87
  -3 -10 -11   -0.25    0.70
  -3 -10 -11    0.50    0.39
   3 -10  11    0.27    0.62
  -3  10 -11    0.81    0.77
  -4 -10 -11    0.66    0.78
  -4 -10 -11   -0.82    0.47
   4 -10  11   -0.15    0.81
  -4  10 -11    0.29    0.75
   5 -10  11    1.07    1.76
  -5 -10 -11    1.42    0.87
  -5  10 -11    2.52    0.87
  -6 -10 -11    3.62    1.10
  -6  10 -11    3.18    1.00
  -7 -10 -11    3.70    1.21
  -7  10 -11    3.20    1.13
  -8 -10 -11    2.68    1.42
  -8  10 -11    2.31    1.39
  -9 -10 -11    0.02    1.75
  -9  10 -11    2.80    1.81
  -9 -11  11   -0.26    1.01
  -9  11  11   -2.14    1.30
  -8 -11  11    3.75    0.94
  -8  11  11    0.96    1.08
  -7 -11  11    2.30    0.77
  -7  11  11    3.40    0.92
  -6 -11  11    2.45    0.66
  -6  11  11    2.14    0.74
  -5 -11  11    2.62    0.62
  -5  11  11    1.50    0.73
  -4 -11  11    3.41    0.59
  -4  11  11    1.52    0.60
  -3 -11  11    3.19    0.55
  -3  11  11    2.57    0.63
  -3  11  11    2.37    0.59
  -2 -11  11    8.12    0.78
  -2  11  11    6.88    0.85
  -2  11  11    7.70    0.88
   1 -11 -11    2.42    0.77
  -1 -11  11    2.33    0.51
   1  11 -11    2.91    0.78
  -1  11  11    2.35    0.60
  -1  11  11    3.37    0.60
   0 -11 -11    4.37    0.80
   0 -11  11    4.25    0.59
   0  11 -11    4.94    0.87
   1 -11  11    7.00    0.83
  -1 -11 -11    9.66    1.09
  -1 -11 -11    6.24    0.72
  -1  11 -11    7.22    0.92
  -2 -11 -11    8.78    1.17
  -2 -11 -11    9.80    0.78
   2 -11  11    9.32    1.00
  -2  11 -11    9.63    1.25
   3 -11  11    0.26    0.75
  -3 -11 -11    1.20    0.88
  -3 -11 -11    2.95    0.53
  -3  11 -11    2.45    0.78
   4 -11  11   21.06    1.61
  -4 -11 -11   20.42    1.65
  -4  11 -11   20.41    1.66
  -5 -11 -11   -0.01    1.01
  -5  11 -11    2.89    0.96
  -6 -11 -11    2.19    1.15
  -6  11 -11    1.72    1.12
  -7 -11 -11    2.47    1.39
  -7  11 -11    0.20    1.24
  -8 -11 -11    3.27    1.61
  -8  11 -11    6.22    1.68
  -9 -12  11    1.08    1.35
  -8 -12  11    0.30    0.95
  -8  12  11   -0.02    1.18
  -7 -12  11    0.57    0.83
  -7  12  11    0.73    0.98
  -6 -12  11    1.34    0.74
  -6  12  11    0.88    0.85
  -5 -12  11    0.31    0.61
  -5  12  11    1.59    0.70
  -4 -12  11    2.62    0.66
  -4  12  11    2.78    0.79
  -4  12  11    3.90    0.76
  -3 -12  11    1.66    0.59
  -3  12  11   -0.49    0.65
  -3  12  11    0.07    0.60
  -2 -12  11    1.71    0.53
  -2  12  11    1.11    0.59
  -2  12  11    1.85    0.66
  -1 -12  11    2.56    0.56
   1 -12 -11    1.94    0.74
   1  12 -11    3.15    0.77
  -1  12  11    2.50    0.64
  -1  12  11    3.23    0.62
   0 -12 -11   22.00    1.18
   0 -12 -11   21.22    1.48
   0 -12  11   21.55    1.16
   0  12 -11   20.98    1.41
  -1 -12 -11    3.67    0.83
   1 -12  11    5.93    0.73
  -1 -12 -11    5.73    0.65
  -1  12 -11    6.23    0.87
  -2 -12 -11    3.76    0.90
  -2 -12 -11    2.94    0.59
   2 -12  11    2.53    0.74
  -2  12 -11    2.49    0.80
   3 -12  11    7.04    0.96
  -3 -12 -11    5.24    1.02
  -3 -12 -11    6.50    0.73
  -3  12 -11    4.73    0.90
   4 -12  11    3.27    1.07
  -4 -12 -11    4.70    1.02
  -4  12 -11    2.25    0.95
  -5 -12 -11    1.48    1.22
  -5  12 -11   -0.40    1.02
  -6 -12 -11    3.25    1.26
  -6  12 -11   -0.56    1.14
  -7 -12 -11    4.67    1.59
  -7  12 -11    1.19    1.46
  -8 -12 -11    4.23    1.91
  -8  12 -11    1.66    1.87
  -8 -13  11    0.32    1.14
  -8  13  11   -1.68    1.38
  -7 -13  11    0.25    0.93
  -7  13  11   -0.09    1.05
  -6 -13  11    0.55    0.78
  -6  13  11   -0.17    0.91
  -5 -13  11    1.56    0.73
  -5  13  11    1.94    0.87
  -4 -13  11    1.34    0.64
  -4  13  11    1.65    0.81
  -4  13  11   -0.37    0.68
  -3 -13  11    7.09    0.80
  -3  13  11    7.02    0.86
  -3  13  11    7.85    0.97
  -2 -13  11    0.33    0.60
  -2  13  11    0.74    0.76
  -2  13  11    1.28    0.69
  -1 -13  11    0.06    0.60
   1 -13 -11   -1.14    0.75
  -1  13  11   -0.64    0.66
  -1  13  11   -0.63    0.61
   1  13 -11    0.71    0.69
   0 -13 -11   -0.12    0.79
   0 -13  11   -0.13    0.60
   0 -13 -11    0.26    0.56
  -1 -13 -11    0.72    0.80
  -1 -13 -11    1.84    0.61
   1 -13  11    2.08    0.70
  -1  13 -11    3.06    0.73
   2 -13  11    7.81    0.99
  -2 -13 -11    7.53    0.97
  -2 -13 -11   10.50    1.38
  -2  13 -11    8.94    1.06
  -3 -13 -11    0.81    0.96
  -3 -13 -11    0.53    0.66
   3 -13  11   -0.87    0.92
  -3  13 -11   -1.13    0.83
  -4 -13 -11    1.19    1.25
   4 -13  11    3.13    1.21
  -4  13 -11    3.73    1.07
  -5 -13 -11   -0.45    1.23
  -5  13 -11    0.52    1.21
  -6 -13 -11    3.62    1.55
  -6  13 -11    3.42    1.56
  -7 -13 -11   -1.14    1.69
  -7  13 -11    3.73    1.75
  -7 -14  11    1.57    1.17
  -7  14  11    0.73    1.28
  -6 -14  11    3.60    1.02
  -6  14  11    1.37    1.08
  -5 -14  11    0.60    0.80
  -5  14  11    0.28    0.94
  -4 -14  11    0.66    0.73
  -4  14  11   -0.37    0.82
  -4  14  11    1.04    0.95
  -3 -14  11   -0.69    0.72
  -3  14  11    1.13    0.76
  -3  14  11    0.00    0.83
  -2 -14  11    6.87    0.89
  -2  14  11    7.21    1.00
  -2  14  11    7.20    0.90
  -1 -14  11    1.55    0.71
  -1  14  11   -0.43    0.75
  -1  14  11   -0.11    0.74
   0 -14  11    0.39    0.72
   0 -14 -11    0.58    0.88
   0 -14 -11    1.16    0.66
   0  14 -11    1.36    0.76
  -1 -14 -11   -0.33    0.67
  -1 -14 -11    1.17    0.90
   1 -14  11    0.65    0.79
  -1  14 -11    0.06    0.76
   2 -14  11    4.16    1.05
  -2 -14 -11    3.15    0.83
  -2 -14 -11    4.74    1.04
  -2  14 -11    2.92    0.88
  -3 -14 -11    2.53    1.18
   3 -14  11   -0.10    1.09
  -3 -14 -11   -0.16    0.77
  -3  14 -11   -0.16    0.91
  -4 -14 -11    2.06    1.30
   4 -14  11    1.26    1.32
  -4  14 -11    1.28    1.15
  -5 -14 -11   -1.15    1.40
  -5  14 -11    1.09    1.30
  -6 -14 -11   -0.05    1.71
  -6  14 -11    0.80    1.59
  -7 -14 -11    1.55    1.95
  -7  14 -11   -1.13    1.83
  -6 -15  11    1.07    1.12
  -6  15  11   -1.32    1.22
  -5 -15  11    1.00    0.97
  -5  15  11    0.33    1.05
  -4 -15  11    1.37    0.89
  -4  15  11    1.07    0.99
  -4  15  11    1.17    1.11
  -3 -15  11    1.97    0.88
  -3  15  11    1.00    1.07
  -3  15  11   -0.27    0.89
  -2 -15  11    2.18    0.86
  -2  15  11    1.33    0.98
  -2  15  11    3.19    0.91
  -1 -15  11   -0.30    0.78
  -1  15  11    0.66    0.86
  -1  15  11    1.05    0.93
   0 -15 -11    1.39    0.78
   0 -15  11    2.13    0.90
   0 -15 -11    0.67    0.96
   0  15 -11    1.01    0.84
   1 -15  11    0.96    0.93
  -1 -15 -11   -0.94    0.77
  -1 -15 -11   -0.67    1.11
  -1  15 -11    1.48    0.91
  -2 -15 -11    0.27    1.07
   2 -15  11    1.08    1.13
  -2 -15 -11    2.14    0.87
  -2  15 -11    2.25    0.97
  -3 -15 -11    0.78    0.87
  -3 -15 -11   -0.20    1.16
   3 -15  11    0.17    1.20
  -3  15 -11    0.49    1.13
   4 -15  11    1.98    1.49
  -4 -15 -11    4.55    1.54
  -4  15 -11    1.83    1.30
  -5 -15 -11    1.85    1.76
  -5  15 -11    0.48    1.50
  -6 -15 -11    0.64    1.91
  -6  15 -11    2.55    1.76
  -5 -16  11    1.03    1.25
  -5  16  11   -1.15    1.26
  -4 -16  11   -0.81    1.05
  -4  16  11    1.37    1.26
  -4  16  11   -0.31    1.14
  -3 -16  11    0.42    1.04
  -3  16  11    0.04    1.07
  -3  16  11    0.34    1.21
  -2 -16  11    1.73    1.01
  -2  16  11    0.41    1.14
  -2  16  11    0.65    1.03
  -1 -16  11    0.30    0.96
  -1  16  11    2.09    1.07
  -1  16  11    0.15    1.09
   0 -16 -11    3.58    1.03
   0 -16  11    2.11    1.04
   0 -16 -11    1.51    1.29
   0  16 -11    2.27    1.06
   1 -16  11   -1.32    1.04
  -1 -16 -11    0.70    0.93
  -1 -16 -11    0.60    1.29
  -1  16 -11   -0.22    1.00
  -2 -16 -11    0.72    0.94
   2 -16  11    0.92    1.27
  -2 -16 -11    2.32    1.36
  -2  16 -11    0.31    1.12
  -3 -16 -11   -0.62    1.44
  -3 -16 -11   -0.44    1.09
   3 -16  11    1.70    1.46
  -3  16 -11    0.76    1.25
  -4 -16 -11   -1.14    1.62
   4 -16  11    1.97    1.57
  -4  16 -11   -1.72    1.38
  -5 -16 -11    1.66    1.83
  -5  16 -11   -0.13    1.63
  -3 -17  11    4.02    1.30
  -3  17  11    2.60    1.32
  -3  17  11   -1.41    1.44
  -2 -17  11    4.48    1.27
  -2  17  11    5.08    1.48
  -2  17  11    4.87    1.36
  -1 -17  11    0.10    1.19
  -1  17  11    1.07    1.32
  -1  17  11   -2.28    1.17
   0 -17  11    6.39    1.32
  -1 -17 -11    2.21    1.05
   1 -17  11    2.55    1.25
  -1 -17 -11   -0.63    1.46
   2 -17  11    7.55    1.53
  -2 -17 -11   10.35    1.79
  -2 -17 -11    8.73    1.21
  -3 -17 -11    1.32    1.64
   3 -17  11    3.91    1.55
   4 -17  11   -2.33    1.86
  -4 -17 -11    2.78    1.78
  -1  18  11    8.29    2.28
  -1  18  11    8.21    2.53
   0 -18  11    3.27    2.16
   0  18  11    1.16    1.62
   0  18  11    0.69    1.57
  -1 -18 -11   -0.48    1.27
  -1 -18 -11   -0.95    1.66
  -2 -18 -11   -2.26    1.36
  -2 -18 -11    2.80    1.80
 -11   0  12    1.55    1.20
 -10   0  12    4.17    0.92
 -10   0  12    2.17    0.82
  -9   0  12    3.57    0.74
  -9   0  12    2.71    0.65
  -8   0  12  160.83    5.06
  -8   0  12  159.97    5.13
  -7   0  12    2.07    0.42
  -7   0  12    1.50    0.46
  -6   0  12   10.15    0.71
  -5   0  12    0.70    0.31
  -4   0  12  208.50    6.34
  -3   0  12   12.84    0.62
  -2   0  12    0.25    0.25
   1   0 -12   14.55    0.85
   1   0 -12   13.03    0.80
  -1   0  12   15.67    0.63
   0   0 -12   29.79    1.31
   0   0 -12   28.91    1.27
   0   0  12   30.18    1.02
   1   0  12    8.71    0.43
  -1   0 -12    9.15    0.77
  -1   0 -12    9.91    0.83
   2   0  12    1.34    0.20
  -2   0 -12    1.92    0.45
  -3   0 -12    1.53    0.48
  -3   0 -12    2.22    0.45
  -4   0 -12    4.78    0.70
  -4   0 -12    6.52    0.67
  -5   0 -12   43.84    1.87
  -5   0 -12   45.73    1.75
  -6   0 -12   -0.02    0.56
  -6   0 -12    0.01    0.51
  -7   0 -12    0.25    0.70
  -7   0 -12    1.41    0.63
  -8   0 -12   30.19    1.62
  -8   0 -12   27.87    1.86
  -9   0 -12    6.62    1.07
  -9   0 -12    5.39    1.25
 -10   0 -12    2.18    1.58
 -10   0 -12    1.10    1.30
 -11  -1  12    3.52    1.21
 -11   1  12    1.57    1.21
 -10  -1  12    1.64    0.88
 -10  -1  12    2.60    0.81
 -10   1  12    1.83    0.81
 -10   1  12    0.96    0.83
  -9  -1  12    7.31    1.01
  -9  -1  12    8.56    0.99
  -9   1  12    8.21    0.89
  -9   1  12    7.69    0.82
  -8  -1  12    6.86    0.85
  -8  -1  12    5.53    0.61
  -8   1  12    6.09    0.76
  -8   1  12    7.29    0.82
  -7  -1  12    2.27    0.49
  -7  -1  12    1.72    0.42
  -7   1  12    1.04    0.48
  -7   1  12    0.92    0.42
  -6  -1  12   -0.08    0.32
  -6  -1  12   -0.49    0.38
  -6   1  12    0.43    0.36
  -5  -1  12   68.43    2.24
  -5   1  12   66.76    2.24
  -4  -1  12   31.15    1.15
  -4   1  12   30.58    1.15
  -3  -1  12    0.96    0.25
  -3   1  12    0.77    0.25
  -2  -1  12    3.52    0.41
  -2   1  12    4.46    0.44
   2   1 -12    4.75    0.64
   1  -1 -12   27.45    1.17
   1  -1 -12   27.17    1.22
  -1  -1  12   27.94    0.97
   1   1 -12   25.99    1.06
  -1   1  12   27.38    0.98
   1   1 -12   26.60    1.26
   0  -1  12  121.78    3.68
   0  -1 -12  114.92    3.91
   0  -1 -12  123.82    3.92
   0   1 -12  122.26    4.00
   0   1 -12  118.62    3.83
   0   1  12  122.73    3.68
  -1  -1 -12   10.69    0.81
  -1  -1 -12    9.71    0.83
   1  -1  12   10.74    0.47
  -1   1 -12   10.21    0.88
   1   1  12   10.70    0.47
  -1   1 -12    9.75    0.77
  -2  -1 -12    5.54    0.60
  -2  -1 -12    5.44    0.67
   2  -1  12    5.14    0.33
  -2   1 -12    4.88    0.64
  -2   1 -12    4.93    0.60
   2   1  12    4.64    0.31
  -3  -1 -12    0.24    0.40
  -3  -1 -12   -0.22    0.39
  -3   1 -12   -0.52    0.45
  -3   1 -12    0.13    0.35
  -4  -1 -12  113.52    3.90
  -4  -1 -12  117.60    3.82
  -4   1 -12  115.40    3.94
  -4   1 -12  119.54    3.76
  -5  -1 -12    0.98    0.52
  -5  -1 -12   -0.10    0.46
  -5   1 -12    1.15    0.49
  -5   1 -12    1.20    0.53
  -6  -1 -12    2.89    0.62
  -6  -1 -12    3.05    0.66
  -6   1 -12    2.00    0.57
  -6   1 -12    1.47    0.61
  -7  -1 -12    1.97    0.71
  -7  -1 -12    2.11    0.65
  -7   1 -12    3.00    0.77
  -7   1 -12    3.00    0.67
  -8  -1 -12   24.45    1.53
  -8  -1 -12   26.82    1.80
  -8   1 -12   26.11    1.57
  -8   1 -12   27.04    1.83
  -9  -1 -12    1.71    1.00
  -9  -1 -12    0.89    1.14
  -9   1 -12   -0.15    0.94
  -9   1 -12    0.13    1.07
 -10  -1 -12    1.37    1.35
 -10  -1 -12    1.32    1.54
 -10   1 -12    0.27    1.31
 -10   1 -12   -0.24    1.59
 -11  -2  12    1.46    1.23
 -11   2  12    0.77    1.18
 -10  -2  12    0.94    0.91
 -10  -2  12    0.81    0.78
 -10   2  12    2.50    0.86
 -10   2  12    0.66    0.87
  -9  -2  12    1.58    0.69
  -9  -2  12    1.89    0.63
  -9   2  12    1.83    0.74
  -9   2  12    1.41    0.66
  -8  -2  12   41.14    1.66
  -8  -2  12   41.82    1.72
  -8   2  12   42.58    1.82
  -8   2  12   43.83    1.70
  -7  -2  12   -0.36    0.42
  -7  -2  12    0.49    0.39
  -7   2  12    0.54    0.43
  -6  -2  12    1.58    0.43
  -6  -2  12    1.24    0.37
  -6   2  12    1.61    0.41
  -5  -2  12    3.80    0.42
  -5   2  12    3.90    0.45
  -4  -2  12   77.45    2.50
  -4   2  12   77.82    2.52
  -3  -2  12    2.51    0.31
  -3   2  12    2.54    0.32
  -2  -2  12    4.81    0.43
   2   2 -12    5.80    0.75
  -2   2  12    5.11    0.45
   1  -2 -12   56.86    2.14
   1  -2 -12   57.52    1.99
  -1  -2  12   60.48    1.87
   1   2 -12   56.46    2.20
  -1   2  12   58.57    1.87
   0  -2  12   20.00    0.76
   0  -2 -12   21.81    1.00
   0  -2 -12   20.86    1.10
   0   2  12   21.01    0.77
   0   2 -12   19.75    1.13
   0   2 -12   18.53    0.89
  -1  -2 -12   12.08    0.84
  -1  -2 -12   11.65    0.89
   1  -2  12   12.12    0.53
   1   2  12   11.81    0.53
  -1   2 -12   12.45    0.99
  -1   2 -12   12.17    0.78
  -2  -2 -12    3.16    0.55
   2  -2  12    3.16    0.32
  -2  -2 -12    3.08    0.49
   2   2  12    2.33    0.30
  -2   2 -12    2.83    0.57
  -2   2 -12    2.55    0.42
  -3  -2 -12   48.65    1.88
  -3  -2 -12   49.85    1.88
  -3   2 -12   49.98    1.76
  -3   2 -12   50.62    2.04
  -4  -2 -12    2.41    0.54
  -4  -2 -12    2.98    0.57
  -4   2 -12    3.80    0.50
  -4   2 -12    3.01    0.55
  -5   2 -12    2.87    0.59
  -5   2 -12    3.92    0.56
  -6  -2 -12    1.77    0.60
  -6  -2 -12    1.45    0.60
  -6   2 -12    1.26    0.63
  -6   2 -12    2.50    0.53
  -7  -2 -12   10.67    1.11
  -7   2 -12   10.22    1.25
  -7   2 -12   10.83    1.01
  -8  -2 -12    8.28    1.04
  -8   2 -12    7.70    1.20
  -8   2 -12    9.24    1.22
  -9  -2 -12   -0.17    0.95
  -9   2 -12    0.19    0.95
  -9   2 -12    0.90    1.17
 -10  -2 -12   -0.13    1.59
 -10  -2 -12    1.78    1.39
 -10   2 -12   -0.20    1.30
 -10   2 -12    0.58    1.54
 -11  -3  12    1.83    1.24
 -11   3  12    1.81    1.26
 -10  -3  12    1.23    0.98
 -10  -3  12    0.87    0.81
 -10   3  12    1.52    0.95
 -10   3  12    0.88    0.90
  -9  -3  12    5.93    0.76
  -9  -3  12    6.62    0.89
  -9   3  12    5.65    0.95
  -9   3  12    5.99    0.82
  -8  -3  12   -0.30    0.47
  -8  -3  12    0.22    0.57
  -8   3  12   -0.67    0.49
  -8   3  12   -0.38    0.58
  -7  -3  12    8.02    0.71
  -7  -3  12    8.06    0.78
  -7   3  12    8.66    0.81
  -6  -3  12   -0.08    0.35
  -6  -3  12    0.42    0.47
  -6   3  12    0.14    0.39
  -5  -3  12   37.90    1.40
  -5  -3  12   38.98    1.37
  -5   3  12   38.51    1.44
  -4  -3  12    6.64    0.52
  -4   3  12    6.10    0.54
  -3  -3  12    9.96    0.55
  -3   3  12    9.39    0.57
  -2  -3  12    0.37    0.22
   2   3 -12    0.71    0.52
  -2   3  12    0.25    0.25
   1  -3 -12   59.73    2.26
  -1  -3  12   62.66    1.97
   1  -3 -12   60.09    2.02
   1   3 -12   59.74    2.35
  -1   3  12   61.81    1.98
   0  -3  12   56.11    1.74
   0  -3 -12   52.55    2.05
   0  -3 -12   53.16    1.86
   0   3 -12   51.15    1.75
   0   3 -12   53.63    2.14
   0   3  12   54.76    1.74
  -1  -3 -12    1.31    0.53
   1  -3  12    1.45    0.24
  -1  -3 -12    1.68    0.43
  -1   3 -12    1.45    0.40
   1   3  12    1.46    0.24
  -1   3 -12    0.32    0.53
  -2  -3 -12    4.50    0.61
  -2  -3 -12    2.65    0.48
   2  -3  12    3.01    0.35
  -2   3 -12    2.88    0.42
   2   3  12    2.71    0.33
  -2   3 -12    3.48    0.67
  -3  -3 -12    1.89    0.46
   3  -3  12    1.48    0.30
  -3  -3 -12    1.03    0.55
  -3   3 -12    1.75    0.52
  -3   3 -12    1.58    0.38
  -4  -3 -12   19.10    1.08
  -4  -3 -12   19.37    1.08
  -4   3 -12   17.27    1.14
  -4   3 -12   19.87    0.94
  -5  -3 -12   -0.38    0.47
  -5  -3 -12    0.48    0.54
  -5   3 -12   -0.39    0.49
  -5   3 -12    0.36    0.46
  -6  -3 -12    1.12    0.61
  -6  -3 -12    0.88    0.62
  -6   3 -12    1.40    0.49
  -6   3 -12   -0.48    0.58
  -7  -3 -12    8.98    1.11
  -7   3 -12    9.67    1.29
  -7   3 -12   10.35    0.97
  -8  -3 -12   -0.04    0.88
  -8   3 -12    0.62    0.97
  -8   3 -12    0.93    0.77
  -9  -3 -12    2.53    1.12
  -9   3 -12    3.12    1.11
  -9   3 -12    3.33    1.32
 -10  -3 -12   -1.09    1.34
 -10   3 -12    0.67    1.62
 -10   3 -12   -1.35    1.37
 -11  -4  12    0.85    1.29
 -11   4  12    1.17    1.33
 -10  -4  12    0.55    0.80
 -10  -4  12    1.64    1.03
 -10   4  12    0.12    1.06
 -10   4  12    0.48    0.97
  -9  -4  12    1.77    0.67
  -9  -4  12    0.97    0.76
  -9   4  12   -0.14    0.73
  -9   4  12    0.79    0.84
  -8  -4  12    1.97    0.65
  -8  -4  12    1.45    0.54
  -8   4  12    1.48    0.60
  -7  -4  12    1.59    0.52
  -7  -4  12    1.87    0.45
  -7   4  12    2.83    0.56
  -6  -4  12    2.32    0.45
  -6  -4  12    0.92    0.49
  -6   4  12    1.80    0.48
  -5  -4  12    7.73    0.61
  -5  -4  12    8.58    0.56
  -5   4  12    8.38    0.67
  -4  -4  12    6.07    0.51
  -4  -4  12    6.71    0.46
  -4   4  12    5.97    0.56
  -3  -4  12   16.28    0.74
  -3   4  12   17.19    0.78
  -2  -4  12    7.11    0.46
   2   4 -12    5.50    0.77
  -2   4  12    5.56    0.48
  -1  -4  12   58.18    1.84
   1  -4 -12   55.60    2.18
  -1   4  12   54.60    1.85
   1   4 -12   54.03    2.24
   0  -4 -12   15.60    1.08
   0  -4  12   15.61    0.68
   0  -4 -12   14.85    0.76
   0   4  12   15.57    0.68
   0   4 -12   16.27    1.14
  -1  -4 -12    4.11    0.68
  -1  -4 -12    4.22    0.49
   1  -4  12    2.96    0.37
   1   4  12    3.02    0.38
  -1   4 -12    2.82    0.66
  -1   4 -12    3.75    0.43
   2  -4  12   10.83    0.58
  -2  -4 -12   11.34    1.05
  -2  -4 -12   11.24    0.82
  -2   4 -12   12.74    1.11
   2   4  12   12.48    0.57
  -2   4 -12   12.94    0.66
  -3  -4 -12  121.33    4.08
  -3  -4 -12  127.52    3.99
   3  -4  12  121.79    3.80
  -3   4 -12  124.70    3.86
   3   4  12  125.43    3.74
  -3   4 -12  120.89    4.20
  -4  -4 -12    0.30    0.44
  -4  -4 -12    0.02    0.48
   4  -4  12    0.70    0.36
  -4   4 -12   -0.39    0.35
  -4   4 -12    0.30    0.49
  -5  -4 -12   31.86    1.52
  -5  -4 -12   33.66    1.62
  -5   4 -12   34.40    1.45
  -5   4 -12   31.57    1.62
  -6  -4 -12   11.75    1.09
  -6   4 -12   12.07    0.87
  -6   4 -12   11.25    1.17
  -7  -4 -12   21.54    1.48
  -7   4 -12   21.74    1.24
  -7   4 -12   23.78    1.64
  -8  -4 -12   -0.27    0.87
  -8   4 -12    1.63    0.80
  -8   4 -12    0.10    0.95
  -9  -4 -12    5.28    1.27
  -9   4 -12    5.59    1.19
  -9   4 -12    6.18    1.35
 -10  -4 -12    2.30    1.48
 -10   4 -12    2.87    1.41
 -10   4 -12    3.90    1.76
 -11  -5  12    3.06    1.35
 -11   5  12    0.21    1.47
 -10  -5  12    3.51    0.92
 -10  -5  12    0.61    1.08
 -10   5  12    3.47    1.24
 -10   5  12    0.97    1.04
  -9  -5  12    2.43    0.71
  -9  -5  12    2.27    0.84
  -9   5  12    1.85    0.81
  -9   5  12   -0.20    0.89
  -8  -5  12    2.43    0.60
  -8  -5  12    3.09    0.71
  -8   5  12    3.03    0.70
  -7  -5  12   -0.17    0.40
  -7  -5  12    0.23    0.49
  -7   5  12    0.67    0.51
  -6  -5  12   -0.01    0.43
  -6  -5  12    0.10    0.38
  -6   5  12    0.05    0.47
  -5  -5  12    3.75    0.49
  -5  -5  12    4.60    0.55
  -5   5  12    5.15    0.65
  -4  -5  12    3.56    0.41
  -4  -5  12    3.89    0.48
  -4   5  12    4.77    0.49
  -3  -5  12    0.40    0.20
  -3  -5  12    0.50    0.28
  -3   5  12    0.35    0.29
  -2  -5  12   67.64    2.19
  -2   5  12   67.68    2.22
   2   5 -12   66.61    2.63
  -1  -5  12    0.45    0.26
   1  -5 -12   -0.89    0.59
   1   5 -12   -0.40    0.56
  -1   5  12    0.47    0.29
   0  -5  12   25.04    1.06
   0  -5 -12   28.69    1.04
   0  -5 -12   29.55    1.46
   0   5  12   28.50    1.09
   0   5 -12   30.85    1.59
   1  -5  12    3.90    0.44
  -1  -5 -12    3.13    0.43
  -1  -5 -12    3.36    0.72
   1   5  12    3.35    0.35
  -1   5 -12    3.84    0.75
  -2  -5 -12  112.17    3.58
   2  -5  12  108.15    3.44
  -2  -5 -12  113.93    3.80
  -2   5 -12  109.91    3.44
  -2   5 -12  110.29    3.91
   2   5  12  111.31    3.42
  -3  -5 -12   -0.01    0.51
   3  -5  12    0.35    0.35
  -3  -5 -12    0.52    0.42
  -3   5 -12    0.42    0.32
  -3   5 -12    0.76    0.52
   3   5  12    0.46    0.25
   4  -5  12    2.79    0.47
  -4  -5 -12    3.90    0.64
  -4  -5 -12    4.07    0.55
  -4   5 -12    2.61    0.58
  -4   5 -12    3.13    0.43
  -5  -5 -12    8.86    1.13
  -5  -5 -12    7.73    0.95
  -5   5 -12    7.61    0.89
  -5   5 -12    8.20    1.04
  -6  -5 -12    4.22    0.83
  -6   5 -12    4.93    0.85
  -6   5 -12    4.89    0.61
  -7  -5 -12    4.24    0.91
  -7   5 -12    3.76    0.71
  -7   5 -12    3.17    0.86
  -8  -5 -12    0.85    1.00
  -8   5 -12    0.41    0.86
  -8   5 -12    1.27    1.04
  -9  -5 -12    5.29    1.29
  -9   5 -12    8.30    1.28
  -9   5 -12    4.94    1.46
 -10  -5 -12   -0.35    1.52
 -10   5 -12    1.27    1.75
 -10   5 -12    1.55    1.42
 -11  -6  12    3.02    1.30
 -11   6  12    2.59    1.64
 -10  -6  12    6.31    1.18
 -10  -6  12    4.92    1.00
 -10   6  12    4.19    1.18
 -10   6  12    5.81    1.37
  -9  -6  12    1.75    0.77
  -9  -6  12    1.50    0.87
  -9   6  12    0.37    0.90
  -9   6  12    0.22    0.87
  -8  -6  12    1.32    0.60
  -8  -6  12    0.65    0.66
  -8   6  12    1.16    0.65
  -7  -6  12    1.26    0.52
  -7  -6  12    0.93    0.47
  -7   6  12    0.42    0.54
  -6  -6  12   49.85    1.78
  -6  -6  12   48.04    1.81
  -6   6  12   51.16    1.92
  -5  -6  12   -0.24    0.31
  -5  -6  12    0.14    0.35
  -5   6  12    0.23    0.44
  -4  -6  12    9.43    0.65
  -4  -6  12   10.38    0.53
  -4   6  12    9.02    0.69
  -3  -6  12    9.11    0.45
  -3  -6  12    9.76    0.62
  -3   6  12   10.24    0.66
   2  -6 -12  103.25    3.81
  -2  -6  12  112.96    3.47
  -2   6  12  113.75    3.51
   2   6 -12  110.81    3.92
   1  -6 -12    3.29    0.81
  -1  -6  12    4.37    0.47
   1   6 -12    4.79    0.84
  -1   6  12    4.92    0.53
   0  -6 -12    9.33    1.05
   0  -6  12    9.71    0.60
   0   6  12   10.08    0.65
   0   6 -12   11.04    1.17
  -1  -6 -12   83.01    3.10
  -1  -6 -12   81.79    2.71
   1  -6  12   88.36    2.77
  -1   6 -12   89.60    3.22
   1   6  12   88.53    2.75
  -2  -6 -12    2.79    0.49
   2  -6  12    3.05    0.44
  -2  -6 -12    2.84    0.67
  -2   6 -12    2.09    0.60
  -2   6 -12    3.05    0.36
   2   6  12    2.28    0.35
  -3  -6 -12    1.10    0.55
  -3  -6 -12    1.53    0.48
   3  -6  12    1.40    0.44
   3   6  12    1.05    0.31
  -3   6 -12    0.85    0.58
  -3   6 -12    0.37    0.31
  -4  -6 -12    1.19    0.48
   4  -6  12    0.45    0.50
  -4  -6 -12   -0.75    0.52
   4   6  12    0.74    0.27
  -4   6 -12    0.64    0.57
  -4   6 -12    0.46    0.35
  -5  -6 -12   36.73    1.74
  -5  -6 -12   34.09    1.76
  -5   6 -12   39.41    1.53
  -5   6 -12   39.10    1.91
  -6  -6 -12    9.06    1.22
  -6   6 -12    9.34    0.92
  -6   6 -12   11.31    1.31
  -7  -6 -12    0.52    0.79
  -7   6 -12    1.83    0.70
  -7   6 -12   -0.63    0.84
  -8  -6 -12    0.47    0.98
  -8   6 -12    0.63    0.93
  -8   6 -12    1.03    1.14
  -9  -6 -12    0.15    1.26
  -9   6 -12    0.48    1.22
  -9   6 -12   -1.53    1.31
 -10  -6 -12    4.04    1.76
 -10   6 -12    1.08    1.92
 -10  -7  12    3.87    1.00
 -10  -7  12    2.02    1.16
 -10   7  12    2.57    1.16
 -10   7  12    3.76    1.35
  -9  -7  12    3.15    0.87
  -9  -7  12    2.64    0.83
  -9   7  12    3.66    1.02
  -9   7  12    2.05    1.08
  -8  -7  12    0.52    0.60
  -8  -7  12    0.25    0.66
  -8   7  12    0.33    0.68
  -7  -7  12   18.19    1.05
  -7  -7  12   17.37    1.07
  -7   7  12   16.43    1.29
  -6  -7  12    0.92    0.47
  -6  -7  12    1.04    0.46
  -6   7  12    0.86    0.56
  -5  -7  12   30.24    1.11
  -5  -7  12   30.27    1.27
  -5   7  12   30.49    1.37
  -4  -7  12   11.00    0.73
  -4  -7  12   11.20    0.54
  -4   7  12   11.14    0.80
  -3  -7  12   26.63    1.10
  -3   7  12   27.78    1.16
  -2  -7  12   98.49    3.18
   2   7 -12  102.37    3.65
  -2   7  12   99.07    3.23
   1  -7 -12   27.27    1.47
  -1  -7  12   25.93    1.06
   1   7 -12   26.90    1.52
  -1   7  12   26.01    1.08
   0  -7 -12   18.04    1.18
   0  -7  12   16.77    0.81
   0   7  12   18.59    0.89
   0   7 -12   18.08    1.29
   0   7  12   17.39    0.84
  -1  -7 -12    1.05    0.57
   1  -7  12    0.76    0.34
   1   7  12    0.27    0.37
  -1   7 -12    0.67    0.56
   1   7  12    0.57    0.34
  -2  -7 -12  137.21    4.10
  -2  -7 -12  132.07    4.45
   2  -7  12  134.23    4.14
   2   7  12  124.21    4.09
   2   7  12  122.28    4.11
  -2   7 -12  140.97    4.62
   3  -7  12    1.03    0.60
  -3  -7 -12   -0.19    0.57
  -3  -7 -12   -0.30    0.40
  -3   7 -12    0.07    0.54
   3   7  12   -0.16    0.36
  -3   7 -12    0.10    0.43
   3   7  12    0.28    0.34
  -4  -7 -12   19.88    1.25
   4  -7  12   15.64    1.17
  -4   7 -12   11.05    1.22
  -5  -7 -12   10.73    1.15
  -5  -7 -12   12.67    1.19
  -5   7 -12   11.94    0.90
  -5   7 -12   10.38    1.29
  -6  -7 -12   14.45    1.34
  -6  -7 -12   15.79    1.41
  -6   7 -12   15.86    1.51
  -6   7 -12   14.10    1.09
  -7  -7 -12    1.60    0.96
  -7   7 -12    1.22    1.00
  -7   7 -12    0.70    0.76
  -8  -7 -12    1.33    1.05
  -8   7 -12    1.76    1.12
  -9  -7 -12    2.25    1.41
  -9   7 -12    3.11    1.52
 -10  -8  12    8.29    1.16
 -10   8  12    7.03    1.34
 -10   8  12    8.52    1.71
  -9  -8  12    1.38    0.89
  -9   8  12    1.94    1.05
  -9   8  12    1.18    1.13
  -8  -8  12   12.30    1.19
  -8   8  12   14.66    1.40
  -7  -8  12   -0.10    0.84
  -7  -8  12   -0.53    0.50
  -7   8  12    0.18    0.71
  -6  -8  12   47.99    1.87
  -6  -8  12   50.80    2.00
  -6   8  12   51.05    2.01
  -5  -8  12    9.30    0.77
  -5   8  12    8.60    0.91
  -4  -8  12   13.75    0.84
  -4   8  12   12.52    0.91
  -3  -8  12   37.02    1.43
  -3   8  12   37.97    1.50
  -2  -8  12   66.34    2.28
   2   8 -12   70.31    2.77
  -2   8  12   68.12    2.33
   1  -8 -12   21.43    1.32
  -1  -8  12   20.53    0.94
  -1   8  12   20.43    0.97
   1   8 -12   20.59    1.43
  -1   8  12   19.74    1.01
   0  -8 -12    0.79    0.57
   0  -8  12    0.02    0.32
   0   8  12    0.11    0.38
   0   8 -12   -0.11    0.60
   0   8  12    0.94    0.38
   1  -8  12   59.06    2.04
  -1  -8 -12   54.96    2.32
   1   8  12   58.08    2.03
  -1   8 -12   64.53    2.51
   1   8  12   60.56    2.08
  -2  -8 -12   20.91    1.35
   2  -8  12   21.46    1.04
  -2   8 -12   20.33    1.42
   2   8  12   20.95    1.03
   2   8  12   21.77    1.00
  -3  -8 -12   17.35    1.25
   3  -8  12   15.64    1.03
   3   8  12   17.80    0.95
   3   8  12   16.33    0.99
  -3   8 -12   15.73    1.36
  -4  -8 -12    0.01    0.66
   4  -8  12    1.49    0.73
   4   8  12    0.40    0.44
   4   8  12    0.86    0.46
  -4   8 -12    0.83    0.71
  -5  -8 -12    7.54    0.98
  -5   8 -12    7.55    1.05
  -6  -8 -12    0.16    0.81
  -6   8 -12   -0.30    0.83
  -7  -8 -12    1.53    1.02
  -7   8 -12    1.73    1.08
  -8  -8 -12    4.08    1.27
  -8   8 -12    5.71    1.37
  -9  -8 -12    0.41    1.56
  -9   8 -12    1.16    1.64
 -10  -9  12    2.30    1.16
 -10   9  12    0.67    1.49
 -10   9  12    1.89    1.45
  -9  -9  12    1.72    0.94
  -9   9  12    2.26    1.14
  -8  -9  12    0.92    0.74
  -8   9  12    0.79    0.93
  -7  -9  12   15.79    1.11
  -7   9  12   12.18    1.26
  -6  -9  12    2.86    0.63
  -6   9  12    2.20    0.73
  -5  -9  12   -0.69    0.44
  -5   9  12   -0.76    0.53
  -4  -9  12    2.18    0.49
  -4   9  12    2.50    0.54
  -3  -9  12   24.43    1.12
  -3   9  12   25.13    1.19
  -2  -9  12   10.34    0.72
  -2   9  12    8.90    0.83
  -2   9  12   10.12    0.78
   2   9 -12   12.31    1.29
   1  -9 -12    1.69    0.65
  -1  -9  12    1.10    0.39
  -1   9  12    2.16    0.48
   1   9 -12    1.60    0.70
  -1   9  12    1.58    0.42
   0  -9 -12   -0.23    0.54
   0  -9  12    0.18    0.37
   0   9  12    0.79    0.40
   0   9  12    0.84    0.44
   0   9 -12    0.67    0.65
  -1  -9 -12    1.82    0.67
   1  -9  12    3.49    0.49
   1   9  12    2.90    0.48
   1   9  12    2.81    0.52
  -1   9 -12    2.20    0.74
  -2  -9 -12    8.15    1.06
   2  -9  12   10.17    0.83
  -2   9 -12    8.61    1.19
   2   9  12    7.61    0.78
   2   9  12    8.68    0.84
   3  -9  12    1.39    0.61
  -3  -9 -12    1.36    0.72
   3   9  12    0.53    0.46
  -3   9 -12    0.38    0.68
   3   9  12    0.77    0.51
   4  -9  12    4.37    0.85
  -4  -9 -12    1.91    0.83
   4   9  12    3.63    0.53
  -4   9 -12    3.51    0.90
   4   9  12    2.21    0.55
  -5  -9 -12   -1.16    0.79
  -5   9 -12    0.39    0.82
  -6  -9 -12   11.60    1.31
  -6   9 -12    8.18    1.23
  -7  -9 -12   -0.48    1.11
  -8  -9 -12    2.26    1.38
  -8   9 -12    2.80    1.35
  -9  -9 -12    2.04    1.75
  -9   9 -12   -0.64    1.73
  -9 -10  12    4.44    1.04
  -9  10  12    1.45    1.22
  -8 -10  12    1.48    0.87
  -8  10  12    3.83    1.07
  -7 -10  12    0.08    0.68
  -7  10  12    0.30    0.82
  -6 -10  12   11.54    1.07
  -6  10  12   11.22    1.19
  -5 -10  12    0.74    0.53
  -5  10  12   -0.01    0.60
  -4 -10  12    0.19    0.47
  -4  10  12   -0.11    0.51
  -3 -10  12    4.20    0.55
  -3  10  12    5.83    0.67
  -2 -10  12    2.33    0.48
  -2  10  12    2.67    0.55
  -2  10  12    1.78    0.55
  -1 -10  12    3.02    0.50
   1 -10 -12    3.10    0.78
  -1  10  12    3.23    0.58
   1  10 -12    3.14    0.81
  -1  10  12    3.35    0.54
   0 -10 -12    4.15    0.76
   0 -10  12    3.95    0.54
   0  10  12    4.98    0.58
   0  10  12    4.64    0.63
   0  10 -12    3.91    0.83
   1 -10  12    2.73    0.52
  -1 -10 -12    4.53    0.78
   1  10  12    3.72    0.56
   1  10  12    3.46    0.59
  -1  10 -12    4.90    0.87
  -2 -10 -12    1.62    0.74
   2 -10  12    2.91    0.61
   2  10  12    1.94    0.59
   2  10  12    0.97    0.53
  -2  10 -12    2.77    0.78
   3 -10  12   -0.08    0.69
  -3 -10 -12    0.74    0.77
  -3  10 -12    0.87    0.76
   3  10  12    0.03    0.52
   3  10  12    1.03    0.59
  -4 -10 -12    1.01    0.88
   4 -10  12    2.22    0.89
  -4  10 -12    1.89    0.90
   4  10  12    2.41    0.59
   4  10  12    2.04    0.63
  -5 -10 -12    2.12    0.98
  -5  10 -12    4.21    0.98
  -6 -10 -12    0.13    1.08
  -6  10 -12    0.62    1.07
  -7 -10 -12    0.00    1.22
  -7  10 -12    1.22    1.24
  -8 -10 -12    3.33    1.60
  -8  10 -12    3.84    1.59
  -9 -11  12    1.12    1.14
  -9  11  12   -1.50    1.39
  -8 -11  12    0.98    0.96
  -8  11  12   -0.47    1.14
  -7 -11  12    4.29    0.86
  -7  11  12    2.96    0.98
  -6 -11  12    1.58    0.68
  -6  11  12    1.31    0.78
  -5 -11  12    7.92    0.98
  -5  11  12    8.05    0.90
  -4 -11  12    1.64    0.59
  -4  11  12    0.77    0.62
  -3 -11  12    9.40    0.83
  -3  11  12    7.49    0.89
  -3  11  12    9.25    0.97
  -2 -11  12    1.40    0.50
  -2  11  12    0.93    0.57
  -2  11  12    1.63    0.53
   1 -11 -12    3.77    0.83
  -1 -11  12    1.76    0.52
  -1  11  12    3.36    0.63
  -1  11  12    3.02    0.58
   1  11 -12    1.62    0.77
   0 -11  12    3.78    0.59
   0 -11 -12    2.91    0.79
   0  11 -12    1.58    0.75
   0  11  12    2.74    0.59
   0  11  12    3.16    0.64
   1 -11  12    6.69    0.83
  -1 -11 -12    7.59    0.94
   1  11  12    6.21    0.74
   1  11  12    5.36    0.68
  -1  11 -12    7.74    0.95
  -2 -11 -12    0.54    0.76
   2 -11  12    0.73    0.66
  -2  11 -12    1.68    0.73
   3 -11  12    1.73    0.82
  -3 -11 -12    0.19    0.84
  -3  11 -12    2.51    0.87
  -4 -11 -12    1.31    0.99
   4 -11  12   -1.87    0.90
  -4  11 -12   -0.40    0.82
  -5 -11 -12    0.61    1.19
  -5  11 -12    3.39    1.05
  -6 -11 -12    7.23    1.40
  -6  11 -12    6.57    1.30
  -7 -11 -12    2.00    1.41
  -7  11 -12    2.86    1.37
  -8 -11 -12    2.36    1.78
  -8  11 -12    1.94    1.74
  -8 -12  12   -0.59    1.04
  -8  12  12   -1.61    1.26
  -7 -12  12   -0.02    0.82
  -7  12  12   -0.16    0.97
  -6 -12  12    9.72    0.99
  -6  12  12   11.15    1.15
  -5 -12  12    5.48    0.81
  -5  12  12    4.19    0.82
  -4  12  12   -1.35    0.59
  -3 -12  12    0.16    0.58
  -3  12  12    0.49    0.67
  -3  12  12   -0.37    0.59
  -2 -12  12    3.34    0.62
  -2  12  12    3.40    0.74
  -2  12  12    3.10    0.67
   1 -12 -12    9.70    1.31
  -1 -12  12   10.18    0.92
   1  12 -12   10.49    1.28
  -1  12  12    9.96    1.06
  -1  12  12   11.44    1.01
   0 -12 -12    1.31    0.83
   0 -12  12    0.48    0.56
   0  12  12    1.89    0.61
   0  12 -12    2.16    0.74
   0  12  12    0.50    0.63
   1 -12  12    1.64    0.65
  -1 -12 -12    1.42    0.82
   1  12  12    0.88    0.62
  -1  12 -12    2.57    0.72
  -2 -12 -12    1.47    0.82
   2 -12  12    1.98    0.75
  -2  12 -12    1.49    0.81
  -3 -12 -12    3.37    0.99
   3 -12  12    3.73    0.97
  -3  12 -12    2.48    0.87
   4 -12  12    2.31    1.09
  -4 -12 -12    3.52    1.13
  -4  12 -12    3.29    0.97
  -5 -12 -12    3.43    1.23
  -5  12 -12    3.64    1.26
  -6 -12 -12    9.31    1.63
  -6  12 -12    5.78    1.43
  -7 -12 -12    0.01    1.65
  -7  12 -12    1.50    1.65
  -8 -13  12   -0.98    1.81
  -7 -13  12    3.31    1.03
  -7  13  12   -0.17    1.11
  -6 -13  12   -0.24    0.82
  -6  13  12   -0.28    0.94
  -5 -13  12    0.49    0.74
  -5  13  12    1.36    0.85
  -4 -13  12    0.17    0.69
  -4  13  12    0.32    0.78
  -3 -13  12    1.91    0.66
  -3  13  12    2.24    0.81
  -3  13  12    1.97    0.73
  -2 -13  12   10.27    1.02
  -2  13  12   10.85    1.30
  -2  13  12   10.77    1.19
  -1 -13  12    1.04    0.66
   1 -13 -12    0.94    0.87
  -1  13  12   -0.21    0.74
   1  13 -12    0.00    0.74
  -1  13  12    1.86    0.71
   0 -13  12    0.72    0.73
   0 -13 -12    2.47    0.94
   0  13  12    2.93    0.82
   0  13  12    0.61    0.70
   0  13 -12    1.06    0.80
  -1 -13 -12    2.77    0.89
   1 -13  12    0.97    0.76
  -1  13 -12    1.77    0.77
   2 -13  12   24.29    1.68
  -2 -13 -12   25.22    1.39
  -2 -13 -12   27.12    1.81
  -2  13 -12   21.49    1.64
   3 -13  12    0.68    1.04
  -3 -13 -12    1.52    0.97
  -3 -13 -12    0.20    0.68
  -3  13 -12    0.36    0.87
  -4 -13 -12    0.60    1.18
   4 -13  12    2.94    1.27
  -4  13 -12    2.28    1.11
  -5 -13 -12    0.44    1.34
  -5  13 -12    0.65    1.25
  -6 -13 -12    5.31    1.74
  -6  13 -12    5.22    1.66
  -7 -13 -12    2.96    1.90
  -7  13 -12    3.28    1.84
  -7 -14  12    0.59    1.22
  -7  14  12    0.28    1.27
  -6 -14  12    9.10    1.20
  -6  14  12    7.35    1.25
  -5 -14  12    3.05    0.94
  -5  14  12    1.35    1.00
  -4 -14  12   11.43    1.38
  -4  14  12   10.11    1.18
  -3 -14  12    2.41    0.79
  -3  14  12    1.40    0.92
  -3  14  12    0.89    0.83
  -2 -14  12   12.60    1.28
  -2  14  12   12.94    1.17
  -2  14  12   14.60    1.50
  -1 -14  12    0.74    0.71
  -1  14  12    0.77    0.78
  -1  14  12   -0.12    0.85
   0 -14  12    2.12    0.82
   0 -14 -12    1.83    0.97
   0  14 -12    2.62    0.85
   0  14  12    1.72    0.81
   0  14  12    3.22    0.89
   1 -14  12    3.07    0.90
  -1 -14 -12    2.48    1.02
  -1  14 -12    1.21    0.83
  -2 -14 -12   -0.75    0.78
   2 -14  12   -0.54    0.98
  -2 -14 -12    0.26    1.03
  -2  14 -12    0.35    0.86
   3 -14  12    0.35    1.19
  -3 -14 -12   -0.16    0.85
  -3 -14 -12   -0.73    1.16
  -3  14 -12    0.63    0.99
  -4 -14 -12    3.54    1.44
   4 -14  12    5.11    1.35
  -4  14 -12    2.06    1.24
  -5 -14 -12    0.80    1.58
  -5  14 -12    2.22    1.54
  -6 -14 -12    2.56    1.91
  -6  14 -12    2.34    1.73
  -6 -15  12   -0.59    1.25
  -6  15  12   -1.87    1.27
  -5 -15  12    0.57    1.06
  -5  15  12    0.49    1.12
  -4 -15  12    2.12    1.03
  -4  15  12    1.95    1.10
  -4  15  12    0.80    1.17
  -3 -15  12    0.64    0.87
  -3  15  12   -1.87    0.88
  -3  15  12   -0.71    0.99
  -2 -15  12    3.86    0.97
  -2  15  12    3.81    0.98
  -2  15  12    3.60    1.09
  -1 -15  12   -0.03    0.85
  -1  15  12    0.56    0.89
  -1  15  12    1.31    0.99
   0 -15 -12   20.02    1.96
   0 -15  12   23.45    1.69
   0  15 -12   21.61    1.82
   0  15  12   22.46    1.76
   0  15  12   27.25    1.85
  -1 -15 -12   -2.22    1.09
   1 -15  12    0.81    0.99
  -1  15 -12    0.86    0.96
   2 -15  12    6.23    1.28
  -2 -15 -12    7.74    1.35
  -2 -15 -12    5.47    1.01
  -2  15 -12    5.16    1.14
   3 -15  12   -1.05    1.25
  -3 -15 -12    0.20    1.19
  -3 -15 -12   -1.39    1.26
  -3  15 -12   -0.75    1.11
  -4 -15 -12   14.03    1.76
   4 -15  12    9.51    1.66
  -4  15 -12   11.35    1.61
  -5 -15 -12   -1.32    1.65
  -5  15 -12    0.20    1.56
  -4 -16  12    9.48    1.42
  -4  16  12   11.47    1.49
  -4  16  12   13.33    1.65
  -3 -16  12   -0.80    1.04
  -3  16  12   -0.74    1.14
  -3  16  12   -0.50    1.06
  -2 -16  12    0.54    1.04
  -2  16  12   -0.20    1.16
  -2  16  12    0.89    1.03
  -1 -16  12   -0.27    1.01
  -1  16  12    1.00    1.07
  -1  16  12   -1.47    1.16
   0 -16 -12    1.03    1.26
   0 -16  12    4.61    1.13
   0  16  12    4.98    1.29
   0  16  12    2.93    1.14
   0  16 -12    3.84    1.23
  -1 -16 -12    1.16    1.30
   1 -16  12   -0.22    1.15
   1  16  12   -1.20    1.16
  -1  16 -12    0.09    1.13
   1  16  12    0.88    1.17
   2 -16  12    1.23    1.33
  -2 -16 -12    2.98    1.43
  -2  16 -12    0.79    1.26
  -3 -16 -12    2.60    1.51
   3 -16  12    1.96    1.49
  -3  16 -12    4.53    1.35
  -4 -16 -12    2.54    1.70
  -4  16 -12    0.80    1.45
  -5 -16 -12   -0.60    1.83
  -5  16 -12   -2.23    1.61
  -3 -17  12    0.71    1.51
  -3  17  12   -0.62    1.37
  -3  17  12    0.25    1.55
  -2 -17  12    0.36    1.26
  -2  17  12    1.53    1.32
  -2  17  12    1.97    1.49
  -1 -17  12    2.67    1.31
  -1  17  12    1.58    1.36
  -1  17  12    3.03    1.28
   0 -17  12    8.06    1.44
   0  17  12   10.08    1.56
   0  17  12    7.62    1.41
  -1 -17 -12    1.46    1.54
   1 -17  12    1.34    1.33
   1  17  12   -0.88    1.27
   1  17  12    2.04    1.39
  -2 -17 -12    1.88    1.70
   2 -17  12    0.42    1.45
  -3 -17 -12   -1.61    1.66
   3 -17  12    2.63    1.69
  -1 -18 -12    0.17    1.65
   1  18  12   -1.97    1.96
  -2 -18 -12    1.43    1.76
 -11   0  13    0.98    1.21
 -11   0  13    1.08    1.08
 -10   0  13    0.19    0.83
 -10   0  13    0.79    0.80
  -9   0  13   -0.01    0.64
  -9   0  13    0.67    0.64
  -8   0  13   -0.07    0.57
  -8   0  13    1.16    0.52
  -7   0  13   -0.20    0.39
  -7   0  13    0.33    0.45
  -6   0  13    0.04    0.36
  -5   0  13   -0.51    0.29
  -4   0  13    0.49    0.28
  -3   0  13    0.25    0.24
  -2   0  13    0.25    0.24
   1   0 -13   -0.01    0.40
   1   0 -13   -0.32    0.38
  -1   0  13    0.22    0.23
   0   0 -13   -0.07    0.41
   0   0 -13   -0.49    0.42
   0   0  13   -0.09    0.19
  -1   0 -13    0.52    0.48
  -1   0 -13    0.88    0.46
   1   0  13    0.07    0.19
  -2   0 -13    0.22    0.41
  -2   0 -13   -0.45    0.43
   2   0  13   -0.05    0.18
  -3   0 -13    0.46    0.46
  -3   0 -13    0.39    0.54
  -4   0 -13    0.51    0.50
  -4   0 -13   -1.07    0.53
  -5   0 -13   -0.73    0.44
  -5   0 -13    0.36    0.53
  -6   0 -13   -0.29    0.64
  -6   0 -13    0.72    0.53
  -7   0 -13   -0.16    0.71
  -7   0 -13    0.15    0.65
  -8   0 -13   -1.03    1.01
  -8   0 -13    2.04    0.80
  -9   0 -13    0.45    1.06
  -9   0 -13    1.24    1.24
 -10   0 -13   -1.15    1.60
 -10   0 -13   -1.58    1.34
 -11  -1  13   -0.64    1.07
 -11  -1  13    0.95    1.25
 -11   1  13    1.70    1.24
 -11   1  13    1.84    1.10
 -10  -1  13    0.08    0.78
 -10  -1  13   -0.22    0.87
 -10   1  13    0.16    0.82
 -10   1  13    1.20    0.93
  -9  -1  13    1.10    0.63
  -9  -1  13    1.25    0.68
  -9   1  13    2.16    0.73
  -9   1  13    1.65    0.69
  -8  -1  13    0.49    0.50
  -8  -1  13    0.30    0.53
  -8   1  13    0.32    0.57
  -8   1  13    0.40    0.52
  -7  -1  13    0.72    0.42
  -7  -1  13    0.56    0.44
  -7   1  13   -0.43    0.41
  -6  -1  13    2.36    0.43
  -6   1  13    3.58    0.49
  -5  -1  13    0.26    0.31
  -5   1  13    0.23    0.32
  -4  -1  13    3.36    0.37
  -4   1  13    2.51    0.35
  -3  -1  13    1.73    0.28
  -3   1  13    1.59    0.28
  -2  -1  13    0.51    0.25
  -2   1  13    0.75    0.26
   2   1 -13    1.49    0.46
   1  -1 -13    6.12    0.65
  -1  -1  13    5.74    0.44
   1  -1 -13    6.65    0.76
  -1   1  13    5.69    0.45
   1   1 -13    5.79    0.74
   1   1 -13    4.99    0.56
   0  -1  13    0.41    0.21
   0  -1 -13    1.03    0.44
   0  -1 -13    0.16    0.46
   0   1 -13    0.49    0.44
   0   1  13    0.98    0.23
   0   1 -13    0.70    0.42
   1  -1  13    3.24    0.34
  -1  -1 -13    3.78    0.55
  -1  -1 -13    4.23    0.62
  -1   1 -13    3.54    0.60
  -1   1 -13    4.27    0.58
   1   1  13    3.46    0.35
  -2  -1 -13    0.09    0.45
  -2  -1 -13    0.24    0.42
   2  -1  13    0.38    0.20
   2   1  13    0.14    0.19
  -2   1 -13    1.40    0.50
  -2   1 -13   -0.40    0.39
  -3  -1 -13    0.16    0.44
  -3  -1 -13    0.16    0.48
  -3   1 -13    0.28    0.41
  -3   1 -13    0.66    0.65
  -4  -1 -13    7.61    0.99
  -4  -1 -13    9.55    0.84
  -4   1 -13    5.25    0.73
  -4   1 -13    8.33    0.89
  -5  -1 -13   13.15    1.08
  -5  -1 -13   13.77    1.00
  -5   1 -13   14.02    0.98
  -5   1 -13   13.10    1.14
  -6  -1 -13    0.79    0.62
  -6  -1 -13   -0.19    0.59
  -6   1 -13    0.23    0.61
  -6   1 -13    0.59    0.55
  -7  -1 -13    1.53    0.83
  -7  -1 -13    1.55    0.68
  -7   1 -13    2.30    0.81
  -7   1 -13    1.26    0.67
  -8  -1 -13    1.67    0.89
  -8  -1 -13   -0.31    0.94
  -8   1 -13    3.21    1.10
  -8   1 -13   -0.30    0.82
  -9  -1 -13    1.06    1.07
  -9  -1 -13   -0.82    1.26
  -9   1 -13    1.07    1.06
  -9   1 -13    1.47    1.26
 -10  -1 -13   -0.40    1.43
 -10  -1 -13    0.54    1.63
 -10   1 -13    1.37    1.39
 -10   1 -13    0.49    1.64
 -11  -2  13    1.20    1.30
 -11  -2  13    0.12    1.25
 -11   2  13    1.07    1.23
 -11   2  13    0.49    1.11
 -10  -2  13   10.32    1.05
 -10  -2  13   10.57    1.25
 -10   2  13   15.48    1.60
 -10   2  13   11.05    1.43
  -9  -2  13    2.70    0.67
  -9  -2  13    2.35    0.76
  -9   2  13    1.83    0.71
  -9   2  13    2.48    0.79
  -8  -2  13    0.78    0.53
  -8  -2  13    1.26    0.60
  -8   2  13    0.32    0.55
  -8   2  13    0.89    0.59
  -7  -2  13    0.61    0.42
  -7  -2  13    0.96    0.46
  -7   2  13    1.07    0.50
  -6  -2  13    6.61    0.66
  -6  -2  13    7.52    0.66
  -6   2  13    5.29    0.58
  -5  -2  13   10.94    0.67
  -5   2  13   12.03    0.72
  -4  -2  13    2.36    0.34
  -4   2  13    2.50    0.37
  -3  -2  13   29.05    1.08
  -3   2  13   29.01    1.09
  -2  -2  13    0.37    0.23
   2   2 -13    1.04    0.51
  -2   2  13    0.52    0.26
   1  -2 -13    7.43    0.83
  -1  -2  13    6.63    0.48
   1  -2 -13    6.94    0.65
   1   2 -13    6.46    0.88
  -1   2  13    7.46    0.51
   0  -2  13    0.78    0.23
   0  -2 -13    0.89    0.51
   0  -2 -13    0.60    0.39
   0   2 -13    1.09    0.52
   0   2  13    0.87    0.25
   0   2 -13    0.54    0.36
  -1  -2 -13  138.11    4.61
   1  -2  13  141.69    4.30
  -1  -2 -13  144.35    4.57
  -1   2 -13  141.46    4.73
  -1   2 -13  139.49    4.48
   1   2  13  144.58    4.30
  -2  -2 -13    2.25    0.49
  -2  -2 -13    2.28    0.57
   2  -2  13    1.77    0.25
   2   2  13    1.19    0.23
  -2   2 -13    0.83    0.58
  -2   2 -13    1.34    0.44
   3  -2  13   30.83    1.07
  -3  -2 -13   29.28    1.48
  -3  -2 -13   32.75    1.42
  -3   2 -13   32.37    1.57
  -3   2 -13   31.72    1.28
  -4  -2 -13    4.76    0.67
  -4  -2 -13    4.40    0.77
  -4   2 -13    4.04    0.61
  -4   2 -13    4.22    0.62
  -5  -2 -13   19.47    1.18
  -5  -2 -13   21.38    1.28
  -5   2 -13   17.81    1.26
  -5   2 -13   20.99    1.09
  -6  -2 -13    7.61    1.10
  -6  -2 -13    9.19    1.00
  -6   2 -13    8.99    0.88
  -6   2 -13    8.14    1.14
  -7  -2 -13    5.13    0.92
  -7  -2 -13    3.90    0.80
  -7   2 -13    4.66    0.91
  -7   2 -13    4.77    0.74
  -8  -2 -13    0.04    0.89
  -8  -2 -13    0.38    0.97
  -8   2 -13   -0.72    0.78
  -8   2 -13   -0.25    0.98
  -9  -2 -13   -0.73    1.05
  -9  -2 -13   -1.17    1.33
  -9   2 -13   -0.17    1.09
  -9   2 -13    0.71    1.23
 -10  -2 -13    1.07    1.46
 -10  -2 -13    2.02    1.83
 -10   2 -13   -0.65    1.65
 -10   2 -13    2.38    1.43
 -11  -3  13    2.46    1.29
 -11   3  13    3.01    1.32
 -11   3  13    1.56    1.18
 -10  -3  13    0.16    1.00
 -10  -3  13    0.96    0.86
 -10   3  13   -0.61    0.92
 -10   3  13   -0.25    1.01
  -9  -3  13    4.59    0.87
  -9  -3  13    6.61    0.77
  -9   3  13    6.00    0.85
  -9   3  13    4.40    0.97
  -8  -3  13    1.29    0.56
  -8  -3  13    0.81    0.61
  -8   3  13    1.57    0.63
  -8   3  13   -0.32    0.59
  -7  -3  13    0.49    0.43
  -7  -3  13    1.56    0.51
  -7   3  13    0.61    0.49
  -6  -3  13    1.97    0.49
  -6  -3  13    2.18    0.42
  -6   3  13    2.68    0.51
  -5  -3  13    0.94    0.34
  -5  -3  13    1.08    0.35
  -5   3  13    1.86    0.41
  -4  -3  13    4.01    0.46
  -4   3  13    4.51    0.49
  -3  -3  13    0.69    0.27
  -3   3  13    1.00    0.31
  -2  -3  13   21.05    0.85
   2   3 -13   21.07    1.33
  -2   3  13   20.97    0.87
   1  -3 -13    9.24    0.90
   1  -3 -13    8.11    0.63
  -1  -3  13    9.95    0.57
   1   3 -13    8.76    1.00
  -1   3  13    8.41    0.59
   0  -3  13    4.90    0.42
   0  -3 -13    4.44    0.49
   0  -3 -13    4.15    0.64
   0   3 -13    5.91    0.47
   0   3 -13    4.88    0.71
   0   3  13    4.31    0.41
  -1  -3 -13   16.10    1.11
   1  -3  13   16.97    0.70
  -1  -3 -13   16.20    0.96
  -1   3 -13   16.92    0.87
   1   3  13   17.15    0.69
  -1   3 -13   16.55    1.23
   2  -3  13   11.40    0.55
  -2  -3 -13   13.58    1.09
   2   3  13   11.15    0.53
  -2   3 -13   10.59    0.72
  -3  -3 -13    0.54    0.44
  -3  -3 -13    0.70    0.58
   3  -3  13    0.94    0.30
  -3   3 -13    0.05    0.37
  -3   3 -13    0.44    0.44
   3   3  13   -0.05    0.20
  -4  -3 -13    8.41    0.88
  -4  -3 -13   10.42    1.03
  -4   3 -13    6.04    0.83
  -4   3 -13    9.20    0.75
  -5  -3 -13   11.92    1.09
  -5  -3 -13   12.70    1.06
  -5   3 -13   12.36    0.91
  -5   3 -13   12.50    1.11
  -6  -3 -13    3.88    0.75
  -6  -3 -13    2.77    0.76
  -6   3 -13    3.70    0.74
  -6   3 -13    3.28    0.59
  -7  -3 -13    0.65    0.73
  -7  -3 -13    0.30    0.84
  -7   3 -13    1.13    0.67
  -7   3 -13    0.43    0.76
  -8  -3 -13   -1.02    0.90
  -8  -3 -13   -0.54    1.02
  -8   3 -13    0.19    0.81
  -8   3 -13   -0.19    1.01
  -9  -3 -13    0.92    1.40
  -9  -3 -13    0.45    1.15
  -9   3 -13    1.48    1.12
  -9   3 -13    0.75    1.34
 -10  -3 -13   -3.17    1.47
 -10  -3 -13   -3.69    1.61
 -10   3 -13   -0.95    1.74
 -10   3 -13    0.73    1.43
 -11  -4  13    0.59    1.31
 -11   4  13   -0.08    1.26
 -11   4  13    0.85    1.41
 -10  -4  13    0.69    1.06
 -10  -4  13    3.31    0.92
 -10   4  13    2.06    1.11
 -10   4  13    2.36    1.03
  -9  -4  13    1.16    0.70
  -9  -4  13    1.84    0.83
  -9   4  13    0.09    0.86
  -9   4  13    1.67    0.82
  -8  -4  13    4.59    0.66
  -8  -4  13    3.80    0.70
  -8   4  13    5.57    0.73
  -7  -4  13    2.92    0.49
  -7  -4  13    2.13    0.55
  -7   4  13    2.55    0.56
  -6  -4  13    8.08    0.80
  -6  -4  13    9.50    0.73
  -6   4  13    7.78    0.78
  -5  -4  13   17.64    0.80
  -5  -4  13   17.60    0.87
  -5   4  13   16.41    0.91
  -4  -4  13    1.45    0.28
  -4  -4  13    0.78    0.32
  -4   4  13    1.49    0.37
  -3  -4  13    8.97    0.57
  -3   4  13    8.34    0.59
  -2  -4  13    0.63    0.26
   2   4 -13    0.62    0.64
  -2   4  13    1.15    0.31
   1  -4 -13    1.94    0.66
  -1  -4  13    2.27    0.33
  -1   4  13    2.05    0.34
   1   4 -13    2.14    0.70
   0  -4 -13    1.68    0.62
   0  -4 -13    2.28    0.41
   0  -4  13    2.64    0.35
   0   4  13    3.00    0.35
   0   4 -13    2.42    0.70
  -1  -4 -13    7.33    0.73
  -1  -4 -13    7.35    1.00
   1  -4  13    6.83    0.47
  -1   4 -13    6.39    0.87
  -1   4 -13    5.77    0.59
   1   4  13    6.27    0.47
  -2  -4 -13    9.11    1.04
   2  -4  13    6.14    0.49
  -2  -4 -13    7.81    0.81
  -2   4 -13    6.02    0.62
  -2   4 -13    5.50    0.78
   2   4  13    5.39    0.45
   3  -4  13    4.07    0.42
  -3  -4 -13    3.32    0.55
  -3  -4 -13    3.32    0.65
   3   4  13    2.90    0.37
  -3   4 -13    3.17    0.46
  -3   4 -13    2.41    0.59
  -4  -4 -13    3.04    0.62
  -4  -4 -13    2.65    0.59
  -4   4 -13    1.93    0.44
  -4   4 -13    1.49    0.56
  -5  -4 -13    0.21    0.57
  -5  -4 -13    0.33    0.61
  -5   4 -13    0.20    0.59
  -5   4 -13    1.10    0.51
  -6  -4 -13    4.35    0.87
  -6  -4 -13    5.84    0.85
  -6   4 -13    7.39    0.85
  -6   4 -13    2.67    0.76
  -7  -4 -13   -0.80    0.84
  -7  -4 -13    0.94    0.80
  -7   4 -13   -0.83    0.75
  -7   4 -13    0.37    0.63
  -8  -4 -13   -0.29    1.06
  -8  -4 -13    0.46    0.95
  -8   4 -13    1.88    0.99
  -8   4 -13    0.87    0.86
  -9  -4 -13    1.37    1.18
  -9  -4 -13    1.67    1.48
  -9   4 -13    0.94    1.41
  -9   4 -13   -0.40    1.14
 -10  -4 -13    1.66    1.82
 -10  -4 -13    2.38    1.62
 -10   4 -13    2.13    1.79
 -10   4 -13    2.09    1.46
 -11  -5  13    4.23    1.35
 -11   5  13    2.70    1.47
 -11   5  13    3.43    1.59
 -10  -5  13    1.00    0.92
 -10  -5  13    1.54    1.09
 -10   5  13    0.39    1.07
 -10   5  13    2.03    1.23
  -9  -5  13    9.57    1.05
  -9  -5  13    9.87    1.20
  -9   5  13   12.78    1.40
  -9   5  13    9.84    1.17
  -8  -5  13    2.76    0.59
  -8  -5  13    1.25    0.69
  -8   5  13    0.78    0.72
  -7  -5  13    2.06    0.57
  -7  -5  13    1.89    0.49
  -7   5  13    2.54    0.59
  -6  -5  13   29.60    1.25
  -6  -5  13   28.78    1.24
  -6   5  13   27.75    1.32
  -5  -5  13   20.52    0.88
  -5  -5  13   20.54    0.97
  -5   5  13   20.01    1.03
  -4  -5  13    7.27    0.49
  -4  -5  13    6.97    0.56
  -4   5  13    6.83    0.64
  -3  -5  13    1.82    0.34
  -3  -5  13    2.19    0.27
  -3   5  13    2.34    0.39
  -2  -5  13   52.70    1.74
  -2  -5  13   49.64    1.57
   2   5 -13   50.57    2.20
  -2   5  13   50.34    1.76
   1  -5 -13    8.39    1.11
  -1  -5  13    8.01    0.56
  -1   5  13    8.36    0.59
   1   5 -13    9.09    1.16
   0  -5 -13    0.06    0.64
   0  -5  13    0.67    0.31
   0  -5 -13    0.55    0.31
   0   5 -13    0.58    0.65
   0   5  13    0.83    0.36
  -1  -5 -13    0.01    0.38
   1  -5  13    0.08    0.32
  -1  -5 -13    0.54    0.59
   1   5  13    0.33    0.30
  -1   5 -13    0.45    0.56
   2  -5  13    9.09    0.58
  -2   5 -13    7.04    1.01
   2   5  13    8.00    0.52
  -2   5 -13    7.16    0.62
  -3  -5 -13    0.11    0.55
  -3  -5 -13    0.99    0.45
   3  -5  13    1.28    0.41
  -3   5 -13    0.05    0.34
   3   5  13    0.93    0.27
  -3   5 -13    1.03    0.53
   4  -5  13    2.15    0.46
  -4  -5 -13    1.31    0.53
  -4  -5 -13    0.88    0.62
  -4   5 -13    1.74    0.60
  -4   5 -13    1.46    0.41
  -5  -5 -13   10.00    1.10
  -5  -5 -13   11.23    1.13
  -5   5 -13   10.07    0.97
  -5   5 -13   11.26    1.18
  -6  -5 -13    1.11    0.73
  -6  -5 -13    0.77    0.82
  -6   5 -13    0.59    0.72
  -6   5 -13    1.67    0.56
  -7  -5 -13   -1.74    0.87
  -7  -5 -13    0.87    0.86
  -7   5 -13   -0.15    0.71
  -7   5 -13    1.11    0.87
  -8  -5 -13    0.08    1.12
  -8  -5 -13    1.16    1.05
  -8   5 -13    0.04    1.04
  -8   5 -13   -0.21    0.88
  -9  -5 -13    5.33    1.55
  -9  -5 -13    7.44    1.41
  -9   5 -13    7.44    1.34
  -9   5 -13    5.99    1.61
 -10  -6  13   19.41    1.64
 -10  -6  13   23.68    1.92
 -10   6  13   19.66    1.95
 -10   6  13   25.14    2.25
  -9  -6  13    0.64    0.75
  -9  -6  13    0.24    0.85
  -9   6  13    0.04    0.89
  -9   6  13    1.82    0.97
  -8  -6  13    9.60    0.92
  -8  -6  13   11.20    1.05
  -8   6  13   12.57    1.17
  -7  -6  13    0.44    0.53
  -7  -6  13    0.77    0.54
  -7   6  13    0.11    0.58
  -6  -6  13   28.30    1.24
  -6  -6  13   27.19    1.22
  -6   6  13   27.63    1.37
  -5  -6  13    0.52    0.32
  -5  -6  13    0.00    0.38
  -5   6  13    1.23    0.47
  -4  -6  13   12.42    0.74
  -4  -6  13   12.47    0.59
  -4   6  13   12.70    0.82
  -3  -6  13    1.62    0.34
  -3  -6  13    2.21    0.29
  -3   6  13    2.24    0.41
  -2  -6  13    9.19    0.61
   2  -6 -13    8.56    1.03
   2   6 -13    8.24    1.04
  -2   6  13    8.51    0.64
  -1  -6  13   12.98    0.70
   1  -6 -13   12.69    1.15
  -1   6  13   14.12    0.74
   1   6 -13   14.32    1.16
   0  -6 -13    0.13    0.55
   0  -6  13    0.96    0.31
   0   6  13    0.68    0.34
   0   6 -13    0.46    0.57
   1  -6  13   26.52    1.10
  -1  -6 -13   27.71    1.09
  -1  -6 -13   28.15    1.46
  -1   6 -13   31.83    1.56
   1   6  13   27.45    1.14
  -2  -6 -13    2.70    0.49
  -2  -6 -13    3.88    0.71
   2  -6  13    1.99    0.49
  -2   6 -13    0.73    0.61
  -2   6 -13    2.67    0.42
   2   6  13    2.66    0.38
  -3  -6 -13   17.86    1.20
   3  -6  13   17.65    0.97
  -3  -6 -13   19.20    1.05
  -3   6 -13   16.52    0.84
  -3   6 -13   16.12    1.29
   3   6  13   16.94    0.78
   4  -6  13    1.90    0.52
  -4  -6 -13    1.49    0.55
  -4  -6 -13    1.47    0.62
  -4   6 -13   -0.14    0.62
  -4   6 -13    0.50    0.40
  -5  -6 -13    5.78    0.89
  -5  -6 -13    6.13    0.90
  -5   6 -13    6.25    0.92
  -5   6 -13    5.76    0.76
  -6  -6 -13    1.40    0.80
  -6  -6 -13    1.90    0.83
  -6   6 -13    0.81    0.60
  -6   6 -13   -0.11    0.84
  -7  -6 -13    3.00    1.06
  -7  -6 -13    3.39    1.06
  -7   6 -13    2.77    0.82
  -7   6 -13    1.46    1.04
  -8  -6 -13   -0.23    1.06
  -8  -6 -13    0.72    1.16
  -8   6 -13    0.48    1.17
  -8   6 -13    0.52    1.02
  -9  -6 -13    0.56    1.40
  -9  -6 -13    0.58    1.40
  -9   6 -13    0.97    1.56
 -10  -7  13    1.21    0.95
 -10   7  13    1.42    1.43
 -10   7  13   -0.02    1.18
  -9  -7  13    2.17    0.86
  -9   7  13    1.19    1.08
  -9   7  13    0.30    1.02
  -8  -7  13    0.03    0.69
  -8  -7  13    1.09    0.65
  -8   7  13    0.66    0.77
  -7  -7  13   12.72    1.06
  -7  -7  13   14.64    1.01
  -7   7  13   14.93    1.22
  -6  -7  13    0.86    0.47
  -6  -7  13    0.55    0.42
  -6   7  13    0.26    0.52
  -5  -7  13   10.80    0.61
  -5  -7  13   11.52    0.80
  -5   7  13   11.03    0.91
  -4  -7  13   21.02    0.96
  -4  -7  13   18.95    0.85
  -4   7  13   19.99    1.05
  -3  -7  13   18.71    0.91
  -3   7  13   19.45    0.97
  -2  -7  13   10.08    0.62
  -2   7  13    8.20    0.67
   2   7 -13    5.89    0.88
  -1  -7  13   34.93    1.34
   1  -7 -13   35.39    1.73
  -1   7  13   35.32    1.36
   1   7 -13   37.82    1.84
   0  -7 -13   29.45    1.48
   0  -7  13   28.82    1.14
   0   7  13   28.04    1.15
   0   7 -13   29.54    1.60
  -1  -7 -13   23.32    0.94
  -1  -7 -13   28.14    1.46
   1  -7  13   27.07    1.09
  -1   7 -13   28.01    1.53
   1   7  13   28.53    1.10
  -2  -7 -13    5.27    0.62
  -2  -7 -13    6.26    0.82
   2  -7  13    5.49    0.67
  -2   7 -13    5.68    0.85
   2   7  13    5.65    0.68
  -3  -7 -13    1.82    0.68
  -3  -7 -13    1.60    0.47
   3  -7  13    2.33    0.61
   3   7  13    1.85    0.42
  -3   7 -13    1.77    0.68
   4  -7  13    0.14    0.71
  -4  -7 -13   -0.07    0.50
  -4  -7 -13   -0.59    0.63
  -4   7 -13    0.36    0.66
  -5  -7 -13   12.82    1.24
  -5  -7 -13   11.75    1.28
  -5   7 -13   11.45    1.43
  -6  -7 -13    6.41    1.05
  -6  -7 -13    4.70    0.88
  -6   7 -13    4.56    1.04
  -7  -7 -13   -1.10    0.93
  -7  -7 -13    1.50    1.05
  -7   7 -13    1.21    1.06
  -8  -7 -13    2.35    1.23
  -8   7 -13   -1.76    1.19
  -9  -7 -13    2.66    1.63
  -9   7 -13    0.24    1.64
 -10  -8  13    2.79    1.12
 -10   8  13    0.36    1.53
 -10   8  13    0.72    1.36
  -9  -8  13    1.53    0.89
  -9   8  13    3.98    1.15
  -8  -8  13    2.80    0.71
  -8   8  13    1.85    0.90
  -7  -8  13    0.84    0.56
  -7   8  13    0.54    0.66
  -6  -8  13    0.54    0.53
  -6   8  13    1.14    0.66
  -5  -8  13    9.70    0.82
  -5   8  13    7.56    0.78
  -4  -8  13   25.89    1.18
  -4   8  13   27.70    1.27
  -3  -8  13    0.30    0.35
  -3   8  13    0.04    0.40
  -2  -8  13   16.33    0.86
  -2   8  13   17.11    0.93
   2   8 -13   18.60    1.43
   1  -8 -13    2.32    0.68
  -1  -8  13    2.15    0.39
  -1   8  13    2.52    0.43
   1   8 -13    1.10    0.69
   0  -8  13   13.86    0.77
   0  -8 -13   12.48    1.07
   0   8 -13   14.43    1.26
   0   8  13   13.03    0.84
   0   8  13   13.96    0.81
   1  -8  13    0.97    0.40
  -1  -8 -13    0.62    0.58
  -1   8 -13    0.05    0.59
   1   8  13   -0.12    0.39
   1   8  13    0.48    0.38
  -2  -8 -13   18.73    1.29
   2  -8  13   18.08    0.99
   2   8  13   17.16    0.95
  -2   8 -13   18.18    1.40
   2   8  13   16.25    0.90
  -3  -8 -13   13.76    1.23
   3  -8  13   12.34    1.03
   3   8  13   13.84    0.83
  -3   8 -13   10.72    1.27
   3   8  13   12.73    0.89
   4  -8  13    3.36    0.81
  -4  -8 -13    3.91    0.86
  -4   8 -13    3.02    0.89
  -5  -8 -13    4.95    0.99
  -5   8 -13    5.68    1.02
  -6  -8 -13    0.15    0.94
  -6   8 -13    1.26    0.97
  -7  -8 -13    0.68    1.10
  -7   8 -13    2.85    1.12
  -8  -8 -13    2.10    1.38
  -8   8 -13    0.96    1.34
  -9  -8 -13    3.56    1.74
  -9   8 -13   -0.32    1.69
 -10   9  13    0.77    1.72
  -9  -9  13    3.94    0.99
  -9   9  13    0.78    1.14
  -8  -9  13    1.84    0.81
  -8   9  13   -0.20    0.97
  -7  -9  13    5.61    0.75
  -7   9  13    5.45    0.90
  -6  -9  13   22.34    1.25
  -6   9  13   20.34    1.38
  -5  -9  13    0.68    0.48
  -5   9  13    1.52    0.60
  -4  -9  13    0.28    0.45
  -4   9  13    0.16    0.51
  -3  -9  13   14.21    0.84
  -3   9  13   14.68    0.93
  -2  -9  13   33.93    1.38
   2   9 -13   34.67    1.93
  -2   9  13   34.62    1.43
   1  -9 -13    2.48    0.74
  -1  -9  13    1.69    0.40
  -1   9  13    1.91    0.46
   1   9 -13    2.14    0.73
  -1   9  13    1.78    0.49
   0  -9  13    5.64    0.66
   0  -9 -13    6.94    0.86
   0   9 -13    6.73    0.91
   0   9  13    6.02    0.72
   0   9  13    6.43    0.69
   1  -9  13    8.43    0.75
  -1  -9 -13    7.99    0.92
   1   9  13    9.33    0.83
  -1   9 -13    9.15    1.03
   1   9  13    8.19    0.76
   2  -9  13    1.64    0.53
  -2  -9 -13    2.35    0.73
  -2   9 -13    0.55    0.69
   2   9  13    0.30    0.45
   2   9  13    0.75    0.51
   3  -9  13    1.81    0.67
  -3  -9 -13    0.06    0.72
  -3   9 -13    0.96    0.80
   3   9  13    0.83    0.49
   3   9  13    0.77    0.54
  -4  -9 -13    4.61    0.96
   4  -9  13    5.44    0.91
  -4   9 -13    4.54    1.02
  -5  -9 -13   -0.01    0.87
  -5   9 -13   -0.32    0.88
  -6  -9 -13    8.95    1.35
  -6   9 -13    5.70    1.26
  -7  -9 -13    3.82    1.27
  -7   9 -13    1.84    1.19
  -8  -9 -13    1.49    1.56
  -8   9 -13    0.24    1.47
  -9 -10  13    1.54    1.13
  -9  10  13   -0.09    1.37
  -8 -10  13    3.31    0.93
  -8  10  13    2.53    1.11
  -7 -10  13    1.19    0.73
  -7  10  13    0.26    0.84
  -6 -10  13    4.70    0.69
  -6  10  13    3.63    0.82
  -5 -10  13    2.35    0.64
  -5  10  13    2.19    0.74
  -4 -10  13    1.06    0.49
  -4  10  13    0.74    0.57
  -3 -10  13    0.97    0.49
  -3  10  13    1.64    0.56
  -2 -10  13    0.76    0.44
  -2  10  13    0.58    0.50
  -2  10  13    0.47    0.45
  -1 -10  13    0.49    0.42
   1 -10 -13    0.16    0.70
   1  10 -13   -0.32    0.71
  -1  10  13    0.43    0.50
  -1  10  13    0.08    0.45
   0 -10 -13   15.83    1.27
   0 -10  13   14.59    0.90
   0  10  13   15.05    0.95
   0  10  13   13.79    1.01
   0  10 -13   15.05    1.36
   1 -10  13    4.77    0.65
  -1 -10 -13    6.50    0.90
  -1  10 -13    5.77    0.91
   1  10  13    7.23    0.75
   1  10  13    6.91    0.82
   2 -10  13    2.50    0.66
  -2 -10 -13    2.93    0.79
  -2  10 -13    1.99    0.75
   2  10  13    1.11    0.61
   2  10  13    1.45    0.55
  -3 -10 -13    0.79    0.85
   3 -10  13   -0.15    0.76
   3  10  13    0.01    0.54
   3  10  13    0.54    0.61
  -3  10 -13   -0.52    0.77
  -4 -10 -13   11.92    1.52
   4 -10  13   13.33    1.48
  -4  10 -13   14.35    1.66
  -5 -10 -13    5.09    1.15
  -5  10 -13    3.81    1.09
  -6 -10 -13    1.24    1.11
  -6  10 -13    0.64    1.10
  -7 -10 -13   -0.09    1.40
  -7  10 -13    2.20    1.31
  -8 -10 -13    3.79    1.84
  -8  10 -13   -1.44    1.65
  -8 -11  13    2.82    0.99
  -8  11  13   -0.88    1.13
  -7 -11  13    2.75    0.86
  -7  11  13    1.22    0.99
  -6 -11  13    3.17    0.80
  -6  11  13    2.29    0.83
  -5 -11  13    1.91    0.65
  -5  11  13    0.82    0.72
  -4 -11  13   10.07    1.03
  -4  11  13    9.05    1.10
  -3 -11  13    1.83    0.57
  -3  11  13    2.03    0.61
  -2 -11  13    0.62    0.51
  -2  11  13    1.32    0.53
  -2  11  13    0.75    0.58
   1 -11 -13    2.59    0.83
  -1 -11  13    2.59    0.54
   1  11 -13    1.95    0.78
  -1  11  13    2.39    0.56
  -1  11  13    2.43    0.61
   0 -11  13   11.95    0.92
   0 -11 -13   12.61    1.34
   0  11  13   10.44    0.94
   0  11  13    9.99    0.99
   0  11 -13   13.02    1.31
   1 -11  13    0.79    0.58
  -1 -11 -13    1.73    0.76
   1  11  13    0.83    0.59
   1  11  13   -0.30    0.62
  -1  11 -13    1.46    0.75
  -2 -11 -13    2.82    0.86
   2 -11  13    1.05    0.70
   2  11  13    0.61    0.68
   2  11  13    2.60    0.64
  -2  11 -13    0.65    0.80
  -3 -11 -13    3.24    0.96
   3 -11  13    1.61    0.89
   3  11  13    1.59    0.65
   3  11  13    1.41    0.73
  -3  11 -13    2.04    0.90
  -4 -11 -13    1.00    1.00
   4 -11  13    0.73    1.03
  -4  11 -13   -0.34    0.90
  -5 -11 -13    0.34    1.20
  -5  11 -13    3.32    1.20
  -6 -11 -13    0.44    1.28
  -6  11 -13    1.80    1.24
  -7 -11 -13    0.78    1.57
  -7  11 -13    1.98    1.53
  -8 -11 -13   -0.63    1.84
  -8  11 -13    0.92    1.83
  -8 -12  13    4.61    1.26
  -8  12  13    2.29    1.42
  -7 -12  13    0.52    0.91
  -7  12  13   -1.43    1.01
  -6 -12  13    1.03    0.77
  -6  12  13   -1.03    0.88
  -5 -12  13    1.17    0.71
  -5  12  13    0.64    0.81
  -4 -12  13    7.15    0.82
  -4  12  13    6.91    0.86
  -3 -12  13    5.01    0.74
  -3  12  13    4.63    0.79
  -2 -12  13    0.43    0.61
  -2  12  13   -0.02    0.60
  -2  12  13    1.46    0.70
   1 -12 -13    1.85    0.87
  -1 -12  13    0.61    0.56
  -1  12  13    0.82    0.65
   1  12 -13    1.00    0.77
  -1  12  13    0.13    0.57
   0 -12 -13    0.40    0.85
   0 -12  13    0.12    0.56
   0  12 -13    1.23    0.73
   0  12  13    0.90    0.58
   0  12  13   -0.03    0.62
  -1 -12 -13    2.44    0.83
   1 -12  13    1.65    0.69
   1  12  13    2.15    0.81
  -1  12 -13    2.04    0.81
   1  12  13    1.91    0.70
   2 -12  13    1.07    0.79
  -2 -12 -13    1.73    0.89
  -2  12 -13    3.23    0.89
   2  12  13    1.75    0.79
   2  12  13    1.07    0.70
   3 -12  13   -0.05    0.91
  -3 -12 -13   -0.30    0.93
  -3  12 -13   -0.90    0.83
   3  12  13   -0.71    0.77
   3  12  13    0.76    0.72
   4 -12  13    2.19    1.12
  -4 -12 -13    0.86    1.22
  -4  12 -13    1.79    1.09
  -5 -12 -13    3.82    1.34
  -5  12 -13    2.31    1.19
  -6 -12 -13   -0.02    1.56
  -6  12 -13    1.63    1.34
  -7 -12 -13    3.34    1.84
  -7  12 -13    1.90    1.76
  -7 -13  13    4.07    1.16
  -7  13  13    0.45    1.20
  -6 -13  13    2.60    0.98
  -6  13  13    1.68    1.06
  -5 -13  13    1.55    0.82
  -5  13  13    1.17    0.92
  -4 -13  13    2.50    0.79
  -4  13  13    1.98    0.84
  -3 -13  13    1.18    0.68
  -3  13  13    1.13    0.84
  -3  13  13   -1.41    0.70
  -2 -13  13    8.49    1.09
  -2  13  13    8.30    1.01
  -2  13  13    9.49    0.97
   1 -13 -13    0.77    0.89
  -1 -13  13    1.74    0.67
  -1  13  13    1.64    0.86
  -1  13  13    0.75    0.76
   1  13 -13    0.46    0.83
   0 -13  13    4.02    0.83
   0 -13 -13    4.46    1.02
   0  13 -13    3.35    0.91
   0  13  13    3.09    0.84
   0  13  13    2.97    0.91
  -1 -13 -13    0.66    0.86
   1 -13  13    1.71    0.82
   1  13  13    0.71    0.88
   1  13  13    0.62    0.79
  -1  13 -13    0.23    0.81
   2 -13  13    3.04    1.06
  -2 -13 -13    5.10    1.05
   2  13  13    2.83    0.84
   2  13  13    1.20    0.91
  -2  13 -13    1.38    0.89
  -3 -13 -13    1.58    1.16
   3 -13  13    1.81    1.16
  -3  13 -13    3.03    1.04
   3  13  13    2.11    0.85
   3  13  13    2.63    0.93
   4 -13  13    1.42    1.34
  -4 -13 -13   -1.17    1.24
  -4  13 -13    0.01    1.12
  -5 -13 -13    1.18    1.43
  -6 -13 -13    0.87    1.68
  -6  13 -13   -0.85    1.67
  -7 -13 -13   -1.02    2.00
  -7  13 -13    1.07    1.85
  -6 -14  13    1.19    1.09
  -6  14  13    1.63    1.23
  -5 -14  13   -0.77    0.94
  -5  14  13    0.77    1.03
  -4 -14  13    0.32    0.89
  -4  14  13    0.12    0.93
  -3 -14  13    5.08    0.90
  -3  14  13    2.40    0.88
  -3  14  13    4.68    1.04
  -2 -14  13    1.71    0.80
  -2  14  13   -1.01    0.87
  -2  14  13    1.36    0.84
  -1 -14  13    2.35    0.79
  -1  14  13    1.34    0.90
  -1  14  13   -1.26    0.74
   1  14 -13   -1.39    0.88
   0 -14  13    0.91    0.80
   0 -14 -13    0.14    1.00
   0  14 -13    1.82    0.89
   0  14  13    1.10    0.87
   0  14  13    0.97    0.96
  -1 -14 -13    1.87    1.10
   1 -14  13    2.06    0.93
   1  14  13    0.81    1.01
  -1  14 -13    2.10    0.93
   1  14  13    1.81    0.92
   2 -14  13   -0.65    1.06
  -2 -14 -13   -1.07    1.04
  -2  14 -13   -1.60    0.89
   2  14  13    0.82    1.01
   2  14  13   -0.73    1.08
   3 -14  13    0.12    1.18
  -3 -14 -13    4.18    1.25
   3  14  13   -0.05    1.07
  -3  14 -13   -1.62    1.03
   3  14  13   -0.92    0.98
  -4 -14 -13   10.99    1.69
  -4  14 -13    3.16    1.30
  -5 -14 -13   -2.62    1.60
  -5  14 -13    0.63    1.47
  -6 -14 -13    0.10    1.83
  -6  14 -13    3.17    1.78
  -5 -15  13    1.17    1.14
  -5  15  13   -0.19    1.24
  -4 -15  13    2.02    1.06
  -4  15  13   -0.26    1.03
  -3 -15  13    1.13    0.94
  -3  15  13    0.04    0.94
  -3  15  13   -1.46    1.02
  -2 -15  13    0.77    0.93
  -2  15  13    0.42    0.93
  -2  15  13    0.07    1.03
  -1 -15  13    0.14    0.92
  -1  15  13    0.81    1.06
  -1  15  13    0.60    0.98
   0 -15  13    0.89    0.97
   0 -15 -13    3.09    1.22
   0  15 -13    0.57    1.02
   0  15  13    2.70    1.04
   0  15  13    1.28    1.11
  -1 -15 -13   -0.29    1.18
   1 -15  13    0.58    1.08
   1  15  13    0.69    1.04
   1  15  13   -1.18    1.14
  -1  15 -13   -0.46    1.07
  -2 -15 -13   -1.37    1.14
   2 -15  13    0.73    1.26
   2  15  13   -0.13    1.20
  -2  15 -13   -0.23    1.10
   2  15  13   -0.04    1.09
   3 -15  13   -2.16    1.29
  -3 -15 -13    1.75    1.34
   3  15  13    0.26    1.27
  -3  15 -13    2.21    1.29
   3  15  13   -0.05    1.24
  -4 -15 -13    0.34    1.58
  -4  15 -13    0.71    1.35
  -5 -15 -13    0.21    1.76
  -5  15 -13   -0.16    1.55
  -4 -16  13    2.00    1.28
  -4  16  13    0.51    1.24
  -3 -16  13    2.91    1.21
  -3  16  13    1.50    1.16
  -3  16  13    0.93    1.28
  -2 -16  13   -0.30    1.09
  -2  16  13    2.20    1.12
  -2  16  13    1.42    1.20
  -1 -16  13    0.28    1.08
  -1  16  13   -0.31    1.06
  -1  16  13   -0.91    1.22
   0 -16 -13    4.34    1.44
   0 -16  13    5.66    1.22
   0  16 -13    2.79    1.26
   0  16  13    1.73    1.33
   0  16  13    4.65    1.22
   1 -16  13    1.96    1.29
  -1 -16 -13   -1.13    1.36
   1  16  13   -1.25    1.30
   1  16  13    1.41    1.22
  -1  16 -13    0.62    1.19
   2 -16  13    0.03    1.34
  -2 -16 -13   -2.48    1.37
   2  16  13   -1.12    1.21
   2  16  13   -0.87    1.34
  -2  16 -13   -0.65    1.20
   3 -16  13    3.08    1.52
  -3 -16 -13   -0.01    1.50
  -3  16 -13   -1.35    1.32
  -4 -16 -13    7.91    1.84
  -4  16 -13    3.62    1.62
  -2 -17  13   -0.87    1.48
  -2  17  13    0.24    1.51
  -2  17  13    1.86    1.39
  -1 -17  13    6.80    1.46
  -1  17  13    2.48    1.55
  -1  17  13    2.34    1.40
   0 -17  13    1.88    1.42
   0  17  13    0.01    1.39
   0  17  13    1.77    1.55
  -1 -17 -13   10.08    1.80
   1 -17  13    7.04    1.64
   1  17  13    8.76    1.64
  -1  17 -13    6.86    1.61
   1  17  13   10.90    1.49
  -2 -17 -13    3.54    1.72
   2 -17  13    2.06    1.62
  -2  17 -13    0.02    1.55
   2  17  13    1.99    1.32
   2  17  13    2.07    1.47
  -3 -17 -13    4.94    1.85
   3 -17  13    7.85    1.85
  -3  17 -13    8.12    2.25
 -11   0  14    1.45    1.28
 -11   0  14    1.87    1.08
 -10   0  14   -0.78    0.86
 -10   0  14    0.13    0.95
  -9   0  14    2.15    0.76
  -9   0  14    1.76    0.72
  -8   0  14    8.48    0.98
  -8   0  14    8.22    0.80
  -7   0  14    0.91    0.48
  -7   0  14    0.56    0.44
  -6   0  14   -0.03    0.39
  -5   0  14    0.80    0.35
  -4   0  14    2.80    0.37
  -3   0  14   34.46    1.25
  -2   0  14    0.85    0.27
  -1   0  14   25.87    1.03
   1   0 -14   28.73    1.30
   1   0 -14   27.74    1.21
   0   0  14   43.18    1.41
   0   0 -14   41.34    1.74
   0   0 -14   41.48    1.65
  -1   0 -14   35.32    1.52
   1   0  14   32.90    1.16
  -1   0 -14   34.68    1.59
  -2   0 -14   23.22    1.20
   2   0  14   22.59    0.83
  -2   0 -14   24.40    1.34
  -3   0 -14    9.63    0.95
  -3   0 -14    9.25    1.15
  -4   0 -14   31.26    1.47
  -4   0 -14   31.58    1.58
  -5   0 -14    4.71    0.69
  -5   0 -14    4.05    0.71
  -6   0 -14   27.09    1.43
  -6   0 -14   24.97    1.61
  -7   0 -14    1.78    0.86
  -7   0 -14   -1.14    0.64
  -8   0 -14    2.41    1.00
  -8   0 -14    3.30    1.21
  -9   0 -14    4.35    1.43
  -9   0 -14    7.19    1.38
 -10   0 -14    2.02    1.77
 -10   0 -14    3.01    1.58
 -11  -1  14    0.26    1.25
 -11  -1  14   -1.39    1.03
 -11   1  14    0.31    1.21
 -11   1  14    2.21    1.14
 -10  -1  14    1.62    0.88
 -10  -1  14    0.95    0.99
 -10   1  14   -0.61    0.88
 -10   1  14    1.07    0.99
  -9  -1  14    4.13    0.76
  -9  -1  14    4.47    0.85
  -9   1  14    4.78    0.83
  -9   1  14    2.59    0.85
  -8  -1  14   17.56    1.13
  -8  -1  14   17.59    1.17
  -8   1  14   19.21    1.19
  -8   1  14   16.70    1.16
  -7  -1  14    0.95    0.46
  -7  -1  14    1.05    0.50
  -7   1  14    0.77    0.48
  -6  -1  14    1.69    0.43
  -6   1  14    1.68    0.45
  -5  -1  14    1.31    0.35
  -5   1  14    0.39    0.35
  -4  -1  14   24.55    1.01
  -4   1  14   26.80    1.05
  -3  -1  14    3.86    0.45
  -3   1  14    3.56    0.44
  -2  -1  14    0.48    0.27
  -2   1  14    0.23    0.25
   2   1 -14    2.89    0.58
  -1  -1  14    7.46    0.53
   1  -1 -14    5.65    0.78
   1  -1 -14    7.00    0.74
  -1   1  14    6.52    0.53
   1   1 -14    7.95    0.66
   1   1 -14    5.70    0.81
   0  -1  14   14.82    0.66
   0  -1 -14   14.58    0.99
   0  -1 -14   17.03    0.98
   0   1  14   14.75    0.65
   0   1 -14   13.91    1.04
   0   1 -14   14.05    0.90
   1  -1  14    2.98    0.36
  -1  -1 -14    2.59    0.53
  -1   1 -14    4.43    0.60
   1   1  14    3.11    0.37
  -1   1 -14    3.46    0.63
  -2  -1 -14   12.89    0.97
   2  -1  14   11.70    0.54
  -2  -1 -14   12.87    1.02
  -2   1 -14   12.75    0.89
  -2   1 -14   11.19    1.13
   2   1  14   11.21    0.53
  -3  -1 -14    9.79    1.07
  -3  -1 -14   11.68    1.06
  -3   1 -14   10.47    0.89
  -3   1 -14   10.09    1.08
  -4  -1 -14    0.71    0.57
  -4  -1 -14    0.18    0.53
  -4   1 -14    1.84    0.58
  -4   1 -14    0.55    0.60
  -5  -1 -14   19.14    1.18
  -5  -1 -14   20.16    1.33
  -5   1 -14   19.51    1.13
  -5   1 -14   17.07    1.27
  -6  -1 -14    0.41    0.60
  -6  -1 -14   -0.76    0.62
  -6   1 -14   -0.37    0.56
  -6   1 -14   -1.05    0.62
  -7  -1 -14   -0.50    0.71
  -7  -1 -14   -0.28    0.81
  -7   1 -14    0.24    0.79
  -7   1 -14    0.40    0.68
  -8  -1 -14    1.02    1.14
  -8  -1 -14    2.42    0.99
  -8   1 -14    1.44    1.10
  -8   1 -14    4.79    1.04
  -9  -1 -14   10.15    1.41
  -9  -1 -14    6.81    1.55
  -9   1 -14    6.52    1.34
  -9   1 -14    7.08    1.54
 -10  -1 -14    1.47    1.52
 -10  -1 -14   -0.70    1.73
 -10   1 -14    1.15    1.53
 -10   1 -14    3.60    1.76
 -11  -2  14   -0.77    1.30
 -11  -2  14    2.10    1.12
 -11   2  14    0.27    1.28
 -11   2  14    0.59    1.19
 -10  -2  14    3.43    1.07
 -10  -2  14    1.96    0.94
 -10   2  14    2.71    1.09
 -10   2  14    4.62    1.00
  -9  -2  14    0.67    0.67
  -9  -2  14    1.51    0.77
  -9   2  14    0.84    0.74
  -9   2  14    0.27    0.87
  -8  -2  14    3.30    0.65
  -8  -2  14    2.42    0.65
  -8   2  14    2.63    0.69
  -8   2  14    2.56    0.63
  -7  -2  14   10.20    0.87
  -7  -2  14    8.14    0.77
  -7   2  14    7.08    0.81
  -6  -2  14    0.20    0.42
  -6  -2  14    0.55    0.39
  -6   2  14    0.17    0.42
  -5  -2  14    1.21    0.34
  -5   2  14    0.96    0.39
  -4  -2  14    0.49    0.29
  -4   2  14   -0.10    0.30
  -3  -2  14   24.23    0.95
  -3   2  14   22.76    0.96
  -2  -2  14   17.62    0.77
  -2   2  14   17.39    0.79
   2   2 -14   17.05    1.17
   1  -2 -14    1.86    0.56
  -1  -2  14    1.64    0.31
   1  -2 -14    1.62    0.42
   1   2 -14    2.00    0.62
  -1   2  14    1.43    0.33
   0  -2 -14    0.92    0.52
   0  -2  14    0.96    0.28
   0  -2 -14    1.08    0.43
   0   2 -14    0.66    0.39
   0   2 -14    0.69    0.55
   0   2  14    0.82    0.27
  -1  -2 -14   13.16    0.92
   1  -2  14    9.47    0.54
  -1  -2 -14   10.29    0.94
  -1   2 -14   10.53    0.83
  -1   2 -14   13.61    1.13
   1   2  14   10.98    0.55
  -2  -2 -14   81.21    2.92
   2  -2  14   80.55    2.52
  -2  -2 -14   80.95    2.88
   2   2  14   81.00    2.51
  -2   2 -14   80.96    2.75
  -2   2 -14   82.45    3.07
   3  -2  14    0.19    0.26
  -3  -2 -14    0.19    0.59
  -3  -2 -14    1.41    0.56
  -3   2 -14    0.78    0.44
  -3   2 -14   -0.04    0.53
  -4  -2 -14    4.05    0.69
  -4  -2 -14    3.55    0.66
  -4   2 -14    3.47    0.67
  -4   2 -14    3.86    0.70
  -5  -2 -14    1.41    0.61
  -5  -2 -14    1.75    0.64
  -5   2 -14    1.81    0.53
  -5   2 -14    0.62    0.63
  -6  -2 -14   33.49    1.64
  -6  -2 -14   32.10    1.79
  -6   2 -14   32.04    1.79
  -6   2 -14   31.87    1.52
  -7  -2 -14    1.65    0.80
  -7  -2 -14    0.98    0.90
  -7   2 -14    0.37    0.79
  -7   2 -14    0.27    0.69
  -8  -2 -14    1.26    0.96
  -8  -2 -14    1.66    1.27
  -8   2 -14    0.44    1.03
  -8   2 -14    0.76    0.92
  -9  -2 -14    4.43    1.65
  -9  -2 -14    8.72    1.41
  -9   2 -14    5.69    1.52
  -9   2 -14    6.19    1.32
 -10  -2 -14    1.50    1.87
 -10  -2 -14    4.25    1.63
 -10   2 -14    3.28    1.59
 -10   2 -14    3.33    1.88
 -11  -3  14    1.31    1.29
 -11  -3  14    0.43    1.13
 -11   3  14    0.67    1.32
 -11   3  14    2.12    1.23
 -10  -3  14    6.92    1.03
 -10  -3  14    7.51    1.19
 -10   3  14    6.99    1.11
 -10   3  14    5.10    1.22
  -9  -3  14    1.91    0.80
  -9  -3  14    1.02    0.71
  -9   3  14    2.18    0.88
  -9   3  14    1.33    0.82
  -8  -3  14    1.28    0.66
  -8  -3  14    1.18    0.58
  -8   3  14    0.23    0.61
  -7  -3  14    4.66    0.58
  -7  -3  14    6.03    0.65
  -7   3  14    4.91    0.65
  -6  -3  14   76.37    2.57
  -6  -3  14   77.12    2.56
  -6   3  14   75.38    2.61
  -5  -3  14    2.51    0.39
  -5  -3  14    2.18    0.41
  -5   3  14    2.56    0.45
  -4  -3  14    3.90    0.49
  -4   3  14    3.25    0.42
  -3  -3  14    2.87    0.37
  -3   3  14    2.72    0.38
  -2  -3  14  128.56    3.89
  -2   3  14  126.10    3.90
   2   3 -14  120.49    4.28
   1  -3 -14    0.57    0.36
  -1  -3  14    0.77    0.28
   1  -3 -14    1.00    0.63
   1   3 -14    0.02    0.61
  -1   3  14    0.41    0.30
   0  -3  14    1.72    0.33
   0  -3 -14    1.55    0.44
   0  -3 -14    1.28    0.59
   0   3  14    1.38    0.31
   0   3 -14    1.55    0.35
   0   3 -14    1.37    0.64
  -1  -3 -14   85.83    3.15
   1  -3  14   89.63    2.76
  -1  -3 -14   89.32    2.99
  -1   3 -14   90.77    2.89
   1   3  14   89.16    2.75
  -1   3 -14   82.19    3.21
  -2  -3 -14   19.68    1.11
  -2  -3 -14   19.80    1.32
   2  -3  14   16.26    0.73
  -2   3 -14   18.83    1.19
  -2   3 -14   17.54    0.95
   2   3  14   17.06    0.72
  -3  -3 -14    7.49    1.00
   3  -3  14    8.92    0.57
  -3  -3 -14   10.07    0.93
  -3   3 -14    9.58    1.02
   3   3  14    9.20    0.46
  -3   3 -14   10.85    0.74
  -4  -3 -14    0.83    0.61
  -4  -3 -14    0.79    0.75
  -4   3 -14    1.19    0.52
  -4   3 -14    1.16    0.62
  -5  -3 -14   54.41    2.23
  -5  -3 -14   53.01    2.17
  -5   3 -14   51.57    2.00
  -5   3 -14   53.34    2.31
  -6  -3 -14    1.06    0.78
  -6  -3 -14    1.59    0.77
  -6   3 -14    2.93    0.79
  -6   3 -14    2.38    0.61
  -7  -3 -14    3.36    0.88
  -7  -3 -14    2.25    0.99
  -7   3 -14    2.47    0.90
  -7   3 -14    4.76    0.83
  -8  -3 -14   -0.44    0.98
  -8  -3 -14    0.49    1.26
  -8   3 -14   -0.41    1.04
  -8   3 -14   -0.13    0.94
  -9  -3 -14    6.23    1.46
  -9  -3 -14    6.08    1.66
  -9   3 -14    7.96    1.40
  -9   3 -14    7.06    1.63
 -10  -3 -14    3.80    1.77
 -10   3 -14    1.35    1.58
 -11  -4  14    0.35    1.33
 -11  -4  14    4.29    1.23
 -11   4  14    0.38    1.55
 -11   4  14    1.90    1.38
 -10  -4  14    7.53    1.20
 -10  -4  14    6.74    1.04
 -10   4  14    6.96    1.20
 -10   4  14    7.50    1.34
  -9  -4  14    2.01    0.86
  -9  -4  14    1.10    0.76
  -9   4  14    1.01    0.83
  -9   4  14   -0.58    0.90
  -8  -4  14    2.25    0.71
  -8  -4  14    1.50    0.58
  -8   4  14    0.92    0.63
  -7  -4  14   15.52    0.95
  -7  -4  14   13.49    0.98
  -7   4  14   13.92    1.06
  -6  -4  14    1.26    0.45
  -6  -4  14    1.53    0.50
  -6   4  14    0.66    0.48
  -5  -4  14    3.52    0.42
  -5  -4  14    3.09    0.45
  -5   4  14    2.81    0.48
  -4  -4  14    2.73    0.41
  -4  -4  14    3.24    0.44
  -4   4  14    3.29    0.43
  -3  -4  14  145.27    4.47
  -3   4  14  143.12    4.50
  -2  -4  14   69.74    2.26
   2   4 -14   67.83    2.67
  -2   4  14   69.83    2.29
  -1  -4  14   29.77    1.14
   1  -4 -14   30.30    1.65
  -1   4  14   30.33    1.15
   1   4 -14   31.63    1.66
   0  -4 -14    3.90    0.78
   0  -4 -14    3.26    0.45
   0  -4  14    4.00    0.42
   0   4 -14    3.81    0.75
   0   4  14    3.84    0.44
  -1  -4 -14  101.90    3.31
  -1  -4 -14   99.10    3.58
   1  -4  14   98.84    3.16
  -1   4 -14  105.01    3.63
  -1   4 -14   97.17    3.19
   1   4  14  104.50    3.15
  -2  -4 -14   80.80    2.77
  -2  -4 -14   76.70    2.91
   2  -4  14   76.97    2.51
  -2   4 -14   82.10    2.64
   2   4  14   79.78    2.49
  -2   4 -14   79.38    3.03
   3  -4  14    4.77    0.54
  -3  -4 -14    4.00    0.61
  -3  -4 -14    5.75    0.78
  -3   4 -14    4.07    0.72
   3   4  14    4.12    0.39
  -3   4 -14    5.47    0.65
  -4  -4 -14    4.79    0.77
  -4  -4 -14    4.99    0.80
  -4   4 -14    4.71    0.57
  -4   4 -14    3.56    0.75
  -5  -4 -14    1.26    0.69
  -5  -4 -14    2.12    0.72
  -5   4 -14    1.04    0.67
  -5   4 -14    1.54    0.57
  -6  -4 -14   13.91    1.42
  -6  -4 -14   11.19    1.28
  -6   4 -14   14.82    1.10
  -6   4 -14   15.11    1.42
  -7  -4 -14   -0.24    0.86
  -7  -4 -14    0.67    0.98
  -7   4 -14    0.60    0.74
  -7   4 -14   -0.90    0.83
  -8  -4 -14    0.73    1.02
  -8  -4 -14   -0.32    1.25
  -8   4 -14    0.67    0.94
  -8   4 -14    1.11    1.07
  -9  -4 -14    1.56    1.59
  -9  -4 -14    2.32    1.32
  -9   4 -14    0.84    1.25
  -9   4 -14   -0.73    1.40
 -10  -5  14    7.90    1.13
 -10  -5  14    9.78    1.25
 -10   5  14   12.22    1.61
 -10   5  14    8.00    1.24
  -9  -5  14    0.31    0.82
  -9  -5  14    1.85    0.77
  -9   5  14    1.09    0.88
  -9   5  14   -0.41    0.94
  -8  -5  14    0.93    0.60
  -8  -5  14    1.97    0.70
  -8   5  14    0.33    0.68
  -7  -5  14    0.10    0.52
  -7  -5  14   -0.17    0.49
  -7   5  14    0.69    0.60
  -6  -5  14   97.30    3.15
  -6  -5  14   88.86    3.07
  -6   5  14   99.31    3.22
  -5  -5  14    1.39    0.35
  -5  -5  14    0.98    0.38
  -5   5  14    1.13    0.46
  -4  -5  14   21.26    0.94
  -4  -5  14   21.36    0.82
  -4   5  14   18.42    0.97
  -3  -5  14    3.15    0.41
  -3  -5  14    2.60    0.34
  -3   5  14    3.17    0.43
  -2  -5  14   90.51    2.87
   2   5 -14   85.43    3.32
  -2   5  14   92.74    2.90
  -1  -5  14   16.19    0.77
   1  -5 -14   16.11    1.28
  -1   5  14   16.02    0.79
   1   5 -14   16.22    1.26
   0  -5 -14    3.53    0.73
   0  -5 -14    2.80    0.40
   0  -5  14    3.73    0.40
   0   5 -14    3.39    0.68
   0   5  14    3.87    0.42
  -1  -5 -14   33.45    1.37
   1  -5  14   34.34    1.29
  -1  -5 -14   30.77    1.63
   1   5  14   35.99    1.29
  -1   5 -14   38.09    1.76
  -2  -5 -14    0.72    0.49
   2  -5  14    1.01    0.37
  -2  -5 -14    0.34    0.63
   2   5  14    1.21    0.30
  -2   5 -14    1.18    0.42
  -2   5 -14    1.11    0.55
  -3  -5 -14   35.31    1.70
   3  -5  14   36.33    1.37
  -3  -5 -14   37.96    1.60
  -3   5 -14   34.67    1.81
  -3   5 -14   35.84    1.40
   3   5  14   37.31    1.25
  -4  -5 -14   -0.25    0.63
  -4  -5 -14    0.55    0.65
  -4   5 -14    0.22    0.44
  -4   5 -14   -0.93    0.58
  -5  -5 -14    6.77    0.91
  -5  -5 -14    9.15    1.20
  -5   5 -14    7.67    0.79
  -5   5 -14    6.60    0.96
  -6  -5 -14    2.17    0.83
  -6  -5 -14    0.98    0.83
  -6   5 -14    3.05    0.89
  -6   5 -14    1.74    0.67
  -7  -5 -14    4.84    1.11
  -7  -5 -14    2.56    0.99
  -7   5 -14    3.01    0.86
  -7   5 -14    3.98    1.15
  -8  -5 -14   -1.02    1.04
  -8  -5 -14   -1.94    1.22
  -8   5 -14    2.20    1.09
  -8   5 -14    0.73    1.16
  -9  -5 -14    0.09    1.55
  -9  -5 -14   -1.49    1.36
  -9   5 -14   -0.42    1.53
 -10  -6  14    2.32    0.98
 -10   6  14    2.73    1.22
 -10   6  14    1.09    1.38
  -9  -6  14    1.79    0.86
  -9  -6  14    0.11    0.86
  -9   6  14    1.10    1.08
  -9   6  14   -0.25    0.96
  -8  -6  14    8.33    1.06
  -8  -6  14    8.56    0.90
  -8   6  14    8.51    0.97
  -7  -6  14    1.61    0.57
  -7  -6  14    1.37    0.57
  -7   6  14    1.89    0.68
  -6  -6  14    0.18    0.44
  -6  -6  14    0.77    0.49
  -6   6  14    0.35    0.56
  -5  -6  14    5.53    0.52
  -5  -6  14    4.84    0.56
  -5   6  14    5.21    0.63
  -4  -6  14    0.28    0.35
  -4  -6  14    0.27    0.24
  -4   6  14    0.49    0.40
  -3  -6  14    0.22    0.32
  -3   6  14   -0.41    0.33
  -2  -6  14    8.79    0.61
  -2   6  14    9.13    0.67
   2   6 -14    7.36    1.06
  -1  -6  14   40.09    1.43
   1  -6 -14   38.94    1.85
   1   6 -14   41.94    1.96
  -1   6  14   37.60    1.44
   0  -6 -14   25.16    1.42
   0  -6  14   25.41    1.04
   0   6  14   25.49    1.04
   0   6 -14   27.03    1.49
   1  -6  14    0.73    0.35
  -1  -6 -14    0.85    0.62
  -1  -6 -14    0.19    0.34
  -1   6 -14    0.07    0.57
   1   6  14    0.86    0.36
  -2  -6 -14    0.52    0.66
  -2  -6 -14   -0.46    0.44
   2  -6  14    0.23    0.43
  -2   6 -14    0.92    0.61
   2   6  14    0.44    0.36
   3  -6  14    3.70    0.61
  -3  -6 -14    3.81    0.62
  -3  -6 -14    3.36    0.79
   3   6  14    3.72    0.40
  -3   6 -14    3.68    0.80
  -4  -6 -14    8.90    1.01
  -4  -6 -14    8.64    1.02
  -4   6 -14    7.74    1.00
  -4   6 -14    8.74    0.86
  -5  -6 -14    1.32    0.74
  -5   6 -14    0.99    0.77
  -5   6 -14    1.26    0.74
  -6  -6 -14    1.76    0.89
  -6  -6 -14    1.80    0.86
  -6   6 -14    0.38    0.84
  -6   6 -14    0.61    0.77
  -7  -6 -14    1.60    1.08
  -7  -6 -14    1.18    1.04
  -7   6 -14    0.33    1.11
  -8  -6 -14    1.23    1.19
  -8  -6 -14    2.42    1.28
  -8   6 -14    1.78    1.35
  -9  -6 -14   -1.53    1.52
  -9   6 -14    1.54    1.75
 -10  -7  14    1.35    1.06
 -10   7  14   -1.85    1.30
 -10   7  14   -0.04    1.50
  -9  -7  14    0.48    0.87
  -9   7  14   -0.36    1.04
  -8  -7  14   31.44    1.60
  -8   7  14   31.19    1.74
  -7  -7  14    8.97    0.93
  -7   7  14    8.76    1.11
  -6  -7  14    1.26    0.54
  -6   7  14    1.78    0.66
  -5  -7  14    0.96    0.45
  -5   7  14    0.93    0.52
  -4  -7  14  133.14    4.28
  -4   7  14  137.41    4.35
  -3  -7  14    7.47    0.64
  -3   7  14    6.91    0.69
  -2  -7  14    5.12    0.58
   2   7 -14    6.08    0.89
  -2   7  14    4.70    0.51
   1  -7 -14    8.06    0.94
  -1  -7  14    7.26    0.59
   1   7 -14    6.61    0.90
  -1   7  14    6.10    0.62
   0  -7  14   74.34    2.46
   0  -7 -14   76.78    2.80
   0   7 -14   74.41    2.92
   0   7  14   72.46    2.46
   1  -7  14    0.89    0.39
  -1  -7 -14    0.63    0.61
  -1   7 -14    1.30    0.64
   1   7  14    0.80    0.37
   2  -7  14    8.58    0.74
  -2  -7 -14    7.58    0.96
  -2  -7 -14    9.02    0.85
  -2   7 -14    8.39    1.15
   2   7  14    8.15    0.69
   3  -7  14   10.97    1.01
  -3  -7 -14   11.13    1.21
  -3  -7 -14   10.32    0.90
  -3   7 -14   11.70    1.29
   3   7  14   10.23    0.77
  -4  -7 -14   -0.06    0.78
   4  -7  14    0.95    1.16
  -4  -7 -14    0.70    0.55
  -4   7 -14    0.69    0.76
  -5  -7 -14   10.09    1.16
  -5  -7 -14    8.50    0.97
  -5   7 -14    8.44    1.14
  -6  -7 -14   -0.23    0.93
  -6  -7 -14    1.79    1.38
  -6   7 -14   -0.32    0.93
  -7  -7 -14    2.59    1.11
  -7   7 -14    2.25    1.18
  -8  -7 -14    4.69    1.45
  -8   7 -14    5.09    1.54
  -9  -7 -14    3.61    1.74
  -9   7 -14   -0.86    1.78
 -10  -8  14    0.90    1.16
 -10   8  14   -2.65    1.58
 -10   8  14    0.63    2.22
  -9  -8  14    1.13    0.90
  -9   8  14    0.92    1.14
  -8  -8  14    6.42    0.86
  -8   8  14    5.83    1.04
  -7  -8  14    1.78    0.66
  -7   8  14    1.05    0.77
  -6  -8  14    0.11    0.56
  -6   8  14   -0.09    0.66
  -5  -8  14    7.90    0.82
  -5   8  14    7.76    0.93
  -4  -8  14    0.24    0.43
  -4   8  14    0.36    0.47
  -3  -8  14   26.89    1.18
  -3   8  14   28.08    1.26
  -2  -8  14    5.77    0.63
   2   8 -14    5.18    0.96
  -2   8  14    5.75    0.69
   1  -8 -14   18.76    1.35
  -1  -8  14   17.18    0.91
  -1   8  14   18.39    0.94
   1   8 -14   19.56    1.46
   0  -8 -14   27.84    1.53
   0  -8  14   28.06    1.17
   0   8  14   29.14    1.20
   0   8 -14   29.58    1.65
  -1  -8 -14   31.33    1.68
   1  -8  14   33.71    1.36
   1   8  14   35.57    1.35
  -1   8 -14   34.21    1.86
   2  -8  14   11.94    0.90
  -2  -8 -14   11.26    1.18
   2   8  14   11.42    0.81
  -2   8 -14   13.72    1.32
  -3  -8 -14    9.21    1.24
   3  -8  14    9.61    1.00
  -3   8 -14   11.46    1.39
   3   8  14    8.15    0.77
  -4  -8 -14   43.96    2.23
   4  -8  14   49.67    2.24
  -4   8 -14   42.96    2.36
  -5  -8 -14    5.75    1.12
  -5   8 -14    6.99    1.14
  -6  -8 -14    4.23    1.18
  -6   8 -14    2.23    1.18
  -7  -8 -14    1.49    1.15
  -7   8 -14   -0.80    1.16
  -8  -8 -14    9.30    1.68
  -8   8 -14    8.91    1.78
  -9  -8 -14    0.60    1.89
  -9  -9  14   -0.33    0.99
  -9   9  14    2.34    1.31
  -8  -9  14   11.34    1.39
  -8   9  14    9.35    1.23
  -7  -9  14    0.25    0.66
  -7   9  14   -0.98    0.81
  -6  -9  14    5.46    0.73
  -6   9  14    5.23    0.83
  -5  -9  14    0.27    0.53
  -5   9  14    0.50    0.63
  -4  -9  14   24.68    1.19
  -4   9  14   25.60    1.29
  -3  -9  14    3.44    0.53
  -3   9  14    3.98    0.58
  -2  -9  14    9.23    0.74
   2   9 -14    9.80    1.36
  -2   9  14    8.78    0.81
   1  -9 -14   -0.29    0.70
  -1  -9  14    0.65    0.41
   1   9 -14   -0.44    0.73
  -1   9  14    0.39    0.43
   0  -9 -14   49.83    2.15
   0  -9  14   48.60    1.81
   0   9 -14   49.77    2.29
   0   9  14   49.31    1.84
  -1  -9 -14   -0.38    0.66
   1  -9  14    0.79    0.48
   1   9  14    1.29    0.50
  -1   9 -14    0.95    0.70
   1   9  14    0.57    0.47
  -2  -9 -14    1.52    0.75
   2  -9  14    1.24    0.56
   2   9  14    0.80    0.51
   2   9  14    1.17    0.58
  -2   9 -14    0.96    0.75
   3  -9  14    4.70    0.79
  -3  -9 -14    6.45    1.04
  -3   9 -14    5.11    0.99
   3   9  14    4.04    0.58
  -4  -9 -14    8.68    1.22
   4  -9  14    9.08    1.27
  -4   9 -14    6.25    1.11
  -5  -9 -14    0.20    0.97
  -5   9 -14   -0.54    0.92
  -6  -9 -14    0.27    1.16
  -6   9 -14    0.57    1.13
  -7  -9 -14   13.65    1.71
  -7   9 -14   12.10    1.71
  -8  -9 -14    2.85    1.73
  -8   9 -14    1.88    1.68
  -9 -10  14    2.84    1.22
  -9  10  14    0.53    1.52
  -8 -10  14    0.64    0.92
  -8  10  14   -1.09    1.06
  -7 -10  14    4.10    0.84
  -7  10  14    3.09    0.94
  -6 -10  14    1.40    0.68
  -6  10  14    0.34    0.79
  -5 -10  14    8.98    0.98
  -5  10  14    8.72    0.94
  -4 -10  14    0.19    0.56
  -4  10  14   -0.73    0.60
  -3 -10  14    0.80    0.47
  -3  10  14    1.53    0.56
  -2 -10  14    0.65    0.46
  -2  10  14   -0.37    0.46
   2  10 -14   -0.75    0.81
   1 -10 -14    4.52    0.89
  -1 -10  14    4.81    0.59
   1  10 -14    6.88    1.03
  -1  10  14    5.65    0.65
   0 -10 -14    2.59    0.73
   0 -10  14    1.24    0.50
   0  10  14    1.30    0.51
   0  10  14    1.52    0.57
   0  10 -14    1.93    0.81
   1 -10  14   -0.03    0.54
  -1 -10 -14    1.56    0.74
   1  10  14    0.41    0.55
  -1  10 -14    0.35    0.75
   1  10  14    0.18    0.50
   2 -10  14    6.89    0.83
  -2 -10 -14    7.46    1.05
  -2  10 -14    8.57    1.11
   2  10  14    7.57    0.74
   2  10  14    5.85    0.75
   3 -10  14    6.10    0.91
  -3 -10 -14    7.31    1.07
   3  10  14    6.67    0.69
  -3  10 -14    6.63    1.08
   3  10  14    5.28    0.72
  -4 -10 -14   27.38    1.95
   4 -10  14   32.22    2.77
  -4  10 -14   26.94    2.04
  -5 -10 -14    1.38    1.22
  -5  10 -14   -0.01    1.14
  -6 -10 -14    4.43    1.32
  -6  10 -14    3.82    1.28
  -7 -10 -14   -0.64    1.45
  -7  10 -14    2.25    1.46
  -8 -10 -14   10.78    2.01
  -8  10 -14    7.62    1.96
  -8 -11  14    1.99    1.07
  -8  11  14    0.06    1.22
  -7 -11  14   10.67    1.12
  -7  11  14    9.11    1.24
  -6 -11  14    6.27    0.89
  -6  11  14    5.79    1.00
  -5 -11  14    2.22    0.68
  -5  11  14    1.77    0.75
  -4 -11  14    2.88    0.66
  -4  11  14    3.09    0.73
  -3 -11  14    3.30    0.64
  -3  11  14    2.01    0.71
  -2 -11  14   14.10    1.02
  -2  11  14   14.59    1.09
  -1 -11  14    4.46    0.66
   1 -11 -14    6.76    1.00
  -1  11  14    6.52    0.79
   1  11 -14    4.83    0.96
  -1  11  14    6.51    0.73
   0 -11 -14    0.83    0.78
   0 -11  14    0.60    0.52
   0  11  14   -0.13    0.52
   0  11 -14    0.06    0.80
   0  11  14    0.97    0.60
   1 -11  14    1.58    0.62
  -1 -11 -14   -0.34    0.75
  -1  11 -14   -0.53    0.77
   1  11  14    0.34    0.63
   1  11  14    0.54    0.59
  -2 -11 -14    7.73    1.11
   2 -11  14    5.84    0.87
   2  11  14    7.12    0.82
  -2  11 -14    6.12    1.03
   2  11  14    8.14    0.92
  -3 -11 -14   12.52    1.57
   3 -11  14   15.72    1.46
  -3  11 -14   14.64    1.64
   3  11  14   12.21    1.22
   3  11  14   13.45    1.14
  -4 -11 -14    0.92    1.17
  -4  11 -14   -0.91    0.97
  -5 -11 -14    6.73    1.38
  -5  11 -14    4.78    1.36
  -6 -11 -14   -0.03    1.47
  -6  11 -14    1.26    1.39
  -7 -11 -14   13.53    2.05
  -7  11 -14   10.49    2.01
  -8 -12  14    0.65    1.33
  -7 -12  14    2.24    0.99
  -7  12  14    0.13    1.12
  -6 -12  14    5.55    0.94
  -6  12  14    4.17    1.08
  -5 -12  14    3.22    0.79
  -5  12  14    3.14    0.91
  -4 -12  14    6.51    0.84
  -4  12  14    7.86    0.95
  -3 -12  14   10.90    1.09
  -3  12  14   10.84    1.19
  -2 -12  14    1.81    0.67
  -2  12  14    2.69    0.76
  -2  12  14    4.12    0.73
   1 -12 -14   -1.20    0.80
  -1 -12  14    0.13    0.64
  -1  12  14    1.03    0.73
  -1  12  14    0.23    0.67
   1  12 -14    0.58    0.82
   0 -12 -14   14.77    1.48
   0 -12  14   12.78    1.18
   0  12  14   15.64    1.22
   0  12 -14   16.73    1.51
   0  12  14   13.66    1.26
   1 -12  14   17.12    1.32
  -1 -12 -14   14.51    1.54
  -1  12 -14   14.10    1.45
   1  12  14   15.23    1.40
   1  12  14   16.54    1.27
  -2 -12 -14   18.53    1.61
   2 -12  14   17.14    1.46
  -2  12 -14   17.06    1.62
   2  12  14   18.04    1.37
   2  12  14   18.63    1.46
   3 -12  14    2.56    1.04
  -3 -12 -14    2.91    1.18
   3  12  14    2.66    0.75
   3  12  14    1.58    0.82
  -3  12 -14    3.86    1.04
  -4 -12 -14    7.71    1.44
  -4  12 -14    9.45    1.37
  -5 -12 -14    3.74    1.46
  -5  12 -14    2.51    1.36
  -6 -12 -14   11.43    1.90
  -6  12 -14    7.43    1.64
  -7 -12 -14    3.61    2.03
  -7  12 -14    2.78    1.91
  -7 -13  14    5.67    1.26
  -7  13  14    5.32    1.47
  -6 -13  14   10.92    1.23
  -6  13  14   11.30    1.36
  -5 -13  14    2.62    0.88
  -5  13  14    4.48    1.06
  -4 -13  14    1.69    0.81
  -4  13  14    0.45    0.82
  -3 -13  14   12.01    1.23
  -3  13  14   12.26    1.37
  -2 -13  14   20.56    1.37
  -2  13  14   25.98    1.51
  -2  13  14   22.70    1.60
  -1 -13  14   12.66    1.23
   1 -13 -14   13.91    1.59
  -1  13  14   16.83    1.44
  -1  13  14   18.31    1.38
   1  13 -14   11.69    1.69
   0 -13  14    4.04    0.84
   0 -13 -14    4.24    1.01
   0  13  14    3.96    0.87
   0  13  14    2.59    0.93
   0  13 -14    1.32    0.93
   1 -13  14    0.04    0.87
  -1 -13 -14    1.54    0.96
   1  13  14    1.41    0.99
  -1  13 -14    1.09    0.91
   1  13  14    0.30    0.86
  -2 -13 -14    8.72    1.33
   2 -13  14    7.80    1.18
  -2  13 -14    8.68    1.18
   2  13  14   11.02    1.13
   2  13  14    8.15    1.18
   3 -13  14   11.58    1.42
  -3 -13 -14   10.29    1.46
   3  13  14   10.10    1.13
  -3  13 -14    9.22    1.35
   3  13  14   11.04    1.21
  -4 -13 -14    9.29    1.54
  -4  13 -14    7.73    1.38
  -5 -13 -14    1.23    1.54
  -5  13 -14    3.13    1.49
  -6 -13 -14    0.80    1.87
  -6  13 -14    1.36    1.66
  -6 -14  14    4.15    1.24
  -6  14  14    3.95    1.34
  -5 -14  14    0.27    0.98
  -5  14  14    0.59    1.11
  -4 -14  14   10.98    1.19
  -4  14  14   10.38    1.22
  -3 -14  14    0.06    0.83
  -3  14  14    2.84    0.95
  -2 -14  14    0.30    0.82
  -2  14  14    2.00    0.89
  -2  14  14   -0.66    0.92
  -1 -14  14    0.71    0.79
  -1  14  14    0.99    0.90
  -1  14  14    1.23    0.86
   1  14 -14   -0.39    0.96
   0 -14  14   28.06    1.76
   0 -14 -14   30.61    2.15
   0  14  14   26.37    1.96
   0  14 -14   30.41    2.04
   0  14  14   26.92    1.84
   1 -14  14    4.95    1.10
  -1 -14 -14    4.07    1.22
   1  14  14    3.81    1.04
  -1  14 -14    5.48    1.16
   1  14  14    5.05    1.20
  -2 -14 -14    1.00    1.16
   2 -14  14    0.15    1.12
  -2  14 -14    0.64    1.03
   2  14  14    0.71    0.99
   2  14  14    0.82    1.10
  -3 -14 -14    7.55    1.44
   3 -14  14    9.34    1.42
  -3  14 -14    8.76    1.36
  -4 -14 -14    3.35    1.51
  -4  14 -14    2.70    1.44
  -5 -14 -14   -2.32    1.74
  -5  14 -14    2.50    1.63
  -6 -14 -14   -0.94    2.06
  -6  14 -14   -0.63    1.78
  -5 -15  14    2.21    1.24
  -5  15  14    2.07    1.33
  -4 -15  14   13.02    1.41
  -4  15  14   15.00    1.90
  -3 -15  14    3.46    1.07
  -3  15  14    1.80    1.07
  -2 -15  14    3.30    1.06
  -2  15  14    0.20    1.16
  -2  15  14    2.59    1.04
  -1 -15  14    2.29    1.01
  -1  15  14    1.98    1.15
  -1  15  14    2.16    1.07
   0 -15  14   -1.01    1.00
   0 -15 -14   -0.42    1.13
   0  15  14    1.21    1.19
   0  15  14    2.05    1.07
   0  15 -14   -1.24    1.14
   1 -15  14    0.55    1.17
  -1 -15 -14    0.75    1.19
   1  15  14    0.85    1.09
   1  15  14    0.85    1.19
  -1  15 -14   -0.61    1.12
   2 -15  14    1.06    1.37
  -2 -15 -14    0.57    1.31
  -2  15 -14    0.74    1.19
   2  15  14    4.26    1.31
   2  15  14    2.57    1.16
   3 -15  14    1.77    1.39
  -3 -15 -14    1.74    1.46
  -3  15 -14   -0.72    1.30
  -4 -15 -14   -2.20    1.55
  -4  15 -14    1.03    1.52
  -5 -15 -14    2.22    1.88
  -5  15 -14    1.35    1.70
  -3 -16  14    1.66    1.27
  -3  16  14    1.05    1.27
  -2 -16  14    1.29    1.23
  -2  16  14    0.15    1.14
  -2  16  14   -2.35    1.27
  -1 -16  14    1.19    1.19
  -1  16  14    1.87    1.19
  -1  16  14    1.47    1.27
   0 -16  14    3.76    1.21
   0 -16 -14    3.25    1.43
   0  16  14    1.63    1.37
   0  16 -14    1.26    1.29
   0  16  14    3.44    1.27
   1 -16  14   -0.17    1.31
  -1 -16 -14   -3.17    1.34
   1  16  14    1.43    1.29
  -1  16 -14    0.36    1.24
   1  16  14    0.34    1.42
   2 -16  14    2.88    1.44
  -2 -16 -14    0.96    1.52
   2  16  14    1.12    1.38
  -2  16 -14   -1.79    1.31
   2  16  14    2.44    1.27
  -3 -16 -14   -2.54    1.48
   3 -16  14    1.51    1.41
  -3  16 -14    0.87    1.44
  -4 -16 -14    2.53    1.72
  -4  16 -14    0.29    1.50
  -1 -17  14    0.46    1.51
  -1  17  14    0.70    1.58
  -1  17  14    0.93    1.42
   0 -17  14    3.45    1.62
   0  17  14    3.76    1.51
   0  17  14    1.16    1.62
   1 -17  14    2.66    1.64
  -1 -17 -14    6.06    1.75
   1  17  14    3.90    1.66
  -1  17 -14    3.49    1.54
   1  17  14    5.69    1.53
   2 -17  14    0.79    1.79
  -2 -17 -14    0.08    1.66
   2  17  14   -1.56    1.40
  -2  17 -14   -2.74    1.46
   2  17  14    0.19    1.60
 -11   0  15   -0.52    1.12
 -11   0  15    2.10    1.39
 -10   0  15   -1.21    0.90
 -10   0  15   -0.81    1.03
  -9   0  15    0.25    0.71
  -9   0  15   -0.29    0.82
  -8   0  15    0.50    0.56
  -8   0  15    0.28    0.61
  -7   0  15   -0.38    0.53
  -7   0  15    0.10    0.47
  -6   0  15    0.48    0.40
  -5   0  15    0.11    0.34
  -4   0  15   -0.22    0.29
  -3   0  15    0.27    0.29
  -2   0  15    1.93    0.32
  -1   0  15    0.54    0.28
   1   0 -15    1.15    0.49
   1   0 -15    0.43    0.46
   0   0 -15   -0.61    0.46
   0   0 -15    0.00    0.48
   0   0  15    0.00    0.27
   1   0  15    0.18    0.25
  -1   0 -15    0.14    0.51
  -1   0 -15    0.81    0.53
  -2   0 -15    2.51    0.72
  -2   0 -15    4.13    0.66
   2   0  15    1.78    0.27
  -3   0 -15    0.30    0.59
  -3   0 -15   -0.33    0.69
  -4   0 -15    1.02    0.62
  -4   0 -15    0.10    0.55
  -5   0 -15   -0.68    0.57
  -5   0 -15    0.60    0.65
  -6   0 -15    0.67    0.63
  -6   0 -15   -0.82    0.73
  -7   0 -15    0.81    0.81
  -7   0 -15    0.04    0.87
  -8   0 -15    0.06    1.08
  -8   0 -15   -0.42    1.04
  -9   0 -15    2.98    1.40
  -9   0 -15    0.84    1.50
 -11  -1  15    1.55    1.18
 -11  -1  15   -0.81    1.33
 -11   1  15    0.66    1.35
 -11   1  15    1.71    1.23
 -10  -1  15    1.92    0.94
 -10  -1  15    1.94    1.08
 -10   1  15    0.54    0.98
 -10   1  15    1.39    1.12
  -9  -1  15    1.47    0.82
  -9  -1  15    0.79    0.71
  -9   1  15    1.53    0.91
  -9   1  15    1.38    0.77
  -8  -1  15   18.08    1.26
  -8  -1  15   18.74    1.15
  -8   1  15   18.92    1.27
  -8   1  15   16.95    1.17
  -7  -1  15    0.05    0.53
  -7  -1  15   -0.25    0.47
  -7   1  15    0.32    0.49
  -6  -1  15    3.08    0.49
  -6   1  15    4.11    0.54
  -5  -1  15    3.71    0.47
  -5   1  15    3.69    0.50
  -4  -1  15   40.28    1.45
  -4   1  15   39.55    1.46
  -3  -1  15    1.33    0.32
  -3   1  15    0.67    0.31
  -2  -1  15    8.22    0.54
   2   1 -15    8.91    1.00
  -2   1  15    7.07    0.54
   1  -1 -15   80.93    2.77
   1  -1 -15   78.35    2.73
  -1  -1  15   77.53    2.51
   1   1 -15   77.61    2.84
  -1   1  15   78.19    2.51
   0  -1  15    5.87    0.52
   0  -1 -15    7.42    0.78
   0  -1 -15    6.29    0.73
   0   1 -15    6.74    0.76
   0   1  15    5.80    0.52
   0   1 -15    6.15    0.77
  -1  -1 -15    5.77    0.81
  -1  -1 -15    4.66    0.71
   1  -1  15    3.68    0.43
  -1   1 -15    5.20    0.67
  -1   1 -15    4.08    0.77
   1   1  15    3.90    0.43
  -2  -1 -15    2.09    0.70
   2  -1  15    2.41    0.29
  -2  -1 -15    2.51    0.65
   2   1  15    1.90    0.28
  -2   1 -15    1.48    0.55
  -2   1 -15    3.33    0.79
  -3  -1 -15   40.80    1.92
  -3  -1 -15   42.49    1.81
  -3   1 -15   39.94    1.78
  -3   1 -15   41.67    1.91
  -4  -1 -15    2.07    0.66
  -4  -1 -15    2.81    0.67
  -4   1 -15    3.00    0.64
  -4   1 -15    2.47    0.67
  -5  -1 -15   10.64    1.06
  -5  -1 -15   11.86    1.22
  -5   1 -15   11.49    1.22
  -5   1 -15   12.68    0.99
  -6  -1 -15    6.05    0.94
  -6  -1 -15    6.03    0.85
  -6   1 -15    5.12    0.92
  -6   1 -15    5.93    0.83
  -7  -1 -15    3.55    1.00
  -7  -1 -15    3.21    0.88
  -7   1 -15    2.95    0.80
  -7   1 -15    1.86    0.95
  -8  -1 -15    7.09    1.16
  -8  -1 -15    4.68    1.39
  -8   1 -15    6.06    1.30
  -8   1 -15    6.88    1.17
  -9  -1 -15    1.44    1.40
  -9  -1 -15    2.24    1.62
  -9   1 -15    2.18    1.37
  -9   1 -15   -1.92    1.51
 -11  -2  15    4.19    1.51
 -11  -2  15    1.33    1.38
 -11   2  15    2.06    1.36
 -11   2  15   -1.22    1.47
 -10  -2  15    2.34    0.96
 -10  -2  15    0.51    1.01
 -10   2  15    1.36    1.01
 -10   2  15    0.75    1.09
  -9  -2  15    4.29    0.80
  -9  -2  15    4.36    0.88
  -9   2  15    4.81    1.00
  -9   2  15    5.44    0.88
  -8  -2  15    0.67    0.66
  -8  -2  15    0.73    0.55
  -8   2  15    0.16    0.58
  -8   2  15   -0.25    0.68
  -7  -2  15    1.77    0.57
  -7  -2  15    2.42    0.54
  -7   2  15    1.32    0.54
  -6  -2  15    5.01    0.60
  -6  -2  15    5.45    0.57
  -6   2  15    4.88    0.60
  -5  -2  15   94.63    3.09
  -5   2  15   95.50    3.11
  -4  -2  15   67.86    2.29
  -4   2  15   70.33    2.32
  -3  -2  15    0.84    0.30
  -3   2  15    0.95    0.33
  -2  -2  15   97.59    3.09
  -2   2  15   97.24    3.10
   2   2 -15   98.44    3.50
  -1  -2  15   95.61    3.04
   1  -2 -15   95.16    3.34
   1  -2 -15   97.82    3.21
  -1   2  15   96.87    3.04
   1   2 -15   96.88    3.47
   0  -2 -15  142.22    4.43
   0  -2 -15  135.00    4.51
   0  -2  15  129.80    4.21
   0   2 -15  142.06    4.66
   0   2 -15  135.29    4.31
   0   2  15  139.70    4.22
   1  -2  15    3.42    0.35
  -1  -2 -15    2.70    0.73
  -1  -2 -15    3.35    0.59
  -1   2 -15    4.75    0.81
   1   2  15    3.23    0.34
  -1   2 -15    4.52    0.58
  -2  -2 -15  160.64    5.12
   2  -2  15  150.51    4.69
  -2  -2 -15  154.83    5.06
   2   2  15  155.37    4.68
  -2   2 -15  156.04    5.21
  -2   2 -15  151.52    4.91
  -3  -2 -15    1.77    0.67
  -3  -2 -15    1.80    0.74
   3  -2  15    2.12    0.30
  -3   2 -15    1.27    0.57
  -3   2 -15    2.73    0.65
  -4  -2 -15   57.84    2.34
  -4  -2 -15   57.38    2.25
  -4   2 -15   57.14    2.19
  -4   2 -15   56.55    2.42
  -5  -2 -15    4.48    0.76
  -5  -2 -15    4.90    0.82
  -5   2 -15    3.03    0.78
  -5   2 -15    2.16    0.61
  -6  -2 -15    9.19    1.03
  -6  -2 -15    7.09    1.04
  -6   2 -15    8.42    1.03
  -6   2 -15    6.58    1.01
  -7  -2 -15    0.06    1.00
  -7  -2 -15   -0.22    0.83
  -7   2 -15    0.69    0.93
  -7   2 -15    1.65    0.76
  -8  -2 -15    7.29    1.51
  -8  -2 -15    9.11    1.24
  -8   2 -15    8.62    1.34
  -8   2 -15    9.48    1.31
  -9  -2 -15    3.02    1.48
  -9  -2 -15    3.50    1.69
  -9   2 -15    4.90    1.44
  -9   2 -15    5.54    1.62
 -11  -3  15    1.94    1.31
 -11   3  15    2.36    1.45
 -10  -3  15    3.88    0.98
 -10  -3  15    3.43    1.15
 -10   3  15    1.36    1.21
 -10   3  15    2.79    1.06
  -9  -3  15    0.86    0.71
  -9  -3  15   -0.06    0.83
  -9   3  15   -0.87    0.76
  -9   3  15    0.03    0.91
  -8  -3  15   46.16    1.83
  -8  -3  15   42.20    1.86
  -8   3  15   43.84    1.89
  -7  -3  15    0.36    0.54
  -7  -3  15    0.10    0.47
  -7   3  15   -0.63    0.54
  -6  -3  15    6.18    0.72
  -6  -3  15    6.93    0.75
  -6   3  15    7.85    0.83
  -5  -3  15   14.08    0.85
  -5  -3  15   15.31    0.82
  -5   3  15   14.92    0.89
  -4  -3  15   70.24    2.35
  -4   3  15   71.42    2.38
  -3  -3  15    2.12    0.36
  -3   3  15    2.08    0.37
  -2  -3  15   19.01    0.83
  -2   3  15   18.23    0.84
   2   3 -15   18.65    1.28
   1  -3 -15  141.48    4.64
   1  -3 -15  137.51    4.37
  -1  -3  15  138.53    4.27
  -1   3  15  137.39    4.27
   1   3 -15  136.87    4.68
   0  -3 -15    6.20    0.87
   0  -3 -15    5.17    0.59
   0  -3  15    4.58    0.51
   0   3 -15    4.53    0.56
   0   3 -15    7.18    0.96
   0   3  15    5.06    0.58
  -1  -3 -15   24.65    1.47
   1  -3  15   21.90    0.93
  -1  -3 -15   24.53    1.22
  -1   3 -15   24.13    1.39
  -1   3 -15   23.02    1.09
   1   3  15   22.28    0.91
  -2  -3 -15    1.06    0.65
   2  -3  15    2.06    0.32
  -2  -3 -15    1.85    0.58
  -2   3 -15    2.08    0.53
   2   3  15    1.97    0.30
  -2   3 -15    1.59    0.59
   3  -3  15   48.07    1.58
  -3  -3 -15   47.71    2.02
  -3  -3 -15   47.19    2.04
   3   3  15   46.37    1.50
  -3   3 -15   46.44    2.14
  -3   3 -15   46.55    1.79
  -4  -3 -15    2.30    0.74
  -4  -3 -15    3.97    0.78
  -4   3 -15    3.33    0.77
  -4   3 -15    4.29    0.76
  -5  -3 -15   32.24    1.74
  -5  -3 -15   28.37    1.59
  -5   3 -15   28.73    1.39
  -5   3 -15   27.54    1.73
  -6  -3 -15    8.95    1.03
  -6  -3 -15   10.54    1.49
  -6   3 -15    8.93    1.06
  -6   3 -15    7.51    1.05
  -7  -3 -15    3.96    1.08
  -7  -3 -15    2.57    0.97
  -7   3 -15    0.12    1.02
  -7   3 -15    3.51    0.86
  -8  -3 -15    9.11    1.57
  -8  -3 -15   10.80    1.32
  -8   3 -15   13.52    1.83
  -8   3 -15    9.99    1.52
  -9  -3 -15    3.33    1.49
  -9  -3 -15    0.95    1.66
  -9   3 -15    3.48    1.42
  -9   3 -15    3.98    1.65
 -10  -4  15    0.87    0.92
 -10  -4  15    0.06    1.07
 -10   4  15   -0.74    1.07
 -10   4  15    3.05    1.28
  -9  -4  15    2.67    0.85
  -9  -4  15    2.73    0.87
  -9   4  15    3.09    0.96
  -9   4  15    4.13    1.05
  -8  -4  15    0.31    0.68
  -8  -4  15    1.82    0.61
  -8   4  15   -0.02    0.67
  -7  -4  15   13.64    1.02
  -7  -4  15   12.49    0.99
  -7   4  15   12.72    1.13
  -6  -4  15    1.60    0.50
  -6  -4  15    2.86    0.53
  -6   4  15    1.63    0.53
  -5  -4  15   15.34    0.86
  -5  -4  15   15.24    0.79
  -5   4  15   14.09    0.91
  -4  -4  15   17.42    0.77
  -4  -4  15   17.21    0.85
  -4   4  15   17.52    0.90
  -3  -4  15    3.39    0.41
  -3   4  15    4.00    0.45
  -2  -4  15   33.52    1.25
   2   4 -15   31.73    1.70
  -2   4  15   34.38    1.28
  -1  -4  15    5.23    0.50
   1  -4 -15    5.59    0.88
   1   4 -15    4.96    0.75
  -1   4  15    5.75    0.53
   0  -4 -15    6.81    0.90
   0  -4  15    6.50    0.54
   0  -4 -15    6.07    0.68
   0   4  15    7.18    0.58
   0   4 -15    6.81    0.83
   1  -4  15    0.08    0.39
  -1  -4 -15   -0.17    0.43
  -1  -4 -15    0.02    0.63
  -1   4 -15   -0.43    0.36
  -1   4 -15    1.08    0.58
   1   4  15   -0.24    0.32
   2  -4  15   52.21    1.79
  -2  -4 -15   55.16    2.07
  -2  -4 -15   53.20    2.23
   2   4  15   54.17    1.75
  -2   4 -15   50.95    2.28
  -2   4 -15   54.41    1.94
  -3  -4 -15    0.69    0.54
  -3  -4 -15   -0.79    0.64
   3  -4  15    0.19    0.35
  -3   4 -15    0.27    0.46
  -3   4 -15    0.21    0.62
   3   4  15    0.17    0.23
  -4  -4 -15    2.55    0.80
  -4  -4 -15    2.87    0.74
  -4   4 -15    1.73    0.70
  -4   4 -15    2.38    0.62
  -5  -4 -15    7.87    0.98
  -5  -4 -15    6.83    0.91
  -5   4 -15    6.31    0.79
  -5   4 -15    4.80    0.89
  -6  -4 -15    7.33    1.10
  -6  -4 -15    8.28    1.04
  -6   4 -15    6.55    1.08
  -6   4 -15    8.66    1.11
  -7  -4 -15   -0.45    1.05
  -7  -4 -15   -0.62    0.91
  -7   4 -15    0.61    0.87
  -7   4 -15   -0.08    1.01
  -8  -4 -15    0.10    1.39
  -8  -4 -15    0.29    1.21
  -8   4 -15   -1.36    1.12
  -8   4 -15    0.65    1.29
  -9  -4 -15    2.24    1.72
  -9  -4 -15    1.85    1.52
  -9   4 -15    1.05    1.53
  -9   4 -15    2.85    1.75
 -10  -5  15    2.76    1.15
 -10  -5  15   -0.63    0.96
 -10   5  15   -0.34    1.15
 -10   5  15    0.71    1.36
  -9  -5  15    1.90    0.88
  -9  -5  15    2.88    0.86
  -9   5  15    3.90    1.04
  -9   5  15    1.02    1.06
  -8  -5  15    2.51    0.66
  -8  -5  15    2.54    0.74
  -8   5  15   -0.16    0.72
  -7  -5  15    1.61    0.59
  -7  -5  15    1.51    0.59
  -7   5  15    0.02    0.66
  -6  -5  15    2.35    0.58
  -6  -5  15    2.09    0.51
  -6   5  15    1.78    0.58
  -5  -5  15    7.57    0.71
  -5  -5  15    7.44    0.60
  -5   5  15    6.61    0.79
  -4  -5  15   -0.10    0.34
  -4  -5  15    0.44    0.28
  -4   5  15   -0.19    0.37
  -3  -5  15   18.21    0.70
  -3  -5  15   17.85    0.87
  -3   5  15   18.04    0.90
  -2  -5  15    1.40    0.34
  -2   5  15    1.81    0.38
   2   5 -15    0.09    0.56
  -1  -5  15    0.26    0.32
  -1   5  15    0.24    0.31
   1   5 -15    0.57    0.61
   0  -5 -15    0.30    0.37
   0  -5 -15    0.59    0.61
   0  -5  15   -0.04    0.29
   0   5 -15    0.18    0.57
   0   5  15    0.27    0.31
  -1  -5 -15   19.99    1.30
  -1  -5 -15   19.18    1.01
   1  -5  15   19.58    0.90
   1   5  15   19.96    0.94
  -1   5 -15   22.88    1.36
  -2  -5 -15    2.44    0.73
   2  -5  15    1.61    0.45
  -2  -5 -15    2.13    0.55
  -2   5 -15    1.86    0.49
  -2   5 -15    2.78    0.68
   2   5  15    1.95    0.37
  -3  -5 -15    2.60    0.74
   3  -5  15    2.59    0.48
  -3  -5 -15    3.29    0.65
   3   5  15    3.04    0.34
  -3   5 -15    3.77    0.54
  -3   5 -15    2.48    0.74
  -4  -5 -15    0.66    0.74
  -4  -5 -15    1.19    0.76
  -4   5 -15    0.59    0.69
  -4   5 -15    1.00    0.51
  -5  -5 -15    4.46    0.87
  -5  -5 -15    4.97    0.94
  -5   5 -15    5.25    0.92
  -5   5 -15    4.76    0.78
  -6  -5 -15    0.65    0.89
  -6  -5 -15    1.95    0.87
  -6   5 -15    1.18    0.78
  -6   5 -15    0.90    0.92
  -7  -5 -15    0.76    1.08
  -7  -5 -15   -0.55    0.98
  -7   5 -15    2.49    0.99
  -7   5 -15    1.13    1.10
  -8  -5 -15    1.72    1.30
  -8  -5 -15    2.42    1.38
  -8   5 -15    2.20    1.40
  -9  -5 -15    1.14    1.69
  -9  -5 -15   -2.12    1.53
  -9   5 -15    2.02    1.79
 -10  -6  15    0.03    1.09
 -10   6  15    0.79    1.37
 -10   6  15    1.59    1.51
  -9  -6  15    1.99    0.89
  -9   6  15    1.24    1.01
  -8  -6  15    0.46    0.65
  -8  -6  15   -1.29    1.04
  -8   6  15    0.64    0.81
  -7  -6  15   12.93    1.04
  -7  -6  15   12.10    1.06
  -7   6  15   14.07    1.18
  -6  -6  15    0.46    0.51
  -6  -6  15   -0.05    0.47
  -6   6  15   -0.87    0.53
  -5  -6  15    6.25    0.56
  -5  -6  15    4.76    0.59
  -5   6  15    7.48    0.84
  -4  -6  15   12.59    0.79
  -4   6  15   12.56    0.87
  -3  -6  15   13.02    0.77
  -3   6  15   12.78    0.81
  -2  -6  15    1.15    0.35
   2   6 -15    1.19    0.67
  -2   6  15    0.32    0.36
   1  -6 -15    9.04    1.10
  -1  -6  15    9.22    0.64
   1   6 -15    8.63    0.97
  -1   6  15   10.27    0.69
   0  -6 -15   21.38    1.30
   0  -6  15   18.21    0.89
   0   6 -15   19.01    1.30
   0   6  15   19.50    0.90
  -1  -6 -15    0.67    0.62
  -1  -6 -15    0.16    0.37
   1  -6  15    0.37    0.34
   1   6  15   -0.04    0.36
  -1   6 -15    0.88    0.60
   2  -6  15    4.80    0.53
  -2  -6 -15    5.91    0.86
  -2  -6 -15    4.95    0.57
  -2   6 -15    6.60    0.89
   2   6  15    4.34    0.52
  -3  -6 -15    1.66    0.57
   3  -6  15    1.19    0.56
  -3  -6 -15    0.39    0.72
   3   6  15    0.22    0.32
  -3   6 -15   -0.67    0.73
  -4  -6 -15    6.83    0.89
  -4  -6 -15    5.79    0.99
  -4   6 -15    5.63    1.03
  -5  -6 -15    0.36    0.76
  -5  -6 -15   -0.16    0.84
  -5   6 -15   -1.32    0.80
  -6  -6 -15   -1.53    0.87
  -6  -6 -15    1.95    0.94
  -6   6 -15    0.44    0.97
  -7  -6 -15    2.02    1.13
  -7  -6 -15    1.89    1.10
  -7   6 -15    0.22    1.11
  -8  -6 -15    2.93    1.39
  -8   6 -15   -0.43    1.46
  -9  -6 -15    4.09    1.76
  -9   6 -15   -2.82    1.72
 -10  -7  15    1.92    1.10
 -10   7  15    2.07    1.70
 -10   7  15   -2.26    2.31
  -9  -7  15    2.60    0.97
  -9   7  15   -0.94    1.10
  -8  -7  15    6.66    0.86
  -8   7  15    5.89    1.00
  -7  -7  15   -0.89    0.55
  -7   7  15    0.49    0.72
  -6  -7  15    5.45    0.71
  -6   7  15    5.48    0.82
  -5  -7  15    0.54    0.46
  -5   7  15    0.45    0.53
  -4  -7  15    1.81    0.44
  -4   7  15    2.40    0.51
  -3  -7  15    5.36    0.54
  -3   7  15    5.44    0.60
  -2  -7  15    1.28    0.39
   2   7 -15    1.49    0.75
  -2   7  15    0.49    0.39
   1  -7 -15    3.83    0.82
  -1  -7  15    6.29    0.60
  -1   7  15    6.32    0.63
   1   7 -15    6.16    0.92
   0  -7  15    5.62    0.58
   0  -7 -15    6.37    0.83
   0   7  15    5.17    0.52
   0   7 -15    5.91    0.86
  -1  -7 -15    4.48    0.79
   1  -7  15    5.50    0.62
   1   7  15    4.46    0.51
  -1   7 -15    4.38    0.80
  -2  -7 -15    1.57    0.72
   2  -7  15    2.28    0.51
  -2   7 -15    0.94    0.69
   2   7  15    1.06    0.43
  -3  -7 -15   -1.26    0.71
   3  -7  15   -0.89    0.57
   3   7  15   -0.28    0.40
  -3   7 -15   -0.19    0.75
  -4  -7 -15    0.68    0.87
  -4   7 -15    0.41    0.85
  -5  -7 -15   -0.30    0.88
  -5   7 -15   -0.06    0.88
  -6  -7 -15    1.81    1.11
  -6   7 -15    0.98    1.13
  -7  -7 -15   -0.96    1.20
  -7   7 -15    0.54    1.22
  -8  -7 -15   -0.25    1.47
  -8   7 -15    1.61    1.58
 -10   8  15   -0.32    1.77
  -9  -8  15    1.40    0.98
  -9   8  15    1.74    1.21
  -8  -8  15    0.83    0.82
  -8   8  15   -0.12    0.95
  -7  -8  15    0.48    0.68
  -7   8  15   -0.23    0.80
  -6  -8  15    1.68    0.58
  -6   8  15    2.07    0.71
  -5  -8  15    1.47    0.54
  -5   8  15    0.30    0.57
  -4  -8  15    1.70    0.47
  -4   8  15    1.14    0.51
  -3  -8  15    7.66    0.72
  -3   8  15    7.49    0.78
  -2  -8  15    1.39    0.43
   2   8 -15    1.43    0.78
  -2   8  15    1.66    0.43
  -1  -8  15    0.90    0.40
   1  -8 -15    1.93    0.73
  -1   8  15    2.13    0.45
   1   8 -15    1.64    0.79
   0  -8  15   13.62    0.83
   0  -8 -15   14.19    1.21
   0   8  15   13.89    0.86
   0   8 -15   14.75    1.34
  -1  -8 -15    4.08    0.80
   1  -8  15    3.30    0.54
  -1   8 -15    3.49    0.80
   1   8  15    3.14    0.52
   2  -8  15    3.47    0.62
  -2  -8 -15    3.14    0.81
  -2   8 -15    3.94    0.84
   2   8  15    1.63    0.49
  -3  -8 -15    0.89    0.86
   3  -8  15    1.26    0.66
  -3   8 -15   -0.65    0.85
  -4  -8 -15   16.55    1.60
  -4   8 -15   15.40    1.74
  -5  -8 -15    3.31    1.08
  -5   8 -15    4.67    1.18
  -6  -8 -15    2.10    1.18
  -6   8 -15   -0.17    1.12
  -7  -8 -15    2.19    1.33
  -7   8 -15    1.87    1.37
  -8  -8 -15    3.47    1.74
  -8   8 -15    3.02    1.77
  -9  -9  15    1.70    1.15
  -9   9  15    1.10    1.36
  -8  -9  15    1.25    0.87
  -8   9  15   -0.54    1.08
  -7  -9  15    0.84    0.72
  -7   9  15   -0.35    0.87
  -6  -9  15    6.38    0.78
  -6   9  15    4.83    0.86
  -5  -9  15    0.31    0.57
  -5   9  15    0.18    0.63
  -4  -9  15    3.66    0.62
  -4   9  15    3.24    0.64
  -3  -9  15    0.52    0.45
  -3   9  15    0.20    0.47
  -2  -9  15    1.24    0.46
   2   9 -15    0.28    0.86
  -2   9  15    1.28    0.51
  -1  -9  15    1.81    0.48
   1  -9 -15    1.91    0.82
   1   9 -15    1.28    0.84
  -1   9  15    2.36    0.52
   0  -9  15    5.53    0.62
   0  -9 -15    3.96    0.85
   0   9  15    5.95    0.62
   0   9 -15    6.46    1.01
   1  -9  15   -0.18    0.50
  -1  -9 -15   -0.20    0.72
   1   9  15    1.57    0.51
  -1   9 -15   -0.92    0.75
   2  -9  15    0.65    0.60
  -2  -9 -15   -0.50    0.74
  -2   9 -15    0.66    0.84
   2   9  15    0.53    0.50
  -3  -9 -15   15.92    1.61
   3  -9  15   18.42    1.31
   3   9  15   14.90    0.97
  -3   9 -15   12.28    1.61
  -4  -9 -15    1.60    1.03
  -4   9 -15    0.32    0.96
  -5  -9 -15    1.79    1.24
  -5   9 -15    0.28    1.12
  -6  -9 -15   -2.05    1.18
  -6   9 -15   -0.15    1.19
  -7  -9 -15    5.78    1.67
  -7   9 -15    5.66    1.61
  -8  -9 -15    2.54    1.86
  -8   9 -15    2.00    1.86
  -8 -10  15    3.49    1.01
  -8  10  15    2.18    1.18
  -7 -10  15    2.94    0.86
  -7  10  15    4.38    1.03
  -6 -10  15    1.26    0.69
  -6  10  15    2.18    0.84
  -5 -10  15    0.64    0.59
  -5  10  15    0.26    0.67
  -4 -10  15   15.75    1.12
  -4  10  15   15.59    1.19
  -3 -10  15    0.92    0.54
  -3  10  15    1.06    0.59
  -2 -10  15    1.82    0.52
   2  10 -15    1.83    1.00
  -2  10  15    1.11    0.55
  -1 -10  15    1.70    0.51
   1 -10 -15    1.71    0.85
  -1  10  15    1.86    0.54
   1  10 -15    2.81    0.93
   0 -10  15   27.05    1.33
   0 -10 -15   31.43    1.78
   0  10 -15   30.29    1.90
   0  10  15   29.39    1.37
  -1 -10 -15    3.34    0.87
   1 -10  15    2.40    0.64
  -1  10 -15    3.68    0.92
   1  10  15    3.45    0.65
   2 -10  15    3.38    0.77
  -2 -10 -15    0.37    0.86
   2  10  15    1.87    0.62
  -2  10 -15    3.18    0.96
  -3 -10 -15    2.18    0.98
   3 -10  15   -0.40    0.82
   3  10  15    1.32    0.60
  -3  10 -15    3.54    1.05
  -4 -10 -15   14.67    1.84
  -4  10 -15   12.12    1.47
  -5 -10 -15    0.30    1.26
  -5  10 -15    1.32    1.25
  -6 -10 -15    1.68    1.33
  -6  10 -15    0.51    1.40
  -7 -10 -15    0.38    1.72
  -7  10 -15    0.47    1.61
  -8 -11  15    3.61    1.22
  -8  11  15    0.15    1.38
  -7 -11  15    2.19    0.97
  -7  11  15    0.89    1.09
  -6 -11  15    1.96    0.81
  -6  11  15    0.65    0.91
  -5 -11  15   -0.60    0.68
  -5  11  15    0.71    0.77
  -4 -11  15    0.01    0.60
  -4  11  15    0.31    0.68
  -3 -11  15    1.52    0.57
  -3  11  15   -1.01    0.63
  -2 -11  15    0.97    0.60
  -2  11  15    1.56    0.63
  -1 -11  15   -0.34    0.52
   1 -11 -15    0.67    0.87
  -1  11  15    0.46    0.57
   1  11 -15   -0.18    0.84
   0 -11 -15    5.45    1.02
   0 -11  15    3.67    0.62
   0  11  15    3.42    0.69
   0  11 -15    3.22    0.94
  -1 -11 -15    1.81    0.88
   1 -11  15    1.77    0.71
  -1  11 -15    0.82    0.86
   1  11  15    1.66    0.66
   1  11  15    2.05    0.74
   2 -11  15   -0.19    0.80
  -2 -11 -15   -0.91    0.88
  -2  11 -15    0.40    0.90
   2  11  15   -0.12    0.65
   2  11  15    0.71    0.73
  -3 -11 -15    1.99    1.05
   3 -11  15    1.68    0.94
   3  11  15   -0.91    1.02
  -3  11 -15    0.81    0.91
  -4 -11 -15   -0.95    1.18
  -4  11 -15    1.47    1.21
  -5 -11 -15    1.45    1.34
  -5  11 -15    1.74    1.27
  -6 -11 -15   -0.22    1.63
  -6  11 -15   -1.28    1.48
  -7 -11 -15    3.00    1.94
  -7  11 -15   -1.36    1.89
  -7 -12  15    1.60    1.13
  -7  12  15   -0.76    1.25
  -6 -12  15    0.26    0.91
  -6  12  15    0.92    1.07
  -5 -12  15    4.24    0.85
  -5  12  15    3.32    0.98
  -4 -12  15   -0.06    0.69
  -4  12  15    0.12    0.78
  -3 -12  15    3.89    0.79
  -3  12  15    3.12    0.77
  -2 -12  15    5.47    0.79
  -2  12  15    4.48    0.81
  -1 -12  15    4.33    0.78
   1 -12 -15    4.36    1.06
   1  12 -15    4.39    1.03
  -1  12  15    5.36    0.86
   0 -12  15   11.94    1.19
   0 -12 -15   12.29    1.51
   0  12  15   11.38    1.28
   0  12  15   10.80    1.12
   0  12 -15   11.07    1.58
   1 -12  15   -1.52    0.82
  -1 -12 -15    0.79    0.92
  -1  12 -15   -0.79    0.84
   1  12  15   -0.60    0.76
   1  12  15   -1.38    0.70
  -2 -12 -15    2.82    1.08
   2 -12  15    3.93    1.01
   2  12  15    0.95    0.80
  -2  12 -15    0.60    0.90
   2  12  15    2.18    0.78
  -3 -12 -15    3.08    1.18
   3 -12  15    1.21    1.06
  -3  12 -15    0.98    1.09
  -4 -12 -15    8.84    1.50
  -4  12 -15   14.81    2.10
  -5 -12 -15    0.78    1.52
  -5  12 -15   -0.03    1.32
  -6 -12 -15   -0.01    1.78
  -6  12 -15    2.13    1.74
  -6 -13  15    5.60    1.21
  -6  13  15    5.92    1.28
  -5 -13  15   -0.95    0.91
  -5  13  15    0.70    1.04
  -4 -13  15    4.82    0.94
  -4  13  15    4.58    1.03
  -3 -13  15    2.16    0.84
  -3  13  15    1.42    0.85
  -2 -13  15    1.80    0.75
  -2  13  15    2.49    0.85
  -1 -13  15    4.83    0.87
   1 -13 -15    4.36    1.20
   1  13 -15    2.25    1.01
  -1  13  15    4.05    0.86
  -1  13  15    3.26    0.92
   0 -13 -15    0.89    1.10
   0 -13  15    1.98    0.82
   0  13  15    0.86    0.93
   0  13 -15   -0.23    0.93
   0  13  15    1.21    0.84
  -1 -13 -15    3.36    1.14
   1 -13  15    2.63    0.98
  -1  13 -15    3.49    1.04
   1  13  15    3.69    0.93
   1  13  15    1.90    1.02
   2 -13  15    2.76    1.11
  -2 -13 -15    2.81    1.15
  -2  13 -15   -0.43    1.02
   2  13  15    1.10    0.91
   2  13  15    0.73    0.96
   3 -13  15   11.95    1.42
  -3 -13 -15   13.01    1.61
  -3  13 -15   11.80    1.46
  -4 -13 -15    3.39    1.40
  -4  13 -15    1.92    1.32
  -5 -13 -15    0.03    1.67
  -5  13 -15   -0.43    1.47
  -6 -13 -15    0.77    2.00
  -6  13 -15   -0.50    1.84
  -5 -14  15    0.71    1.10
  -5  14  15    1.35    1.21
  -4 -14  15   14.38    1.61
  -4  14  15   11.48    1.35
  -3 -14  15    1.74    0.92
  -3  14  15   -0.22    0.96
  -2 -14  15    5.04    0.99
  -2  14  15    7.13    1.10
  -1 -14  15    2.42    0.94
  -1  14  15    1.90    0.94
  -1  14  15    1.21    1.01
   1  14 -15    2.76    1.16
   0 -14 -15   28.71    2.14
   0 -14  15   26.44    1.82
   0  14  15   25.08    1.87
   0  14 -15   25.47    2.07
   0  14  15   26.31    2.02
  -1 -14 -15   -0.18    1.17
   1 -14  15    1.48    1.09
   1  14  15   -1.27    1.06
  -1  14 -15    0.33    1.11
   1  14  15    1.44    1.00
  -2 -14 -15    1.40    1.22
   2 -14  15    1.21    1.18
   2  14  15    1.18    1.08
   2  14  15    3.04    1.04
  -2  14 -15    2.99    1.15
  -3 -14 -15    0.97    1.36
   3 -14  15    1.11    1.34
  -3  14 -15    2.25    1.32
  -4 -14 -15    7.91    1.71
  -4  14 -15    9.61    1.66
  -5 -14 -15    2.75    1.85
  -5  14 -15    1.20    1.72
  -4 -15  15    0.61    1.16
  -4  15  15    0.72    1.24
  -3 -15  15    5.31    1.15
  -3  15  15    2.13    1.16
  -2 -15  15    3.13    1.04
  -2  15  15    2.08    1.12
  -1 -15  15    1.17    1.05
  -1  15  15    0.17    1.04
  -1  15  15   -2.63    1.08
   0 -15 -15    2.55    1.30
   0 -15  15    2.32    1.10
   0  15 -15   -1.16    1.18
   0  15  15    0.71    1.19
   0  15  15    0.27    1.10
  -1 -15 -15    0.86    1.32
   1 -15  15    2.63    1.29
  -1  15 -15    0.12    1.26
   1  15  15    2.42    1.19
   1  15  15    0.90    1.24
  -2 -15 -15    0.76    1.36
   2 -15  15    1.80    1.40
  -2  15 -15   -0.57    1.32
   2  15  15    0.30    1.12
   2  15  15    0.99    1.23
   3 -15  15    2.50    1.86
  -3 -15 -15    0.11    1.52
  -3  15 -15   -0.20    1.36
  -4 -15 -15    1.99    1.71
  -4  15 -15   -1.66    1.52
  -3  16  15   -3.09    1.33
  -2 -16  15    1.40    1.30
  -2  16  15    1.19    1.30
  -1 -16  15    1.01    1.27
  -1  16  15   -0.55    1.20
  -1  16  15   -0.47    1.31
   0 -16  15    3.13    1.30
   0 -16 -15   -0.80    1.49
   0  16  15   -0.15    1.34
   0  16  15   -0.90    1.18
   0  16 -15   -1.55    1.30
  -1 -16 -15    0.91    1.46
   1 -16  15   -0.67    1.32
  -1  16 -15    0.67    1.35
   1  16  15   -0.26    1.30
   1  16  15    1.13    1.21
   2 -16  15    1.06    1.39
  -2 -16 -15   -0.33    1.64
  -2  16 -15   -0.16    1.39
   2  16  15    0.89    1.40
   2  16  15   -0.76    1.35
  -3 -16 -15    2.95    1.67
  -3  16 -15    1.17    1.55
   0  17  15   -1.35    1.61
   0  17  15    0.63    1.50
  -1 -17 -15    1.97    1.62
   1  17  15    0.50    1.55
   1  17  15   -0.41    1.50
  -1  17 -15   -0.57    1.53
 -11   0  16    4.99    1.51
 -10   0  16   -0.37    1.12
 -10   0  16    1.44    0.99
  -9   0  16    7.34    0.97
  -9   0  16    4.72    1.06
  -8   0  16    1.05    0.72
  -8   0  16    1.53    0.62
  -7   0  16    0.60    0.55
  -6   0  16    6.04    0.65
  -5   0  16    6.82    0.66
  -4   0  16    4.63    0.54
  -3   0  16    6.44    0.55
  -2   0  16   27.77    1.08
   1   0 -16    0.71    0.56
   1   0 -16    1.39    0.52
  -1   0  16    1.46    0.31
   0   0 -16   31.44    1.53
   0   0  16   31.03    1.17
   0   0 -16   29.90    1.40
   1   0  16   22.66    0.87
  -1   0 -16   20.37    1.21
  -1   0 -16   21.91    1.43
  -2   0 -16    0.60    0.70
  -2   0 -16   -0.15    0.64
   2   0  16    0.40    0.25
  -3   0 -16   18.33    1.25
  -3   0 -16   13.81    1.25
  -4   0 -16    4.26    0.84
  -4   0 -16    5.82    0.75
  -5   0 -16   18.00    1.47
  -5   0 -16   12.68    1.17
  -6   0 -16    4.43    0.95
  -6   0 -16    5.94    0.86
  -7   0 -16   25.60    1.70
  -7   0 -16   28.57    2.11
  -8   0 -16    0.35    1.27
  -8   0 -16    1.57    1.21
  -9   0 -16    0.02    1.48
  -9   0 -16   -0.04    1.67
 -11  -1  16    1.15    1.39
 -11   1  16    4.14    1.41
 -10  -1  16    3.65    1.17
 -10  -1  16    2.53    0.98
 -10   1  16    2.38    1.04
 -10   1  16    4.00    1.17
  -9  -1  16    3.24    0.84
  -9  -1  16    3.40    1.01
  -9   1  16    1.75    0.84
  -9   1  16    3.39    1.00
  -8  -1  16    2.54    0.74
  -8  -1  16    2.40    0.64
  -8   1  16    2.13    0.73
  -8   1  16    1.97    0.66
  -7  -1  16    6.21    0.72
  -7  -1  16    7.25    0.97
  -7   1  16    6.91    0.76
  -6  -1  16    1.62    0.49
  -6   1  16    1.53    0.52
  -5  -1  16   25.53    1.12
  -5   1  16   26.00    1.15
  -4  -1  16    2.01    0.39
  -4   1  16    2.46    0.42
  -3  -1  16    7.15    0.57
  -3   1  16    7.19    0.58
  -2  -1  16    0.20    0.29
  -2   1  16    0.08    0.29
   2   1 -16    0.17    0.66
   1  -1 -16    2.76    0.61
   1  -1 -16    2.12    0.50
  -1  -1  16    1.52    0.32
  -1   1  16    1.79    0.33
   1   1 -16    2.39    0.73
   0  -1 -16   21.68    1.17
   0  -1 -16   21.77    1.26
   0  -1  16   23.15    0.93
   0   1 -16   18.93    1.46
   0   1  16   22.95    0.94
   0   1 -16   22.77    1.12
  -1  -1 -16    8.66    1.00
  -1  -1 -16    9.37    1.08
   1  -1  16    9.11    0.58
  -1   1 -16   12.40    1.18
  -1   1 -16    8.84    0.84
   1   1  16    9.64    0.56
   2  -1  16    1.50    0.29
  -2  -1 -16    0.68    0.81
  -2  -1 -16    2.81    0.86
  -2   1 -16    1.45    0.62
   2   1  16    1.37    0.27
  -2   1 -16    1.37    0.66
   3  -1  16   18.42    0.75
  -3  -1 -16   19.62    1.41
  -3  -1 -16   20.35    1.33
  -3   1 -16   20.37    1.38
  -3   1 -16   16.87    1.37
  -4  -1 -16   25.71    1.44
  -4  -1 -16   25.55    1.62
  -4   1 -16   27.49    1.39
  -4   1 -16   26.71    1.61
  -5  -1 -16   -0.91    0.71
  -5  -1 -16    1.01    0.70
  -5   1 -16   -0.11    0.72
  -5   1 -16    1.26    0.65
  -6  -1 -16    4.90    0.85
  -6  -1 -16    5.73    1.00
  -6   1 -16    5.81    0.87
  -6   1 -16    6.83    1.04
  -7  -1 -16    2.69    1.10
  -7  -1 -16    1.47    0.98
  -7   1 -16    2.69    0.96
  -7   1 -16    1.08    1.13
  -8  -1 -16    4.07    1.22
  -8  -1 -16    2.56    1.45
  -8   1 -16    3.27    1.24
  -8   1 -16    3.15    1.29
  -9  -1 -16    0.45    1.75
  -9  -1 -16    2.46    1.47
  -9   1 -16    1.80    1.72
  -9   1 -16   -0.67    1.48
 -10  -2  16    0.75    1.12
 -10  -2  16    0.99    0.98
 -10   2  16    2.06    1.03
 -10   2  16   -0.09    1.08
  -9  -2  16    1.21    0.88
  -9  -2  16    0.51    0.77
  -9   2  16   -0.20    0.83
  -9   2  16    1.18    0.93
  -8  -2  16    0.30    0.68
  -8  -2  16    1.51    0.63
  -8   2  16    0.69    0.68
  -8   2  16    0.35    0.71
  -7  -2  16    5.11    0.67
  -7  -2  16    5.56    0.70
  -7   2  16    5.93    0.75
  -6  -2  16   16.91    0.97
  -6  -2  16   16.74    1.03
  -6   2  16   17.87    1.06
  -5  -2  16    1.64    0.40
  -5   2  16    1.77    0.44
  -4  -2  16    9.14    0.67
  -4   2  16   10.45    0.71
  -3  -2  16    0.96    0.32
  -3   2  16    1.05    0.34
  -2  -2  16   64.68    2.15
  -2   2  16   63.67    2.15
   2   2 -16   66.59    2.56
   1  -2 -16    8.36    1.13
  -1  -2  16    8.12    0.56
   1  -2 -16    7.99    0.82
   1   2 -16    8.87    1.11
  -1   2  16    6.38    0.55
   0  -2 -16   20.70    1.39
   0  -2 -16   21.07    1.15
   0  -2  16   21.09    0.89
   0   2 -16   22.21    1.03
   0   2  16   20.95    0.91
   0   2 -16   22.15    1.40
  -1  -2 -16    5.03    0.92
   1  -2  16    4.70    0.51
  -1  -2 -16    5.35    0.70
  -1   2 -16    4.35    0.77
  -1   2 -16    4.58    0.61
   1   2  16    5.65    0.51
  -2  -2 -16   22.11    1.41
   2  -2  16   21.94    0.87
  -2  -2 -16   24.39    1.45
   2   2  16   21.78    0.85
  -2   2 -16   21.37    1.18
  -2   2 -16   22.02    1.48
   3  -2  16   20.67    0.81
  -3  -2 -16   20.87    1.31
  -3  -2 -16   18.73    1.50
  -3   2 -16   18.89    1.22
  -3   2 -16   20.52    1.43
  -4  -2 -16    3.96    0.83
  -4  -2 -16    4.40    0.79
  -4   2 -16    1.45    0.78
  -4   2 -16    4.28    0.71
  -5  -2 -16    9.59    1.31
  -5  -2 -16   10.05    1.00
  -5   2 -16   10.57    1.06
  -5   2 -16    8.16    1.04
  -6  -2 -16    0.86    0.74
  -6  -2 -16    0.02    0.92
  -6   2 -16    1.38    0.73
  -6   2 -16    2.08    0.86
  -7  -2 -16   11.09    1.28
  -7  -2 -16    8.94    1.35
  -7   2 -16   10.50    1.39
  -7   2 -16   11.60    1.20
  -8  -2 -16    2.01    1.47
  -8  -2 -16    2.24    1.23
  -8   2 -16   -0.78    1.27
  -8   2 -16    0.39    1.19
  -9  -2 -16    1.92    1.80
  -9  -2 -16   -0.80    1.44
  -9   2 -16    0.50    1.65
  -9   2 -16    1.57    1.49
 -10  -3  16   17.23    1.67
 -10  -3  16   17.50    1.91
 -10   3  16   16.27    2.08
 -10   3  16   15.87    1.86
  -9  -3  16    1.24    0.91
  -9  -3  16    3.53    0.84
  -9   3  16    0.44    0.96
  -9   3  16    2.70    0.93
  -8  -3  16    3.10    0.71
  -8  -3  16    3.17    0.77
  -8   3  16    4.32    0.83
  -7  -3  16    1.41    0.61
  -7  -3  16    1.28    0.56
  -7   3  16    1.04    0.61
  -6  -3  16   17.32    1.00
  -6  -3  16   16.49    1.00
  -6   3  16   16.48    1.01
  -5  -3  16   26.86    1.17
  -5   3  16   26.30    1.21
  -4  -3  16    0.09    0.33
  -4   3  16    0.55    0.37
  -3  -3  16   21.50    0.96
  -3   3  16   22.09    0.98
  -2  -3  16    0.30    0.30
  -2   3  16    0.27    0.31
   2   3 -16    0.14    0.60
   1  -3 -16   19.27    1.41
  -1  -3  16   18.49    0.85
   1  -3 -16   21.16    1.04
   1   3 -16   17.75    1.29
  -1   3  16   18.56    0.85
   0  -3 -16    1.67    0.51
   0  -3 -16    2.39    0.74
   0  -3  16    1.46    0.35
   0   3 -16    1.74    0.62
   0   3 -16    1.64    0.39
   0   3  16    1.94    0.36
  -1  -3 -16   26.65    1.50
   1  -3  16   26.55    1.10
  -1  -3 -16   27.91    1.32
  -1   3 -16   25.75    1.49
  -1   3 -16   25.96    1.17
   1   3  16   27.74    1.06
  -2  -3 -16   14.63    1.10
  -2  -3 -16   11.85    1.21
   2  -3  16   12.82    0.68
   2   3  16   12.69    0.64
  -2   3 -16   13.52    1.25
  -2   3 -16   11.38    0.93
  -3  -3 -16    1.40    0.93
  -3  -3 -16    0.40    0.64
   3  -3  16    1.44    0.35
  -3   3 -16    1.05    0.55
  -3   3 -16    0.84    0.68
  -4  -3 -16    5.14    0.83
  -4  -3 -16    2.68    0.86
  -4   3 -16    2.61    0.75
  -4   3 -16    4.06    0.91
  -5  -3 -16    5.52    0.94
  -5  -3 -16    6.13    0.98
  -5   3 -16    9.30    1.02
  -5   3 -16    5.86    1.04
  -6  -3 -16   18.57    1.55
  -6  -3 -16   20.13    1.78
  -6   3 -16   21.80    1.73
  -6   3 -16   18.55    1.43
  -7  -3 -16    2.59    1.20
  -7  -3 -16    6.55    1.13
  -7   3 -16    3.48    1.15
  -7   3 -16    3.66    1.00
  -8  -3 -16    3.88    1.28
  -8  -3 -16    3.56    1.52
  -8   3 -16    1.24    1.35
  -8   3 -16    2.98    1.26
  -9  -3 -16    0.69    1.53
  -9  -3 -16   -1.38    1.77
  -9   3 -16    1.38    1.58
  -9   3 -16   -0.77    1.70
 -10  -4  16    1.39    1.12
 -10  -4  16    1.55    1.09
 -10   4  16    0.96    1.33
 -10   4  16    0.34    1.19
  -9  -4  16    3.35    0.94
  -9  -4  16    3.74    0.91
  -9   4  16    3.81    1.04
  -9   4  16    5.48    1.15
  -8  -4  16    6.06    0.85
  -8  -4  16    6.77    0.81
  -8   4  16    8.32    0.97
  -7  -4  16   14.33    1.06
  -7  -4  16   15.85    1.07
  -7   4  16   14.47    1.16
  -6  -4  16   32.68    1.39
  -6  -4  16   32.42    1.44
  -6   4  16   34.30    1.48
  -5  -4  16    1.68    0.42
  -5  -4  16    1.21    0.45
  -5   4  16    1.37    0.48
  -4  -4  16   13.90    0.82
  -4   4  16   13.10    0.83
  -3  -4  16   11.75    0.73
  -3   4  16   12.15    0.73
  -2  -4  16   51.98    1.77
   2   4 -16   49.22    2.21
  -2   4  16   50.60    1.77
  -1  -4  16   18.01    0.82
   1  -4 -16   17.65    1.37
  -1   4  16   17.97    0.84
   1   4 -16   15.43    1.23
   0  -4 -16    1.73    0.72
   0  -4  16    0.93    0.34
   0  -4 -16    1.58    0.43
   0   4  16    0.82    0.34
   0   4 -16    0.10    0.55
  -1  -4 -16    0.85    0.68
   1  -4  16    0.65    0.37
  -1  -4 -16    0.13    0.45
   1   4  16    0.83    0.38
  -1   4 -16    1.08    0.40
  -1   4 -16    0.23    0.57
   2  -4  16   39.70    1.51
  -2  -4 -16   40.74    1.96
  -2  -4 -16   41.46    1.79
   2   4  16   42.40    1.46
  -2   4 -16   44.20    1.68
  -2   4 -16   46.04    2.08
  -3  -4 -16    7.03    0.93
   3  -4  16    5.94    0.61
  -3  -4 -16    6.13    0.90
  -3   4 -16    5.54    0.88
  -3   4 -16    6.18    0.83
  -4  -4 -16    1.34    0.79
  -4  -4 -16    0.52    0.77
  -4   4 -16    1.17    0.76
  -4   4 -16    1.99    0.75
  -5  -4 -16   -0.05    0.73
  -5  -4 -16    1.62    0.88
  -5   4 -16    1.83    0.69
  -5   4 -16    0.65    0.84
  -6  -4 -16   10.31    1.41
  -6  -4 -16    9.26    1.24
  -6   4 -16    6.42    1.16
  -6   4 -16    9.12    1.03
  -7  -4 -16    1.51    1.05
  -7  -4 -16    1.30    1.22
  -7   4 -16    2.27    1.00
  -7   4 -16    1.50    1.11
  -8  -4 -16    1.50    1.23
  -8  -4 -16   -0.31    1.48
  -8   4 -16    1.28    1.38
  -8   4 -16    1.92    1.72
  -9  -4 -16    3.10    1.63
  -9  -4 -16    3.03    1.85
  -9   4 -16    2.71    1.86
 -10  -5  16   16.78    1.89
 -10   5  16   12.31    1.60
 -10   5  16   17.18    1.90
  -9  -5  16    3.22    1.31
  -9  -5  16    2.93    0.93
  -9   5  16    3.16    1.09
  -9   5  16    5.02    1.27
  -8  -5  16    8.56    1.17
  -8  -5  16    8.68    0.91
  -8   5  16    9.16    1.01
  -7  -5  16    1.00    0.61
  -7  -5  16    1.24    0.59
  -7   5  16    0.76    0.67
  -6  -5  16   10.23    0.91
  -6  -5  16   11.94    0.93
  -6   5  16   12.09    1.05
  -5  -5  16   35.00    1.46
  -5  -5  16   36.71    1.32
  -5   5  16   36.70    1.52
  -4  -5  16    0.17    0.35
  -4  -5  16   -0.18    0.28
  -4   5  16   -0.11    0.38
  -3  -5  16   22.61    1.02
  -3  -5  16   22.62    0.84
  -3   5  16   23.43    1.07
  -2  -5  16    0.49    0.33
  -2   5  16    0.95    0.36
   2   5 -16   -0.62    0.62
  -1  -5  16   13.57    0.75
   1  -5 -16   15.18    1.31
  -1   5  16   13.46    0.77
   1   5 -16   13.31    1.22
   0  -5 -16    0.65    0.41
   0  -5  16   -0.04    0.33
   0  -5 -16    0.89    0.68
   0   5 -16   -0.26    0.58
   0   5  16   -0.63    0.30
  -1  -5 -16    9.55    0.82
  -1  -5 -16    8.79    1.09
   1  -5  16    8.63    0.67
   1   5  16    9.68    0.70
  -1   5 -16    9.65    1.10
   2  -5  16    6.84    0.72
  -2  -5 -16    7.51    0.92
  -2  -5 -16    8.63    1.03
   2   5  16    7.57    0.67
  -2   5 -16    7.51    0.97
  -3  -5 -16    4.45    0.75
   3  -5  16    5.34    0.58
  -3  -5 -16    5.30    0.93
  -3   5 -16    4.88    0.90
  -4  -5 -16    0.76    0.85
  -4  -5 -16    1.65    0.85
  -4   5 -16    0.06    0.78
  -5  -5 -16    2.93    0.92
  -5  -5 -16    3.67    0.95
  -5   5 -16    3.42    0.95
  -6  -5 -16   21.90    1.80
  -6  -5 -16   23.87    1.90
  -6   5 -16   24.85    2.05
  -7  -5 -16    4.00    1.14
  -7  -5 -16    3.64    1.25
  -7   5 -16    0.33    1.15
  -8  -5 -16    2.47    1.51
  -8  -5 -16    2.23    1.42
  -8   5 -16    3.07    1.56
  -9  -5 -16    0.57    1.82
  -9   5 -16   -0.05    1.87
 -10  -6  16    1.42    1.25
 -10   6  16   -1.49    2.16
 -10   6  16   -0.49    1.55
  -9  -6  16   -0.19    0.90
  -9   6  16    0.90    1.03
  -8  -6  16   10.57    1.22
  -8   6  16    9.76    1.12
  -7  -6  16    2.90    0.62
  -7   6  16    2.69    0.74
  -6  -6  16    5.69    0.72
  -6   6  16    5.28    0.78
  -5  -6  16    0.71    0.49
  -5   6  16    1.85    0.55
  -4  -6  16    8.13    0.73
  -4   6  16    8.47    0.78
  -3  -6  16    1.33    0.41
  -3   6  16    0.72    0.43
  -2  -6  16    0.58    0.36
  -2   6  16    1.02    0.38
   2   6 -16   -0.36    0.67
   1  -6 -16    0.62    0.69
  -1  -6  16    0.09    0.32
   1   6 -16    0.63    0.70
  -1   6  16   -0.61    0.35
   0  -6 -16    1.78    0.67
   0  -6  16    2.17    0.41
   0   6  16    1.86    0.42
   0   6 -16    0.27    0.64
  -1  -6 -16    0.35    0.66
   1  -6  16    0.07    0.41
  -1  -6 -16    0.10    0.38
   1   6  16    0.08    0.36
  -1   6 -16   -0.76    0.59
  -2  -6 -16    0.13    0.69
   2  -6  16    1.06    0.47
  -2  -6 -16   -0.13    0.47
   2   6  16   -0.19    0.41
  -2   6 -16   -0.67    0.63
  -3  -6 -16   -0.13    0.78
   3  -6  16   -0.30    0.63
  -3  -6 -16    1.32    0.60
  -3   6 -16   -1.30    0.69
  -4  -6 -16    1.89    0.89
  -4  -6 -16    0.21    0.78
  -4   6 -16    0.59    0.83
  -5  -6 -16    0.06    0.91
  -5  -6 -16    1.13    0.86
  -5   6 -16    1.68    0.92
  -6  -6 -16   -0.14    1.11
  -6  -6 -16    0.53    1.10
  -6   6 -16    0.12    1.10
  -7  -6 -16   -0.04    1.16
  -7   6 -16   -1.07    1.23
  -8  -6 -16    0.52    1.47
  -8   6 -16    0.69    1.62
 -10   7  16   -0.11    1.69
  -9  -7  16    1.93    1.00
  -9   7  16   -0.01    1.15
  -8  -7  16    7.16    0.96
  -8   7  16    7.99    1.15
  -7  -7  16    1.19    0.67
  -7   7  16    0.14    0.72
  -6  -7  16    0.17    0.54
  -6   7  16    1.68    0.66
  -5  -7  16    3.22    0.58
  -5   7  16    2.12    0.64
  -4  -7  16    0.30    0.42
  -4   7  16    1.25    0.50
  -3  -7  16    3.17    0.49
  -3   7  16    1.84    0.49
  -2  -7  16    0.79    0.42
  -2   7  16    0.43    0.41
   2   7 -16   -1.10    0.71
  -1  -7  16    3.29    0.46
   1  -7 -16    2.61    0.80
  -1   7  16    2.82    0.48
   1   7 -16    2.22    0.75
   0  -7 -16   13.80    1.19
   0  -7  16   12.04    0.77
   0   7  16   10.59    0.78
   0   7 -16    8.79    1.18
   1  -7  16    0.13    0.41
  -1  -7 -16   -0.31    0.65
  -1   7 -16   -0.46    0.68
   1   7  16    0.31    0.42
  -2  -7 -16    2.47    0.82
   2  -7  16    2.30    0.53
  -2   7 -16    0.74    0.80
   2   7  16    2.28    0.46
  -3  -7 -16    0.58    0.79
   3  -7  16    2.21    0.66
  -3   7 -16   -0.36    0.82
  -4  -7 -16   14.31    1.53
  -4   7 -16   14.08    1.69
  -5  -7 -16    1.28    0.96
  -5   7 -16   -1.33    1.01
  -6  -7 -16    1.85    1.16
  -6   7 -16    2.31    1.23
  -7  -7 -16    1.87    1.32
  -7   7 -16    0.00    1.35
  -8  -7 -16    4.02    1.76
  -8   7 -16    1.86    1.83
  -9  -8  16    0.76    1.08
  -9   8  16   -2.21    1.33
  -8  -8  16    5.94    1.00
  -8   8  16    7.83    1.25
  -7  -8  16    1.26    0.74
  -7   8  16    1.54    0.84
  -6  -8  16    3.90    0.65
  -6   8  16    2.91    0.75
  -5  -8  16    0.53    0.55
  -5   8  16   -0.40    0.61
  -4  -8  16   20.61    1.13
  -4   8  16   20.88    1.16
  -3  -8  16    0.41    0.44
  -3   8  16    0.27    0.46
  -2  -8  16    4.30    0.55
  -2   8  16    4.85    0.60
   2   8 -16    4.59    1.01
   1  -8 -16    0.12    0.75
  -1  -8  16    0.76    0.42
   1   8 -16    0.06    0.73
  -1   8  16    0.47    0.45
   0  -8 -16   11.07    1.24
   0  -8  16   10.25    0.82
   0   8 -16   12.75    1.38
   0   8  16   11.93    0.86
  -1  -8 -16    0.82    0.73
   1  -8  16    0.67    0.52
  -1   8 -16    0.24    0.75
   1   8  16    1.19    0.49
  -2  -8 -16    3.56    0.91
   2  -8  16    1.78    0.61
   2   8  16    3.04    0.53
  -2   8 -16    2.03    0.87
   3  -8  16    8.91    1.14
  -3  -8 -16    7.45    1.14
  -3   8 -16    7.47    1.22
  -4  -8 -16    0.37    1.00
  -4   8 -16    1.08    0.98
  -5  -8 -16    2.67    1.23
  -5   8 -16    4.49    1.31
  -6  -8 -16    0.15    1.23
  -6   8 -16   -0.78    1.18
  -7  -8 -16    8.50    1.69
  -7   8 -16    7.35    1.67
  -8  -8 -16    4.80    1.82
  -8   8 -16    1.82    1.82
  -8  -9  16    5.34    1.04
  -8   9  16    5.36    1.29
  -7  -9  16    0.14    0.76
  -7   9  16   -1.41    0.91
  -6  -9  16    0.97    0.64
  -6   9  16    1.06    0.80
  -5  -9  16    4.06    0.71
  -5   9  16    4.44    0.77
  -4  -9  16    1.53    0.61
  -4   9  16    0.45    0.61
  -3  -9  16    1.51    0.50
  -3   9  16    1.62    0.55
  -2  -9  16    4.42    0.59
   2   9 -16    4.82    1.07
  -2   9  16    4.00    0.62
  -1  -9  16   10.31    0.85
   1  -9 -16   11.88    1.36
  -1   9  16    9.76    0.87
   1   9 -16   11.18    1.52
   0  -9  16   22.24    1.12
   0  -9 -16   18.82    1.56
   0   9  16   20.44    1.15
   0   9 -16   20.46    1.65
   1  -9  16    2.20    0.59
  -1  -9 -16    2.85    0.90
   1   9  16    0.73    0.53
  -1   9 -16    1.29    0.84
   2  -9  16    2.55    0.70
  -2  -9 -16    0.95    0.86
  -2   9 -16    0.81    0.93
   2   9  16   -0.24    0.53
   3  -9  16    4.93    0.91
  -3  -9 -16    4.92    1.10
  -3   9 -16    7.07    1.25
  -4  -9 -16   22.04    2.01
  -4   9 -16   20.44    2.06
  -5  -9 -16    0.51    1.24
  -5   9 -16   -0.45    1.23
  -6  -9 -16    0.49    1.47
  -6   9 -16   -1.42    1.38
  -7  -9 -16    1.20    1.66
  -7   9 -16    0.24    1.69
  -8  -9 -16    2.50    2.14
  -8 -10  16    1.63    1.08
  -8  10  16   -0.05    1.28
  -7 -10  16    0.84    0.88
  -7  10  16   -0.30    1.06
  -6 -10  16    0.82    0.77
  -6  10  16   -0.59    0.84
  -5 -10  16    1.04    0.70
  -5  10  16    1.70    0.78
  -4 -10  16   27.54    1.41
  -4  10  16   26.10    1.48
  -3 -10  16    1.20    0.59
  -3  10  16    0.59    0.63
  -2 -10  16   10.66    0.96
   2  10 -16    9.04    1.25
  -2  10  16   10.19    1.00
   1 -10 -16    2.61    0.89
  -1 -10  16    2.02    0.57
  -1  10  16    1.94    0.61
   1  10 -16    2.32    0.92
   0 -10 -16   44.08    2.19
   0 -10  16   43.25    1.79
   0  10  16   43.31    1.80
   0  10 -16   45.56    2.31
   1 -10  16    0.35    0.62
  -1 -10 -16    1.08    0.85
  -1  10 -16    1.62    0.86
   1  10  16    1.98    0.65
  -2 -10 -16   11.06    1.26
   2 -10  16   10.40    1.22
  -2  10 -16   11.36    1.58
   2  10  16    9.98    1.03
  -3 -10 -16   18.09    1.80
   3 -10  16   16.28    1.50
  -3  10 -16   15.60    1.81
  -4 -10 -16    6.19    1.46
  -4  10 -16    5.36    1.37
  -5 -10 -16   12.92    1.69
  -5  10 -16   12.51    1.66
  -6 -10 -16   -0.94    1.58
  -6  10 -16   -0.01    1.47
  -7 -10 -16    7.91    2.10
  -7  10 -16    8.21    2.01
  -7 -11  16    2.04    1.03
  -7  11  16    0.51    1.17
  -6 -11  16    0.44    0.88
  -6  11  16   -0.85    0.93
  -5 -11  16    4.40    0.87
  -5  11  16    4.33    0.96
  -4 -11  16    5.98    0.87
  -4  11  16    7.02    0.94
  -3 -11  16    0.61    0.62
  -3  11  16    0.70    0.68
  -2 -11  16    5.69    0.76
  -2  11  16    4.43    0.82
  -1 -11  16   11.06    1.14
   1 -11 -16   13.20    1.57
   1  11 -16   11.79    1.35
  -1  11  16   12.47    1.17
   0 -11 -16    0.11    0.88
   0 -11  16   -0.11    0.63
   0  11 -16   -0.39    0.90
   0  11  16    0.49    0.66
  -1 -11 -16    3.77    0.96
   1 -11  16    5.17    0.84
   1  11  16    2.43    0.74
  -1  11 -16    3.75    1.04
   2 -11  16   24.92    1.62
  -2 -11 -16   20.15    1.77
   2  11  16   23.67    1.40
  -2  11 -16   25.20    1.89
   3 -11  16    5.84    1.06
  -3 -11 -16    6.58    1.32
  -3  11 -16    7.60    1.31
  -4 -11 -16    0.88    1.19
  -4  11 -16    0.91    1.15
  -5 -11 -16    1.27    1.47
  -5  11 -16   -0.28    1.36
  -6 -11 -16   10.57    1.98
  -6  11 -16    9.59    1.93
  -7 -11 -16    0.07    2.09
  -7  11 -16   -0.32    1.96
  -7 -12  16    1.24    1.22
  -7  12  16    1.34    1.34
  -6 -12  16   17.16    1.68
  -6  12  16   14.98    1.82
  -5 -12  16    4.08    0.93
  -5  12  16    2.06    0.99
  -4 -12  16    3.53    0.82
  -4  12  16    3.10    0.92
  -3 -12  16    3.06    0.82
  -3  12  16    2.07    0.82
  -2 -12  16   26.40    1.51
  -2  12  16   27.48    1.57
   1 -12 -16    2.30    1.00
  -1 -12  16    3.30    0.75
  -1  12  16    3.07    0.82
   1  12 -16    2.41    1.03
   0 -12 -16   14.84    1.46
   0 -12  16   10.95    1.07
   0  12 -16   12.05    1.69
   0  12  16   11.14    1.39
  -1 -12 -16   14.64    1.55
   1 -12  16   16.47    1.54
  -1  12 -16   13.95    1.67
   1  12  16   14.71    1.41
  -2 -12 -16    6.52    1.25
   2 -12  16    4.99    1.11
  -2  12 -16    6.63    1.25
   2  12  16    5.28    0.88
   3 -12  16    1.51    1.19
  -3 -12 -16   -1.29    1.12
  -3  12 -16   -0.82    1.04
  -4 -12 -16    8.43    1.66
  -4  12 -16   10.54    1.51
  -5 -12 -16    7.38    1.89
  -5  12 -16   12.28    1.84
  -6 -12 -16    3.82    2.04
  -6  12 -16    1.15    1.88
  -6 -13  16    1.68    1.16
  -6  13  16   -0.45    1.29
  -5 -13  16   -0.90    0.95
  -5  13  16   -0.77    1.01
  -4 -13  16    3.75    0.97
  -4  13  16    4.15    1.04
  -3 -13  16    2.15    0.89
  -3  13  16    3.09    0.96
  -2 -13  16   24.19    1.56
  -2  13  16   24.13    1.66
  -1 -13  16    1.62    0.83
   1 -13 -16    0.98    1.09
  -1  13  16    2.05    0.89
   1  13 -16   -0.49    1.10
   0 -13 -16   13.38    1.48
   0 -13  16   12.66    1.41
   0  13  16   12.23    1.20
   0  13 -16   10.69    1.43
   1 -13  16    2.06    1.04
  -1 -13 -16   -1.48    1.06
   1  13  16   -1.46    0.91
  -1  13 -16   -0.73    1.05
  -2 -13 -16   19.96    1.98
   2 -13  16   23.45    1.93
   2  13  16   21.11    1.70
  -2  13 -16   21.02    2.07
  -3 -13 -16    5.29    1.48
   3 -13  16    7.25    1.84
  -3  13 -16    3.38    1.29
  -4 -13 -16    4.90    1.68
  -4  13 -16    7.76    1.56
  -5 -13 -16    1.48    1.86
  -5  13 -16    1.56    1.72
  -5 -14  16    4.81    1.23
  -5  14  16    3.27    1.31
  -4 -14  16    1.07    1.02
  -4  14  16    0.54    1.11
  -3 -14  16    6.92    1.14
  -3  14  16    9.42    1.25
  -2 -14  16    2.27    0.96
  -2  14  16    1.52    0.98
  -1 -14  16    6.79    1.08
   1  14 -16    5.30    1.23
  -1  14  16    5.65    1.09
   0 -14  16    1.24    1.02
   0 -14 -16    0.49    1.16
   0  14  16   -0.82    1.00
   0  14 -16    1.29    1.10
   1 -14  16   14.58    1.87
  -1 -14 -16   15.45    1.69
  -1  14 -16   16.99    1.90
   1  14  16   13.41    1.43
   1  14  16   15.00    1.38
   2 -14  16    3.22    1.35
  -2 -14 -16    1.79    1.34
   2  14  16    1.01    1.09
  -2  14 -16    0.57    1.21
  -3 -14 -16    3.97    1.53
  -3  14 -16    3.11    1.38
  -4 -14 -16    2.87    1.70
  -4  14 -16    5.26    1.62
  -5 -14 -16    3.21    2.03
  -5  14 -16   -1.36    1.78
  -4 -15  16    0.80    1.37
  -4  15  16   -0.95    1.30
  -3 -15  16    3.53    1.28
  -3  15  16    4.60    1.31
  -2 -15  16    1.13    1.11
  -2  15  16   -0.04    1.07
  -1 -15  16   -0.16    1.07
  -1  15  16    2.25    1.12
   0 -15 -16    0.39    1.31
   0 -15  16    0.71    1.19
   0  15  16    1.39    1.21
   0  15 -16   -0.04    1.27
  -1 -15 -16   -0.68    1.40
   1 -15  16   -0.25    1.24
   1  15  16   -1.48    1.18
   1  15  16   -0.23    1.25
  -1  15 -16   -0.46    1.31
   2 -15  16    3.04    1.47
  -2 -15 -16    0.90    1.48
  -2  15 -16    1.05    1.37
  -3 -15 -16    2.02    1.55
  -3  15 -16    0.47    1.54
  -4 -15 -16   -1.04    1.78
  -4  15 -16   -0.92    1.55
  -2 -16  16    1.86    2.06
  -2  16  16   -0.98    1.33
  -1 -16  16    0.19    1.36
  -1  16  16    0.72    1.37
   0 -16  16   -0.21    1.48
   0  16  16    0.58    1.32
   0  16 -16   -0.07    1.45
   1 -16  16    1.05    1.52
  -1 -16 -16    0.32    1.55
  -1  16 -16   -0.35    1.44
   1  16  16    1.99    1.26
   1  16  16   -0.10    1.34
  -2 -16 -16   -2.54    1.59
   2 -16  16    0.69    1.56
  -2  16 -16   -2.25    1.41
 -10   0  17    0.63    1.18
 -10   0  17    1.99    1.14
  -9   0  17   -0.38    0.80
  -9   0  17   -0.63    0.98
  -8   0  17    0.48    0.77
  -8   0  17    0.42    0.65
  -7   0  17    0.50    0.55
  -6   0  17    0.66    0.45
  -5   0  17    0.00    0.37
  -4   0  17    1.15    0.38
  -3   0  17    0.22    0.34
  -2   0  17    0.02    0.30
   1   0 -17   -0.33    0.54
  -1   0  17    0.25    0.32
   1   0 -17   -0.46    0.70
   0   0 -17   -0.55    0.54
   0   0 -17    0.24    0.71
   0   0  17    0.44    0.32
  -1   0 -17    0.60    0.65
   1   0  17   -0.08    0.33
  -1   0 -17    0.96    0.66
  -2   0 -17    1.08    0.68
  -2   0 -17    0.72    0.84
   2   0  17    0.13    0.28
  -3   0 -17   -0.63    0.62
  -3   0 -17    0.85    0.71
  -4   0 -17    0.92    0.63
  -4   0 -17   -0.60    0.69
  -5   0 -17    2.05    0.74
  -5   0 -17    0.07    0.83
  -6   0 -17   -0.51    0.78
  -6   0 -17   -0.51    0.97
  -7   0 -17    0.24    1.02
  -7   0 -17    0.17    1.20
  -8   0 -17    1.13    1.52
  -8   0 -17    1.54    1.32
  -9   0 -17    0.55    1.83
  -9   0 -17    2.40    1.60
 -10  -1  17   -0.80    1.04
 -10  -1  17    1.63    1.17
 -10   1  17    0.22    1.22
 -10   1  17   -1.27    1.08
  -9  -1  17   -0.68    0.81
  -9  -1  17    0.87    0.99
  -9   1  17    0.35    0.87
  -9   1  17    0.93    1.00
  -8  -1  17    0.75    0.76
  -8  -1  17    1.52    0.65
  -8   1  17    0.85    0.69
  -8   1  17    0.74    0.75
  -7  -1  17    9.24    1.06
  -7  -1  17    9.64    1.00
  -7   1  17   10.86    1.03
  -6  -1  17    0.93    0.48
  -6   1  17    1.35    0.51
  -5  -1  17    0.54    0.41
  -5   1  17    0.76    0.43
  -4  -1  17    0.06    0.35
  -4   1  17    0.33    0.35
  -3  -1  17    9.50    0.68
  -3   1  17   10.45    0.69
  -2  -1  17    0.24    0.30
   2   1 -17    0.22    0.56
  -2   1  17    0.03    0.31
   1  -1 -17   13.46    1.13
   1  -1 -17   12.07    1.15
  -1  -1  17   13.03    0.71
   1   1 -17   15.15    1.19
  -1   1  17   14.38    0.73
   0  -1 -17    1.26    0.70
   0  -1  17    0.37    0.32
   0  -1 -17    0.62    0.63
   0   1 -17    1.86    0.68
   0   1  17    1.14    0.34
   0   1 -17    1.07    0.49
  -1  -1 -17    0.22    0.75
  -1  -1 -17    0.45    0.80
   1  -1  17   -0.18    0.36
  -1   1 -17    0.14    0.51
   1   1  17   -0.04    0.34
  -1   1 -17   -0.08    0.59
  -2  -1 -17    8.24    1.13
  -2  -1 -17    8.75    1.14
   2  -1  17    8.00    0.55
  -2   1 -17   10.38    1.11
   2   1  17    8.34    0.55
  -2   1 -17    8.98    0.98
  -3  -1 -17    2.47    0.71
  -3  -1 -17    0.61    0.73
  -3   1 -17    1.05    0.70
  -3   1 -17    2.09    0.77
  -4  -1 -17    0.60    0.78
  -4  -1 -17    2.31    0.75
  -4   1 -17    0.98    0.74
  -4   1 -17    1.91    0.70
  -5  -1 -17    0.42    0.85
  -5  -1 -17    1.45    0.76
  -5   1 -17    0.90    0.69
  -5   1 -17    1.50    0.89
  -6  -1 -17   10.18    1.15
  -6  -1 -17    9.90    1.34
  -6   1 -17   11.99    1.64
  -6   1 -17   10.93    1.34
  -7  -1 -17    0.60    1.36
  -7  -1 -17    1.63    1.07
  -7   1 -17    2.04    1.23
  -7   1 -17    0.95    1.01
  -8  -1 -17    1.34    1.34
  -8  -1 -17    1.86    1.59
  -8   1 -17    2.98    1.47
  -8   1 -17    0.10    1.26
  -9  -1 -17    1.06    1.65
  -9  -1 -17    1.87    1.86
  -9   1 -17    2.63    1.77
  -9   1 -17    1.09    1.55
 -10  -2  17    0.82    1.08
 -10  -2  17   -1.81    1.12
 -10   2  17    0.14    1.20
 -10   2  17   -1.37    1.11
  -9  -2  17    2.05    1.01
  -9  -2  17    2.07    0.86
  -9   2  17    1.46    0.91
  -9   2  17    1.61    1.02
  -8  -2  17    6.26    0.91
  -8  -2  17    9.13    1.05
  -8   2  17    5.89    0.90
  -7  -2  17    0.92    0.56
  -7  -2  17    0.75    0.64
  -7   2  17    0.92    0.59
  -6  -2  17    1.52    0.52
  -6  -2  17    2.66    0.58
  -6   2  17    2.87    0.59
  -5  -2  17    2.13    0.49
  -5   2  17    2.02    0.48
  -4  -2  17    7.15    0.64
  -4   2  17    7.61    0.66
  -3  -2  17   12.64    0.76
  -3   2  17   13.80    0.77
  -2  -2  17   13.42    0.72
  -2   2  17   12.42    0.72
   2   2 -17   14.45    1.22
  -1  -2  17   35.91    1.36
   1  -2 -17   36.47    1.86
   1  -2 -17   39.04    1.62
   1   2 -17   37.23    1.80
  -1   2  17   37.40    1.36
   0  -2  17    7.28    0.58
   0  -2 -17    8.25    0.96
   0  -2 -17    6.75    0.92
   0   2 -17    7.42    0.75
   0   2  17    8.89    0.61
   0   2 -17    7.47    0.89
  -1  -2 -17    2.90    0.78
   1  -2  17    4.01    0.47
  -1  -2 -17    4.38    0.72
  -1   2 -17    3.36    0.57
  -1   2 -17    4.09    0.73
   1   2  17    3.66    0.45
  -2  -2 -17   20.40    1.64
   2  -2  17   20.16    0.89
  -2  -2 -17   21.04    1.44
  -2   2 -17   23.26    1.47
  -2   2 -17   22.57    1.26
   2   2  17   21.65    0.87
  -3  -2 -17   69.45    2.74
  -3  -2 -17   68.39    2.64
  -3   2 -17   63.89    2.62
  -3   2 -17   66.30    2.78
  -4  -2 -17    0.26    0.67
  -4  -2 -17    0.37    0.82
  -4   2 -17   -1.14    0.64
  -4   2 -17   -0.23    0.78
  -5  -2 -17   -0.85    0.75
  -5  -2 -17    0.60    0.93
  -5   2 -17    0.91    0.86
  -5   2 -17    0.61    0.73
  -6  -2 -17   -0.08    0.90
  -6  -2 -17   -0.65    1.04
  -6   2 -17    1.89    0.96
  -6   2 -17    0.64    0.86
  -7  -2 -17    5.44    1.21
  -7  -2 -17    4.80    1.42
  -7   2 -17    7.37    1.21
  -7   2 -17    4.74    1.27
  -8  -2 -17    3.15    1.56
  -8  -2 -17    1.90    1.29
  -8   2 -17    1.16    1.40
  -8   2 -17    0.14    1.31
  -9  -2 -17    2.30    1.96
  -9  -2 -17    0.24    1.59
  -9   2 -17   -0.36    1.57
  -9   2 -17    1.35    1.78
 -10  -3  17    1.29    1.14
 -10  -3  17   -0.84    1.17
 -10   3  17   -0.38    1.34
 -10   3  17   -1.15    1.22
  -9  -3  17   -0.38    0.95
  -9  -3  17    1.22    0.82
  -9   3  17    0.80    1.04
  -9   3  17    0.29    0.92
  -8  -3  17    1.57    0.77
  -8  -3  17   -0.10    0.64
  -8   3  17    0.85    0.75
  -7  -3  17   14.83    1.10
  -7  -3  17   14.02    1.05
  -7   3  17   13.28    1.13
  -6  -3  17    1.10    0.52
  -6  -3  17    0.39    0.51
  -6   3  17    1.04    0.55
  -5  -3  17    0.83    0.44
  -5   3  17    0.16    0.42
  -4  -3  17    1.13    0.40
  -4   3  17    1.25    0.43
  -3  -3  17   13.75    0.77
  -3   3  17   12.08    0.78
  -2  -3  17    2.63    0.40
   2   3 -17    1.82    0.69
  -2   3  17    2.01    0.40
   1  -3 -17   20.98    1.46
  -1  -3  17   20.98    0.93
  -1   3  17   20.52    0.94
   1   3 -17   22.49    1.41
   0  -3  17    8.53    0.61
   0  -3 -17    9.66    0.88
   0  -3 -17    9.53    1.04
   0   3 -17    7.51    0.67
   0   3  17    8.53    0.62
   0   3 -17    8.47    1.09
   1  -3  17    0.38    0.36
  -1  -3 -17    0.26    0.66
  -1  -3 -17   -0.17    0.50
  -1   3 -17    0.67    0.46
  -1   3 -17    0.78    0.62
   1   3  17    0.31    0.38
   2  -3  17   13.48    0.77
  -2  -3 -17   11.20    1.21
  -2  -3 -17   14.12    1.31
   2   3  17   12.87    0.68
  -2   3 -17   13.98    0.99
  -2   3 -17   13.06    1.35
  -3  -3 -17    3.46    0.90
  -3  -3 -17    3.52    0.86
  -3   3 -17    5.19    0.74
  -3   3 -17    3.94    0.90
  -4  -3 -17    2.11    0.80
  -4  -3 -17    0.76    0.85
  -4   3 -17    0.15    0.79
  -4   3 -17   -0.19    0.70
  -5  -3 -17    0.03    0.78
  -5  -3 -17   -0.89    0.92
  -5   3 -17    0.97    0.76
  -5   3 -17   -1.11    0.78
  -6  -3 -17   23.72    1.71
  -6  -3 -17   20.36    2.03
  -6   3 -17   24.05    1.66
  -6   3 -17   22.40    1.95
  -7  -3 -17    0.91    1.27
  -7  -3 -17   -0.49    1.06
  -7   3 -17    2.11    1.22
  -7   3 -17    1.06    1.08
  -8  -3 -17    0.13    1.54
  -8  -3 -17    0.97    1.34
  -8   3 -17   -0.81    1.44
  -8   3 -17    0.48    1.41
  -9  -3 -17    0.41    1.85
  -9  -3 -17    0.22    1.71
  -9   3 -17    2.08    1.89
 -10  -4  17    1.73    1.22
 -10   4  17    0.47    1.39
 -10   4  17    0.91    1.30
  -9  -4  17    0.05    0.85
  -9  -4  17    0.54    0.92
  -9   4  17   -0.22    1.01
  -9   4  17   -0.39    1.14
  -8  -4  17    0.61    0.77
  -8  -4  17    0.10    0.66
  -8   4  17    0.31    0.78
  -7  -4  17    0.66    0.62
  -7  -4  17    0.11    0.55
  -7   4  17   -0.61    0.60
  -6  -4  17    0.18    0.52
  -6  -4  17    0.76    0.51
  -6   4  17    0.31    0.57
  -5  -4  17    0.45    0.46
  -5  -4  17    0.92    0.45
  -5   4  17    1.12    0.46
  -4  -4  17   14.64    0.86
  -4   4  17   13.52    0.86
  -3  -4  17    0.66    0.37
  -3   4  17    0.34    0.39
  -2  -4  17    3.59    0.44
  -2   4  17    4.79    0.57
   2   4 -17    3.04    0.78
   1  -4 -17    9.30    1.18
  -1  -4  17    8.32    0.64
   1   4 -17   11.50    1.16
  -1   4  17   10.20    0.68
   0  -4  17   13.90    0.78
   0  -4 -17   13.44    1.19
   0  -4 -17   14.69    0.93
   0   4  17   15.03    0.79
   0   4 -17   13.75    1.18
  -1  -4 -17    0.68    0.52
  -1  -4 -17    0.33    0.69
   1  -4  17   -0.06    0.37
  -1   4 -17    0.01    0.64
  -1   4 -17    0.03    0.46
   1   4  17    0.33    0.36
  -2  -4 -17    0.89    0.63
   2  -4  17    1.08    0.51
  -2  -4 -17    0.22    0.76
  -2   4 -17    0.58    0.55
   2   4  17    0.89    0.38
  -2   4 -17    0.65    0.69
  -3  -4 -17   18.67    1.47
  -3  -4 -17   17.75    1.66
  -3   4 -17   19.02    1.22
  -3   4 -17   16.63    1.48
  -4  -4 -17    3.69    0.86
  -4  -4 -17   -0.19    0.85
  -4   4 -17    0.85    0.86
  -4   4 -17    1.12    0.91
  -5  -4 -17    2.79    0.90
  -5  -4 -17    4.47    1.06
  -5   4 -17    2.67    0.99
  -5   4 -17    3.13    0.89
  -6  -4 -17   -0.80    0.95
  -6  -4 -17    1.87    1.16
  -6   4 -17    1.33    1.09
  -6   4 -17   -0.47    1.12
  -7  -4 -17    0.94    1.32
  -7  -4 -17    3.14    1.20
  -7   4 -17    1.58    1.27
  -8  -4 -17    0.28    1.46
  -8  -4 -17    2.23    1.55
  -8   4 -17    2.15    1.58
 -10   5  17   -1.54    1.45
  -9  -5  17    1.14    0.91
  -9   5  17    0.63    1.06
  -8  -5  17    0.73    0.75
  -8   5  17   -0.68    0.84
  -7  -5  17    0.19    0.58
  -7   5  17    0.74    0.69
  -6  -5  17    0.95    0.55
  -6   5  17    1.18    0.65
  -5  -5  17    1.06    0.47
  -5   5  17    0.01    0.46
  -4  -5  17    3.62    0.54
  -4   5  17    4.99    0.59
  -3  -5  17    0.44    0.39
  -3   5  17    0.10    0.40
  -2  -5  17    0.95    0.37
   2   5 -17    2.86    0.78
  -2   5  17    1.41    0.41
  -1  -5  17    0.78    0.35
   1  -5 -17   -0.32    0.70
   1   5 -17   -0.33    0.65
  -1   5  17    0.54    0.37
   0  -5 -17   14.21    1.25
   0  -5 -17   14.74    0.88
   0  -5  17   12.38    0.77
   0   5 -17   11.60    1.24
   0   5  17   13.32    0.80
  -1  -5 -17    3.37    0.54
   1  -5  17    3.29    0.48
  -1  -5 -17    3.22    0.80
   1   5  17    3.03    0.44
  -1   5 -17    2.47    0.77
  -2  -5 -17    3.08    0.62
   2  -5  17    3.19    0.52
  -2  -5 -17    2.49    0.81
   2   5  17    3.29    0.49
  -2   5 -17    1.63    0.76
  -3  -5 -17    0.07    0.80
  -3  -5 -17   -0.32    0.78
  -3   5 -17    0.21    0.74
  -4  -5 -17   18.88    1.60
  -4  -5 -17   18.08    1.54
  -4   5 -17   16.55    1.67
  -5  -5 -17    0.38    0.90
  -5  -5 -17    0.73    0.99
  -5   5 -17    2.56    1.00
  -6  -5 -17    1.75    1.21
  -6  -5 -17    0.83    1.14
  -6   5 -17    2.02    1.20
  -7  -5 -17   -0.33    1.18
  -7  -5 -17    1.01    1.34
  -7   5 -17    0.31    1.39
  -8  -5 -17    7.71    1.74
  -8   5 -17    4.54    1.75
 -10   6  17   -0.73    1.66
  -9  -6  17    1.80    1.02
  -9   6  17   -0.88    1.11
  -8  -6  17    8.36    1.03
  -8   6  17    9.85    1.18
  -7  -6  17    0.34    0.63
  -7   6  17   -0.44    0.73
  -6  -6  17    0.26    0.53
  -6   6  17   -1.07    0.59
  -5  -6  17    0.26    0.50
  -5   6  17    0.06    0.57
  -4  -6  17    6.01    0.72
  -4   6  17    5.09    0.62
  -3  -6  17    2.32    0.46
  -3   6  17    1.70    0.44
  -2  -6  17    0.70    0.41
   2   6 -17    0.98    0.80
  -2   6  17    0.72    0.43
  -1  -6  17    0.13    0.37
   1  -6 -17    0.77    0.76
  -1   6  17    0.64    0.39
   1   6 -17    1.08    0.69
   0  -6  17    1.56    0.43
   0  -6 -17    2.65    0.80
   0   6 -17    0.98    0.68
   0   6  17    2.52    0.45
  -1  -6 -17    3.05    0.79
   1  -6  17    3.80    0.52
  -1  -6 -17    4.03    0.58
  -1   6 -17    3.16    0.77
   1   6  17    4.48    0.51
  -2  -6 -17    8.39    0.91
  -2  -6 -17    8.54    1.10
   2  -6  17    6.98    0.80
   2   6  17    8.63    0.73
  -2   6 -17    7.47    1.01
  -3  -6 -17    0.04    0.78
   3  -6  17    2.63    1.09
  -3  -6 -17    1.30    0.85
  -3   6 -17    0.58    0.81
  -4  -6 -17    1.39    0.91
  -4   6 -17    0.38    0.87
  -5  -6 -17   14.60    1.45
  -5   6 -17   10.10    1.37
  -6  -6 -17    3.92    1.23
  -6   6 -17    2.85    1.22
  -7  -6 -17    0.66    1.37
  -7   6 -17    0.74    1.44
  -8  -6 -17    2.23    1.73
  -8   6 -17    1.07    1.82
  -9  -7  17    2.03    1.17
  -9   7  17    1.26    1.29
  -8  -7  17   -0.30    0.84
  -8   7  17    0.85    1.04
  -7  -7  17    2.49    0.73
  -7   7  17    1.17    0.81
  -6  -7  17    0.98    0.59
  -6   7  17    0.14    0.66
  -5  -7  17    2.44    0.62
  -5   7  17    1.64    0.63
  -4  -7  17    1.96    0.51
  -4   7  17    1.37    0.54
  -3  -7  17   -0.33    0.42
  -3   7  17   -0.45    0.43
  -2  -7  17   13.86    0.88
   2   7 -17   17.58    1.63
  -2   7  17   15.11    0.92
  -1  -7  17    0.65    0.44
   1  -7 -17    0.04    0.82
  -1   7  17    0.66    0.44
   1   7 -17    0.45    0.77
   0  -7 -17    2.86    0.84
   0  -7  17    3.76    0.51
   0   7 -17    3.30    0.78
   0   7  17    2.53    0.52
  -1  -7 -17    1.91    0.78
   1  -7  17    1.50    0.50
  -1   7 -17    1.87    0.79
   1   7  17    1.11    0.49
   2  -7  17   11.14    0.95
  -2  -7 -17   11.19    1.39
  -2   7 -17   10.78    1.42
   2   7  17   10.61    0.83
   3  -7  17   -1.04    1.18
  -3  -7 -17   -0.44    0.86
  -3   7 -17    0.54    0.89
  -4  -7 -17   11.88    1.62
  -4   7 -17   14.75    1.80
  -5  -7 -17    3.93    1.30
  -5   7 -17    1.17    1.26
  -6   7 -17   -0.99    1.22
  -7  -7 -17    0.05    1.48
  -7   7 -17   -1.44    1.54
  -8  -7 -17    5.96    1.90
  -8   7 -17    2.48    1.98
  -9  -8  17    0.62    1.25
  -8  -8  17    0.28    0.89
  -8   8  17    2.42    1.15
  -7  -8  17    1.88    0.80
  -7   8  17    2.55    0.93
  -6  -8  17    4.62    0.77
  -6   8  17    3.45    0.85
  -5  -8  17    0.75    0.59
  -5   8  17    0.90    0.63
  -4  -8  17    5.25    0.68
  -4   8  17    6.37    0.76
  -3  -8  17    8.13    0.82
  -3   8  17    7.30    0.83
  -2  -8  17   13.01    0.88
  -2   8  17   11.11    0.94
   2   8 -17   12.52    1.42
  -1  -8  17    0.84    0.46
   1  -8 -17    0.82    0.87
   1   8 -17    1.44    0.89
  -1   8  17    0.99    0.49
   0  -8  17    5.44    0.65
   0  -8 -17    6.82    1.02
   0   8 -17    6.51    1.05
   0   8  17    6.26    0.65
  -1  -8 -17   25.90    1.69
   1  -8  17   26.94    1.31
   1   8  17   28.51    1.29
  -1   8 -17   25.94    1.86
  -2  -8 -17    0.32    0.87
   2  -8  17    0.44    0.62
  -2   8 -17    0.66    0.86
   2   8  17   -0.09    0.50
  -3  -8 -17    0.36    0.98
   3  -8  17    0.91    0.99
  -3   8 -17    1.96    0.97
  -4  -8 -17    3.41    1.16
  -4   8 -17    1.66    1.12
  -5  -8 -17    4.58    1.38
  -5   8 -17    3.98    1.37
  -6  -8 -17    0.31    1.34
  -6   8 -17   -0.94    1.36
  -7  -8 -17   -0.66    1.67
  -7   8 -17    0.30    1.73
  -8  -8 -17   -0.09    2.01
  -8  -9  17    1.18    1.06
  -8   9  17    4.52    1.32
  -7  -9  17    0.82    0.81
  -7   9  17   -0.19    1.02
  -6  -9  17    2.31    0.77
  -6   9  17    2.88    0.92
  -5  -9  17    2.51    0.70
  -5   9  17    1.76    0.73
  -4  -9  17    0.07    0.54
  -4   9  17    0.01    0.62
  -3  -9  17    0.29    0.57
  -3   9  17    0.08    0.60
  -2  -9  17    8.34    0.84
  -2   9  17    9.65    0.92
   2   9 -17    9.53    1.36
  -1  -9  17    1.28    0.51
   1  -9 -17   -1.07    0.87
  -1   9  17    1.49    0.53
   1   9 -17    0.83    0.92
   0  -9  17    0.37    0.55
   0  -9 -17    1.81    0.92
   0   9 -17   -0.03    0.87
   0   9  17    0.97    0.53
  -1  -9 -17    2.91    0.95
   1  -9  17    2.69    0.69
   1   9  17    2.29    0.61
  -1   9 -17    3.75    0.99
  -2  -9 -17    6.02    1.11
  -2   9 -17    5.36    1.08
   2   9  17    3.76    0.64
  -3  -9 -17    1.63    1.03
  -3   9 -17    2.06    1.07
  -4  -9 -17    1.03    1.30
  -4   9 -17   -0.38    1.25
  -5  -9 -17    2.66    1.34
  -5   9 -17    3.59    1.34
  -6  -9 -17   -0.51    1.55
  -6   9 -17   -2.35    1.48
  -7  -9 -17    1.61    1.93
  -7   9 -17    2.59    1.91
  -8 -10  17    2.00    1.20
  -8  10  17    2.39    1.53
  -7 -10  17    6.61    1.07
  -7  10  17    4.94    1.19
  -6 -10  17    1.54    0.79
  -6  10  17    0.51    0.92
  -5 -10  17    8.07    0.91
  -5  10  17    8.38    1.00
  -4 -10  17    9.12    1.08
  -4  10  17    7.30    0.92
  -3 -10  17   10.72    1.09
  -3  10  17   14.71    1.19
  -2 -10  17    0.72    0.61
  -2  10  17    0.92    0.70
  -1 -10  17    3.27    0.65
   1 -10 -17    6.04    1.05
  -1  10  17    3.14    0.66
   1  10 -17    5.40    1.08
   0 -10  17    7.92    1.04
   0 -10 -17   11.17    1.49
   0  10  17    9.31    1.08
   0  10 -17   12.99    1.60
   1 -10  17    0.18    0.69
  -1 -10 -17    3.18    0.97
   1  10  17    2.18    0.68
  -1  10 -17    1.60    0.96
   2 -10  17   -0.42    0.78
  -2 -10 -17    1.11    0.98
   2  10  17    0.78    0.64
  -2  10 -17   -0.37    0.97
  -3 -10 -17   -0.30    1.11
  -3  10 -17    0.65    1.14
  -4 -10 -17    0.88    1.28
  -4  10 -17    2.30    1.29
  -5 -10 -17    2.52    1.47
  -5  10 -17    5.42    1.53
  -6 -10 -17    2.51    1.75
  -6  10 -17    2.91    1.74
  -7 -10 -17   -1.14    2.06
  -7  10 -17   -0.36    2.02
  -7 -11  17    1.14    1.16
  -7  11  17   -1.65    1.21
  -6 -11  17    5.45    1.04
  -6  11  17    4.45    1.17
  -5 -11  17    0.95    0.83
  -5  11  17    0.98    0.90
  -4 -11  17    0.60    0.74
  -4  11  17    1.07    0.83
  -3 -11  17    5.71    0.82
  -3  11  17    5.79    0.86
  -2 -11  17    2.86    0.71
  -2  11  17    1.58    0.72
  -1 -11  17    4.13    0.76
   1 -11 -17    4.06    1.09
  -1  11  17    3.60    0.80
   1  11 -17    3.01    1.09
   0 -11 -17   -1.05    0.98
   0 -11  17   -0.05    0.74
   0  11 -17   -0.05    0.93
   0  11  17   -0.08    0.74
   1 -11  17    5.68    0.93
  -1 -11 -17    5.31    1.15
   1  11  17    5.78    0.84
  -1  11 -17    4.83    1.10
   2 -11  17   13.77    1.52
  -2 -11 -17   11.77    1.47
   2  11  17   10.61    1.22
  -2  11 -17   13.73    1.54
  -3 -11 -17    5.45    1.33
  -3  11 -17    2.89    1.20
  -4 -11 -17    2.92    1.39
  -4  11 -17    3.42    1.35
  -5 -11 -17    1.24    1.72
  -5  11 -17    1.77    1.49
  -6 -11 -17    7.38    2.03
  -6  11 -17    0.58    1.91
  -6 -12  17    3.98    1.11
  -6  12  17    4.66    1.30
  -5 -12  17    1.28    0.93
  -5  12  17   -1.44    0.99
  -4 -12  17    1.58    0.86
  -4  12  17    1.48    0.93
  -3 -12  17   -0.67    0.73
  -3  12  17    0.46    0.81
  -2 -12  17   18.26    1.39
  -2  12  17   19.55    1.48
  -1 -12  17    1.16    0.72
   1 -12 -17    0.51    1.12
  -1  12  17   -0.59    0.79
   1  12 -17    1.08    1.14
   0 -12  17    1.99    0.88
   0 -12 -17    0.80    1.15
   0  12 -17   -0.05    1.07
   0  12  17    0.68    0.84
   1 -12  17   12.01    1.53
  -1 -12 -17   10.84    1.47
   1  12  17    9.86    1.10
  -1  12 -17   11.00    1.47
  -2 -12 -17    1.54    1.12
   2 -12  17    2.47    1.12
  -2  12 -17    1.59    1.10
   2  12  17    1.31    0.88
  -3 -12 -17    2.67    1.26
  -3  12 -17    1.62    1.20
  -4 -12 -17    2.01    1.52
  -4  12 -17   -0.96    1.36
  -5 -12 -17    6.01    1.95
  -5  12 -17    5.27    1.82
  -6 -12 -17    0.90    2.09
  -6  12 -17    1.59    1.96
  -5 -13  17    3.93    1.14
  -5  13  17    1.70    1.23
  -4 -13  17    0.50    0.97
  -4  13  17   -0.56    0.96
  -3 -13  17    1.76    0.97
  -3  13  17    1.68    0.98
  -2 -13  17    5.53    0.97
  -2  13  17    3.12    1.01
  -1 -13  17    0.94    0.85
  -1  13  17   -0.26    0.92
   1  13 -17    1.94    1.17
   0 -13  17    0.66    0.98
   0 -13 -17   -0.34    1.05
   0  13  17    1.33    0.95
   0  13 -17    1.63    1.18
  -1 -13 -17    0.53    1.14
   1 -13  17    1.33    1.13
   1  13  17   -0.30    0.93
  -1  13 -17   -0.57    1.05
   2 -13  17    4.92    1.26
  -2 -13 -17    5.78    1.38
  -2  13 -17    1.64    1.25
  -3 -13 -17    1.23    1.45
  -3  13 -17    2.44    1.34
  -4 -13 -17    1.89    1.71
  -4  13 -17    1.15    1.58
  -5 -13 -17   -0.11    1.90
  -5  13 -17    0.86    1.76
  -4 -14  17    3.22    1.22
  -4  14  17    1.00    1.23
  -3 -14  17    3.19    1.09
  -3  14  17    0.38    1.09
  -2 -14  17    3.19    1.02
  -2  14  17    1.40    1.07
  -1 -14  17    3.64    1.05
  -1  14  17    2.01    1.11
   0 -14 -17    1.23    1.32
   0 -14  17    2.35    1.17
   0  14  17    0.92    1.07
   0  14 -17    3.12    1.32
  -1 -14 -17    5.31    1.49
   1 -14  17    2.89    1.29
   1  14  17    4.35    1.12
  -1  14 -17    4.71    1.38
  -2 -14 -17    1.33    1.44
   2 -14  17    0.89    1.35
  -2  14 -17   -0.47    1.26
  -3 -14 -17    0.08    1.53
  -3  14 -17   -0.24    1.44
  -4 -14 -17    0.62    1.80
  -4  14 -17   -0.70    1.62
  -3 -15  17    0.68    1.25
  -3  15  17   -1.28    1.30
  -2 -15  17    0.69    1.23
  -2  15  17   -0.11    1.17
  -1 -15  17    2.05    1.21
  -1  15  17   -0.80    1.15
   0 -15 -17   -1.02    1.42
   0 -15  17    0.52    1.27
   0  15  17    0.30    1.22
   0  15 -17   -2.01    1.36
  -1 -15 -17   -0.18    1.42
   1 -15  17    0.24    1.34
  -1  15 -17   -1.82    1.39
   1  15  17    0.45    1.18
   2 -15  17    1.50    1.37
  -2 -15 -17    2.10    1.66
  -2  15 -17    3.23    1.58
  -3 -15 -17    1.17    1.62
  -3  15 -17    1.15    1.58
  -1  16  17   -0.13    1.38
   0 -16  17    0.00    1.60
   0  16  17   -0.03    1.38
   0  16 -17   -0.33    1.59
  -1 -16 -17    1.29    1.66
   1 -16  17    0.10    1.76
   1  16  17   -1.45    1.32
  -1  16 -17   -0.68    1.59
 -10   0  18    5.93    1.40
 -10   0  18    8.33    1.41
  -9   0  18   -0.45    1.03
  -9   0  18    0.97    0.90
  -8   0  18   47.33    2.01
  -8   0  18   43.81    2.09
  -7   0  18    1.27    0.63
  -6   0  18    6.76    0.72
  -5   0  18   22.44    1.11
  -4   0  18   37.35    1.46
  -3   0  18    3.09    0.44
  -2   0  18    4.00    0.45
  -1   0  18  166.92    5.15
   1   0 -18  167.61    5.47
   0   0 -18    4.52    0.77
   0   0 -18    4.51    0.74
   0   0  18    3.48    0.43
   1   0  18   22.80    0.99
  -1   0 -18   21.96    1.48
  -1   0 -18   22.77    1.43
  -2   0 -18    1.85    0.72
  -2   0 -18    1.16    0.72
   2   0  18    1.91    0.36
  -3   0 -18   76.68    3.04
  -3   0 -18   73.85    2.82
  -4   0 -18    7.78    0.92
  -4   0 -18   10.67    1.53
  -5   0 -18    2.26    0.84
  -5   0 -18    0.90    0.95
  -6   0 -18    5.74    1.08
  -6   0 -18    7.54    1.28
  -7   0 -18    5.45    1.33
  -7   0 -18    3.21    1.49
  -8   0 -18    4.27    1.54
  -8   0 -18    4.01    1.75
 -10  -1  18   -0.13    1.26
 -10  -1  18   -0.19    1.23
 -10   1  18    1.11    1.23
 -10   1  18   -0.26    1.31
  -9  -1  18    6.68    1.18
  -9  -1  18    7.32    1.06
  -9   1  18    8.21    1.25
  -9   1  18    6.54    1.07
  -8  -1  18    7.86    0.90
  -8  -1  18    9.14    1.06
  -8   1  18    9.24    0.96
  -8   1  18    8.99    1.09
  -7  -1  18    8.96    0.98
  -7  -1  18    8.16    0.91
  -7   1  18   10.20    1.04
  -6  -1  18    1.87    0.56
  -6   1  18    0.36    0.56
  -5  -1  18   33.97    1.40
  -5   1  18   31.87    1.39
  -4  -1  18   89.24    2.90
  -4   1  18   85.90    2.89
  -3  -1  18    1.46    0.38
  -3   1  18    0.88    0.36
  -2  -1  18    6.41    0.58
  -2   1  18    6.15    0.58
   1  -1 -18   12.47    1.30
  -1  -1  18   10.84    0.71
   1  -1 -18   13.75    1.28
   1   1 -18   13.69    1.14
  -1   1  18   10.78    0.71
   0  -1 -18   60.83    2.42
   0  -1 -18   58.56    2.43
   0  -1  18   59.84    2.01
   0   1  18   59.64    2.00
   0   1 -18   60.83    2.39
   0   1 -18   57.61    2.17
   1  -1  18    1.61    0.41
  -1  -1 -18    3.23    0.73
  -1  -1 -18    2.15    0.72
  -1   1 -18    1.80    0.69
   1   1  18    2.69    0.44
  -1   1 -18    2.91    0.63
  -2  -1 -18   16.01    1.30
  -2  -1 -18   16.79    1.39
   2  -1  18   17.00    0.80
  -2   1 -18   12.54    1.45
   2   1  18   17.85    0.77
  -2   1 -18   17.70    1.43
  -3  -1 -18    6.89    0.94
  -3  -1 -18    9.05    1.10
  -3   1 -18    7.43    0.93
  -3   1 -18    7.70    1.02
  -4  -1 -18    0.03    0.92
  -4  -1 -18    1.63    0.77
  -4   1 -18    2.63    0.74
  -4   1 -18    2.85    0.89
  -5  -1 -18    1.98    0.84
  -5  -1 -18    1.92    1.06
  -5   1 -18    0.90    0.96
  -5   1 -18    0.35    0.86
  -6  -1 -18    1.97    1.00
  -6  -1 -18    0.95    1.20
  -6   1 -18    1.87    1.16
  -6   1 -18    3.67    1.00
  -7  -1 -18    3.48    1.56
  -7  -1 -18    6.62    1.36
  -7   1 -18    9.85    1.39
  -7   1 -18    9.06    1.53
  -8  -1 -18    0.26    1.70
  -8  -1 -18    1.44    1.49
  -8   1 -18    2.21    1.45
  -8   1 -18    1.08    1.68
 -10  -2  18    1.28    1.25
 -10  -2  18    1.81    1.23
 -10   2  18   -1.82    1.38
 -10   2  18    1.30    1.32
  -9  -2  18    0.83    1.04
  -9  -2  18    0.59    0.88
  -9   2  18    0.72    0.93
  -9   2  18    2.10    1.16
  -8  -2  18   21.59    1.52
  -8  -2  18   19.97    1.37
  -8   2  18   19.53    1.41
  -7  -2  18    1.42    0.67
  -7  -2  18    0.02    0.58
  -7   2  18    0.65    0.60
  -6  -2  18    1.16    0.54
  -6   2  18    1.56    0.62
  -5  -2  18   16.83    0.97
  -5   2  18   17.82    1.03
  -4  -2  18   24.24    1.10
  -4   2  18   23.49    1.10
  -3  -2  18    0.26    0.35
  -3   2  18    0.41    0.37
  -2  -2  18    1.90    0.39
   2   2 -18    0.91    0.68
  -2   2  18    1.57    0.38
  -1  -2  18   67.20    2.21
   1  -2 -18   66.68    2.52
   1  -2 -18   66.21    2.57
  -1   2  18   66.80    2.21
   1   2 -18   63.48    2.60
   0  -2 -18    0.63    0.65
   0  -2  18    0.44    0.35
   0  -2 -18   -0.56    0.65
   0   2  18    0.94    0.37
   0   2 -18    0.44    0.63
   0   2 -18    0.41    0.46
  -1  -2 -18    0.48    0.84
  -1  -2 -18   -1.51    0.60
   1  -2  18   -0.25    0.36
  -1   2 -18    0.19    0.49
   1   2  18    0.49    0.37
  -1   2 -18   -0.87    0.60
  -2  -2 -18    0.11    0.73
  -2  -2 -18    0.98    0.71
   2  -2  18    0.54    0.40
  -2   2 -18    0.80    0.71
   2   2  18    0.32    0.33
  -2   2 -18    0.96    0.66
  -3  -2 -18   30.66    1.83
  -3  -2 -18   28.23    1.66
  -3   2 -18   25.52    1.66
  -3   2 -18   29.66    1.81
  -4  -2 -18    6.71    0.95
  -4  -2 -18    6.75    1.14
  -4   2 -18    5.17    0.87
  -4   2 -18    5.27    1.08
  -5  -2 -18    0.13    0.79
  -5  -2 -18    1.85    1.09
  -5   2 -18    0.19    0.82
  -5   2 -18    3.23    1.04
  -6  -2 -18    1.75    1.28
  -6  -2 -18   -1.46    1.01
  -6   2 -18   -0.52    1.19
  -6   2 -18    0.15    1.02
  -7  -2 -18    1.70    1.14
  -7  -2 -18    0.58    1.52
  -7   2 -18    0.47    1.23
  -7   2 -18    0.35    1.32
  -8  -2 -18    6.76    1.67
  -8  -2 -18    3.11    1.79
  -8   2 -18    3.23    1.58
  -8   2 -18    5.77    1.80
 -10  -3  18   -0.49    1.24
 -10   3  18    0.41    1.42
  -9  -3  18    4.30    1.00
  -9  -3  18    2.02    1.05
  -9   3  18    3.50    1.25
  -9   3  18    3.10    1.06
  -8  -3  18   -0.24    0.72
  -8  -3  18    1.14    0.79
  -8   3  18    1.51    0.84
  -7  -3  18    0.51    0.67
  -7  -3  18    1.01    0.60
  -7   3  18    0.52    0.65
  -6  -3  18    8.87    0.95
  -6  -3  18    7.46    0.90
  -6   3  18    9.31    1.02
  -5  -3  18    1.74    0.48
  -5   3  18    1.74    0.49
  -4  -3  18    9.51    0.75
  -4   3  18    7.60    0.73
  -3  -3  18    1.87    0.42
  -3   3  18    0.66    0.41
  -2  -3  18   14.74    0.83
   2   3 -18   15.58    1.39
  -2   3  18   15.26    0.84
  -1  -3  18    1.06    0.37
   1  -3 -18    1.76    0.69
  -1   3  18    1.99    0.40
   1   3 -18    2.39    0.73
   0  -3  18   41.13    1.49
   0  -3 -18   40.10    1.69
   0  -3 -18   40.17    1.85
   0   3  18   40.07    1.48
   0   3 -18   40.78    1.95
   1  -3  18    1.32    0.40
  -1  -3 -18    2.50    0.70
  -1  -3 -18    1.76    0.66
  -1   3 -18    1.66    0.51
  -1   3 -18    0.59    0.75
   1   3  18    1.93    0.41
   2  -3  18    4.06    0.52
  -2  -3 -18    4.88    0.86
  -2  -3 -18    5.88    0.93
  -2   3 -18    6.39    0.72
  -2   3 -18    3.39    0.80
   2   3  18    4.36    0.46
  -3  -3 -18    4.87    0.92
  -3  -3 -18    6.03    0.96
  -3   3 -18    6.21    0.96
  -3   3 -18    4.37    0.94
  -4  -3 -18   22.81    1.60
  -4  -3 -18   24.33    1.91
  -4   3 -18   25.36    1.58
  -4   3 -18   25.41    1.88
  -5  -3 -18    1.87    0.93
  -5  -3 -18    0.54    1.11
  -5   3 -18    0.63    0.97
  -5   3 -18    1.37    0.91
  -6  -3 -18   -0.33    1.07
  -6  -3 -18    0.33    1.20
  -6   3 -18   -1.48    1.19
  -6   3 -18   -0.58    1.01
  -7  -3 -18    3.33    1.60
  -7  -3 -18    5.06    1.34
  -7   3 -18    4.40    1.68
  -7   3 -18    3.43    1.45
  -8  -3 -18    2.82    1.60
  -8  -3 -18    1.54    1.70
  -8   3 -18    2.93    1.71
 -10   4  18   17.82    2.39
  -9  -4  18    1.61    1.00
  -9   4  18    0.12    1.07
  -9   4  18    2.11    1.31
  -8  -4  18   -0.37    1.11
  -8  -4  18    1.03    0.78
  -8   4  18   -0.34    0.83
  -7  -4  18    0.12    0.63
  -7  -4  18    0.61    0.64
  -7   4  18    0.12    0.69
  -6  -4  18   15.52    1.01
  -6  -4  18   16.11    1.11
  -6   4  18   16.04    1.15
  -5  -4  18    7.94    0.79
  -5  -4  18    7.12    0.79
  -5   4  18    5.98    0.70
  -4  -4  18    0.69    0.45
  -4   4  18    0.59    0.45
  -3  -4  18    0.86    0.40
  -3   4  18    0.00    0.40
  -2  -4  18    2.03    0.42
   2   4 -18    2.17    0.77
  -2   4  18    2.36    0.43
  -1  -4  18    0.89    0.37
   1  -4 -18    1.16    0.73
   1   4 -18    0.46    0.66
  -1   4  18    0.60    0.38
   0  -4 -18    2.61    0.56
   0  -4  18    2.35    0.45
   0  -4 -18    3.32    0.78
   0   4  18    2.75    0.46
   0   4 -18    3.22    0.76
  -1  -4 -18   10.75    1.14
   1  -4  18    8.30    0.71
  -1  -4 -18    7.71    0.96
   1   4  18    8.18    0.70
  -1   4 -18    9.12    1.20
  -2  -4 -18    5.17    0.89
  -2  -4 -18    5.62    0.93
   2  -4  18    5.59    0.70
  -2   4 -18    6.10    0.98
   2   4  18    7.54    0.71
  -3  -4 -18   -0.09    0.78
  -3  -4 -18    0.31    0.86
  -3   4 -18    0.06    0.83
  -4  -4 -18    1.26    0.98
  -4  -4 -18    3.72    0.94
  -4   4 -18    1.88    0.97
  -5  -4 -18    3.61    1.14
  -5  -4 -18    1.31    0.98
  -5   4 -18    2.69    1.07
  -6  -4 -18   13.86    1.79
  -6  -4 -18    9.39    1.46
  -6   4 -18   12.04    1.58
  -7  -4 -18   -0.81    1.27
  -7  -4 -18    0.11    1.49
  -7   4 -18    0.15    1.39
  -8  -4 -18    3.09    1.68
  -8  -4 -18   -1.09    1.75
  -8   4 -18    2.04    1.80
 -10   5  18   -1.67    1.55
  -9  -5  18    0.61    1.01
  -9   5  18    1.44    1.19
  -8  -5  18    1.06    0.81
  -8   5  18    0.02    0.92
  -7  -5  18   11.89    1.17
  -7   5  18   12.26    1.32
  -6  -5  18    3.32    0.66
  -6   5  18    4.66    0.74
  -5  -5  18    1.55    0.55
  -5   5  18    2.28    0.59
  -4  -5  18    1.22    0.45
  -4   5  18    2.36    0.50
  -3  -5  18    4.46    0.50
  -3   5  18    4.07    0.52
  -2  -5  18   13.72    0.83
   2   5 -18   13.20    1.43
  -2   5  18   14.30    0.85
  -1  -5  18    7.46    0.67
   1  -5 -18    7.59    1.02
   1   5 -18    9.08    1.20
  -1   5  18    7.70    0.72
   0  -5 -18    4.43    0.86
   0  -5  18    3.33    0.50
   0  -5 -18    3.10    0.52
   0   5  18    3.78    0.50
   0   5 -18    2.95    0.77
  -1  -5 -18    0.66    0.73
   1  -5  18   -0.20    0.43
  -1  -5 -18    0.30    0.50
  -1   5 -18   -0.57    0.68
   1   5  18    1.16    0.44
   2  -5  18   29.93    1.27
  -2  -5 -18   30.40    1.52
  -2  -5 -18   32.65    1.77
   2   5  18   30.30    1.25
  -2   5 -18   31.90    1.91
  -3  -5 -18    1.98    0.90
  -3  -5 -18    0.43    0.93
  -3   5 -18    1.76    0.89
  -4  -5 -18   13.54    1.58
  -4  -5 -18   12.22    1.28
  -4   5 -18   13.25    1.70
  -5  -5 -18    3.66    1.07
  -5  -5 -18    3.85    1.12
  -5   5 -18    7.27    1.33
  -6  -5 -18    2.05    1.30
  -6  -5 -18    3.30    1.26
  -6   5 -18    4.09    1.35
  -7  -5 -18    4.53    1.45
  -7   5 -18    2.92    1.61
  -8  -5 -18    1.85    1.81
  -8   5 -18    2.51    1.87
  -9  -6  18    0.87    1.12
  -9   6  18    0.90    1.32
  -8  -6  18    0.12    0.85
  -8   6  18    0.44    0.99
  -7  -6  18    1.51    0.70
  -7   6  18    0.51    0.80
  -6  -6  18    3.32    0.65
  -6   6  18    3.72    0.77
  -5  -6  18   -0.09    0.49
  -5   6  18    1.55    0.60
  -4  -6  18    6.32    0.77
  -4   6  18    6.93    0.81
  -3  -6  18    4.18    0.53
  -3   6  18    4.27    0.59
  -2  -6  18    1.78    0.44
   2   6 -18    1.64    0.88
  -2   6  18    1.82    0.47
  -1  -6  18    4.85    0.55
   1  -6 -18    6.65    1.01
  -1   6  18    4.75    0.58
   1   6 -18    3.92    0.87
   0  -6  18    3.21    0.53
   0  -6 -18    2.98    0.83
   0   6 -18    3.56    0.87
   0   6  18    3.59    0.53
  -1  -6 -18   10.01    1.09
   1  -6  18   10.15    0.85
   1   6  18    9.97    0.82
  -1   6 -18    9.43    1.33
  -2  -6 -18    5.22    0.96
   2  -6  18    4.91    0.61
   2   6  18    2.56    0.49
  -2   6 -18    3.56    0.91
  -3  -6 -18    1.10    0.89
  -3   6 -18    0.28    0.86
  -4  -6 -18    0.33    1.00
  -4   6 -18   -0.16    0.95
  -5  -6 -18    9.95    1.40
  -5   6 -18    8.25    1.50
  -6  -6 -18    8.62    1.49
  -6   6 -18    7.43    1.60
  -7  -6 -18    1.53    1.53
  -7   6 -18    1.31    1.64
  -8  -6 -18    1.25    1.86
  -8   6 -18    3.02    1.94
  -9  -7  18    1.77    1.75
  -8  -7  18    1.13    0.93
  -8   7  18   -0.06    1.07
  -7  -7  18   11.41    1.29
  -7   7  18    9.73    1.16
  -6  -7  18   -0.11    0.65
  -6   7  18    0.17    0.73
  -5  -7  18    0.87    0.55
  -5   7  18    1.33    0.63
  -4  -7  18    0.87    0.56
  -4   7  18    1.38    0.61
  -3  -7  18    6.98    0.78
  -3   7  18    7.23    0.82
  -2  -7  18    7.88    0.79
  -2   7  18    7.13    0.68
   2   7 -18    7.22    1.13
   1  -7 -18   -0.19    0.80
  -1  -7  18    0.52    0.43
   1   7 -18   -0.06    0.83
  -1   7  18    0.96    0.47
   0  -7 -18    1.70    0.83
   0  -7  18    1.54    0.51
   0   7  18    1.50    0.51
   0   7 -18    0.62    0.82
  -1  -7 -18    2.14    0.83
   1  -7  18    1.39    0.55
  -1   7 -18    1.12    0.86
   1   7  18    2.86    0.54
   2  -7  18   16.77    1.14
  -2  -7 -18   19.04    1.59
  -2   7 -18   20.73    1.72
   2   7  18   18.09    1.02
  -3  -7 -18    0.15    0.91
  -3   7 -18    0.13    0.99
  -4  -7 -18    6.20    1.21
  -4   7 -18    2.41    1.16
  -5  -7 -18   28.74    2.22
  -5   7 -18   24.94    2.40
  -6  -7 -18    1.95    1.52
  -6   7 -18    2.55    1.51
  -7  -7 -18    1.52    1.71
  -7   7 -18    0.87    1.74
  -8  -8  18    2.59    1.08
  -8   8  18    1.23    1.23
  -7  -8  18    5.23    0.93
  -7   8  18    4.75    1.07
  -6  -8  18    2.99    0.77
  -6   8  18    1.63    0.82
  -5  -8  18    2.50    0.67
  -5   8  18    2.42    0.74
  -4  -8  18   -0.04    0.54
  -4   8  18   -0.02    0.60
  -3  -8  18   35.13    1.56
  -3   8  18   35.70    1.59
  -2  -8  18    0.74    0.51
   2   8 -18    0.99    0.99
  -2   8  18   -0.21    0.53
  -1  -8  18    0.81    0.50
   1  -8 -18   -0.49    0.88
   1   8 -18   -1.09    0.84
  -1   8  18   -0.44    0.50
   0  -8 -18    5.04    1.02
   0  -8  18    4.39    0.65
   0   8 -18    2.91    1.01
   0   8  18    4.60    0.66
   1  -8  18   53.82    2.09
  -1  -8 -18   54.52    2.47
   1   8  18   54.05    2.04
  -1   8 -18   60.49    2.70
   2  -8  18    6.15    0.78
  -2  -8 -18    4.37    1.07
  -2   8 -18    5.18    1.05
   2   8  18    5.30    0.64
  -3  -8 -18    0.17    0.99
  -3   8 -18    1.41    1.05
  -4  -8 -18    2.19    1.29
  -4   8 -18    2.43    1.35
  -5  -8 -18   13.00    1.70
  -5   8 -18   12.95    1.69
  -6  -8 -18    0.42    1.48
  -6   8 -18   -0.39    1.60
  -7  -8 -18    3.39    1.96
  -7   8 -18   -0.45    1.91
  -8  -9  18   -0.61    1.12
  -8   9  18    1.28    1.41
  -7  -9  18    5.25    1.00
  -7   9  18    4.13    1.11
  -6  -9  18    9.54    1.03
  -6   9  18    7.96    1.08
  -5  -9  18    1.38    0.71
  -5   9  18    0.80    0.77
  -4  -9  18    5.30    0.74
  -4   9  18    5.59    0.82
  -3  -9  18    0.38    0.57
  -3   9  18    0.62    0.64
  -2  -9  18   32.22    1.50
  -2   9  18   30.20    1.53
   1  -9 -18    3.44    1.02
  -1  -9  18    4.38    0.65
   1   9 -18    4.03    1.07
  -1   9  18    3.04    0.64
   0  -9 -18    1.32    0.94
   0  -9  18    0.07    0.62
   0   9 -18    1.22    0.96
   0   9  18    0.39    0.58
   1  -9  18   12.68    1.17
  -1  -9 -18   13.44    1.48
  -1   9 -18   17.72    1.75
   1   9  18   13.36    1.12
  -2  -9 -18   10.42    1.32
   2  -9  18    9.56    1.20
  -2   9 -18    9.45    1.34
   2   9  18    8.88    1.02
  -3  -9 -18   -0.03    1.13
  -3   9 -18    1.83    1.16
  -4  -9 -18    1.88    1.25
  -4   9 -18    0.55    1.24
  -5  -9 -18   14.99    1.90
  -5   9 -18   14.62    1.91
  -6  -9 -18    4.04    1.86
  -6   9 -18   -0.94    1.70
  -7  -9 -18    1.31    2.06
  -7   9 -18   -0.80    1.97
  -7 -10  18    2.62    1.11
  -7  10  18    3.00    1.22
  -6 -10  18   13.44    1.51
  -6  10  18   14.48    1.72
  -5 -10  18    1.14    0.80
  -5  10  18    1.27    0.90
  -4 -10  18    6.35    0.82
  -4  10  18    3.47    0.84
  -3 -10  18   23.08    1.33
  -3  10  18   19.54    1.40
  -2 -10  18    1.13    0.66
  -2  10  18    1.46    0.70
   1 -10 -18    2.46    1.03
  -1 -10  18    0.90    0.64
  -1  10  18    1.84    0.72
   1  10 -18    1.60    1.04
   0 -10 -18    0.04    0.99
   0 -10  18    0.70    0.72
   0  10  18   -0.86    0.63
   0  10 -18    0.48    0.97
   1 -10  18   16.99    1.30
  -1 -10 -18   19.11    1.72
  -1  10 -18   18.88    1.81
   1  10  18   15.52    1.28
  -2 -10 -18    4.60    1.23
   2 -10  18    4.55    0.91
   2  10  18    4.20    1.16
  -2  10 -18    3.27    1.20
  -3 -10 -18    0.67    1.22
  -3  10 -18    1.74    1.21
  -4 -10 -18   -0.60    1.31
  -4  10 -18    0.24    1.31
  -5 -10 -18   -0.09    1.62
  -5  10 -18   -0.69    1.47
  -6 -10 -18    1.23    1.97
  -6  10 -18    3.32    1.90
  -6 -11  18   15.01    1.71
  -6  11  18   14.43    1.86
  -5 -11  18    1.58    0.95
  -5  11  18    0.83    0.97
  -4 -11  18    1.16    0.81
  -4  11  18    0.82    0.90
  -3 -11  18    0.62    0.76
  -3  11  18    1.13    0.80
  -2 -11  18   32.00    1.64
  -2  11  18   34.40    1.72
  -1 -11  18    1.80    0.75
   1 -11 -18    1.00    1.16
   1  11 -18    2.06    1.21
  -1  11  18    1.38    0.79
   0 -11 -18    0.30    1.11
   0 -11  18    0.77    0.80
   0  11 -18    0.17    1.09
   0  11  18    3.07    0.83
  -1 -11 -18   -1.40    1.07
   1 -11  18    1.18    0.94
  -1  11 -18   -1.75    1.10
   1  11  18    0.13    0.74
  -2 -11 -18    7.40    1.31
   2 -11  18    5.03    1.13
  -2  11 -18    6.75    1.30
  -3 -11 -18    3.63    1.32
  -3  11 -18    6.32    1.31
  -4 -11 -18    0.21    1.52
  -4  11 -18    1.40    1.46
  -5 -11 -18    0.58    1.82
  -5  11 -18    2.38    1.69
  -6 -11 -18    2.58    2.11
  -6  11 -18   -4.22    1.86
  -6 -12  18    9.62    1.39
  -6  12  18    9.43    1.50
  -5 -12  18    2.03    1.00
  -5  12  18    1.22    1.08
  -4 -12  18    1.44    0.91
  -4  12  18   -0.24    0.98
  -3 -12  18   -0.07    0.83
  -3  12  18    0.08    0.89
  -2 -12  18    6.81    1.02
  -2  12  18    6.96    1.02
   1 -12 -18    3.11    1.22
  -1 -12  18    3.61    0.90
  -1  12  18    3.03    0.91
   1  12 -18    1.61    1.31
   0 -12  18    0.77    0.89
   0 -12 -18    0.05    1.08
   0  12  18    0.35    0.86
   0  12 -18   -0.71    1.13
  -1 -12 -18    2.12    1.14
   1 -12  18    2.46    1.02
   1  12  18    1.28    0.91
  -1  12 -18    1.11    1.12
   2 -12  18    1.68    1.11
  -2 -12 -18    1.24    1.20
  -2  12 -18    1.12    1.17
  -3 -12 -18    0.13    1.34
  -3  12 -18    0.24    1.26
  -4 -12 -18   -0.19    1.62
  -4  12 -18   -0.05    1.51
  -5 -12 -18   -1.77    1.85
  -5  12 -18    3.11    1.90
  -5 -13  18    0.89    1.20
  -5  13  18   -0.29    1.26
  -4 -13  18    1.10    1.01
  -4  13  18    0.72    1.07
  -3 -13  18    4.32    1.03
  -3  13  18    4.18    1.08
  -2 -13  18    1.74    0.92
  -2  13  18   -1.18    0.93
  -1 -13  18    5.52    1.02
  -1  13  18    2.39    1.01
   1  13 -18    5.12    1.38
   0 -13 -18    0.16    1.26
   0 -13  18    1.28    1.07
   0  13  18   -1.40    0.95
   0  13 -18    0.10    1.22
  -1 -13 -18    9.02    1.55
   1 -13  18    9.00    1.34
   1  13  18    6.72    1.13
  -1  13 -18    6.11    1.35
  -2 -13 -18    2.06    1.39
   2 -13  18    3.83    1.28
  -2  13 -18    1.97    1.32
  -3 -13 -18    3.15    1.57
  -3  13 -18    1.99    1.46
  -4 -13 -18   -0.05    1.84
  -4  13 -18   -0.74    1.63
  -4 -14  18    0.44    1.18
  -4  14  18    0.83    1.25
  -3 -14  18   -0.32    1.14
  -3  14  18   -0.09    1.14
  -2 -14  18    4.45    1.12
  -2  14  18    0.88    1.10
  -1 -14  18    1.83    1.09
  -1  14  18    0.79    1.14
   0 -14  18    3.63    1.23
   0 -14 -18   -0.17    1.41
   0  14  18    0.16    1.14
   0  14 -18   -0.01    1.30
   1 -14  18    4.29    1.34
  -1 -14 -18    0.35    1.48
  -1  14 -18    0.63    1.33
   1  14  18    1.29    1.12
  -2 -14 -18    1.33    1.52
   2 -14  18    0.17    1.58
  -2  14 -18    3.39    1.54
  -3 -14 -18   -0.90    1.65
  -3  14 -18   -0.50    1.54
  -2 -15  18    1.22    1.34
  -2  15  18   -0.16    1.33
  -1 -15  18    0.71    1.37
  -1  15  18   -0.91    1.29
   0 -15 -18    2.42    1.59
   0 -15  18    1.34    1.41
   0  15  18    0.55    1.17
   0  15 -18    1.21    1.56
  -1 -15 -18    0.62    1.55
   1 -15  18    0.06    1.34
  -1  15 -18   -1.06    1.49
   1  15  18    0.05    1.33
  -2 -15 -18   -1.31    1.66
  -2  15 -18    0.54    1.61
 -10   0  19   -0.82    1.34
  -9   0  19    2.01    0.96
  -9   0  19    0.73    1.13
  -8   0  19    1.25    0.95
  -8   0  19    0.61    0.77
  -7   0  19    0.56    0.65
  -6   0  19   -0.38    0.51
  -5   0  19    1.09    0.49
  -4   0  19    1.44    0.43
  -3   0  19    0.94    0.38
  -2   0  19    0.26    0.35
   1   0 -19    0.31    0.61
  -1   0  19    1.20    0.39
   0   0 -19   -0.37    0.79
   0   0 -19   -0.85    0.62
   0   0  19   -0.69    0.38
   1   0  19    0.15    0.40
  -1   0 -19    0.35    0.68
  -1   0 -19    0.91    0.69
   2   0  19   -0.07    0.39
  -2   0 -19    0.20    0.70
  -2   0 -19   -0.02    0.73
  -3   0 -19    0.22    0.81
  -3   0 -19    0.07    0.70
  -4   0 -19    0.71    0.75
  -4   0 -19    0.03    0.96
  -5   0 -19    0.11    0.96
  -5   0 -19    0.10    1.09
  -6   0 -19   -1.43    1.06
  -6   0 -19   -0.50    1.40
  -7   0 -19   -0.99    1.32
  -7   0 -19   -0.93    1.66
  -8   0 -19   -0.34    1.59
  -8   0 -19   -1.52    1.92
 -10  -1  19   -0.49    1.29
 -10   1  19   -0.15    1.32
  -9  -1  19    2.58    0.97
  -9  -1  19    1.74    1.11
  -9   1  19    2.29    1.00
  -9   1  19    1.50    1.13
  -8  -1  19    0.93    0.76
  -8  -1  19    1.30    0.88
  -8   1  19    1.37    0.79
  -8   1  19    1.07    1.06
  -7  -1  19    2.70    0.84
  -7  -1  19    3.66    0.71
  -7   1  19    2.64    0.72
  -6  -1  19    5.50    0.71
  -6   1  19    7.81    0.95
  -5  -1  19    0.54    0.47
  -5   1  19    0.16    0.46
  -4  -1  19    9.36    0.78
  -4   1  19    8.39    0.75
  -3  -1  19    3.07    0.46
  -3   1  19    2.62    0.45
  -2  -1  19    6.21    0.65
  -2   1  19    6.58    0.64
   1  -1 -19    2.52    0.72
   1  -1 -19    1.63    0.68
  -1  -1  19    1.15    0.40
  -1   1  19    2.15    0.42
   1   1 -19    0.99    0.66
   0  -1 -19   20.84    1.31
   0  -1  19   20.34    0.98
   0  -1 -19   20.66    1.39
   0   1 -19   20.29    1.28
   0   1 -19   20.99    1.40
   0   1  19   21.22    0.97
  -1  -1 -19    3.27    0.74
  -1  -1 -19    3.83    0.76
   1  -1  19    2.97    0.45
  -1   1 -19    2.32    0.77
   1   1  19    1.68    0.44
  -1   1 -19    2.37    0.81
  -2  -1 -19    0.65    0.66
   2  -1  19   -0.16    0.40
  -2  -1 -19    1.29    0.80
  -2   1 -19    0.16    0.74
   2   1  19   -0.37    0.39
  -2   1 -19    0.19    0.71
  -3  -1 -19   -0.49    0.84
  -3  -1 -19   -0.02    0.71
  -3   1 -19    2.90    0.78
  -3   1 -19    0.78    0.84
  -4  -1 -19    1.98    1.06
  -4  -1 -19    0.74    0.82
  -4   1 -19    2.38    0.97
  -4   1 -19    1.09    0.92
  -5  -1 -19    2.70    0.93
  -5  -1 -19    1.68    1.18
  -5   1 -19    0.88    1.10
  -5   1 -19    1.81    0.98
  -6  -1 -19    1.67    1.39
  -6  -1 -19   -0.41    1.11
  -6   1 -19   -0.80    1.33
  -6   1 -19    1.26    1.17
  -7  -1 -19    0.50    1.37
  -7  -1 -19    1.74    1.71
  -7   1 -19   -0.19    1.36
  -7   1 -19   -1.37    1.56
  -8  -1 -19    2.11    1.60
  -8  -1 -19   -1.44    1.90
  -8   1 -19    0.62    1.65
  -8   1 -19    0.41    1.94
 -10  -2  19   -2.73    1.27
 -10   2  19   -1.12    1.44
  -9  -2  19    0.66    1.04
  -9  -2  19    2.67    1.02
  -9   2  19    0.15    1.27
  -9   2  19    0.18    1.05
  -8  -2  19    0.16    0.84
  -8  -2  19    1.49    0.79
  -8   2  19   -0.12    0.84
  -7  -2  19    1.08    0.74
  -7  -2  19    0.70    0.63
  -7   2  19    0.36    0.66
  -6  -2  19    0.36    0.53
  -6   2  19    0.92    0.57
  -5  -2  19    6.48    0.79
  -5   2  19    4.93    0.66
  -4  -2  19    0.52    0.41
  -4   2  19    0.48    0.43
  -3  -2  19   58.66    2.05
  -3   2  19   58.39    2.05
  -2  -2  19    0.99    0.41
  -2   2  19    0.92    0.39
   2   2 -19    1.58    0.71
   1  -2 -19    5.46    0.81
  -1  -2  19    5.19    0.52
   1  -2 -19    5.62    0.81
  -1   2  19    5.07    0.53
   1   2 -19    7.87    1.12
   0  -2 -19   11.96    1.24
   0  -2 -19   12.91    1.16
   0  -2  19   11.95    0.79
   0   2  19   12.16    0.79
   0   2 -19   11.65    0.90
   0   2 -19   13.12    1.26
   1  -2  19   44.75    1.61
  -1  -2 -19   43.00    1.95
  -1  -2 -19   43.82    2.04
  -1   2 -19   46.12    1.81
  -1   2 -19   45.62    2.10
   1   2  19   45.09    1.60
  -2  -2 -19    1.09    0.74
   2  -2  19    0.66    0.44
  -2  -2 -19    1.82    0.72
   2   2  19   -0.32    0.42
  -2   2 -19    0.38    0.82
  -2   2 -19    0.18    0.71
  -3  -2 -19    0.99    0.76
  -3  -2 -19    0.45    0.88
  -3   2 -19   -0.21    0.82
  -3   2 -19    1.65    0.81
  -4  -2 -19   18.81    1.87
  -4  -2 -19   17.15    1.51
  -4   2 -19   19.58    1.58
  -4   2 -19   16.46    1.69
  -5  -2 -19    5.38    1.10
  -5  -2 -19    4.92    1.33
  -5   2 -19    6.38    1.11
  -5   2 -19    5.33    1.24
  -6  -2 -19    5.92    1.28
  -6  -2 -19    2.09    1.39
  -6   2 -19    2.79    1.42
  -6   2 -19    2.56    1.21
  -7  -2 -19   -0.79    1.66
  -7  -2 -19   -3.01    1.34
  -7   2 -19    0.55    1.51
  -7   2 -19   -1.09    1.47
  -8  -2 -19   -1.96    1.67
  -8  -2 -19   -0.68    1.98
  -8   2 -19    0.05    1.91
 -10   3  19    0.87    1.54
  -9  -3  19    2.70    1.04
  -9   3  19    0.73    1.11
  -9   3  19   -0.80    1.22
  -8  -3  19    1.53    0.86
  -8  -3  19    2.07    0.83
  -8   3  19    0.38    0.86
  -7  -3  19    1.11    0.65
  -7  -3  19    0.98    0.72
  -7   3  19    1.54    0.75
  -6  -3  19    6.65    0.74
  -6  -3  19    7.49    0.94
  -6   3  19    6.36    0.79
  -5  -3  19    0.83    0.50
  -5   3  19    1.20    0.55
  -4  -3  19   -0.50    0.40
  -4   3  19   -0.21    0.40
  -3  -3  19    3.08    0.48
  -3   3  19    3.56    0.50
  -2  -3  19    2.21    0.44
  -2   3  19    1.71    0.45
   2   3 -19    2.07    0.78
  -1  -3  19    6.27    0.67
   1  -3 -19    7.44    0.93
  -1   3  19    6.38    0.68
   1   3 -19    6.52    0.93
   0  -3 -19   17.66    1.30
   0  -3  19   20.03    0.96
   0  -3 -19   17.55    1.34
   0   3  19   20.21    0.98
   0   3 -19   18.25    1.45
  -1  -3 -19    1.39    0.73
  -1  -3 -19   -0.29    0.76
   1  -3  19   -0.43    0.41
  -1   3 -19    0.77    0.63
  -1   3 -19    0.32    0.70
   1   3  19    0.90    0.40
   2  -3  19    0.83    0.43
  -2  -3 -19    1.70    0.80
  -2  -3 -19    1.86    0.82
   2   3  19    0.87    0.43
  -2   3 -19    1.56    0.81
  -2   3 -19    1.33    0.77
  -3  -3 -19   -0.56    0.89
  -3  -3 -19   -0.79    0.80
  -3   3 -19    0.57    1.03
  -3   3 -19   -0.03    0.88
  -4  -3 -19    4.35    1.03
  -4  -3 -19    4.40    1.11
  -4   3 -19    4.75    1.20
  -4   3 -19    4.55    1.04
  -5  -3 -19    1.47    1.26
  -5  -3 -19   -0.06    1.02
  -5   3 -19   -0.99    1.04
  -6  -3 -19    0.99    1.39
  -6  -3 -19    0.00    1.17
  -6   3 -19    2.51    1.39
  -7  -3 -19    4.51    1.79
  -7  -3 -19    2.82    1.53
  -7   3 -19    1.65    1.60
  -8  -3 -19    0.92    1.91
  -8  -3 -19   -0.81    1.68
  -8   3 -19    1.31    1.95
  -9  -4  19    1.61    1.11
  -9   4  19    0.01    1.20
  -9   4  19    0.49    1.33
  -8  -4  19    5.73    0.97
  -8   4  19    4.55    1.04
  -7  -4  19    3.41    0.76
  -7   4  19    1.74    0.81
  -6  -4  19   -0.15    0.55
  -6   4  19    0.26    0.61
  -5  -4  19   11.27    0.94
  -5   4  19   11.20    1.04
  -4  -4  19    0.35    0.43
  -4   4  19    0.15    0.45
  -3  -4  19    1.23    0.43
  -3   4  19    1.01    0.42
  -2  -4  19    1.50    0.45
  -2   4  19    2.55    0.50
   2   4 -19    2.71    0.84
  -1  -4  19    6.36    0.68
   1  -4 -19    7.67    1.02
   1   4 -19    6.73    0.94
  -1   4  19    6.30    0.61
   0  -4 -19    0.61    0.75
   0  -4  19    1.37    0.45
   0  -4 -19    0.77    0.61
   0   4  19    1.11    0.44
   0   4 -19   -0.37    0.73
   1  -4  19    0.07    0.43
  -1  -4 -19    0.04    0.72
  -1  -4 -19    0.70    0.71
   1   4  19   -0.47    0.41
  -1   4 -19   -0.45    0.77
  -2  -4 -19    9.95    1.38
  -2  -4 -19   10.19    1.31
   2  -4  19    8.95    0.79
   2   4  19   10.13    0.82
  -2   4 -19    7.17    1.07
  -3  -4 -19    1.52    0.87
  -3  -4 -19    0.07    0.81
  -3   4 -19    1.37    0.92
  -4  -4 -19    3.24    1.12
  -4  -4 -19    2.11    0.98
  -4   4 -19    2.09    1.02
  -5  -4 -19   -0.75    1.03
  -5  -4 -19    1.51    1.24
  -5   4 -19    1.17    1.26
  -6  -4 -19   -2.14    1.16
  -6  -4 -19    4.00    1.42
  -6   4 -19    1.19    1.37
  -7  -4 -19   -1.60    1.39
  -7  -4 -19    2.57    1.80
  -7   4 -19    2.56    1.63
  -8  -4 -19    2.01    1.82
  -8   4 -19   -0.97    1.98
  -9  -5  19    2.35    1.16
  -9   5  19    1.99    1.32
  -8  -5  19   12.82    1.50
  -8   5  19   13.46    1.67
  -7  -5  19    8.27    0.93
  -7   5  19    9.11    1.07
  -6  -5  19   12.35    1.14
  -6   5  19   12.81    1.18
  -5  -5  19    0.45    0.55
  -5   5  19    0.90    0.61
  -4  -5  19   37.98    1.58
  -4   5  19   37.72    1.59
  -3  -5  19    1.27    0.46
  -3   5  19    1.07    0.47
  -2  -5  19   20.71    1.00
   2   5 -19   17.07    1.63
  -2   5  19   18.45    1.02
  -1  -5  19   -0.07    0.42
   1  -5 -19   -1.18    0.71
  -1   5  19    0.33    0.44
   1   5 -19    0.41    0.73
   0  -5 -19   14.63    1.34
   0  -5  19   13.86    0.90
   0   5 -19   13.26    1.40
   0   5  19   14.14    0.89
  -1  -5 -19    5.34    0.65
  -1  -5 -19    7.24    0.95
   1  -5  19    6.15    0.63
  -1   5 -19    6.21    1.01
   1   5  19    6.28    0.62
   2  -5  19    3.01    0.57
  -2  -5 -19    3.27    0.88
  -2  -5 -19    2.58    0.77
  -2   5 -19    4.80    0.95
   2   5  19    3.46    0.67
  -3  -5 -19    1.89    0.94
  -3  -5 -19    1.32    0.86
  -3   5 -19   -0.40    0.83
  -4  -5 -19    1.38    1.10
  -4  -5 -19   -0.06    1.01
  -4   5 -19    0.77    1.02
  -5  -5 -19    1.76    1.21
  -5   5 -19    3.03    1.37
  -6  -5 -19    1.03    1.30
  -6   5 -19    0.13    1.38
  -7  -5 -19    4.05    1.69
  -7   5 -19    0.57    1.72
  -8  -5 -19    0.26    1.96
  -8   5 -19    1.08    2.13
  -8  -6  19    5.89    1.07
  -8   6  19    2.29    1.13
  -7  -6  19    6.83    0.94
  -7   6  19    4.47    1.01
  -6  -6  19    1.75    0.72
  -6   6  19    1.82    0.77
  -5  -6  19    1.94    0.61
  -5   6  19    1.50    0.62
  -4  -6  19    1.59    0.56
  -4   6  19    1.32    0.60
  -3  -6  19   49.45    1.84
  -3   6  19   46.96    1.84
  -2  -6  19    4.41    0.59
   2   6 -19    1.88    0.99
  -2   6  19    4.09    0.58
  -1  -6  19    1.57    0.48
   1  -6 -19    1.94    0.92
   1   6 -19    2.71    0.91
  -1   6  19    1.48    0.51
   0  -6 -19    4.94    0.97
   0  -6  19    5.34    0.63
   0   6 -19    5.84    1.00
   0   6  19    3.54    0.58
  -1  -6 -19   31.27    1.79
   1  -6  19   30.26    1.38
   1   6  19   30.61    1.34
  -1   6 -19   33.63    1.96
  -2  -6 -19    3.96    1.01
   2  -6  19    2.39    0.63
  -2   6 -19    3.79    0.95
  -3  -6 -19    2.25    1.02
  -3   6 -19    2.79    1.01
  -4  -6 -19    5.54    1.18
  -4   6 -19    3.66    1.30
  -5  -6 -19    5.89    1.40
  -5   6 -19    5.33    1.42
  -6  -6 -19   -0.48    1.41
  -6   6 -19    3.28    1.62
  -7  -6 -19    0.43    1.71
  -7   6 -19    0.77    1.87
  -8  -7  19   -0.60    1.00
  -8   7  19    0.42    1.21
  -7  -7  19    5.61    0.95
  -7   7  19    6.16    1.12
  -6  -7  19   15.66    1.30
  -6   7  19   14.24    1.42
  -5  -7  19    3.12    0.69
  -5   7  19    3.31    0.76
  -4  -7  19    5.38    0.68
  -4   7  19    3.50    0.70
  -3  -7  19    4.80    0.68
  -3   7  19    4.55    0.69
  -2  -7  19   12.40    0.94
   2   7 -19   11.18    1.39
  -2   7  19   11.81    0.96
   1  -7 -19   12.83    1.33
  -1  -7  19   12.65    0.94
   1   7 -19   13.69    1.60
  -1   7  19   12.61    1.02
   0  -7  19   17.03    1.08
   0  -7 -19   19.11    1.57
   0   7  19   18.53    1.13
   0   7 -19   20.89    1.73
  -1  -7 -19    0.87    0.84
   1  -7  19    0.57    0.62
   1   7  19    0.61    0.54
  -1   7 -19    1.50    0.89
   2  -7  19    1.95    0.68
  -2  -7 -19    1.61    0.90
  -2   7 -19    1.24    0.93
  -3  -7 -19    3.98    1.05
  -3   7 -19    3.22    1.10
  -4  -7 -19    6.07    1.42
  -4   7 -19    7.34    1.46
  -5  -7 -19    1.90    1.35
  -5   7 -19    0.46    1.32
  -6  -7 -19    0.44    1.48
  -6   7 -19    1.73    1.59
  -7  -7 -19    4.13    1.99
  -7   7 -19    2.11    1.92
  -8  -8  19    1.64    1.16
  -8   8  19   -0.28    1.32
  -7  -8  19    1.00    0.91
  -7   8  19   -0.35    1.00
  -6  -8  19    3.25    0.85
  -6   8  19    4.64    0.96
  -5  -8  19    1.86    0.71
  -5   8  19    0.95    0.80
  -4  -8  19    4.40    0.74
  -4   8  19    4.57    0.76
  -3  -8  19    2.05    0.61
  -3   8  19    2.19    0.67
  -2  -8  19    5.61    0.74
  -2   8  19    6.27    0.72
   2   8 -19    5.36    1.26
  -1  -8  19    0.87    0.54
   1  -8 -19    0.23    0.87
   1   8 -19   -1.41    0.93
  -1   8  19   -0.27    0.54
   0  -8 -19    7.37    1.12
   0  -8  19    4.31    0.74
   0   8  19    6.14    0.73
   0   8 -19    4.72    1.13
   1  -8  19    2.43    0.68
  -1  -8 -19    3.60    0.95
  -1   8 -19    0.57    0.95
   1   8  19    1.85    0.62
   2  -8  19    9.26    1.16
  -2  -8 -19    9.05    1.26
  -2   8 -19   13.06    1.48
  -3  -8 -19   11.29    1.47
  -3   8 -19    7.04    1.40
  -4  -8 -19    0.10    1.27
  -4   8 -19    0.10    1.20
  -5  -8 -19    0.48    1.48
  -5   8 -19    4.07    1.62
  -6  -8 -19    1.89    1.76
  -6   8 -19    0.65    1.75
  -7  -8 -19    2.71    2.01
  -7   8 -19    1.28    2.15
  -7  -9  19    1.65    1.03
  -7   9  19   -0.11    1.18
  -6  -9  19    1.08    0.89
  -6   9  19    0.47    0.99
  -5  -9  19    2.78    0.82
  -5   9  19    2.31    0.89
  -4  -9  19   14.17    1.26
  -4   9  19   14.99    1.31
  -3  -9  19    1.26    0.63
  -3   9  19    0.46    0.63
  -2  -9  19    5.58    0.78
   2   9 -19    4.51    1.25
  -2   9  19    3.16    0.74
   1  -9 -19    5.92    1.13
  -1  -9  19    5.41    0.82
   1   9 -19    4.71    1.21
  -1   9  19    7.28    0.81
   0  -9  19    0.03    0.68
   0  -9 -19    0.15    0.96
   0   9 -19   -1.53    0.92
   0   9  19    0.37    0.66
  -1  -9 -19    9.46    1.27
   1  -9  19    9.23    1.17
  -1   9 -19   11.06    1.38
   1   9  19    8.28    0.83
  -2  -9 -19    0.82    1.04
   2  -9  19    0.41    0.77
  -2   9 -19   -0.61    1.10
  -3  -9 -19   -0.40    1.21
  -3   9 -19   -0.06    1.20
  -4  -9 -19    3.00    1.40
  -4   9 -19    3.28    1.39
  -5  -9 -19    8.18    1.74
  -5   9 -19    7.80    1.74
  -6  -9 -19    2.49    1.97
  -6   9 -19   -0.60    1.88
  -7 -10  19    2.10    1.14
  -7  10  19    1.68    1.39
  -6 -10  19    2.33    1.00
  -6  10  19    1.90    1.10
  -5 -10  19    2.12    0.84
  -5  10  19    0.50    0.90
  -4 -10  19   -0.51    0.76
  -4  10  19    0.50    0.79
  -3 -10  19    7.15    0.88
  -3  10  19    6.44    0.93
  -2 -10  19   16.00    1.28
  -2  10  19   17.48    1.34
   1 -10 -19   -0.30    1.03
  -1 -10  19    0.37    0.70
  -1  10  19   -0.60    0.78
   1  10 -19   -0.16    1.12
   0 -10  19    4.91    0.94
   0 -10 -19    3.78    1.20
   0  10 -19    2.88    1.23
   0  10  19    4.59    0.84
   1 -10  19    2.26    0.90
  -1 -10 -19    3.25    1.18
   1  10  19    2.29    0.74
  -1  10 -19    2.02    1.17
   2 -10  19    9.76    1.13
  -2 -10 -19   11.19    1.49
  -2  10 -19   13.28    1.62
  -3 -10 -19    1.18    1.20
  -3  10 -19    1.04    1.27
  -4 -10 -19    3.39    1.48
  -4  10 -19    2.35    1.52
  -5 -10 -19   -1.08    1.71
  -5  10 -19   -2.90    1.68
  -6 -10 -19    2.28    2.12
  -6  10 -19    0.18    2.02
  -6 -11  19    9.61    1.29
  -6  11  19    6.06    1.37
  -5 -11  19   -0.26    0.90
  -5  11  19    0.51    1.02
  -4 -11  19    1.16    0.90
  -4  11  19    0.95    0.92
  -3 -11  19    0.99    0.79
  -3  11  19   -1.36    0.83
  -2 -11  19    4.28    0.86
  -2  11  19    4.06    0.90
   1 -11 -19   -3.09    1.12
  -1 -11  19    0.67    0.86
  -1  11  19    0.31    0.82
   1  11 -19    1.13    1.29
   0 -11 -19    0.23    1.17
   0 -11  19    1.69    0.90
   0  11 -19   -0.47    1.13
   0  11  19   -0.12    0.84
   1 -11  19    3.12    1.03
  -1 -11 -19   -1.12    1.10
   1  11  19    0.65    0.82
  -1  11 -19    1.44    1.15
  -2 -11 -19    2.93    1.24
   2 -11  19   -0.31    1.16
  -2  11 -19   -0.62    1.12
  -3 -11 -19    2.11    1.43
  -3  11 -19   -1.40    1.32
  -4 -11 -19   -0.28    1.55
  -4  11 -19    1.96    1.61
  -5 -11 -19   -0.96    1.86
  -5  11 -19   -1.26    1.79
  -5 -12  19    0.03    1.09
  -5  12  19    1.06    1.19
  -4 -12  19    0.14    0.96
  -4  12  19    0.45    1.00
  -3 -12  19    0.87    0.89
  -3  12  19    0.11    0.95
  -2 -12  19    0.48    0.90
  -2  12  19    0.51    0.94
  -1 -12  19   -0.33    0.86
   1  12 -19    2.51    1.24
  -1  12  19   -1.30    0.91
   0 -12 -19   -0.76    1.13
   0 -12  19    0.41    1.00
   0  12 -19    0.07    1.19
   0  12  19   -0.98    0.88
  -1 -12 -19   -0.51    1.26
   1 -12  19   -0.22    1.02
  -1  12 -19    2.66    1.26
   1  12  19   -1.22    0.83
  -2 -12 -19    1.20    1.42
  -2  12 -19    2.23    1.37
  -3 -12 -19   -0.01    1.52
  -3  12 -19    1.45    1.48
  -4 -12 -19    0.92    1.84
  -4  12 -19    1.07    1.67
  -5 -12 -19   -3.33    2.02
  -5  12 -19    0.42    1.84
  -4 -13  19    2.36    1.18
  -4  13  19    1.49    1.24
  -3 -13  19   -0.35    1.02
  -3  13  19    0.11    1.02
  -2 -13  19    1.89    0.99
  -2  13  19    2.17    1.07
  -1 -13  19    0.80    1.06
  -1  13  19   -0.68    1.02
   1  13 -19    1.24    1.35
   0 -13 -19    3.87    1.37
   0 -13  19    0.25    1.11
   0  13  19    0.10    1.03
   0  13 -19    0.71    1.25
   1 -13  19   -0.81    1.21
  -1 -13 -19    0.19    1.36
  -1  13 -19   -0.38    1.31
   1  13  19   -0.06    0.99
  -2 -13 -19    1.80    1.47
  -2  13 -19   -0.14    1.43
  -3 -13 -19    3.15    1.68
  -3  13 -19   -1.20    1.52
  -4 -13 -19   -0.30    1.87
  -4  13 -19   -0.44    1.75
  -3 -14  19    0.40    1.33
  -3  14  19    2.23    1.26
  -2 -14  19    2.51    1.26
  -2  14  19    4.81    1.28
  -1 -14  19    0.23    1.18
  -1  14  19    1.43    1.11
   0 -14  19    3.29    1.27
   0 -14 -19   -0.17    1.47
   0  14 -19   -0.32    1.49
   0  14  19   -0.63    1.10
   1 -14  19    1.95    1.30
  -1 -14 -19    2.27    1.59
  -1  14 -19    0.01    1.51
  -2 -14 -19    3.10    1.75
  -2  14 -19    2.20    1.64
  -3 -14 -19    1.28    1.75
  -3  14 -19    0.89    1.68
  -1  15  19    0.15    1.34
   0 -15 -19    1.28    1.66
   0 -15  19   -0.48    1.58
   0  15  19   -0.84    1.27
   0  15 -19    1.71    1.68
   1 -15  19    0.68    1.54
  -1 -15 -19   -2.32    1.59
  -1  15 -19    3.26    1.71
  -9   0  20    1.70    1.09
  -9   0  20    4.59    1.29
  -8   0  20    0.71    0.89
  -8   0  20   -0.49    1.07
  -7   0  20   25.33    1.47
  -6   0  20    0.41    0.56
  -5   0  20   38.90    1.64
  -4   0  20    7.33    0.77
  -3   0  20   26.01    1.16
  -2   0  20    0.96    0.43
  -1   0  20   24.29    1.12
   1   0 -20   23.89    1.56
   0   0 -20    2.87    0.75
   0   0  20    3.09    0.49
   0   0 -20    3.07    0.83
  -1   0 -20   -0.16    0.69
  -1   0 -20    1.06    0.65
   1   0  20    0.16    0.43
  -2   0 -20    0.99    0.70
  -2   0 -20    0.18    0.78
  -3   0 -20    1.17    0.92
  -3   0 -20    1.97    0.87
  -4   0 -20    5.69    1.25
  -4   0 -20    5.68    1.11
  -5   0 -20    2.74    1.40
  -5   0 -20    2.71    1.17
  -6   0 -20    8.04    1.86
  -6   0 -20    9.97    1.59
  -7   0 -20    1.52    1.86
  -7   0 -20    1.71    1.55
  -8   0 -20    2.92    2.21
  -8   0 -20    1.95    1.91
  -9  -1  20    1.81    1.12
  -9  -1  20   -0.11    1.06
  -9   1  20   -2.10    1.05
  -9   1  20    1.52    1.24
  -8  -1  20   15.14    1.47
  -8  -1  20   16.24    1.61
  -8   1  20   14.30    1.78
  -8   1  20   13.84    1.52
  -7  -1  20    0.09    0.67
  -7  -1  20    1.37    0.82
  -7   1  20    1.14    0.72
  -6  -1  20    6.95    0.79
  -6   1  20    9.31    0.97
  -5  -1  20    1.16    0.53
  -5   1  20    0.74    0.53
  -4  -1  20    3.77    0.54
  -4   1  20    3.56    0.55
  -3  -1  20   26.32    1.17
  -3   1  20   24.39    1.16
  -2  -1  20    0.24    0.41
  -2   1  20    0.69    0.41
   1  -1 -20    8.11    0.93
  -1  -1  20    8.34    0.77
   1   1 -20    8.34    1.19
  -1   1  20    9.09    0.76
   0  -1 -20    0.84    0.72
   0  -1 -20    0.01    0.65
   0  -1  20    0.19    0.43
   0   1 -20    0.81    0.73
   0   1 -20   -0.49    0.77
   0   1  20    0.18    0.43
  -1  -1 -20   16.44    1.43
   1  -1  20   16.73    0.91
  -1  -1 -20   18.41    1.26
  -1   1 -20   17.06    1.43
   1   1  20   17.41    0.92
  -1   1 -20   18.40    1.38
  -2  -1 -20   -0.76    0.77
  -2  -1 -20   -0.41    0.71
  -2   1 -20   -1.48    0.72
  -2   1 -20   -0.02    0.75
  -3  -1 -20    0.25    1.00
  -3  -1 -20    0.92    0.86
  -3   1 -20    2.45    0.98
  -3   1 -20    0.72    0.86
  -4  -1 -20    2.20    1.16
  -4  -1 -20    0.63    0.94
  -4   1 -20    1.53    1.04
  -4   1 -20    1.64    1.01
  -5  -1 -20    6.26    1.21
  -5  -1 -20    4.19    1.47
  -5   1 -20    4.87    1.23
  -5   1 -20    3.69    1.36
  -6  -1 -20    1.82    1.68
  -6  -1 -20    4.80    1.41
  -6   1 -20    3.43    1.40
  -6   1 -20    4.64    1.59
  -7  -1 -20   -0.88    1.55
  -7  -1 -20    3.16    1.87
  -7   1 -20    0.30    1.84
  -7   1 -20   -1.29    1.55
  -8  -1 -20    5.71    2.29
  -8  -1 -20    2.70    1.85
  -8   1 -20    0.21    2.16
  -9  -2  20    1.37    1.13
  -9  -2  20    0.97    1.14
  -9   2  20    1.45    1.38
  -9   2  20   -1.45    1.13
  -8  -2  20   -0.15    0.89
  -8  -2  20    0.05    0.84
  -8   2  20    0.75    0.92
  -7  -2  20    8.03    0.95
  -7  -2  20    6.74    0.87
  -7   2  20    6.32    0.90
  -6  -2  20    1.50    0.61
  -6   2  20    2.38    0.67
  -5  -2  20    2.30    0.57
  -5   2  20    2.14    0.61
  -4  -2  20    0.15    0.44
  -4   2  20    0.11    0.45
  -3  -2  20   12.09    0.83
  -3   2  20   11.25    0.85
  -2  -2  20   12.32    0.84
  -2   2  20   12.48    0.84
   1  -2 -20    1.27    0.69
   1  -2 -20   -0.15    0.67
  -1  -2  20   -0.13    0.43
  -1   2  20   -0.50    0.42
   1   2 -20    0.16    0.68
   0  -2 -20   -0.15    0.65
   0  -2  20    0.72    0.45
   0  -2 -20    1.13    0.70
   0   2  20    0.97    0.47
   0   2 -20    0.42    0.71
   0   2 -20   -0.18    0.55
  -1  -2 -20    0.26    0.71
  -1  -2 -20    0.48    0.70
   1  -2  20    0.51    0.45
  -1   2 -20    0.96    0.76
   1   2  20    1.66    0.47
  -1   2 -20    1.50    0.76
  -2  -2 -20   16.31    1.38
  -2  -2 -20   14.42    1.54
  -2   2 -20   16.31    1.40
  -2   2 -20   16.95    1.50
  -3  -2 -20    0.62    0.83
  -3  -2 -20    0.54    0.98
  -3   2 -20   -0.60    0.91
  -3   2 -20    0.95    0.91
  -4  -2 -20    1.36    1.15
  -4  -2 -20    1.53    0.99
  -4   2 -20    1.70    1.06
  -4   2 -20    0.58    1.13
  -5  -2 -20    4.22    1.13
  -5  -2 -20    4.01    1.44
  -5   2 -20    4.62    1.28
  -5   2 -20    3.35    1.37
  -6  -2 -20    9.61    1.61
  -6  -2 -20    8.19    1.84
  -6   2 -20   11.16    1.70
  -7  -2 -20    0.41    1.58
  -7  -2 -20    3.12    1.88
  -7   2 -20   -1.31    1.71
  -8  -2 -20    3.18    1.87
  -8  -2 -20    0.55    2.14
  -8   2 -20   -0.23    2.06
  -9  -3  20    1.32    1.13
  -9   3  20    0.78    1.38
  -9   3  20    0.37    1.24
  -8  -3  20    0.01    0.86
  -8   3  20    1.43    0.93
  -7  -3  20    1.79    0.77
  -7   3  20   -0.89    0.77
  -6  -3  20   17.33    1.19
  -6  -3  20   16.31    1.45
  -6   3  20   14.22    1.22
  -5  -3  20    0.72    0.53
  -5   3  20    1.09    0.55
  -4  -3  20    1.37    0.51
  -4   3  20    2.21    0.54
  -3  -3  20    5.74    0.73
  -3   3  20    5.20    0.59
  -2  -3  20   11.28    0.82
  -2   3  20   11.56    0.84
   2   3 -20   11.04    1.40
  -1  -3  20    3.31    0.55
   1  -3 -20    2.14    0.78
  -1   3  20    5.25    0.59
   1   3 -20    2.85    0.85
   0  -3 -20    0.84    0.70
   0  -3  20    1.47    0.50
   0  -3 -20    1.31    0.76
   0   3  20    0.66    0.48
   0   3 -20    0.63    0.77
  -1  -3 -20   19.87    1.43
  -1  -3 -20   20.89    1.48
   1  -3  20   20.11    1.05
   1   3  20   22.01    1.05
  -1   3 -20   24.60    1.61
  -2  -3 -20    1.78    0.83
  -2  -3 -20    1.32    0.86
  -2   3 -20    0.67    0.85
  -3  -3 -20    4.93    1.05
  -3  -3 -20    6.19    1.11
  -3   3 -20    5.92    1.11
  -4  -3 -20    1.68    1.05
  -4  -3 -20    0.57    1.13
  -4   3 -20    0.54    1.07
  -5  -3 -20   14.68    1.94
  -5  -3 -20   13.51    1.70
  -5   3 -20   14.34    1.80
  -6  -3 -20    6.03    1.72
  -6  -3 -20    7.79    1.47
  -6   3 -20    7.38    1.63
  -7  -3 -20    1.93    1.72
  -7  -3 -20    4.22    1.87
  -7   3 -20    2.22    1.88
  -9   4  20    0.62    1.42
  -8  -4  20    1.67    0.97
  -8   4  20    2.55    1.05
  -7  -4  20    0.15    0.74
  -7   4  20    0.51    0.84
  -6  -4  20    7.05    0.83
  -6   4  20    7.81    0.89
  -5  -4  20    7.38    0.91
  -5   4  20    8.16    0.93
  -4  -4  20    2.48    0.60
  -4   4  20    3.39    0.63
  -3  -4  20    1.14    0.45
  -3   4  20    0.53    0.49
  -2  -4  20   59.70    2.14
  -2   4  20   56.95    2.13
   2   4 -20   65.63    2.76
   1  -4 -20    9.32    1.07
  -1  -4  20    8.68    0.82
  -1   4  20    9.28    0.83
   1   4 -20   11.34    1.40
   0  -4 -20    1.00    0.81
   0  -4  20    1.87    0.51
   0  -4 -20    1.00    0.71
   0   4 -20    1.29    0.82
   0   4  20    1.70    0.50
  -1  -4 -20    0.78    0.82
  -1  -4 -20    1.53    0.77
   1  -4  20    0.28    0.48
  -1   4 -20    1.52    0.80
   1   4  20    0.09    0.48
  -2  -4 -20   50.39    2.24
  -2  -4 -20   52.02    2.37
  -2   4 -20   53.64    2.53
  -3  -4 -20    5.02    1.05
  -3  -4 -20    3.71    1.01
  -3   4 -20    6.14    1.12
  -4  -4 -20    5.91    1.23
  -4  -4 -20    5.42    1.20
  -4   4 -20    5.14    1.24
  -5  -4 -20    3.97    1.42
  -5  -4 -20    5.10    1.30
  -5   4 -20    4.32    1.41
  -6  -4 -20    2.94    1.51
  -6  -4 -20    4.61    2.04
  -6   4 -20    3.37    1.57
  -7  -4 -20    2.70    1.77
  -7   4 -20    2.73    1.92
  -8  -5  20    0.89    1.00
  -8   5  20    0.06    1.07
  -7  -5  20    1.43    0.83
  -7   5  20    0.85    0.88
  -6  -5  20    2.83    0.75
  -6   5  20    2.05    0.78
  -5  -5  20    1.52    0.60
  -5   5  20    0.92    0.62
  -4  -5  20    4.91    0.70
  -4   5  20    4.80    0.71
  -3  -5  20    2.13    0.51
  -3   5  20    2.03    0.56
  -2  -5  20    4.28    0.58
   2   5 -20    4.15    1.01
  -2   5  20    3.83    0.60
   1  -5 -20   -0.41    0.77
  -1  -5  20    0.29    0.50
  -1   5  20   -0.11    0.48
   1   5 -20    0.03    0.80
   0  -5  20    6.27    0.68
   0  -5 -20    6.32    1.00
   0   5  20    5.60    0.65
   0   5 -20    6.05    1.07
   1  -5  20   14.55    1.00
  -1  -5 -20   15.04    1.42
   1   5  20   15.95    0.98
  -1   5 -20   16.19    1.58
  -2  -5 -20    1.94    0.90
  -2   5 -20    3.37    0.97
  -3  -5 -20    9.28    1.22
  -3   5 -20    8.53    1.23
  -4  -5 -20    0.03    1.13
  -4   5 -20    0.61    1.22
  -5  -5 -20    8.90    1.52
  -5   5 -20    9.14    1.64
  -6  -5 -20    1.85    1.37
  -6   5 -20    1.04    1.62
  -7  -5 -20    2.96    1.84
  -7   5 -20    1.17    1.98
  -8  -6  20    1.55    1.08
  -8   6  20    1.29    1.27
  -7  -6  20    1.77    0.91
  -7   6  20   -0.28    0.94
  -6  -6  20    3.61    0.81
  -6   6  20    4.48    0.90
  -5  -6  20    4.87    0.77
  -5   6  20    6.67    0.83
  -4  -6  20    0.88    0.59
  -4   6  20    0.41    0.56
  -3  -6  20    3.15    0.64
  -3   6  20    3.33    0.64
  -2  -6  20    9.91    0.85
  -2   6  20    9.46    0.92
   2   6 -20    9.25    1.27
   1  -6 -20   12.19    1.42
  -1  -6  20   11.56    0.97
   1   6 -20   12.07    1.55
  -1   6  20   10.48    0.95
   0  -6 -20   26.56    1.72
   0  -6  20   25.84    1.29
   0   6  20   26.03    1.29
   0   6 -20   27.30    1.91
   1  -6  20    2.34    0.64
  -1  -6 -20    2.67    0.89
   1   6  20    2.65    0.59
  -1   6 -20    3.83    1.02
  -2  -6 -20    5.01    1.02
  -2   6 -20    2.50    0.97
  -3  -6 -20    0.91    1.01
  -3   6 -20   -0.69    1.00
  -4  -6 -20   15.77    1.79
  -4   6 -20   16.34    2.19
  -5  -6 -20    1.76    1.36
  -5   6 -20    2.14    1.48
  -6  -6 -20    2.70    1.58
  -6   6 -20    1.05    1.81
  -7  -6 -20    9.32    2.14
  -7   6 -20    2.35    2.09
  -8  -7  20    4.53    1.28
  -8   7  20    1.47    1.36
  -7  -7  20    0.94    0.87
  -7   7  20    1.28    1.05
  -6  -7  20    0.19    0.79
  -6   7  20    1.02    0.85
  -5  -7  20   -0.15    0.66
  -5   7  20    0.58    0.71
  -4  -7  20   24.45    1.32
  -4   7  20   23.02    1.37
  -3  -7  20    3.06    0.68
  -3   7  20    4.92    0.72
  -2  -7  20    2.88    0.65
  -2   7  20    1.88    0.59
   2   7 -20    2.08    1.11
   1  -7 -20   33.59    1.92
  -1  -7  20   32.98    1.50
   1   7 -20   32.55    2.13
  -1   7  20   31.77    1.50
   0  -7 -20   12.69    1.52
   0  -7  20   13.30    1.08
   0   7  20   15.73    1.11
   0   7 -20   16.69    1.73
  -1  -7 -20    2.63    0.96
   1  -7  20    1.08    0.65
  -1   7 -20    2.25    1.03
   1   7  20    1.63    0.60
  -2  -7 -20   -1.22    0.87
  -2   7 -20    2.87    0.99
  -3  -7 -20   68.01    3.04
  -3   7 -20   60.22    3.22
  -4  -7 -20    2.66    1.34
  -4   7 -20   -0.70    1.19
  -5  -7 -20    1.41    1.56
  -5   7 -20    1.04    1.48
  -6  -7 -20   -0.70    1.73
  -6   7 -20   -1.96    1.81
  -7  -7 -20   16.16    2.40
  -7   7 -20   13.36    2.51
  -7  -8  20    0.60    1.02
  -7   8  20    2.28    1.19
  -6  -8  20    0.72    0.88
  -6   8  20   -0.45    0.90
  -5  -8  20   24.25    1.52
  -5   8  20   22.71    1.60
  -4  -8  20   23.68    1.43
  -4   8  20   22.77    1.46
  -3  -8  20    0.18    0.62
  -3   8  20   -0.10    0.65
  -2  -8  20    4.20    0.72
   2   8 -20    2.74    1.17
  -2   8  20    3.47    0.75
  -1  -8  20   20.77    1.33
   1  -8 -20   19.10    1.71
  -1   8  20   20.78    1.34
   1   8 -20   24.01    2.01
   0  -8  20   59.05    2.27
   0  -8 -20   64.10    2.77
   0   8  20   57.34    2.27
   0   8 -20   59.36    2.91
   1  -8  20    3.53    0.81
  -1  -8 -20    5.78    1.07
  -1   8 -20    3.73    1.15
   1   8  20    3.53    0.70
  -2  -8 -20   11.11    1.42
  -2   8 -20   11.46    1.60
  -3  -8 -20   -2.05    1.16
  -3   8 -20    1.08    1.25
  -4  -8 -20   32.88    2.49
  -4   8 -20   30.67    2.65
  -5  -8 -20   -0.31    1.55
  -5   8 -20    2.15    1.67
  -6  -8 -20    4.11    2.04
  -6   8 -20    3.11    2.07
  -7  -9  20    1.91    1.12
  -7   9  20   -0.39    1.22
  -6  -9  20    0.95    0.96
  -6   9  20    0.39    1.03
  -5  -9  20    5.03    0.96
  -5   9  20    7.24    1.07
  -4  -9  20    7.92    0.97
  -4   9  20    9.14    1.01
  -3  -9  20    0.16    0.68
  -3   9  20   -0.77    0.67
  -2  -9  20    0.31    0.65
  -2   9  20    1.82    0.73
  -1  -9  20   29.88    1.61
   1  -9 -20   27.90    2.04
   1   9 -20   28.57    2.38
  -1   9  20   24.51    1.63
   0  -9  20   -0.71    0.77
   0  -9 -20    0.37    1.11
   0   9  20    1.97    0.74
   0   9 -20    0.68    1.19
  -1  -9 -20    2.35    1.15
   1  -9  20   -0.24    0.77
   1   9  20   -0.83    0.66
  -1   9 -20    0.59    1.14
  -2  -9 -20   -1.37    1.07
  -2   9 -20   -0.69    1.17
  -3  -9 -20   16.55    2.08
  -3   9 -20   18.56    2.26
  -4  -9 -20    0.40    1.49
  -4   9 -20    0.51    1.45
  -5  -9 -20    2.71    1.80
  -5   9 -20   -0.41    1.74
  -6  -9 -20    0.56    2.04
  -6   9 -20    1.50    2.08
  -6 -10  20    0.80    1.09
  -6  10  20    0.03    1.20
  -5 -10  20    2.51    0.96
  -5  10  20    4.49    1.07
  -4 -10  20   13.17    1.37
  -4  10  20   10.88    1.15
  -3 -10  20    0.78    0.78
  -3  10  20    1.70    0.84
  -2 -10  20    1.19    0.78
  -2  10  20    0.64    0.80
  -1 -10  20    0.53    0.79
   1 -10 -20   -0.82    1.18
   1  10 -20    0.07    1.27
  -1  10  20    0.40    0.80
   0 -10  20    3.01    0.93
   0 -10 -20    1.24    1.19
   0  10  20    4.33    0.90
   0  10 -20    2.27    1.25
   1 -10  20   -0.33    0.89
  -1 -10 -20   -1.66    1.11
  -1  10 -20    1.74    1.21
   1  10  20   -1.48    0.75
  -2 -10 -20    1.11    1.20
  -2  10 -20    0.91    1.18
  -3 -10 -20   -0.45    1.36
  -3  10 -20   -0.07    1.26
  -4 -10 -20    0.80    1.60
  -4  10 -20    2.00    1.59
  -5 -10 -20   -1.30    1.90
  -5  10 -20    1.95    1.93
  -5 -11  20    5.36    1.17
  -5  11  20    5.57    1.25
  -4 -11  20    0.99    0.92
  -4  11  20   -0.18    0.96
  -3 -11  20   -0.31    0.83
  -3  11  20    1.07    0.94
  -2 -11  20    1.74    0.89
  -2  11  20    0.55    0.88
   1 -11 -20    3.09    1.27
  -1 -11  20    3.10    1.01
  -1  11  20    1.67    0.94
   1  11 -20    3.81    1.33
   0 -11 -20    0.12    1.13
   0 -11  20    1.71    0.93
   0  11  20    0.40    0.90
   0  11 -20    1.33    1.21
   1 -11  20    1.43    1.02
  -1 -11 -20    1.18    1.20
  -1  11 -20    1.55    1.25
   1  11  20    1.27    0.98
  -2 -11 -20    1.85    1.37
  -2  11 -20   -1.66    1.25
  -3 -11 -20    1.24    1.48
  -3  11 -20   -0.77    1.39
  -4 -11 -20   -0.77    1.75
  -4  11 -20    2.41    1.69
  -5 -11 -20    2.27    2.08
  -5  11 -20    1.26    1.98
  -5  12  20   -1.98    1.47
  -4 -12  20    0.81    1.07
  -4  12  20    1.17    1.15
  -3 -12  20    4.84    1.05
  -3  12  20    4.09    1.09
  -2 -12  20    2.69    0.99
  -2  12  20   -0.43    1.00
  -1 -12  20    1.68    1.03
  -1  12  20    3.25    1.09
   1  12 -20    2.98    1.51
   0 -12 -20    2.01    1.45
   0 -12  20    1.87    1.13
   0  12  20    2.08    1.01
   0  12 -20    2.44    1.43
   1 -12  20    2.22    1.14
  -1 -12 -20    2.06    1.50
  -1  12 -20    2.18    1.43
  -2 -12 -20    4.96    1.62
  -2  12 -20    4.37    1.49
  -3 -12 -20    2.07    1.66
  -3  12 -20    4.13    1.61
  -4 -12 -20    0.94    1.89
  -4  12 -20    0.62    1.82
  -4  13  20   -1.01    1.77
  -3 -13  20    0.67    1.18
  -3  13  20   -1.36    1.18
  -2 -13  20    3.27    1.11
  -2  13  20    4.50    1.21
  -1 -13  20    0.82    1.13
   1  13 -20   -1.78    1.50
  -1  13  20    2.30    1.16
   0 -13  20    2.47    1.24
   0 -13 -20    1.39    1.47
   0  13 -20    1.10    1.52
   0  13  20    0.79    1.08
   1 -13  20    3.94    1.28
  -1 -13 -20    2.69    1.56
  -1  13 -20    2.96    1.50
  -2 -13 -20    0.29    1.64
  -2  13 -20   -0.59    1.58
  -3 -13 -20    0.35    1.70
  -3  13 -20    0.09    1.61
  -2 -14  20    2.33    1.49
  -2  14  20   -0.18    1.32
  -1 -14  20    1.14    1.39
  -1  14  20    0.08    1.20
   0 -14 -20    0.40    1.67
   0 -14  20    3.98    1.41
   0  14 -20    2.52    1.71
   0  14  20    1.35    1.09
  -1 -14 -20    1.52    1.70
   1 -14  20    2.81    1.36
  -1  14 -20    2.09    1.68
  -2 -14 -20    4.17    1.83
  -2  14 -20   -0.02    1.69
  -9   0  21   -1.74    1.25
  -8   0  21    0.63    0.89
  -8   0  21    0.26    1.12
  -7   0  21    0.17    0.76
  -6   0  21   -0.53    0.62
  -5   0  21    0.74    0.55
  -4   0  21   -0.31    0.51
  -3   0  21    0.64    0.46
  -2   0  21    0.28    0.46
   1   0 -21    0.38    0.74
  -1   0  21   -0.20    0.48
   0   0  21    0.04    0.49
   0   0 -21    0.76    0.78
   0   0 -21    1.30    0.69
  -1   0 -21    0.61    0.83
  -1   0 -21    0.78    0.72
   1   0  21    0.27    0.47
  -2   0 -21    1.90    0.78
  -2   0 -21   -0.11    0.89
  -3   0 -21   -0.57    1.02
  -3   0 -21    0.03    0.92
  -4   0 -21    1.38    1.08
  -4   0 -21    0.75    1.22
  -5   0 -21   -1.03    1.25
  -5   0 -21   -0.53    1.52
  -6   0 -21    0.37    1.49
  -6   0 -21   -0.41    1.66
  -7   0 -21    1.76    1.82
  -7   0 -21   -2.00    2.07
  -9  -1  21    1.10    1.22
  -9   1  21    1.64    1.38
  -8  -1  21    0.48    0.92
  -8  -1  21    0.26    1.02
  -8   1  21    0.61    0.96
  -8   1  21   -1.98    1.13
  -7  -1  21   -0.17    0.75
  -7  -1  21    1.59    0.92
  -7   1  21   -0.29    0.76
  -6  -1  21    1.09    0.67
  -6   1  21    0.69    0.64
  -5  -1  21    3.33    0.65
  -5   1  21    3.35    0.64
  -4  -1  21    0.24    0.52
  -4   1  21   -0.38    0.50
  -3  -1  21    2.24    0.51
  -3   1  21    2.84    0.54
  -2  -1  21    0.39    0.45
  -2   1  21    0.45    0.46
   1  -1 -21    0.51    0.77
  -1  -1  21    0.37    0.49
   1   1 -21    0.73    0.73
  -1   1  21    0.37    0.49
   0  -1 -21    2.15    0.79
   0  -1 -21    3.18    0.85
   0  -1  21    3.54    0.58
   0   1 -21    1.11    0.75
   0   1  21    3.08    0.55
   0   1 -21    4.12    0.90
  -1  -1 -21    3.13    0.90
   1  -1  21    1.26    0.51
  -1  -1 -21    3.19    0.73
  -1   1 -21    2.39    0.77
   1   1  21    2.33    0.53
  -1   1 -21    1.17    0.86
  -2  -1 -21    1.92    0.78
  -2  -1 -21    2.20    0.95
  -2   1 -21    2.63    0.85
  -2   1 -21    2.49    0.94
  -3  -1 -21    4.47    1.00
  -3  -1 -21    4.31    1.18
  -3   1 -21    4.65    1.05
  -3   1 -21    6.04    1.18
  -4  -1 -21    2.71    1.07
  -4  -1 -21    2.09    1.22
  -4   1 -21    2.87    1.25
  -4   1 -21    2.91    1.17
  -5  -1 -21    2.27    1.29
  -5  -1 -21    2.45    1.52
  -5   1 -21    1.97    1.53
  -5   1 -21    2.14    1.31
  -6  -1 -21    9.95    1.72
  -6  -1 -21    6.20    1.95
  -6   1 -21    5.73    2.02
  -6   1 -21    6.94    1.88
  -7  -1 -21   -0.60    2.12
  -7  -1 -21    2.38    1.82
  -7   1 -21    1.45    2.13
  -9   2  21   -0.53    1.39
  -8  -2  21    1.17    0.92
  -8   2  21    0.41    0.98
  -7  -2  21   14.39    1.37
  -7  -2  21   16.07    1.43
  -7   2  21   12.64    1.40
  -6  -2  21    3.12    0.73
  -6   2  21    3.43    0.77
  -5  -2  21    0.19    0.57
  -5   2  21    0.00    0.56
  -4  -2  21   14.60    1.07
  -4   2  21   15.62    1.09
  -3  -2  21    7.75    0.79
  -3   2  21    6.63    0.81
  -2  -2  21    5.36    0.62
  -2   2  21    6.15    0.65
  -1  -2  21    0.19    0.49
   1   2 -21    0.65    0.78
  -1   2  21   -0.80    0.48
   0  -2 -21   13.40    1.32
   0  -2 -21   11.13    1.28
   0  -2  21   13.18    0.94
   0   2  21   14.53    0.95
   0   2 -21   13.77    1.46
  -1  -2 -21    1.78    0.75
   1  -2  21    1.31    0.51
  -1  -2 -21    0.57    0.80
   1   2  21    0.44    0.49
  -1   2 -21    0.60    0.83
  -2  -2 -21   17.06    1.69
  -2  -2 -21   17.75    1.44
  -2   2 -21   21.14    1.69
  -3  -2 -21    3.92    1.15
  -3  -2 -21    4.05    1.04
  -3   2 -21    4.80    1.11
  -4  -2 -21    1.46    1.30
  -4  -2 -21    1.34    1.09
  -4   2 -21    1.73    1.12
  -5  -2 -21    3.93    1.54
  -5  -2 -21    4.02    1.43
  -5   2 -21    2.15    1.49
  -6  -2 -21    2.62    1.89
  -6  -2 -21    6.49    1.60
  -6   2 -21    3.96    1.85
  -7  -2 -21    0.74    1.81
  -7  -2 -21    0.25    2.02
  -7   2 -21    2.62    2.12
  -9   3  21    1.03    1.52
  -8  -3  21    2.79    0.99
  -8   3  21    1.61    1.08
  -7  -3  21    4.63    0.90
  -7   3  21    4.16    0.94
  -6  -3  21    3.61    0.76
  -6   3  21    3.63    0.79
  -5  -3  21   -0.25    0.53
  -5   3  21    0.36    0.59
  -4  -3  21    1.33    0.60
  -4   3  21    2.24    0.59
  -3  -3  21   12.92    0.96
  -3   3  21   14.41    0.98
  -2  -3  21    0.98    0.50
  -2   3  21    1.04    0.50
   1  -3 -21   18.58    1.38
  -1  -3  21   18.11    1.05
  -1   3  21   18.07    1.07
   1   3 -21   17.42    1.57
   0  -3  21    6.14    0.66
   0  -3 -21    6.80    0.92
   0  -3 -21    5.13    0.86
   0   3 -21    5.67    1.01
   0   3  21    5.81    0.66
  -1  -3 -21    5.50    0.88
  -1  -3 -21    4.93    0.92
   1  -3  21    4.14    0.61
   1   3  21    4.34    0.60
  -1   3 -21    3.33    0.98
  -2  -3 -21   10.78    1.33
  -2  -3 -21   10.63    1.15
  -2   3 -21   11.02    1.52
  -3  -3 -21   16.36    1.66
  -3  -3 -21   15.63    1.86
  -3   3 -21   17.72    1.92
  -4  -3 -21    4.84    1.19
  -4  -3 -21    1.48    1.24
  -4   3 -21    1.60    1.29
  -5  -3 -21    5.01    1.50
  -5  -3 -21    1.97    1.40
  -5   3 -21    1.50    1.42
  -6  -3 -21   18.43    2.09
  -6  -3 -21   14.49    2.09
  -6   3 -21   19.16    2.24
  -7  -3 -21    1.06    3.19
  -7  -3 -21    1.01    1.85
  -7   3 -21   -0.78    2.02
  -9   4  21    2.57    1.67
  -8  -4  21    1.74    1.08
  -8   4  21    2.22    1.17
  -7  -4  21    6.52    0.99
  -7   4  21    5.47    1.03
  -6  -4  21    5.32    0.82
  -6   4  21    4.32    0.85
  -5  -4  21    2.02    0.64
  -5   4  21   -0.01    0.62
  -4  -4  21   26.03    1.34
  -4   4  21   26.86    1.37
  -3  -4  21    0.63    0.53
  -3   4  21    0.75    0.52
  -2  -4  21   10.96    0.87
   2   4 -21    9.20    1.22
  -2   4  21    8.49    0.88
  -1  -4  21    1.87    0.55
   1  -4 -21    2.70    0.85
  -1   4  21    2.88    0.58
   1   4 -21    1.38    0.88
   0  -4 -21   28.06    1.72
   0  -4 -21   28.40    1.60
   0  -4  21   28.02    1.31
   0   4  21   27.87    1.32
   0   4 -21   27.99    1.89
   1  -4  21    1.73    0.57
  -1  -4 -21    1.88    0.79
  -1  -4 -21    0.27    0.78
   1   4  21    1.29    0.53
  -1   4 -21    2.39    0.87
  -2  -4 -21    4.22    0.96
  -2  -4 -21    4.62    0.91
  -2   4 -21    6.22    1.12
  -3  -4 -21   12.23    1.65
  -3  -4 -21    9.13    1.22
  -3   4 -21   12.37    1.74
  -4  -4 -21    1.92    1.28
  -4  -4 -21    2.60    1.25
  -4   4 -21    2.09    1.30
  -5  -4 -21    3.98    1.48
  -5   4 -21    3.04    1.48
  -6  -4 -21    1.12    1.62
  -6   4 -21    0.54    1.71
  -7  -4 -21    3.60    1.98
  -7   4 -21    4.32    2.15
  -8  -5  21    3.69    1.14
  -8   5  21    2.33    1.25
  -7  -5  21    5.15    0.97
  -7   5  21    5.27    1.09
  -6  -5  21    2.17    0.78
  -6   5  21    2.09    0.84
  -5  -5  21   24.17    1.40
  -5   5  21   23.32    1.46
  -4  -5  21    4.68    0.69
  -4   5  21    3.52    0.70
  -3  -5  21    7.89    0.81
  -3   5  21    7.82    1.01
  -2  -5  21   -0.11    0.52
   2   5 -21    0.77    0.93
  -2   5  21    0.14    0.50
  -1  -5  21   31.55    1.42
   1  -5 -21   30.22    1.84
   1   5 -21   31.15    2.03
  -1   5  21   32.01    1.43
   0  -5  21    1.02    0.58
   0  -5 -21   -0.12    0.85
   0   5 -21   -0.48    0.90
   0   5  21    0.87    0.56
   1  -5  21    0.59    0.58
  -1  -5 -21    3.34    0.88
  -1   5 -21    1.80    0.92
   1   5  21    1.19    0.56
  -2  -5 -21    4.28    1.00
  -2   5 -21    0.95    0.98
  -3  -5 -21    4.21    1.16
  -3   5 -21    6.17    1.32
  -4  -5 -21    1.23    1.27
  -4   5 -21    0.54    1.26
  -5  -5 -21   -0.57    1.40
  -5   5 -21   -0.79    1.45
  -6  -5 -21    2.38    1.80
  -6   5 -21    0.74    1.73
  -7  -5 -21    2.43    2.03
  -7   5 -21    1.58    2.12
  -7  -6  21   -0.94    0.88
  -7   6  21    1.04    1.02
  -6  -6  21    1.71    0.80
  -6   6  21    0.12    0.86
  -5  -6  21    3.76    0.79
  -5   6  21    3.11    0.83
  -4  -6  21    4.52    0.72
  -4   6  21    2.42    0.68
  -3  -6  21    0.42    0.61
  -3   6  21    0.37    0.62
  -2  -6  21    3.15    0.66
   2   6 -21    3.16    1.15
  -2   6  21    3.87    0.66
  -1  -6  21    0.67    0.63
   1  -6 -21    0.18    0.87
  -1   6  21   -1.07    0.56
   1   6 -21    0.54    1.01
   0  -6 -21    5.45    1.05
   0  -6  21    4.71    0.72
   0   6  21    4.04    0.71
   0   6 -21    5.66    1.16
  -1  -6 -21   -0.57    0.88
   1  -6  21    0.76    0.66
   1   6  21    0.89    0.57
  -1   6 -21    2.76    1.05
  -2  -6 -21    2.53    0.98
  -2   6 -21    0.69    1.01
  -3  -6 -21    0.19    1.13
  -3   6 -21    1.25    1.20
  -4  -6 -21    3.80    1.35
  -4   6 -21    6.48    1.50
  -5  -6 -21    1.58    1.47
  -5   6 -21    1.73    1.66
  -6  -6 -21    0.18    1.81
  -6   6 -21    1.36    1.89
  -7  -7  21    0.28    1.01
  -7   7  21    0.00    1.14
  -6  -7  21    1.51    0.87
  -6   7  21    0.80    0.94
  -5  -7  21    6.02    0.89
  -5   7  21    6.93    0.98
  -4  -7  21    1.37    0.69
  -4   7  21   -0.03    0.68
  -3  -7  21    1.33    0.66
  -3   7  21    1.68    0.66
  -2  -7  21    1.33    0.68
   2   7 -21    0.97    1.10
  -2   7  21    1.32    0.70
  -1  -7  21    0.32    0.66
   1  -7 -21   -0.27    0.86
   1   7 -21   -1.10    0.99
  -1   7  21   -0.49    0.60
   0  -7 -21    8.40    1.13
   0  -7  21    4.52    0.79
   0   7  21    4.65    0.75
   0   7 -21    4.50    1.15
  -1  -7 -21    4.98    1.04
   1  -7  21    6.83    0.82
  -1   7 -21    5.52    1.19
   1   7  21    4.75    0.71
  -2  -7 -21    1.65    1.09
  -2   7 -21    1.76    1.20
  -3  -7 -21   -0.77    1.19
  -3   7 -21    1.18    1.15
  -4  -7 -21    1.75    1.29
  -4   7 -21   -0.71    1.34
  -5  -7 -21   -0.57    1.65
  -5   7 -21    0.02    1.67
  -6  -7 -21    3.73    1.97
  -6   7 -21    1.76    2.08
  -7  -8  21    0.53    1.13
  -7   8  21   -1.62    1.20
  -6  -8  21    0.54    0.89
  -6   8  21   -1.46    0.99
  -5  -8  21    0.73    0.82
  -5   8  21   -1.52    0.83
  -4  -8  21    3.90    0.82
  -4   8  21    2.09    0.79
  -3  -8  21    1.21    0.70
  -3   8  21    1.86    0.77
  -2  -8  21    4.24    0.79
  -2   8  21    3.33    0.79
   1  -8 -21    2.64    1.11
  -1  -8  21    3.66    0.83
   1   8 -21    3.06    1.28
  -1   8  21    2.29    0.79
   0  -8 -21    2.53    1.07
   0  -8  21    1.92    0.83
   0   8  21    2.84    0.74
   0   8 -21    2.16    1.22
   1  -8  21    0.40    0.75
  -1  -8 -21    1.17    1.07
  -1   8 -21   -0.50    1.17
   1   8  21    1.31    0.79
  -2  -8 -21    2.08    1.21
  -2   8 -21   -2.02    1.14
  -3  -8 -21    9.62    1.42
  -3   8 -21    8.13    1.48
  -4  -8 -21    4.12    1.46
  -4   8 -21    2.66    1.53
  -5  -8 -21    3.13    1.79
  -5   8 -21    2.06    1.79
  -6  -8 -21    0.94    2.18
  -6   8 -21    2.24    2.17
  -6  -9  21    1.07    1.04
  -6   9  21    0.34    1.13
  -5  -9  21    3.46    0.95
  -5   9  21    1.98    0.98
  -4  -9  21   -0.35    0.79
  -4   9  21   -0.33    0.83
  -3  -9  21   -0.18    0.74
  -3   9  21    0.50    0.78
  -2  -9  21    0.16    0.76
  -2   9  21    0.03    0.77
   1  -9 -21    6.35    1.32
  -1  -9  21    7.22    0.97
  -1   9  21    7.16    0.97
   1   9 -21    5.86    1.44
   0  -9  21    1.35    0.88
   0  -9 -21   -1.05    1.13
   0   9  21   -0.08    0.80
   0   9 -21   -1.18    1.13
  -1  -9 -21    5.54    1.23
   1  -9  21    4.38    0.98
  -1   9 -21    4.91    1.32
  -2  -9 -21    1.13    1.10
  -2   9 -21    1.92    1.28
  -3  -9 -21   -0.06    1.36
  -3   9 -21    0.33    1.49
  -4  -9 -21   -1.57    1.49
  -4   9 -21   -0.91    1.60
  -5  -9 -21    5.59    1.99
  -5   9 -21    3.65    2.00
  -6 -10  21    0.77    1.65
  -6  10  21    2.60    1.60
  -5 -10  21    0.74    0.99
  -5  10  21   -0.66    1.08
  -4 -10  21    1.91    0.95
  -4  10  21    1.86    1.01
  -3 -10  21   -1.39    0.82
  -3  10  21   -1.60    0.85
  -2 -10  21    1.13    0.87
  -2  10  21    0.14    0.90
  -1 -10  21    0.28    0.87
   1 -10 -21    0.65    1.24
   1  10 -21    0.22    1.27
  -1  10  21    0.05    0.84
   0 -10  21    0.33    0.93
   0 -10 -21    2.60    1.24
   0  10  21    0.70    0.85
   0  10 -21    0.34    1.19
   1 -10  21    1.78    0.95
  -1 -10 -21    0.82    1.19
  -1  10 -21   -0.98    1.22
  -2 -10 -21    1.58    1.31
  -2  10 -21    2.28    1.38
  -3 -10 -21    2.01    1.44
  -3  10 -21   -1.18    1.47
  -4 -10 -21   -1.41    1.68
  -4  10 -21    1.78    1.71
  -5 -10 -21    1.59    2.05
  -5  10 -21    1.08    2.06
  -5 -11  21    1.54    1.21
  -5  11  21   -0.46    1.23
  -4 -11  21    0.89    1.02
  -4  11  21   -0.78    1.02
  -3 -11  21    1.65    0.97
  -3  11  21    0.15    0.98
  -2 -11  21    1.66    0.95
  -2  11  21    1.07    1.03
  -1 -11  21    2.93    1.09
   1  11 -21   -0.92    1.41
  -1  11  21   -1.67    0.94
   0 -11  21    1.86    1.04
   0 -11 -21    1.53    1.26
   0  11 -21    0.93    1.34
   0  11  21    1.10    0.94
   1 -11  21    1.07    1.11
  -1 -11 -21   -0.50    1.35
  -1  11 -21    0.43    1.38
  -2 -11 -21    2.58    1.47
  -2  11 -21   -0.18    1.42
  -3 -11 -21    1.98    1.65
  -3  11 -21    1.00    1.54
  -4 -11 -21    1.69    1.88
  -4  11 -21   -1.05    1.74
  -4 -12  21    0.24    1.19
  -4  12  21   -1.89    1.18
  -3 -12  21    1.94    1.10
  -3  12  21    0.15    1.10
  -2 -12  21    3.45    1.12
  -2  12  21    2.03    1.10
  -1 -12  21    2.32    1.12
   1  12 -21   -0.70    1.50
  -1  12  21   -0.74    1.10
   0 -12  21    1.62    1.17
   0 -12 -21   -0.43    1.43
   0  12  21   -1.84    1.01
   0  12 -21   -0.15    1.45
  -1 -12 -21    0.18    1.50
   1 -12  21    0.08    1.26
  -1  12 -21   -1.99    1.45
  -2 -12 -21    0.98    1.58
  -2  12 -21    0.74    1.54
  -3 -12 -21    3.69    1.79
  -3  12 -21    3.11    1.79
  -3  13  21    0.16    1.32
  -2 -13  21   -0.78    1.20
  -2  13  21   -1.52    1.23
  -1 -13  21    1.91    1.24
  -1  13  21   -0.77    1.09
   0 -13 -21    0.27    1.61
   0 -13  21    2.42    1.20
   0  13  21    1.84    1.08
   0  13 -21   -0.92    1.65
  -1 -13 -21    7.09    1.84
  -1  13 -21    5.65    1.84
  -2 -13 -21    3.37    1.88
  -2  13 -21   -0.17    1.78
  -1  14  21    1.20    1.35
   0 -14  21    0.24    1.51
   0 -14 -21   -2.46    1.71
   0  14 -21   -1.47    1.79
  -9   0  22   -1.08    1.33
  -8   0  22    1.86    1.14
  -8   0  22   -1.00    1.00
  -7   0  22    0.80    0.86
  -6   0  22    6.64    0.87
  -5   0  22    1.59    0.63
  -4   0  22    1.07    0.59
  -3   0  22   10.61    0.96
  -2   0  22   16.97    1.07
   1   0 -22    4.65    0.95
  -1   0  22    5.38    0.68
   0   0 -22    1.45    0.88
   0   0 -22    1.05    0.80
   0   0  22    1.09    0.55
  -1   0 -22    7.80    1.13
  -1   0 -22   10.51    1.05
   1   0  22    9.67    0.86
  -2   0 -22   14.31    1.75
  -2   0 -22   13.74    1.40
  -3   0 -22    3.13    1.15
  -3   0 -22    1.00    1.02
  -4   0 -22   -0.07    1.35
  -4   0 -22    1.48    1.22
  -5   0 -22    2.79    1.51
  -5   0 -22    2.98    1.74
  -6   0 -22   -1.58    1.80
  -6   0 -22    3.93    2.01
  -7   0 -22    4.33    2.45
  -9   1  22    1.49    1.40
  -8  -1  22    0.22    1.35
  -8  -1  22    0.03    1.01
  -8   1  22    0.08    1.20
  -8   1  22   -1.21    1.06
  -7  -1  22   23.15    1.63
  -7  -1  22   23.97    1.67
  -7   1  22   21.48    1.66
  -6  -1  22    0.34    0.68
  -6   1  22    0.62    0.71
  -5  -1  22    0.20    0.56
  -5   1  22   -0.34    0.60
  -4  -1  22    0.98    0.59
  -4   1  22    0.34    0.55
  -3  -1  22   11.40    0.95
  -3   1  22   10.98    0.95
  -2  -1  22    1.56    0.58
  -2   1  22    2.49    0.58
  -1  -1  22    2.34    0.59
   1  -1 -22    0.51    0.80
  -1   1  22    1.83    0.61
   1   1 -22    1.82    0.88
   0  -1  22    3.55    0.65
   0  -1 -22    5.29    0.95
   0  -1 -22    5.64    0.90
   0   1 -22    4.35    0.93
   0   1 -22    6.27    1.00
   0   1  22    4.36    0.64
  -1  -1 -22   -0.41    0.88
  -1  -1 -22    0.75    0.77
   1  -1  22   -0.49    0.51
  -1   1 -22    0.57    0.89
   1   1  22    0.09    0.52
  -1   1 -22   -0.53    0.83
  -2  -1 -22   16.31    1.72
  -2  -1 -22   14.51    1.41
  -2   1 -22   13.20    1.72
  -2   1 -22   13.21    1.46
  -3  -1 -22    1.75    1.05
  -3  -1 -22    0.42    1.11
  -3   1 -22    1.80    1.23
  -3   1 -22   -0.26    1.06
  -4  -1 -22   15.05    1.79
  -4  -1 -22   18.65    1.76
  -4   1 -22   17.64    2.51
  -5  -1 -22    1.51    1.57
  -5  -1 -22   -1.05    1.74
  -5   1 -22    3.69    1.71
  -6  -1 -22    6.98    2.06
  -6  -1 -22    3.28    1.77
  -6   1 -22    4.89    2.09
  -7  -1 -22    1.42    2.34
  -7  -1 -22    1.55    2.06
  -7   1 -22    1.24    2.29
  -9   2  22    0.74    1.55
  -8  -2  22    1.66    1.08
  -8   2  22   -0.99    1.07
  -7  -2  22    1.49    0.89
  -7   2  22    1.16    0.92
  -6  -2  22    6.22    0.90
  -6   2  22    5.60    0.87
  -5  -2  22    0.76    0.62
  -5   2  22    0.48    0.66
  -4  -2  22    0.19    0.57
  -4   2  22   -0.76    0.56
  -3  -2  22    1.07    0.59
  -3   2  22    2.28    0.61
  -2  -2  22    2.85    0.59
  -2   2  22    2.35    0.60
  -1  -2  22    1.54    0.58
   1   2 -22    2.54    0.92
  -1   2  22    2.74    0.60
   0  -2  22   -0.51    0.56
   0  -2 -22   -0.48    0.80
   0  -2 -22   -0.28    0.77
   0   2 -22   -0.61    0.82
   0   2  22    0.82    0.57
   1  -2  22    2.43    0.58
  -1  -2 -22    2.59    0.95
  -1  -2 -22    1.76    0.79
  -1   2 -22    3.39    0.91
   1   2  22    1.98    0.61
  -2  -2 -22    1.39    0.98
  -2  -2 -22    0.34    0.86
  -2   2 -22   -0.16    0.93
  -3  -2 -22    6.80    1.18
  -3  -2 -22    4.91    1.26
  -3   2 -22    8.97    1.29
  -4  -2 -22    0.62    1.31
  -4  -2 -22   -1.09    1.34
  -4   2 -22   -0.27    1.32
  -5  -2 -22    6.65    1.77
  -5  -2 -22    5.08    1.57
  -5   2 -22    1.74    1.63
  -6  -2 -22    0.23    1.85
  -6  -2 -22   -3.62    1.73
  -6   2 -22    1.64    1.96
  -7  -2 -22    6.26    2.02
  -7  -2 -22    4.99    2.29
  -7   2 -22    3.97    2.30
  -9   3  22   -0.61    1.55
  -8  -3  22    1.67    1.14
  -8   3  22    0.57    1.13
  -7  -3  22    1.84    0.91
  -7   3  22    2.15    1.02
  -6  -3  22    0.88    0.76
  -6   3  22   -0.20    0.78
  -5  -3  22    3.13    0.72
  -5   3  22    0.98    0.73
  -4  -3  22    1.29    0.62
  -4   3  22    2.14    0.64
  -3  -3  22    2.01    0.64
  -3   3  22    1.62    0.61
  -2  -3  22    4.20    0.63
  -2   3  22    3.27    0.63
  -1  -3  22    3.12    0.62
   1   3 -22    2.43    0.88
  -1   3  22    2.86    0.62
   0  -3 -22    3.41    0.90
   0  -3  22    4.00    0.66
   0  -3 -22    2.71    0.85
   0   3  22    3.66    0.65
   0   3 -22    4.02    0.98
  -1  -3 -22    3.38    0.91
  -1  -3 -22    2.65    0.89
   1  -3  22    1.37    0.59
  -1   3 -22    1.75    0.92
   1   3  22    2.34    0.81
  -2  -3 -22    0.87    0.93
  -2  -3 -22   -0.09    0.86
  -2   3 -22    1.67    1.00
  -3  -3 -22    0.87    1.09
  -3  -3 -22    1.71    1.08
  -3   3 -22    0.84    1.14
  -4  -3 -22    1.33    1.25
  -4  -3 -22    1.64    1.34
  -4   3 -22   -0.15    1.38
  -5  -3 -22   -0.09    1.55
  -5  -3 -22    1.35    1.50
  -5   3 -22    0.59    1.65
  -6  -3 -22   -2.36    1.80
  -6   3 -22    0.62    1.90
  -7  -3 -22    2.88    2.00
  -8  -4  22    0.46    1.25
  -8   4  22    0.32    1.34
  -7  -4  22    2.72    0.95
  -7   4  22    0.96    1.02
  -6  -4  22    6.24    0.96
  -6   4  22    7.62    1.02
  -5  -4  22    7.16    0.90
  -5   4  22    7.29    0.91
  -4  -4  22    4.71    0.73
  -4   4  22    4.19    0.75
  -3  -4  22    0.68    0.61
  -3   4  22    1.03    0.63
  -2  -4  22    1.18    0.59
  -2   4  22    0.16    0.57
   1  -4 -22   29.63    1.81
  -1  -4  22   30.65    1.44
  -1   4  22   27.56    1.44
   1   4 -22   27.72    1.95
   0  -4  22    0.45    0.59
   0  -4 -22    0.72    0.85
   0  -4 -22    0.57    0.75
   0   4 -22   -0.29    0.86
   0   4  22    0.99    0.60
  -1  -4 -22    2.54    1.01
  -1  -4 -22    2.30    0.94
   1  -4  22    2.69    0.64
  -1   4 -22    1.76    0.99
  -2  -4 -22    2.43    0.99
  -2   4 -22    2.74    1.07
  -3  -4 -22   23.40    1.99
  -3   4 -22   20.01    2.24
  -4  -4 -22    1.17    1.30
  -4   4 -22    0.38    1.30
  -5  -4 -22    6.74    1.77
  -5   4 -22    4.24    1.75
  -6  -4 -22   -0.52    1.88
  -6   4 -22   -0.57    1.91
  -7  -5  22    0.53    0.98
  -7   5  22    0.47    1.09
  -6  -5  22    1.70    0.84
  -6   5  22    0.33    0.88
  -5  -5  22    5.77    0.85
  -5   5  22    4.56    0.82
  -4  -5  22    6.43    0.81
  -4   5  22    5.39    0.80
  -3  -5  22   10.86    1.06
  -3   5  22    9.92    1.07
  -2  -5  22    0.55    0.66
  -2   5  22    0.99    0.65
   1  -5 -22    6.30    1.09
  -1  -5  22    6.66    0.76
   1   5 -22    5.88    1.12
  -1   5  22    6.07    0.74
   0  -5  22    3.29    0.69
   0  -5 -22    3.30    0.98
   0   5 -22    2.85    1.01
   0   5  22    3.20    0.69
   1  -5  22    8.11    0.82
  -1  -5 -22    8.99    1.19
  -1   5 -22    8.66    1.23
  -2  -5 -22    3.10    1.03
  -2   5 -22    1.68    1.16
  -3  -5 -22    2.14    1.27
  -3   5 -22    2.51    1.25
  -4  -5 -22    3.84    1.34
  -4   5 -22    1.32    1.37
  -5  -5 -22   -1.70    1.59
  -5   5 -22   -1.12    1.60
  -6  -5 -22    3.70    1.97
  -6   5 -22    0.34    1.95
  -7  -6  22    0.03    1.09
  -7   6  22   -0.77    1.12
  -6  -6  22    7.00    1.02
  -6   6  22    6.65    1.10
  -5  -6  22    5.91    0.89
  -5   6  22    5.73    0.94
  -4  -6  22   14.64    1.24
  -4   6  22   13.24    1.29
  -3  -6  22    1.39    0.67
  -3   6  22    0.49    0.64
  -2  -6  22   15.41    1.23
  -2   6  22   12.95    1.28
  -1  -6  22   16.72    1.29
   1  -6 -22   18.47    1.64
  -1   6  22   17.27    1.25
   1   6 -22   17.13    1.88
   0  -6  22   -0.28    0.66
   0  -6 -22   -0.68    0.87
   0   6  22   -0.52    0.62
   0   6 -22    0.74    1.04
  -1  -6 -22   13.61    1.62
   1  -6  22   14.10    1.18
  -1   6 -22   16.87    1.96
  -2  -6 -22    3.50    1.14
  -2   6 -22    4.54    1.33
  -3  -6 -22    5.51    1.32
  -3   6 -22    6.40    1.43
  -4  -6 -22    0.53    1.38
  -4   6 -22    1.01    1.48
  -5  -6 -22    8.25    1.85
  -5   6 -22    6.31    1.92
  -6  -6 -22    3.55    2.07
  -6   6 -22    0.90    2.00
  -7  -7  22    0.57    1.19
  -7   7  22    1.42    1.35
  -6  -7  22    1.26    0.95
  -6   7  22   -0.36    0.98
  -5  -7  22    5.56    0.92
  -5   7  22    4.94    1.00
  -4  -7  22    1.41    0.77
  -4   7  22    4.42    0.87
  -3  -7  22   10.62    1.21
  -3   7  22   11.84    1.24
  -2  -7  22    0.54    0.71
  -2   7  22   -1.18    0.67
   1  -7 -22    1.20    1.02
  -1  -7  22    1.38    0.78
  -1   7  22    0.57    0.72
   1   7 -22    0.79    1.18
   0  -7 -22    4.53    1.12
   0  -7  22    3.14    0.84
   0   7 -22    4.44    1.25
   0   7  22    3.56    0.76
  -1  -7 -22    4.54    1.18
   1  -7  22    3.82    0.82
  -1   7 -22    5.85    1.29
  -2  -7 -22    2.49    1.14
  -2   7 -22    1.95    1.18
  -3  -7 -22    1.60    1.23
  -3   7 -22   -0.97    1.29
  -4  -7 -22    1.23    1.49
  -4   7 -22   -0.01    1.54
  -5  -7 -22   -1.60    1.76
  -5   7 -22    3.14    1.87
  -6  -7 -22    3.14    2.14
  -6   7 -22   -0.38    2.20
  -6  -8  22    0.82    1.06
  -6   8  22   -0.12    1.14
  -5  -8  22    1.47    0.91
  -5   8  22   -1.13    0.88
  -4  -8  22   12.17    1.35
  -4   8  22   11.57    1.43
  -3  -8  22    4.70    0.86
  -3   8  22    4.57    0.90
  -2  -8  22    5.72    0.93
  -2   8  22    4.49    0.88
   1  -8 -22   -1.50    1.17
  -1  -8  22    2.01    0.86
   1   8 -22    1.84    1.24
  -1   8  22    0.08    0.79
   0  -8  22    1.04    0.87
   0  -8 -22    2.43    1.21
   0   8  22    0.49    0.76
   0   8 -22    2.42    1.21
  -1  -8 -22    4.72    1.23
   1  -8  22    4.69    0.97
  -1   8 -22    4.85    1.31
  -2  -8 -22    5.79    1.26
  -2   8 -22    6.59    1.42
  -3  -8 -22   -1.51    1.30
  -3   8 -22   -0.26    1.41
  -4  -8 -22   -2.15    1.56
  -4   8 -22   -0.90    1.63
  -5  -8 -22    4.36    2.03
  -5   8 -22    0.39    2.03
  -6  -9  22    2.26    1.31
  -6   9  22    1.47    1.27
  -5  -9  22    3.83    1.10
  -5   9  22    4.77    1.10
  -4  -9  22   -0.19    0.84
  -4   9  22   -0.95    0.87
  -3  -9  22    0.81    0.87
  -3   9  22    1.00    0.86
  -2  -9  22    0.33    0.86
  -2   9  22   -0.76    0.86
   1  -9 -22    0.45    1.16
  -1  -9  22    0.85    0.90
  -1   9  22    1.27    0.88
   1   9 -22   -0.53    1.24
   0  -9 -22    0.98    1.14
   0  -9  22    3.86    0.98
   0   9 -22    2.32    1.23
   0   9  22    2.34    0.87
  -1  -9 -22   -0.76    1.16
   1  -9  22    1.62    1.49
  -1   9 -22   -0.82    1.25
  -2  -9 -22    1.53    1.35
  -2   9 -22   -0.53    1.38
  -3  -9 -22   -1.20    1.42
  -3   9 -22    3.19    1.65
  -4  -9 -22    4.81    1.82
  -4   9 -22    3.21    1.84
  -5  -9 -22    5.58    2.14
  -5   9 -22    2.26    2.17
  -5 -10  22    0.86    1.09
  -5  10  22    0.89    1.18
  -4 -10  22    1.91    1.01
  -4  10  22   -0.05    0.98
  -3 -10  22   -0.17    0.91
  -3  10  22    0.43    0.93
  -2 -10  22    2.21    1.01
  -2  10  22    3.52    1.04
  -1 -10  22   -0.17    0.95
  -1  10  22    0.74    0.94
   1  10 -22   -0.92    1.35
   0 -10  22    2.11    1.06
   0 -10 -22    3.67    1.38
   0  10  22    3.50    0.95
   0  10 -22    2.36    1.43
  -1 -10 -22    3.32    1.41
  -1  10 -22   -1.80    1.38
  -2 -10 -22    1.09    1.43
  -2  10 -22    0.57    1.55
  -3 -10 -22    1.86    1.56
  -3  10 -22    2.12    1.70
  -4 -10 -22   -3.26    1.76
  -4  10 -22   -0.05    1.81
  -4 -11  22    0.40    1.14
  -4  11  22    0.14    1.18
  -3 -11  22    1.98    1.04
  -3  11  22    0.15    1.09
  -2 -11  22    2.63    1.06
  -2  11  22    1.68    1.07
  -1 -11  22    1.42    1.10
   1  11 -22    3.12    1.57
  -1  11  22    1.29    1.03
   0 -11 -22    0.79    1.38
   0 -11  22    1.36    1.11
   0  11 -22   -0.59    1.45
   0  11  22    0.57    0.98
  -1 -11 -22    2.66    1.55
  -1  11 -22    1.07    1.55
  -2 -11 -22    2.13    1.58
  -2  11 -22    2.10    1.67
  -3 -11 -22    1.39    1.70
  -3  11 -22    1.80    1.77
  -3 -12  22   -0.03    1.25
  -3  12  22   -1.21    1.21
  -2 -12  22    1.29    1.24
  -2  12  22    0.33    1.10
  -1 -12  22    1.44    1.11
   1  12 -22    0.57    1.76
  -1  12  22    0.10    1.07
   0 -12  22   -0.13    1.20
   0 -12 -22    4.46    1.67
   0  12 -22    2.07    1.67
  -1 -12 -22    1.98    1.75
  -1  12 -22    2.82    1.73
  -2 -12 -22    5.52    1.83
  -2  12 -22    3.32    1.84
  -2  13  22    3.96    1.59
  -1 -13  22    2.20    1.42
  -1  13  22    3.27    1.27
   0 -13 -22   -1.42    1.73
   0 -13  22    1.59    1.31
   0  13 -22   -1.30    1.75
  -1 -13 -22    1.33    1.83
  -1  13 -22   -1.14    1.68
  -8   0  23    0.89    1.26
  -7   0  23    0.41    0.90
  -6   0  23    1.69    0.81
  -5   0  23    0.55    0.67
  -4   0  23    0.14    0.60
  -3   0  23   -0.01    0.59
  -2   0  23    1.66    0.63
   1   0 -23    1.22    0.94
  -1   0  23   -0.01    0.60
   0   0 -23    0.20    0.93
   0   0  23    0.40    0.62
   0   0 -23    1.04    0.88
  -1   0 -23    0.02    0.90
  -1   0 -23    1.33    1.02
  -2   0 -23    0.48    1.08
  -2   0 -23   -0.38    0.97
  -3   0 -23    1.11    1.18
  -3   0 -23   -0.59    1.23
  -4   0 -23   -0.18    1.53
  -4   0 -23   -0.94    1.51
  -5   0 -23    0.22    1.74
  -6   0 -23    0.03    2.17
  -8   1  23    0.84    1.33
  -7  -1  23   -0.77    0.90
  -7   1  23    0.42    0.91
  -6  -1  23    1.12    0.76
  -6   1  23    0.94    0.79
  -5  -1  23    2.94    0.73
  -5   1  23    1.66    0.71
  -4  -1  23    1.59    0.64
  -4   1  23    1.25    0.64
  -3  -1  23    0.64    0.62
  -3   1  23    0.61    0.61
  -2  -1  23    3.91    0.69
  -2   1  23    3.51    0.69
  -1  -1  23    0.31    0.61
  -1   1  23    2.22    0.66
   1   1 -23    1.07    0.95
   0  -1 -23    5.03    1.04
   0  -1 -23    7.10    1.02
   0  -1  23    6.16    0.73
   0   1 -23    6.82    1.13
   0   1  23    6.32    0.75
  -1  -1 -23    1.04    0.93
  -1  -1 -23    1.10    1.01
  -1   1 -23    0.56    1.02
  -2  -1 -23    0.74    0.99
  -2  -1 -23    0.20    1.06
  -2   1 -23    4.55    1.20
  -3  -1 -23    1.90    1.16
  -3  -1 -23    1.02    1.28
  -3   1 -23    1.15    1.27
  -4  -1 -23    9.14    1.53
  -4  -1 -23    7.84    1.67
  -4   1 -23    9.10    1.84
  -5  -1 -23    1.29    1.78
  -5  -1 -23    1.09    1.68
  -5   1 -23    0.59    1.83
  -6  -1 -23    1.07    2.08
  -6  -1 -23    1.16    2.09
  -6   1 -23   -0.45    2.10
  -7  -2  23    3.21    0.97
  -7   2  23    0.29    0.93
  -6  -2  23    0.98    0.79
  -6   2  23    2.85    0.85
  -5  -2  23    1.03    0.70
  -5   2  23    0.15    0.68
  -4  -2  23    0.96    0.65
  -4   2  23    0.16    0.62
  -3  -2  23    9.74    1.06
  -3   2  23   10.80    1.07
  -2  -2  23    0.57    0.63
  -2   2  23    0.11    0.61
  -1  -2  23    0.21    0.62
   1   2 -23    0.60    0.88
  -1   2  23    0.39    0.60
   0  -2  23    4.60    0.71
   0  -2 -23    5.24    0.97
   0  -2 -23    3.36    0.98
   0   2  23    4.88    0.72
   0   2 -23    5.23    1.04
  -1  -2 -23   12.43    1.23
  -1  -2 -23   15.14    1.68
  -1   2 -23   13.64    1.80
  -2  -2 -23   -0.84    0.93
  -2  -2 -23    1.03    1.04
  -2   2 -23    3.02    1.15
  -3  -2 -23    4.85    1.23
  -3  -2 -23    2.14    1.24
  -3   2 -23    2.36    1.37
  -4  -2 -23   -0.41    1.38
  -4  -2 -23    1.34    1.47
  -4   2 -23    0.97    1.50
  -5  -2 -23    2.25    1.80
  -5  -2 -23    0.35    1.64
  -5   2 -23    1.44    1.76
  -6  -2 -23    4.41    2.12
  -6  -2 -23    4.21    2.02
  -6   2 -23    2.26    2.15
  -7  -3  23   -1.05    0.93
  -7   3  23   -0.64    1.01
  -6  -3  23    1.54    0.84
  -6   3  23   -1.10    0.83
  -5  -3  23    1.41    0.74
  -5   3  23    1.76    0.75
  -4  -3  23   -0.19    0.68
  -4   3  23   -0.23    0.65
  -3  -3  23    0.20    0.61
  -3   3  23    2.15    0.69
  -2  -3  23    0.21    0.72
  -2   3  23    0.06    0.67
  -1  -3  23    1.01    0.63
   1   3 -23   -0.11    0.96
  -1   3  23    0.86    0.66
   0  -3  23   17.78    1.21
   0  -3 -23   19.29    1.68
   0  -3 -23   19.81    1.58
   0   3 -23   18.50    1.83
   0   3  23   17.78    1.19
  -1  -3 -23    0.10    0.89
  -1  -3 -23    1.33    0.96
  -1   3 -23    0.47    0.95
  -2  -3 -23    0.41    1.01
  -2  -3 -23    1.43    0.99
  -2   3 -23   -1.43    1.07
  -3  -3 -23    2.85    1.21
  -3  -3 -23   -0.50    1.14
  -3   3 -23    3.18    1.33
  -4  -3 -23   15.94    1.90
  -4  -3 -23   14.75    2.36
  -4   3 -23   14.65    1.83
  -5  -3 -23   -2.84    1.65
  -5   3 -23   -0.46    1.72
  -6  -3 -23    4.14    2.02
  -6   3 -23    1.73    2.07
  -7  -4  23    1.96    1.04
  -7   4  23    1.01    1.10
  -6  -4  23    4.26    0.96
  -6   4  23    2.96    0.95
  -5  -4  23    1.82    0.75
  -5   4  23    0.44    0.77
  -4  -4  23    0.53    0.65
  -4   4  23    0.38    0.71
  -3  -4  23   11.45    1.08
  -3   4  23   10.69    1.14
  -2  -4  23    0.60    0.74
  -2   4  23    0.72    0.74
  -1  -4  23    3.03    0.72
   1   4 -23    0.97    0.98
  -1   4  23    2.13    0.70
   0  -4  23    0.36    0.67
   0  -4 -23    0.06    0.87
   0   4  23   -0.25    0.63
   0   4 -23   -0.24    0.98
  -1  -4 -23    7.94    1.15
  -1   4 -23    9.27    1.29
  -2  -4 -23    1.59    1.06
  -2   4 -23    0.89    1.29
  -3  -4 -23    7.89    1.41
  -3   4 -23    5.34    1.36
  -4  -4 -23    2.43    1.52
  -4   4 -23    3.57    1.58
  -5  -4 -23   -1.38    1.72
  -5   4 -23    0.93    1.89
  -6  -4 -23    3.99    2.11
  -6   4 -23    1.13    2.08
  -7  -5  23    1.73    1.12
  -7   5  23    2.98    1.22
  -6  -5  23    2.22    0.93
  -6   5  23    2.71    1.01
  -5  -5  23    3.60    0.88
  -5   5  23    3.12    0.88
  -4  -5  23    6.99    0.89
  -4   5  23    6.84    0.91
  -3  -5  23    0.83    0.69
  -3   5  23    2.21    0.71
  -2  -5  23    9.86    1.22
  -2   5  23   10.98    1.25
  -1  -5  23    0.79    0.75
  -1   5  23    0.74    0.69
   1   5 -23    3.36    1.14
   0  -5 -23    5.39    1.12
   0  -5  23    7.25    0.86
   0   5  23    4.87    0.76
   0   5 -23    6.07    1.23
  -1  -5 -23    0.23    1.06
  -1   5 -23   -0.33    1.15
  -2  -5 -23    9.57    1.36
  -2   5 -23    8.53    1.45
  -3  -5 -23    1.66    1.23
  -3   5 -23    2.07    1.26
  -4  -5 -23    1.14    1.57
  -4   5 -23    2.75    1.54
  -5  -5 -23   -1.01    1.85
  -5   5 -23    2.43    1.86
  -6  -5 -23    2.14    2.09
  -6   5 -23    0.42    2.09
  -6  -6  23    4.67    1.03
  -6   6  23    2.96    1.06
  -5  -6  23    1.17    0.84
  -5   6  23    0.66    0.86
  -4  -6  23    2.22    0.84
  -4   6  23    0.67    0.79
  -3  -6  23    0.54    0.72
  -3   6  23    0.62    0.77
  -2  -6  23    4.08    0.91
  -2   6  23    4.87    0.83
  -1  -6  23    9.20    1.01
  -1   6  23    8.56    0.96
   1   6 -23    8.38    1.46
   0  -6  23    3.13    0.80
   0  -6 -23    1.26    1.05
   0   6  23    0.68    0.71
   0   6 -23    3.78    1.25
  -1  -6 -23   -0.75    1.08
  -1   6 -23    0.51    1.18
  -2  -6 -23   -0.36    1.13
  -2   6 -23    0.47    1.25
  -3  -6 -23    6.70    1.42
  -3   6 -23    4.13    1.49
  -4  -6 -23   -0.28    1.52
  -4   6 -23   -0.05    1.57
  -5  -6 -23    3.39    1.91
  -5   6 -23    1.38    1.95
  -6  -7  23   -0.81    1.04
  -6   7  23    1.25    1.14
  -5  -7  23    4.59    0.97
  -5   7  23    0.75    0.96
  -4  -7  23    5.43    0.97
  -4   7  23    5.36    0.99
  -3  -7  23    1.04    0.79
  -3   7  23   -0.55    0.79
  -2  -7  23    2.74    0.87
  -2   7  23    0.90    0.83
  -1  -7  23    1.74    0.86
  -1   7  23    2.07    0.86
   1   7 -23    2.68    1.25
   0  -7  23   -0.05    0.84
   0  -7 -23   -2.03    1.11
   0   7 -23    0.51    1.10
   0   7  23   -0.43    0.74
  -1  -7 -23   -0.87    1.09
  -1   7 -23   -0.54    1.21
  -2  -7 -23    6.47    1.32
  -2   7 -23    6.10    1.48
  -3  -7 -23    1.24    1.34
  -3   7 -23   -1.28    1.42
  -4  -7 -23    1.73    1.76
  -4   7 -23   -1.95    1.71
  -5  -7 -23   -0.39    1.95
  -5   7 -23    1.11    1.97
  -6   8  23    2.09    1.51
  -5  -8  23    2.22    1.02
  -5   8  23    3.00    1.09
  -4  -8  23    1.52    0.91
  -4   8  23   -0.37    0.89
  -3  -8  23    2.74    0.92
  -3   8  23    1.18    0.90
  -2  -8  23    0.69    0.92
  -2   8  23   -0.21    0.83
  -1  -8  23    2.12    0.95
  -1   8  23    2.66    0.86
   1   8 -23    3.90    1.38
   0  -8  23   -1.58    0.84
   0  -8 -23   -0.96    1.10
   0   8 -23    0.71    1.24
   0   8  23    0.85    0.83
  -1  -8 -23    0.69    1.19
  -1   8 -23    1.29    1.35
  -2  -8 -23    0.08    1.24
  -2   8 -23   -1.10    1.33
  -3   8 -23   -0.55    1.59
  -4  -8 -23    2.57    1.76
  -4   8 -23    0.34    1.83
  -5  -8 -23    3.96    2.20
  -5  -9  23   -0.47    1.12
  -5   9  23    0.61    1.17
  -4  -9  23   -0.31    0.93
  -4   9  23   -0.54    0.95
  -3  -9  23    2.34    0.96
  -3   9  23    5.19    1.05
  -2  -9  23    0.79    0.98
  -2   9  23    0.41    0.94
  -1  -9  23    1.02    1.03
  -1   9  23    1.25    0.91
   1   9 -23    1.08    1.51
   0  -9 -23   -1.69    1.23
   0  -9  23    0.28    1.00
   0   9  23    0.44    0.98
   0   9 -23   -0.03    1.40
  -1  -9 -23   -0.10    1.31
  -1   9 -23    0.69    1.43
  -2  -9 -23    3.63    1.46
  -2   9 -23   -0.24    1.54
  -3  -9 -23    0.38    1.66
  -3   9 -23   -3.45    1.58
  -4  -9 -23   -3.42    1.79
  -4   9 -23    0.15    1.87
  -4 -10  23    1.40    1.14
  -4  10  23   -0.84    1.14
  -3 -10  23    0.41    1.02
  -3  10  23    0.71    1.01
  -2 -10  23    6.12    1.15
  -2  10  23    7.72    1.14
  -1 -10  23    1.49    1.12
  -1  10  23    0.02    1.01
   1  10 -23   -0.41    1.59
   0 -10  23    0.12    1.11
   0 -10 -23    0.72    1.35
   0  10 -23   -0.87    1.48
  -1 -10 -23    0.72    1.40
  -1  10 -23   -0.89    1.46
  -2 -10 -23    0.15    1.54
  -2  10 -23    1.47    1.65
  -3 -10 -23    6.37    1.87
  -3  10 -23    2.64    1.84
  -3 -11  23    5.26    1.30
  -3  11  23    3.13    1.31
  -2 -11  23   -0.79    1.13
  -2  11  23    1.52    1.08
  -1 -11  23    5.74    1.25
   1  11 -23    4.56    1.83
  -1  11  23    5.23    1.17
   0 -11  23    1.54    1.13
   0 -11 -23    0.75    1.53
   0  11 -23   -0.61    1.59
  -1 -11 -23    6.60    1.74
  -1  11 -23    4.45    1.80
  -2 -11 -23    1.66    1.77
  -2  11 -23    1.18    1.76
  -2 -12  23    3.13    1.32
  -2  12  23    0.35    1.27
  -1 -12  23    3.60    1.33
  -1  12  23    3.05    1.14
   0 -12 -23    2.38    1.74
   0 -12  23    1.26    1.25
   0  12 -23    1.58    1.83
  -1 -12 -23   -0.51    1.68
  -1  12 -23   -0.36    1.78
  -7   0  24    5.69    1.14
  -6   0  24    1.45    0.87
  -5   0  24   11.83    1.30
  -4   0  24    1.12    0.72
  -3   0  24   40.06    1.81
  -2   0  24   -0.09    0.73
   1   0 -24   32.48    2.16
  -1   0  24   34.08    1.61
   0   0 -24   23.28    1.98
   0   0  24   26.50    1.40
  -1   0 -24   16.84    1.96
  -2   0 -24    2.60    1.20
  -3   0 -24   10.33    1.68
  -4   0 -24   18.45    2.10
  -5   0 -24    1.47    1.91
  -6   0 -24    4.92    2.34
  -8   1  24   10.43    1.62
  -7  -1  24    6.16    1.17
  -7   1  24    5.99    1.17
  -6  -1  24    7.47    1.04
  -6   1  24    6.86    1.00
  -5  -1  24    0.12    0.76
  -5   1  24    0.03    0.77
  -4  -1  24   57.54    2.33
  -4   1  24   60.39    2.35
  -3  -1  24    3.07    0.76
  -3   1  24    2.97    0.77
  -2  -1  24    3.55    0.82
  -2   1  24    2.29    0.79
  -1  -1  24    5.10    0.79
   1   1 -24    3.47    1.14
  -1   1  24    3.88    0.76
   0  -1 -24   61.46    2.62
   0  -1 -24   61.57    2.78
   0  -1  24   58.15    2.25
   0   1  24   56.66    2.24
   0   1 -24   61.86    2.87
  -1  -1 -24    1.48    1.06
  -1  -1 -24   -1.04    1.06
  -1   1 -24    1.67    1.15
  -2  -1 -24   -0.10    1.08
  -2  -1 -24    1.65    1.21
  -2   1 -24    2.64    1.29
  -3  -1 -24   18.64    2.16
  -3  -1 -24   23.37    2.48
  -3   1 -24   22.51    2.68
  -4  -1 -24    2.50    1.72
  -4  -1 -24    5.78    1.74
  -4   1 -24    4.51    1.74
  -5  -1 -24    1.51    1.88
  -5   1 -24    1.64    1.95
  -6  -1 -24   -1.23    2.18
  -6   1 -24   -2.15    2.31
  -7  -2  24    2.01    1.10
  -7   2  24    0.10    1.06
  -6  -2  24    0.21    0.88
  -6   2  24    0.81    0.87
  -5  -2  24   10.54    1.29
  -5   2  24   11.18    1.30
  -4  -2  24    0.09    0.72
  -4   2  24    0.08    0.68
  -3  -2  24    0.36    0.70
  -3   2  24   -0.65    0.69
  -2  -2  24    0.61    0.74
  -2   2  24    0.16    0.73
  -1  -2  24   16.22    1.27
  -1   2  24   16.84    1.27
   1   2 -24   15.15    1.88
   0  -2  24    4.22    0.77
   0  -2 -24    1.98    1.08
   0  -2 -24    2.96    1.00
   0   2  24    2.81    0.74
   0   2 -24    3.71    1.07
  -1  -2 -24   -0.03    1.01
  -1  -2 -24   -0.70    1.01
  -1   2 -24    0.31    1.07
  -2  -2 -24    0.82    1.14
  -2  -2 -24    4.48    1.20
  -2   2 -24   -2.24    1.24
  -3  -2 -24    5.28    1.37
  -3  -2 -24    6.71    1.41
  -3   2 -24    6.57    1.61
  -4  -2 -24    1.00    1.56
  -4  -2 -24    4.84    1.64
  -4   2 -24    0.51    1.61
  -5  -2 -24   -3.05    2.07
  -5  -2 -24    0.60    1.83
  -5   2 -24   -0.56    1.93
  -6  -2 -24   -0.98    2.28
  -7  -3  24    3.00    1.15
  -7   3  24    1.55    1.21
  -6  -3  24    3.23    0.94
  -6   3  24    4.23    1.00
  -5  -3  24    1.01    0.80
  -5   3  24    0.80    0.84
  -4  -3  24    0.92    0.72
  -4   3  24    0.17    0.72
  -3  -3  24    1.50    0.75
  -3   3  24    0.01    0.72
  -2  -3  24    1.21    0.77
  -2   3  24    1.20    0.76
  -1  -3  24    3.39    0.83
   1   3 -24    3.70    1.08
  -1   3  24    3.89    0.82
   0  -3 -24    1.11    0.98
   0  -3  24    0.55    0.72
   0  -3 -24    0.15    0.95
   0   3 -24    1.41    1.03
   0   3  24    1.03    0.70
  -1  -3 -24    5.26    1.10
  -1  -3 -24    3.79    1.20
  -1   3 -24    3.83    1.27
  -2  -3 -24    0.94    1.16
  -2   3 -24   -0.25    1.26
  -3  -3 -24    7.80    1.51
  -3   3 -24    4.74    1.51
  -4  -3 -24   -0.99    1.54
  -4   3 -24    1.25    1.62
  -5  -3 -24    4.31    1.91
  -5   3 -24    3.49    2.05
  -6  -4  24    0.27    0.94
  -6   4  24    0.24    0.96
  -5  -4  24    6.04    0.96
  -5   4  24    6.99    1.03
  -4  -4  24    0.86    0.78
  -4   4  24   -0.62    0.77
  -3  -4  24   37.42    1.80
  -3   4  24   36.94    1.83
  -2  -4  24    2.07    0.79
  -2   4  24    2.63    0.80
  -1  -4  24    2.06    0.85
  -1   4  24    3.68    0.85
   1   4 -24    2.26    1.24
   0  -4 -24    2.13    1.06
   0  -4  24    1.65    0.77
   0   4 -24    2.62    1.25
   0   4  24    2.00    0.74
  -1  -4 -24   14.91    1.52
  -1   4 -24   16.65    1.74
  -2  -4 -24    3.46    1.19
  -2   4 -24    1.89    1.32
  -3  -4 -24    0.87    1.36
  -3   4 -24   -0.44    1.38
  -4  -4 -24    0.98    1.65
  -4   4 -24   -1.03    1.63
  -5  -4 -24   -0.77    1.86
  -5   4 -24   -1.49    1.91
  -6  -5  24   12.55    1.33
  -6   5  24   11.99    1.32
  -5  -5  24    0.69    0.88
  -5   5  24   -0.91    0.86
  -4  -5  24    1.30    0.82
  -4   5  24    1.82    0.85
  -3  -5  24    0.60    0.81
  -3   5  24    0.27    0.80
  -2  -5  24    5.34    0.91
  -2   5  24    3.77    0.89
  -1  -5  24    2.95    0.90
  -1   5  24    2.37    0.85
   1   5 -24    1.45    1.19
   0  -5 -24    6.18    1.28
   0  -5  24    7.42    0.95
   0   5  24    6.47    0.94
   0   5 -24    7.11    1.37
  -1  -5 -24    4.39    1.23
  -1   5 -24    3.56    1.36
  -2  -5 -24    0.68    1.24
  -2   5 -24   -0.15    1.26
  -3  -5 -24    0.38    1.40
  -3   5 -24   -0.31    1.44
  -4  -5 -24    0.25    1.72
  -4   5 -24    0.79    1.72
  -5  -5 -24   -0.94    1.96
  -5   5 -24    2.09    1.99
  -6  -6  24    2.05    1.17
  -6   6  24    1.92    1.18
  -5  -6  24    3.11    0.96
  -5   6  24    2.44    1.00
  -4  -6  24   -0.82    0.84
  -4   6  24    0.46    0.89
  -3  -6  24   15.67    1.44
  -3   6  24   13.32    1.49
  -2  -6  24   -0.14    0.88
  -2   6  24   -0.70    0.79
  -1  -6  24    1.92    0.87
   1   6 -24    0.88    1.26
  -1   6  24   -0.10    0.82
   0  -6 -24   -1.27    1.13
   0  -6  24   -1.08    0.84
   0   6 -24    0.69    1.18
  -1  -6 -24    2.96    1.25
  -1   6 -24    0.66    1.19
  -2  -6 -24    1.33    1.24
  -2   6 -24    0.62    1.35
  -3  -6 -24   -0.67    1.49
  -3   6 -24    0.87    1.48
  -4  -6 -24    2.80    1.75
  -4   6 -24   -0.59    1.69
  -5  -6 -24    1.79    2.00
  -5   6 -24    2.24    2.10
  -5  -7  24   -0.34    1.03
  -5   7  24    0.91    1.08
  -4  -7  24    3.35    0.98
  -4   7  24    3.03    0.98
  -3  -7  24    1.90    0.95
  -3   7  24    1.53    0.94
  -2  -7  24    1.42    0.93
  -2   7  24    1.14    0.89
  -1  -7  24    0.13    0.90
  -1   7  24   -1.93    0.81
   1   7 -24    0.13    1.31
   0  -7  24   -0.17    0.87
   0  -7 -24    0.02    1.17
   0   7 -24    2.28    1.33
  -1  -7 -24    1.90    1.29
  -1   7 -24    2.33    1.41
  -2  -7 -24    2.09    1.35
  -2   7 -24   -1.20    1.41
  -3  -7 -24    1.12    1.51
  -3   7 -24    1.50    1.72
  -4  -7 -24   -0.88    1.71
  -4   7 -24    2.20    1.93
  -5  -8  24   -0.26    1.15
  -5   8  24   -0.88    1.15
  -4  -8  24   -0.38    0.98
  -4   8  24   -0.86    0.93
  -3  -8  24    1.95    1.01
  -3   8  24    1.83    0.98
  -2  -8  24   -1.17    0.95
  -2   8  24   -0.50    0.96
  -1  -8  24   -0.40    1.00
  -1   8  24    1.83    0.92
   1   8 -24   -1.10    1.43
   0  -8  24    1.18    1.01
   0  -8 -24   -1.29    1.28
   0   8 -24    2.85    1.45
  -1  -8 -24    1.49    1.38
  -1   8 -24    0.36    1.47
  -2  -8 -24    1.74    1.44
  -2   8 -24    0.50    1.55
  -3  -8 -24   -0.02    1.58
  -3   8 -24    1.23    1.72
  -4  -8 -24    2.44    1.87
  -4   8 -24   -0.65    1.90
  -4  -9  24    0.02    1.11
  -4   9  24   -1.13    1.13
  -3  -9  24    1.05    1.05
  -3   9  24   -0.10    1.03
  -2  -9  24    4.95    1.17
  -2   9  24    4.29    1.08
  -1  -9  24   -0.07    1.10
   1   9 -24   -1.14    1.61
  -1   9  24    0.10    0.98
   0  -9 -24   -0.60    1.35
   0  -9  24   -0.44    1.06
   0   9 -24   -1.36    1.51
  -1  -9 -24    4.87    1.60
  -1   9 -24    5.17    1.73
  -2  -9 -24    2.59    1.61
  -2   9 -24    0.72    1.65
  -3  -9 -24    2.88    1.71
  -3   9 -24   -0.17    1.88
  -3 -10  24    5.71    1.34
  -3  10  24    4.04    1.25
  -2 -10  24    0.45    1.07
  -2  10  24    1.68    1.09
  -1 -10  24    1.70    1.10
   1  10 -24   -2.23    1.72
  -1  10  24    1.04    1.00
   0 -10 -24   -2.70    1.51
   0  10 -24   -1.57    1.67
  -1 -10 -24   12.66    1.96
  -1  10 -24   10.10    1.97
  -2 -10 -24    8.63    1.91
  -2  10 -24    7.71    1.99
  -2 -11  24    9.00    1.44
  -2  11  24   10.40    1.38
  -1 -11  24    1.69    1.28
  -1  11  24   -1.54    1.02
   1  11 -24    0.67    1.84
   0 -11 -24   -0.54    1.68
   0  11 -24   -1.59    1.72
  -1 -11 -24    2.31    1.70
  -1  11 -24    3.47    1.90
  -6   0  25    0.09    0.97
  -5   0  25   -0.18    0.84
  -4   0  25    0.39    0.80
  -3   0  25    0.39    0.82
  -2   0  25    0.13    0.78
  -1   0  25   -0.27    0.80
   0   0 -25    0.99    1.15
  -1   0 -25   -0.31    1.17
  -2   0 -25   -0.21    1.41
  -3   0 -25   -0.08    1.58
  -4   0 -25   -1.43    1.67
  -5   0 -25    0.10    2.03
  -6  -1  25    2.59    1.02
  -6   1  25    0.23    1.02
  -5  -1  25    1.56    0.88
  -5   1  25    0.23    0.84
  -4  -1  25    0.38    0.80
  -4   1  25    0.74    0.83
  -3  -1  25    1.12    0.81
  -3   1  25    1.19    0.84
  -2  -1  25    2.42    0.85
  -2   1  25    3.61    0.85
  -1  -1  25   -0.16    0.80
  -1   1  25   -0.34    0.79
   1   1 -25    0.89    1.14
   0  -1 -25    0.24    1.16
   0   1 -25   -0.06    1.17
  -1  -1 -25    0.03    1.17
  -1  -1 -25    1.12    1.79
  -1   1 -25    1.76    1.32
  -2  -1 -25   -0.30    1.28
  -2   1 -25    0.68    1.42
  -3  -1 -25    1.52    1.52
  -3   1 -25    3.67    1.69
  -4  -1 -25   -0.73    1.62
  -4   1 -25   -1.88    1.70
  -5  -1 -25    1.31    2.00
  -5   1 -25   -0.99    2.15
  -6  -2  25    0.29    1.01
  -6   2  25   -0.78    0.98
  -5  -2  25    6.35    0.99
  -5   2  25    6.34    0.99
  -4  -2  25    1.17    0.84
  -4   2  25   -0.14    0.80
  -3  -2  25   -0.55    0.79
  -3   2  25    1.79    0.83
  -2  -2  25    5.47    0.91
  -2   2  25    6.33    0.92
  -1  -2  25    8.14    1.01
  -1   2  25    9.36    1.01
   1   2 -25    8.65    1.44
   0  -2 -25   -0.01    1.05
   0  -2 -25    0.47    1.16
   0   2 -25    0.69    1.24
  -1  -2 -25    1.51    1.18
  -1  -2 -25    1.89    1.13
  -1   2 -25    2.30    1.41
  -2  -2 -25    5.48    1.34
  -2  -2 -25    5.09    1.31
  -2   2 -25    6.59    1.60
  -3  -2 -25    2.25    1.56
  -3  -2 -25    2.68    1.51
  -3   2 -25    4.42    1.73
  -4  -2 -25   11.07    1.94
  -4   2 -25    9.37    2.05
  -5   2 -25    0.66    2.13
  -6  -3  25    0.47    1.01
  -6   3  25   -1.52    1.00
  -5  -3  25    2.23    0.90
  -5   3  25   -0.28    0.86
  -4  -3  25    3.12    0.90
  -4   3  25    2.24    0.87
  -3  -3  25    1.08    0.87
  -3   3  25    1.36    0.85
  -2  -3  25    4.25    0.89
  -2   3  25    3.57    0.84
  -1  -3  25    0.43    0.84
   1   3 -25   -1.26    1.19
  -1   3  25    1.07    0.83
   0   3 -25   -2.21    1.19
  -1  -3 -25    0.69    1.26
  -1   3 -25    4.16    1.41
  -2  -3 -25    1.58    1.32
  -2   3 -25    2.48    1.44
  -3  -3 -25    1.70    1.47
  -3   3 -25   -0.82    1.55
  -4  -3 -25    1.32    1.67
  -4   3 -25    0.61    1.82
  -5  -3 -25    1.54    2.05
  -5   3 -25    2.09    2.20
  -6  -4  25    0.49    1.09
  -6   4  25   -1.52    1.08
  -5  -4  25   -0.50    0.89
  -5   4  25    1.10    0.92
  -4  -4  25    0.60    0.84
  -4   4  25   -0.68    0.84
  -3  -4  25    0.87    0.89
  -3   4  25    0.24    0.87
  -2  -4  25    0.04    0.87
  -2   4  25    0.45    0.87
  -1  -4  25    0.57    0.86
   1   4 -25    1.13    1.25
  -1   4  25    1.28    0.85
   0  -4 -25    0.29    1.18
   0   4 -25   -0.71    1.17
  -1  -4 -25   -2.55    1.22
  -1   4 -25   -0.33    1.30
  -2  -4 -25    3.18    1.37
  -2   4 -25    1.31    1.47
  -3  -4 -25   -1.29    1.48
  -3   4 -25    2.20    1.61
  -4  -4 -25    4.03    1.82
  -4   4 -25   -0.28    1.77
  -5  -4 -25   -0.40    2.06
  -5  -5  25    0.76    0.97
  -5   5  25    1.01    1.03
  -4  -5  25    3.81    1.00
  -4   5  25    3.69    0.94
  -3  -5  25    0.35    0.96
  -3   5  25    0.50    0.91
  -2  -5  25    3.57    0.97
  -2   5  25    4.07    0.93
  -1  -5  25    2.87    0.93
  -1   5  25    3.68    0.88
   1   5 -25    4.56    1.37
   0  -5 -25    4.45    1.32
   0   5 -25    3.98    1.32
  -1  -5 -25   -1.08    1.28
  -1   5 -25    2.10    1.37
  -2  -5 -25    0.86    1.40
  -2   5 -25    1.68    1.46
  -3  -5 -25    6.33    1.61
  -3   5 -25    4.10    1.79
  -4  -5 -25    1.71    1.85
  -4   5 -25   -0.08    1.85
  -5  -6  25    9.01    1.25
  -5   6  25    8.04    1.26
  -4  -6  25    2.05    0.95
  -4   6  25    2.66    0.97
  -3  -6  25    1.39    0.99
  -3   6  25    1.35    1.00
  -2  -6  25    4.32    1.05
  -2   6  25    5.26    1.07
  -1  -6  25    7.92    1.06
  -1   6  25    8.24    1.05
   1   6 -25    9.77    1.64
   0  -6 -25    3.55    1.29
   0   6 -25    0.39    1.34
  -1  -6 -25    2.25    1.38
  -1   6 -25    3.10    1.47
  -2  -6 -25    3.51    1.50
  -2   6 -25    3.66    1.59
  -3  -6 -25    3.52    1.66
  -3   6 -25    3.93    1.80
  -4  -6 -25    2.92    1.87
  -4   6 -25    5.86    1.96
  -5  -7  25    0.65    1.39
  -5   7  25    0.80    1.34
  -4  -7  25    1.16    1.04
  -4   7  25   -0.84    1.00
  -3  -7  25    0.46    1.01
  -3   7  25    0.50    1.01
  -2  -7  25    3.84    1.08
  -2   7  25    3.52    1.01
  -1  -7  25   -0.92    0.99
   1   7 -25   -1.39    1.43
  -1   7  25   -0.64    0.89
   0  -7 -25    2.03    1.39
   0   7 -25    0.94    1.42
  -1  -7 -25    3.18    1.46
  -1   7 -25    4.17    1.62
  -2  -7 -25    5.58    1.66
  -2   7 -25   -0.49    1.62
  -3  -7 -25   -1.83    1.60
  -3   7 -25   -1.72    1.69
  -4  -8  25    0.36    1.14
  -4   8  25    1.36    1.19
  -3  -8  25    0.99    1.11
  -3   8  25    2.25    1.05
  -2  -8  25    0.45    1.09
  -2   8  25   -0.26    1.00
  -1  -8  25    0.09    1.08
  -1   8  25   -0.88    0.99
   1   8 -25   -0.52    1.57
   0  -8 -25    0.42    1.40
   0   8 -25   -0.85    1.52
  -1  -8 -25    0.78    1.49
  -1   8 -25    0.35    1.66
  -2  -8 -25   -1.65    1.50
  -2   8 -25    2.40    1.81
  -3  -8 -25    1.79    1.75
  -3   8 -25   -0.70    1.88
  -3  -9  25    1.84    1.24
  -3   9  25   -1.30    1.14
  -2  -9  25    1.75    1.12
  -2   9  25    0.36    1.04
  -1  -9  25    3.61    1.20
   1   9 -25    3.54    1.83
  -1   9  25    6.48    1.19
   0  -9 -25    1.70    1.61
   0   9 -25   -1.38    1.63
  -1  -9 -25   -1.18    1.56
  -1   9 -25    0.98    1.72
  -2  -9 -25    0.62    1.76
  -2   9 -25    0.94    1.90
  -2 -10  25    6.94    1.39
  -2  10  25    3.82    1.23
  -1 -10  25    2.45    1.21
   1  10 -25    0.30    1.91
   0 -10 -25    4.48    1.77
   0  10 -25    4.24    1.96
  -1 -10 -25   -0.24    1.63
  -1  10 -25    1.56    1.97
  -6   0  26    4.23    1.22
  -5   0  26    1.32    0.95
  -4   0  26    1.54    0.91
  -3   0  26   -0.20    0.93
  -2   0  26   16.13    1.50
  -1   0  26    0.40    0.83
   0   0 -26    4.25    1.38
  -1   0 -26    8.90    1.56
  -2   0 -26    1.01    1.60
  -3   0 -26    1.07    1.63
  -4   0 -26    5.00    2.00
  -6  -1  26    2.61    1.39
  -6   1  26    2.61    1.31
  -5  -1  26   -0.23    0.93
  -5   1  26   -1.28    0.90
  -4  -1  26   -1.32    0.83
  -4   1  26   -0.53    0.85
  -3  -1  26   20.12    1.61
  -3   1  26   20.33    1.61
  -2  -1  26    1.12    0.92
  -2   1  26    0.48    0.88
  -1  -1  26   -0.64    0.83
  -1   1  26   -1.42    0.81
   0  -1 -26    0.41    1.17
   0   1 -26   -1.79    1.29
  -1  -1 -26   16.49    2.15
  -1   1 -26   17.80    2.44
  -2  -1 -26   -0.94    1.42
  -2   1 -26    0.11    1.54
  -3  -1 -26    0.58    1.55
  -3   1 -26   -0.84    1.69
  -4  -1 -26    3.91    1.92
  -4   1 -26    1.27    1.95
  -6   2  26    3.57    1.69
  -5  -2  26    0.39    0.97
  -5   2  26   -0.78    0.94
  -4  -2  26    1.35    0.93
  -4   2  26    0.23    0.93
  -3  -2  26    0.55    0.92
  -3   2  26   -0.12    0.95
  -2  -2  26    6.01    1.03
  -2   2  26    7.03    1.02
  -1  -2  26   -0.69    0.81
  -1   2  26    1.19    0.87
   0   2 -26   -0.64    1.33
  -1  -2 -26    1.94    1.48
  -1   2 -26   -0.41    1.38
  -2   2 -26    2.42    1.63
  -3   2 -26   -1.58    1.64
  -4   2 -26   -2.22    1.98
  -5  -3  26    5.92    1.12
  -5   3  26    5.82    1.11
  -4  -3  26    0.84    0.91
  -4   3  26    0.52    0.92
  -3  -3  26    6.43    1.07
  -3   3  26    6.29    1.06
  -2  -3  26    0.68    0.93
  -2   3  26   -0.53    0.86
  -1  -3  26    4.08    0.94
   1   3 -26    5.24    1.39
  -1   3  26    4.73    0.92
   0   3 -26   -0.07    1.34
  -1  -3 -26    6.64    1.48
  -1   3 -26    9.82    1.62
  -2  -3 -26    0.07    1.41
  -2   3 -26    1.88    1.56
  -3  -3 -26   -1.20    1.59
  -3   3 -26   -0.93    1.75
  -4  -3 -26   -0.50    1.95
  -4   3 -26    2.21    1.98
  -5  -4  26    1.99    1.10
  -5   4  26    2.04    1.13
  -4  -4  26    0.49    0.95
  -4   4  26   -0.16    0.95
  -3  -4  26    1.24    0.97
  -3   4  26    1.61    1.00
  -2  -4  26    1.30    1.00
  -2   4  26   -0.60    0.93
  -1  -4  26    1.08    0.93
   1   4 -26   -2.02    1.23
  -1   4  26   -0.15    0.85
   0  -4 -26    1.12    1.42
   0   4 -26    1.36    1.39
  -1  -4 -26    1.05    1.34
  -1   4 -26   -0.25    1.40
  -2  -4 -26    3.08    1.52
  -2   4 -26    5.20    1.70
  -3  -4 -26    2.46    1.65
  -3   4 -26   -1.84    1.73
  -4  -4 -26    2.85    1.83
  -4   4 -26    2.00    1.97
  -5  -5  26    3.76    1.23
  -5   5  26    2.39    1.20
  -4  -5  26    1.25    1.03
  -4   5  26    0.58    1.02
  -3  -5  26    1.27    1.05
  -3   5  26   -0.60    0.97
  -2  -5  26    2.89    1.06
  -2   5  26    3.44    1.07
  -1  -5  26    1.09    0.99
   1   5 -26    2.48    1.43
  -1   5  26    0.43    0.95
   0  -5 -26   -1.94    1.32
   0   5 -26    0.70    1.41
  -1  -5 -26    1.60    1.46
  -1   5 -26   -1.70    1.41
  -2  -5 -26    2.69    1.58
  -2   5 -26    5.62    1.79
  -3  -5 -26    3.60    1.71
  -3   5 -26    2.65    1.77
  -4  -6  26   -0.53    1.09
  -4   6  26   -1.62    1.11
  -3  -6  26    2.11    1.10
  -3   6  26    2.69    1.07
  -2  -6  26    0.46    1.04
  -2   6  26    1.94    1.04
  -1  -6  26    0.95    1.01
  -1   6  26    0.92    1.56
   1   6 -26    1.51    1.53
   0  -6 -26    4.58    1.50
   0   6 -26    2.67    1.57
  -1  -6 -26   -0.11    1.50
  -1   6 -26    2.38    1.61
  -2  -6 -26   -0.19    1.59
  -2   6 -26   -0.44    1.71
  -3  -6 -26    3.05    1.76
  -3   6 -26    0.00    1.79
  -4  -7  26    0.00    1.29
  -4   7  26    0.84    1.23
  -3  -7  26   -0.29    1.11
  -3   7  26    0.60    1.06
  -2  -7  26    3.08    1.12
  -2   7  26    1.07    1.07
  -1  -7  26    2.18    1.09
   1   7 -26    2.37    1.62
   0  -7 -26    0.92    1.57
   0   7 -26    0.63    1.65
  -1  -7 -26   -1.28    1.55
  -1   7 -26    1.69    1.65
  -2  -7 -26    2.22    1.68
  -2   7 -26   -0.60    1.75
  -3  -8  26    1.57    1.24
  -3   8  26    0.92    1.17
  -2  -8  26    0.16    1.08
  -2   8  26   -0.72    1.01
  -1  -8  26    0.96    1.11
   1   8 -26    2.35    1.79
   0  -8 -26    7.11    1.72
   0   8 -26    4.58    1.89
  -1  -8 -26    1.18    1.69
  -1   8 -26    1.13    1.75
  -2  -8 -26    2.67    1.79
  -2   8 -26    3.35    2.02
  -2  -9  26    2.67    1.34
  -2   9  26   -0.32    1.13
  -1  -9  26   14.35    1.54
   0  -9 -26    2.43    1.71
   0   9 -26    2.09    1.91
  -1  -9 -26   -1.89    1.74
  -5   0  27   -1.70    1.05
  -4   0  27   -0.15    0.96
  -3   0  27   -0.32    0.93
  -2   0  27    1.14    0.98
   0   0 -27   -0.16    1.41
  -1   0 -27   -0.14    1.42
  -2   0 -27    0.72    1.55
  -3   0 -27    0.77    1.72
  -5  -1  27   -0.39    1.08
  -5   1  27    0.47    1.07
  -4  -1  27   -1.15    0.97
  -4   1  27   -0.28    0.95
  -3  -1  27   -0.34    0.95
  -3   1  27   -0.93    0.94
  -2  -1  27   -0.69    0.93
  -2   1  27   -1.35    0.95
   0  -1 -27    1.52    1.36
   0   1 -27    2.55    1.49
  -1  -1 -27   -1.08    1.37
  -1   1 -27   -0.94    1.49
  -2  -1 -27    0.38    1.59
  -2   1 -27    1.13    1.63
  -3   1 -27    1.78    1.91
  -5  -2  27    1.25    1.09
  -5   2  27    0.28    1.12
  -4  -2  27    2.04    1.03
  -4   2  27    0.97    1.03
  -3  -2  27   -0.82    0.96
  -3   2  27   -0.03    0.97
  -2  -2  27   -0.26    1.00
  -2   2  27   -0.89    0.95
  -1  -2  27   -1.17    1.51
   0   2 -27    3.17    1.50
  -1   2 -27    2.01    1.56
  -2   2 -27    6.54    1.85
  -3   2 -27    2.97    1.89
  -5   3  27    0.80    1.28
  -4  -3  27    2.21    1.10
  -4   3  27    0.63    1.07
  -3  -3  27    9.94    1.20
  -3   3  27    9.34    1.23
  -2  -3  27    1.11    1.01
  -2   3  27   -1.21    1.00
   0   3 -27    5.53    1.70
  -1  -3 -27    1.58    1.62
  -1   3 -27    0.46    1.60
  -2  -3 -27    1.34    2.21
  -2   3 -27    1.75    1.82
  -3   3 -27   -0.51    1.86
  -4  -4  27    2.99    1.20
  -4   4  27    3.85    1.21
  -3  -4  27    1.93    1.06
  -3   4  27    1.73    1.05
  -2  -4  27    6.33    1.15
  -2   4  27    5.34    1.10
   0   4 -27    6.26    1.69
  -1  -4 -27    4.69    1.57
  -1   4 -27    3.36    1.68
  -2  -4 -27    1.50    1.61
  -2   4 -27    1.30    1.84
  -3  -4 -27    4.74    1.89
  -3   4 -27    4.17    1.96
  -4  -5  27    1.25    1.25
  -4   5  27   -1.47    1.19
  -3  -5  27   13.89    1.66
  -3   5  27   10.23    1.27
  -2  -5  27    0.00    1.10
  -2   5  27   -0.25    1.04
   0   5 -27    2.38    1.63
  -1  -5 -27    4.90    1.64
  -1   5 -27    2.58    1.73
  -2  -5 -27    1.10    1.68
  -2   5 -27    0.42    1.80
  -3  -6  27    2.92    1.20
  -3   6  27    2.06    1.16
  -2  -6  27    8.97    1.22
  -2   6  27    5.74    1.17
   0   6 -27   -0.66    1.63
  -1  -6 -27    3.51    1.68
  -1   6 -27    3.36    1.71
  -2  -6 -27    3.21    1.80
  -2   6 -27    5.80    1.98
  -3  -7  27   -0.43    1.31
  -3   7  27    0.63    1.21
  -2  -7  27    1.49    1.18
  -2   7  27    0.08    1.04
   0   7 -27   -2.36    1.68
  -1  -7 -27    1.00    1.78
  -1   7 -27    3.56    1.81
  -2  -8  27    0.16    1.37
  -2   8  27   -1.11    1.18
   0   8 -27   -1.76    1.94
  -4   0  28    1.29    1.19
  -3   0  28    8.94    1.25
  -2   0  28    1.55    1.05
  -1   0 -28    0.72    1.57
  -2   0 -28   -0.31    1.64
  -4  -1  28    2.29    1.21
  -4   1  28    1.33    1.19
  -3  -1  28    1.22    1.05
  -3   1  28   -0.56    1.06
  -2  -1  28   -1.05    1.01
  -2   1  28   -0.16    1.01
   0   1 -28   -0.65    1.53
  -1   1 -28   -2.62    1.60
  -2   1 -28   -0.08    1.77
  -4  -2  28   -0.60    1.18
  -4   2  28   -0.43    1.19
  -3  -2  28    4.89    1.11
  -3   2  28    4.81    1.13
  -2  -2  28   -0.76    1.02
  -2   2  28    0.04    1.01
   0   2 -28   -1.19    1.59
  -1   2 -28    1.53    1.70
  -2   2 -28    0.72    1.90
  -4  -3  28    1.15    1.34
  -4   3  28   -0.30    1.18
  -3  -3  28    4.03    1.14
  -3   3  28    0.31    1.05
  -2  -3  28    3.23    1.14
  -2   3  28    2.96    1.07
   0   3 -28   -0.43    1.69
  -1   3 -28   -2.35    1.69
  -2   3 -28   -0.42    1.89
  -3  -4  28    1.84    1.23
  -3   4  28    0.19    1.10
  -2  -4  28    4.07    1.13
  -2   4  28    4.49    1.09
   0   4 -28    0.79    1.75
  -1  -4 -28    4.26    2.01
  -1   4 -28    1.35    1.85
  -3  -5  28    1.15    1.22
  -3   5  28    1.89    1.20
  -2  -5  28    3.39    1.19
  -2   5  28    0.98    1.13
   0   5 -28    4.11    1.84
  -1  -5 -28    1.80    1.70
  -1   5 -28    0.97    1.76
  -2  -6  28    4.56    1.31
   0   6 -28    0.85    1.82
  -3   0  29    0.39    1.22
  -3  -1  29   -2.14    1.19
  -3   1  29    0.74    1.21
  -1   1 -29    0.59    1.70
  -3  -2  29    0.76    1.20
  -3   2  29   -0.65    1.21
   0   2 -29    0.45    1.74
  -3   3  29   -0.97    1.24
   0   3 -29   -0.04    1.77
   0   0   0    0.00    0.00
;
_shelx_hkl_checksum              25973
loop_
_space_group_symop_operation_xyz
'x, y, z'
'-x, y+1/2, -z+1/2'
'-x, -y, -z'
'x, -y-1/2, z-1/2'
loop_
_atom_site_label
_atom_site_type_symbol
_atom_site_fract_x
_atom_site_fract_y
_atom_site_fract_z
_atom_site_U_iso_or_equiv
_atom_site_adp_type
_atom_site_occupancy
_atom_site_site_symmetry_order
_atom_site_calc_flag
_atom_site_refinement_flags_posn
_atom_site_refinement_flags_adp
_atom_site_refinement_flags_occupancy
_atom_site_disorder_assembly
_atom_site_disorder_group
Sn1 Sn 0.23893(17) 0.20463(10) 0.32243(7) 0.0190(3) Uani 0.5 1 d . . P . .
Ga1 Ga 0.23893(17) 0.20463(10) 0.32243(7) 0.0190(3) Uani 0.5 1 d . . P . .
Sn2 Sn 1.21506(17) 0.18027(10) -0.01590(6) 0.0189(3) Uani 0.5 1 d . . P . .
Ga2 Ga 1.21506(17) 0.18027(10) -0.01590(6) 0.0189(3) Uani 0.5 1 d . . P . .
Sn3 Sn 0.47797(17) 0.25061(11) 0.15791(7) 0.0223(3) Uani 0.5 1 d . . P . .
Ga3 Ga 0.47797(17) 0.25061(11) 0.15791(7) 0.0223(3) Uani 0.5 1 d . . P . .
Sn4 Sn 0.96884(17) 0.24881(11) 0.14480(7) 0.0218(3) Uani 0.5 1 d . . P . .
Ga4 Ga 0.96884(17) 0.24881(11) 0.14480(7) 0.0218(3) Uani 0.5 1 d . . P . .
Se1 Se 0.9238(2) 0.14627(14) 0.02832(9) 0.0295(4) Uani 1 1 d . . . . .
Se2 Se 0.5271(2) 0.16001(16) 0.27852(9) 0.0316(4) Uani 1 1 d . . . . .
Se3 Se 0.7208(2) 0.37632(12) 0.14542(9) 0.0244(3) Uani 1 1 d . . . . .
Se4 Se 0.2229(2) 0.37125(13) 0.15444(9) 0.0237(3) Uani 1 1 d . . . . .
Se5 Se 0.2102(3) 0.39570(13) 0.35839(9) 0.0308(4) Uani 1 1 d . . . . .
Se6 Se -0.0128(2) 0.12078(14) 0.24671(10) 0.0306(4) Uani 1 1 d . . . . .
Se7 Se 1.4668(2) 0.10839(14) 0.06613(10) 0.0300(4) Uani 1 1 d . . . . .
Se8 Se 0.2505(3) 0.12777(13) 0.44973(9) 0.0314(4) Uani 1 1 d . . . . .
N1 N 0.734(2) 0.4240(16) 0.3307(11) 0.052(5) Uani 1 1 d . . . . .
N2 N 0.752(3) 0.1120(15) 0.4506(11) 0.062(6) Uani 1 1 d . . . . .
loop_
_atom_site_aniso_label
_atom_site_aniso_U_11
_atom_site_aniso_U_22
_atom_site_aniso_U_33
_atom_site_aniso_U_23
_atom_site_aniso_U_13
_atom_site_aniso_U_12
Sn1 0.0201(6) 0.0221(6) 0.0153(6) -0.0027(5) 0.0039(5) -0.0009(5)
Ga1 0.0201(6) 0.0221(6) 0.0153(6) -0.0027(5) 0.0039(5) -0.0009(5)
Sn2 0.0241(6) 0.0196(6) 0.0134(6) 0.0004(5) 0.0033(5) -0.0001(5)
Ga2 0.0241(6) 0.0196(6) 0.0134(6) 0.0004(5) 0.0033(5) -0.0001(5)
Sn3 0.0194(6) 0.0271(7) 0.0205(6) -0.0001(5) 0.0020(5) -0.0013(5)
Ga3 0.0194(6) 0.0271(7) 0.0205(6) -0.0001(5) 0.0020(5) -0.0013(5)
Sn4 0.0184(6) 0.0250(7) 0.0223(6) -0.0003(5) 0.0033(5) -0.0003(5)
Ga4 0.0184(6) 0.0250(7) 0.0223(6) -0.0003(5) 0.0033(5) -0.0003(5)
Se1 0.0273(8) 0.0342(9) 0.0276(8) -0.0094(7) 0.0059(7) -0.0063(7)
Se2 0.0262(8) 0.0471(11) 0.0221(8) 0.0100(7) 0.0050(6) 0.0105(8)
Se3 0.0249(8) 0.0193(7) 0.0301(8) 0.0008(6) 0.0075(6) -0.0005(6)
Se4 0.0190(7) 0.0248(8) 0.0276(8) -0.0003(6) 0.0039(6) 0.0001(6)
Se5 0.0453(10) 0.0219(8) 0.0249(8) 0.0064(6) 0.0031(7) -0.0009(7)
Se6 0.0262(8) 0.0292(9) 0.0354(9) 0.0075(7) -0.0011(7) -0.0082(7)
Se7 0.0276(9) 0.0295(9) 0.0326(9) -0.0065(7) 0.0020(7) 0.0058(7)
Se8 0.0507(11) 0.0204(8) 0.0239(8) 0.0047(6) 0.0072(7) 0.0024(7)
N1 0.045(10) 0.051(11) 0.061(12) -0.021(9) 0.008(9) -0.012(9)
N2 0.092(16) 0.032(10) 0.055(12) 0.002(8) -0.021(11) -0.005(10)
loop_
_atom_type_symbol
_atom_type_description
_atom_type_scat_dispersion_real
_atom_type_scat_dispersion_imag
_atom_type_scat_source
C C 0.0033 0.0016 'International Tables Vol C Tables 4.2.6.8 and 6.1.1.4'
H H 0.0000 0.0000 'International Tables Vol C Tables 4.2.6.8 and 6.1.1.4'
N N 0.0061 0.0033 'International Tables Vol C Tables 4.2.6.8 and 6.1.1.4'
Ga Ga 0.2307 1.6083 'International Tables Vol C Tables 4.2.6.8 and 6.1.1.4'
Se Se -0.0929 2.2259 'International Tables Vol C Tables 4.2.6.8 and 6.1.1.4'
Sn Sn -0.6537 1.4246 'International Tables Vol C Tables 4.2.6.8 and 6.1.1.4'
loop_
_geom_angle_atom_site_label_1
_geom_angle_atom_site_label_2
_geom_angle_atom_site_label_3
_geom_angle
_geom_angle_site_symmetry_1
_geom_angle_site_symmetry_3
Se6 Sn1 Se2 112.07(8) . .
Se6 Sn1 Se5 118.13(8) . .
Se2 Sn1 Se5 114.10(8) . .
Se6 Sn1 Se8 107.80(8) . .
Se2 Sn1 Se8 106.05(8) . .
Se5 Sn1 Se8 96.55(7) . .
Se7 Sn2 Se1 113.26(8) . .
Se7 Sn2 Se5 110.95(8) . 4_665
Se1 Sn2 Se5 108.53(8) . 4_665
Se7 Sn2 Se8 113.96(8) . 4_665
Se1 Sn2 Se8 111.86(8) . 4_665
Se5 Sn2 Se8 97.02(7) 4_665 4_665
Se7 Sn3 Se4 117.62(8) 1_455 .
Se7 Sn3 Se3 111.71(8) 1_455 .
Se4 Sn3 Se3 101.67(7) . .
Se7 Sn3 Se2 105.93(8) 1_455 .
Se4 Sn3 Se2 110.11(8) . .
Se3 Sn3 Se2 109.72(8) . .
Se4 Sn4 Se6 112.02(8) 1_655 1_655
Se4 Sn4 Se3 100.92(7) 1_655 .
Se6 Sn4 Se3 113.32(8) 1_655 .
Se4 Sn4 Se1 114.54(8) 1_655 .
Se6 Sn4 Se1 108.13(8) 1_655 .
Se3 Sn4 Se1 107.82(8) . .
Sn2 Se1 Sn4 98.79(7) . .
Sn1 Se2 Sn3 97.97(8) . .
Sn3 Se3 Sn4 99.62(7) . .
Sn3 Se4 Sn4 103.26(7) . 1_455
Sn2 Se5 Sn1 83.57(6) 4_466 .
Sn4 Se6 Sn1 97.32(7) 1_455 .
Sn3 Se7 Sn2 96.97(7) 1_655 .
Sn2 Se8 Sn1 82.83(6) 4_466 .
loop_
_geom_bond_atom_site_label_1
_geom_bond_atom_site_label_2
_geom_bond_distance
_geom_bond_site_symmetry_2
Sn1 Se6 2.466(2) .
Sn1 Se2 2.476(2) .
Sn1 Se5 2.494(2) .
Sn1 Se8 2.522(2) .
Sn2 Se7 2.465(2) .
Sn2 Se1 2.474(2) .
Sn2 Se5 2.494(2) 4_665
Sn2 Se8 2.503(2) 4_665
Sn3 Se7 2.446(2) 1_455
Sn3 Se4 2.448(2) .
Sn3 Se3 2.451(2) .
Sn3 Se2 2.480(2) .
Sn4 Se4 2.451(2) 1_655
Sn4 Se6 2.455(2) 1_655
Sn4 Se3 2.466(2) .
Sn4 Se1 2.486(2) .
