#------------------------------------------------------------------------------
#$Date: 2021-03-26 04:09:39 +0200 (Fri, 26 Mar 2021) $
#$Revision: 263337 $
#$URL: file:///home/coder/svn-repositories/cod/cif/1/56/12/1561278.cif $
#------------------------------------------------------------------------------
#
# This file is available in the Crystallography Open Database (COD),
# http://www.crystallography.net/
#
# All data on this site have been placed in the public domain by the
# contributors.
#
data_1561278
loop_
_publ_author_name
'Heinz, Benjamin'
'Djukanovic, Dimitrije'
'Filipponi, Paolo'
'Martin, Benjamin'
'Karaghiosoff, Konstantin'
'Knochel, Paul'
_publ_section_title
;
 Regioselective Difunctionalization of Pyridines via 3,4-Pyridynes
;
_journal_name_full               'Chemical Science'
_journal_paper_doi               10.1039/D1SC01208H
_journal_year                    2021
_chemical_absolute_configuration unk
_chemical_formula_moiety         'C15 H16 I N O S'
_chemical_formula_sum            'C15 H16 I N O S'
_chemical_formula_weight         385.25
_chemical_name_systematic
;
3-iodo-2-(isopropylthio)-4-(4-methoxyphenyl)pyridine
;
_space_group_crystal_system      monoclinic
_space_group_IT_number           4
_space_group_name_Hall           'P 2yb'
_space_group_name_H-M_alt        'P 1 21 1'
_atom_sites_solution_hydrogens   geom
_atom_sites_solution_primary     direct
_atom_sites_solution_secondary   difmap
_audit_creation_method           SHELXL-2014
_audit_update_record
;
2021-01-20 deposited with the CCDC.	2021-03-25 downloaded from the CCDC.
;
_cell_angle_alpha                90
_cell_angle_beta                 99.114(3)
_cell_angle_gamma                90
_cell_formula_units_Z            2
_cell_length_a                   8.5870(3)
_cell_length_b                   6.1553(2)
_cell_length_c                   14.6215(5)
_cell_measurement_reflns_used    7033
_cell_measurement_temperature    123(2)
_cell_measurement_theta_max      31.9150
_cell_measurement_theta_min      2.4500
_cell_volume                     763.07(5)
_computing_cell_refinement       'CrysAlisPro 1.171.40.81a (Rigaku OD, 2020)'
_computing_data_collection       'CrysAlisPro 1.171.40.81a (Rigaku OD, 2020)'
_computing_data_reduction        'CrysAlisPro 1.171.40.81a (Rigaku OD, 2020)'
_computing_molecular_graphics
;
'ORTEP (M. N. Burnett, C. K. Johnson, ORTEP-III: Oak Ridge Thermal Ellipsoid
# Plot Program for Crystal Structure Illustrations, Oak Ridge National
# Laboratory Report ORNL-6895, 1996). Windows version (L. J. Farrugia, Univ.
# Glasgow) used --- SCHAKAL (E. Keller, University of  Freiburg (Breisgau),
# Germany, 1995)'
;
_computing_publication_material
;
PLATON (A. L. Spek, Acta Crystallogr, Sect. A, 1990, 46, C34, 1995 version).
# --- T.B.Cohen, Pure Appl. Chem. 1996,68,2339-2359 (atomic masses).
;
_computing_structure_refinement  'SHELXL-2014 (Sheldrick, 2014)'
_computing_structure_solution    'SHELXS-97 (Sheldrick, 1990)'
_diffrn_ambient_temperature      123(2)
_diffrn_detector_area_resol_mean 15.9809
_diffrn_measured_fraction_theta_full 0.992
_diffrn_measured_fraction_theta_max 0.995
_diffrn_measurement_device_type  'Xcalibur, Sapphire3'
_diffrn_measurement_method       '\w scans'
_diffrn_radiation_type           MoK\a
_diffrn_radiation_wavelength     0.71073
_diffrn_reflns_av_R_equivalents  0.0254
_diffrn_reflns_av_unetI/netI     0.0276
_diffrn_reflns_Laue_measured_fraction_full 0.992
_diffrn_reflns_Laue_measured_fraction_max 0.995
_diffrn_reflns_limit_h_max       12
_diffrn_reflns_limit_h_min       -12
_diffrn_reflns_limit_k_max       8
_diffrn_reflns_limit_k_min       -8
_diffrn_reflns_limit_l_max       20
_diffrn_reflns_limit_l_min       -20
_diffrn_reflns_number            14968
_diffrn_reflns_point_group_measured_fraction_full 0.993
_diffrn_reflns_point_group_measured_fraction_max 0.996
_diffrn_reflns_theta_full        25.242
_diffrn_reflns_theta_max         30.504
_diffrn_reflns_theta_min         2.402
_diffrn_source                   'fine-focus sealed X-ray tube'
_exptl_absorpt_coefficient_mu    2.227
_exptl_absorpt_correction_T_max  1.00000
_exptl_absorpt_correction_T_min  0.85673
_exptl_absorpt_correction_type   multi-scan
_exptl_absorpt_process_details
;
CrysAlisPro 1.171.40.81a (Rigaku Oxford Diffraction, 2020)
Empirical absorption correction using spherical harmonics,
implemented in SCALE3 ABSPACK scaling algorithm.
;
_exptl_crystal_colour            colorless
_exptl_crystal_density_diffrn    1.677
_exptl_crystal_description       rod
_exptl_crystal_F_000             380
_exptl_crystal_size_max          0.200
_exptl_crystal_size_mid          0.050
_exptl_crystal_size_min          0.030
_refine_diff_density_max         0.819
_refine_diff_density_min         -0.251
_refine_diff_density_rms         0.069
_refine_ls_abs_structure_details
;
 Flack x determined using 1923 quotients [(I+)-(I-)]/[(I+)+(I-)]
 (Parsons, Flack and Wagner, Acta Cryst. B69 (2013) 249-259).
;
_refine_ls_abs_structure_Flack   -0.044(10)
_refine_ls_extinction_method     none
_refine_ls_goodness_of_fit_ref   1.029
_refine_ls_hydrogen_treatment    mixed
_refine_ls_matrix_type           full
_refine_ls_number_parameters     185
_refine_ls_number_reflns         4640
_refine_ls_number_restraints     1
_refine_ls_restrained_S_all      1.029
_refine_ls_R_factor_all          0.0225
_refine_ls_R_factor_gt           0.0206
_refine_ls_shift/su_max          0.001
_refine_ls_shift/su_mean         0.000
_refine_ls_structure_factor_coef Fsqd
_refine_ls_weighting_details
'w=1/[\s^2^(Fo^2^)+(0.0215P)^2^] where P=(Fo^2^+2Fc^2^)/3'
_refine_ls_weighting_scheme      calc
_refine_ls_wR_factor_gt          0.0430
_refine_ls_wR_factor_ref         0.0439
_reflns_Friedel_coverage         0.843
_reflns_Friedel_fraction_full    0.994
_reflns_Friedel_fraction_max     0.997
_reflns_number_gt                4430
_reflns_number_total             4640
_reflns_threshold_expression     'I > 2\s(I)'
_cod_data_source_file            d1sc01208h2.cif
_cod_data_source_block           test1_CCDC1
_cod_original_sg_symbol_H-M      'P 21'
_cod_database_code               1561278
_shelx_space_group_comment
;
The symmetry employed for this shelxl refinement is uniquely defined
by the following loop, which should always be used as a source of
symmetry information in preference to the above space-group names.
They are only intended as comments.
;
_shelx_estimated_absorpt_t_min   0.664
_shelx_estimated_absorpt_t_max   0.936
_shelxl_version_number           2014-3
_shelx_res_file
;
TITL SIR97 run in space group P 21
CELL  0.71073   8.5870   6.1553  14.6215   90.000   99.114   90.000
ZERR     2.00   0.0003   0.0002   0.0005    0.000    0.003    0.000
LATT  -1
SYMM  - X, 1/2 + Y, - Z
SFAC  C    H    N    O    I    S
UNIT 30 32 2 2 2 2
LIST 6 ! automatically inserted. Change 6 to 4 for CHECKCIF!!
MERG   2
OMIT 0 0 2
OMIT 1 0 1
OMIT 0 1 1
OMIT 0 0 3
OMIT 0 -1 1
OMIT 1 1 0
OMIT 1 -1 0
OMIT -1 0 1
OMIT 8 2 0
OMIT -1 1 1
OMIT -1 -1 1
OMIT -2 0 3
OMIT -1 1 2
OMIT -1 0 2
OMIT -2 0 1
OMIT 0 1 2
OMIT -1 -1 5
OMIT -5 0 3
SHEL 1000 0.70
FMAP   2
PLAN   25
ACTA
BOND   $H
CONF
SIZE 0.20 0.05 0.03
L.S.  40
TEMP  -150.00
WGHT    0.021500
FVAR       0.47503
I1    5    0.587368    0.850012    0.621746    11.00000    0.02092    0.02832 =
         0.01881    0.00401    0.00503    0.00263
S1    6    0.821536    0.571770    0.784397    11.00000    0.01905    0.02430 =
         0.02041    0.00410    0.00529    0.00504
C7    1    0.830858    0.185902    0.881095    11.00000    0.03331    0.02359 =
         0.03285    0.00596    0.00457   -0.00086
AFIX 138
H7A   2    0.848298    0.112485    0.826683    11.00000   -1.50000
H7B   2    0.721014    0.201590    0.880707    11.00000   -1.50000
H7C   2    0.875532    0.104593    0.933775    11.00000   -1.50000
AFIX   0
C9    1    0.302316    1.047220    0.728712    11.00000    0.01830    0.01746 =
         0.01796   -0.00100    0.00183    0.00139
C13   1    0.035829    1.119972    0.651491    11.00000    0.01699    0.02179 =
         0.02135    0.00004    0.00197   -0.00320
AFIX  44
H13   2   -0.062173    1.077084    0.635576    11.00000   -1.20000
AFIX   0
C3    1    0.415146    0.903412    0.788007    11.00000    0.01503    0.01584 =
         0.02136   -0.00130    0.00116   -0.00089
C2    1    0.392000    0.860035    0.878966    11.00000    0.02131    0.02217 =
         0.02200   -0.00072    0.00780    0.00365
AFIX  44
H2    2    0.303120    0.921377    0.902518    11.00000   -1.20000
AFIX   0
C12   1    0.083351    1.325384    0.623593    11.00000    0.02101    0.02429 =
         0.01721    0.00025    0.00241    0.00337
N1    3    0.625662    0.639123    0.907086    11.00000    0.02382    0.02357 =
         0.01897    0.00187    0.00477    0.00357
O1    4   -0.012854    1.468007    0.571531    11.00000    0.02038    0.02458 =
         0.02669    0.00546   -0.00204    0.00197
C14   1    0.145189    0.985462    0.704432    11.00000    0.01946    0.01781 =
         0.02173   -0.00011    0.00576   -0.00167
AFIX  44
H14   2    0.114062    0.857273    0.723168    11.00000   -1.20000
AFIX   0
C4    1    0.547075    0.809457    0.759183    11.00000    0.01818    0.01805 =
         0.01625   -0.00116    0.00221   -0.00213
C10   1    0.348751    1.251282    0.700488    11.00000    0.01763    0.01944 =
         0.02548    0.00107    0.00052   -0.00237
AFIX  44
H10   2    0.464813    1.300445    0.718482    11.00000   -1.20000
AFIX   0
C6    1    0.907419    0.408931    0.884495    11.00000    0.01944    0.02042 =
         0.01611   -0.00130    0.00170    0.00302
AFIX  14
H6    2    0.888534    0.484533    0.942167    11.00000   -1.20000
AFIX   0
C5    1    0.650330    0.679195    0.820730    11.00000    0.01638    0.01630 =
         0.01992    0.00048    0.00302   -0.00040
C1    1    0.497862    0.728448    0.934556    11.00000    0.02476    0.02806 =
         0.02035    0.00315    0.00668    0.00576
AFIX  44
H1    2    0.479229    0.699341    0.995869    11.00000   -1.20000
AFIX   0
C15   1   -0.169687    1.394806    0.536066    11.00000    0.01853    0.03148 =
         0.02033   -0.00045   -0.00077    0.00362
AFIX 138
H15A  2   -0.164165    1.262208    0.501265    11.00000   -1.50000
H15B  2   -0.224051    1.505107    0.496032    11.00000   -1.50000
H15C  2   -0.226392    1.367839    0.587033    11.00000   -1.50000
AFIX   0
C11   1    0.241223    1.387536    0.648891    11.00000    0.02282    0.01865 =
         0.02804    0.00407    0.00328   -0.00138
AFIX  44
H11   2    0.275322    1.527811    0.629944    11.00000   -1.20000
AFIX   0
C8    1    1.084822    0.396992    0.884102    11.00000    0.02085    0.03566 =
         0.02641   -0.00048    0.00118    0.00374
AFIX 138
H8A   2    1.131325    0.316738    0.933728    11.00000   -1.50000
H8B   2    1.126212    0.534371    0.887948    11.00000   -1.50000
H8C   2    1.103359    0.332706    0.830395    11.00000   -1.50000
AFIX   0
HKLF    4

REM  SIR97 run in space group P 21
REM R1 =  0.0206 for    4430 Fo > 4sig(Fo)  and  0.0225 for all    4640 data
REM    185 parameters refined using      1 restraints

END

WGHT      0.0215      0.0000

REM Highest difference peak  0.819,  deepest hole -0.251,  1-sigma level  0.069
Q1    1   0.7622  0.3531  0.8641  11.00000  0.05    0.82
Q2    1   0.6160  0.9723  0.6376  11.00000  0.05    0.47
Q3    1   0.6208  0.7166  0.6353  11.00000  0.05    0.45
Q4    1   0.5656  0.8592  0.6821  11.00000  0.05    0.41
Q5    1   0.6486  1.0802  0.5414  11.00000  0.05    0.41
Q6    1   0.4761  0.8478  0.5947  11.00000  0.05    0.38
Q7    1   0.6384  0.7751  0.6595  11.00000  0.05    0.37
Q8    1   1.0057  0.5582  0.9681  11.00000  0.05    0.37
Q9    1   0.8220  0.1278  0.7844  11.00000  0.05    0.35
Q10   1   0.5559  0.9521  0.5666  11.00000  0.05    0.35
Q11   1   0.6996  0.8375  0.6213  11.00000  0.05    0.34
Q12   1   0.5209  0.7367  0.6091  11.00000  0.05    0.32
Q13   1   0.5247  0.9602  0.6175  11.00000  0.05    0.32
Q14   1   0.4423  0.8260  0.9070  11.00000  0.05    0.30
Q15   1   0.3962  0.8489  0.8388  11.00000  0.05    0.30
Q16   1   0.5477  0.7838  0.5600  11.00000  0.05    0.30
Q17   1   0.8758  0.2766  0.8958  11.00000  0.05    0.29
Q18   1   0.2269  0.9969  0.7088  11.00000  0.05    0.28
Q19   1   0.8684  0.4953  0.8395  11.00000  0.05    0.27
Q20   1   0.9810  0.3391  0.8973  11.00000  0.05    0.27
Q21   1   0.1003  1.0859  0.6874  11.00000  0.05    0.26
Q22   1   0.3435  0.9823  0.7563  11.00000  0.05    0.26
Q23   1   0.2844  1.3501  0.6924  11.00000  0.05    0.26
Q24   1   1.0027  0.4310  0.8923  11.00000  0.05    0.26
Q25   1   0.1481  1.3507  0.6656  11.00000  0.05    0.26
;
_shelx_res_checksum              17499
_shelx_hkl_file
;
   0  -9   2   22.67    4.93
   0  -9   3   82.90    8.77
   0  -9   3   69.72    7.76
   0  -9   4    1.10    2.35
   0  -8   0   67.93    7.12
   0  -8   1   52.63    6.11
   0  -8   1   62.92    7.01
   0  -8  -1   52.51    5.95
   0  -8   2    8.45    3.27
   0  -8   2   12.57    3.54
   0  -8  -2    2.26    1.66
   0  -8   3   55.66    6.80
   0  -8   3   65.61    7.14
   0  -8  -3   56.42    6.49
   0  -8   4   76.70    7.99
   0  -8   4   84.44    8.04
   0  -8  -4   76.26    7.61
   0  -8   5   72.47    7.72
   0  -8   5   66.48    7.59
   0  -8  -5   81.90    8.06
   0  -8   5   71.99    7.74
   0  -8   6    7.68    3.12
   0  -8   6   11.81    3.63
   0  -8  -6    5.84    2.86
   0  -8   6    7.33    3.35
   0  -8   7   18.20    4.23
   0  -8   7   19.91    4.49
   0  -8  -7   23.17    4.87
   0  -8   7   14.71    3.96
   0  -8   8   37.62    6.07
   0  -8   8   22.61    4.57
   0  -8  -8   27.97    5.19
   0  -8   8   26.69    5.15
   0  -8  -9   27.24    5.39
   0  -8   9   48.15    6.86
   0  -7   0    1.71    1.66
   0  -7   0    0.07    1.73
   0  -7   0   -1.02    1.52
   0  -7   1  153.12    9.20
   0  -7   1  150.44    9.67
   0  -7  -1  152.89    9.49
   0  -7  -1  147.56    8.62
   0  -7   1  156.51    8.95
   0  -7  -1  146.29    8.94
   0  -7   2  110.03    8.41
   0  -7   2  105.76    7.84
   0  -7   2  104.77    7.31
   0  -7  -2  112.59    7.99
   0  -7   3   45.62    5.55
   0  -7   3   43.74    5.35
   0  -7  -3   48.25    5.38
   0  -7   3   42.84    4.70
   0  -7   4    5.40    2.78
   0  -7   4    4.21    2.42
   0  -7  -4    5.04    2.81
   0  -7   5   54.76    6.23
   0  -7   5   52.48    6.42
   0  -7  -5   65.59    6.61
   0  -7   6  138.17   10.19
   0  -7   6  131.08    9.55
   0  -7  -6  119.98    9.10
   0  -7   6  127.61    9.45
   0  -7   7   32.23    5.02
   0  -7   7   49.28    6.34
   0  -7  -7   35.91    5.31
   0  -7   7   43.83    6.00
   0  -7   8   -2.77    2.04
   0  -7   8   -0.92    2.69
   0  -7  -8    1.41    2.05
   0  -7   8    0.21    2.07
   0  -7   9   19.40    4.46
   0  -7   9   23.57    4.80
   0  -7  -9   28.56    5.01
   0  -7   9   31.16    5.26
   0  -7  10   43.60    6.30
   0  -7  10   35.38    5.55
   0  -7 -10   43.60    6.30
   0  -7  10   47.78    6.64
   0  -7  11   92.74    8.97
   0  -7  11   82.93    8.92
   0  -7 -11   93.69    9.20
   0  -7  11  100.62    9.27
   0  -7  12   15.20    4.46
   0  -7  12   10.74    3.56
   0  -7 -12   12.45    4.16
   0  -7  12    9.58    3.50
   0  -7  13   61.09    7.71
   0  -6   0  240.67   10.85
   0  -6   0  247.16   10.23
   0  -6   1  125.72    8.01
   0  -6  -1  122.21    7.75
   0  -6   1  118.70    7.10
   0  -6  -1  133.47    7.72
   0  -6   2   11.79    2.53
   0  -6   2   14.91    3.18
   0  -6  -2   19.52    3.28
   0  -6   2   16.37    2.84
   0  -6  -2   17.67    3.14
   0  -6   3  109.23    7.84
   0  -6   3  108.41    7.37
   0  -6  -3  109.63    7.31
   0  -6   3  103.92    6.48
   0  -6   4  314.13   13.26
   0  -6   4  308.68   12.57
   0  -6   4  343.84   11.68
   0  -6  -4  329.79   12.87
   0  -6   5   87.50    7.00
   0  -6   5   89.65    7.62
   0  -6   5   96.04    6.29
   0  -6  -5   85.14    6.81
   0  -6   6    1.57    1.96
   0  -6   6    2.55    2.21
   0  -6  -6    5.17    2.34
   0  -6   6    3.10    1.54
   0  -6   6   -2.29    2.42
   0  -6   7   42.38    5.43
   0  -6   7   38.66    5.02
   0  -6  -7   36.05    4.83
   0  -6   7   43.32    5.33
   0  -6   8  194.39   11.15
   0  -6  -8  231.82   12.13
   0  -6   8  238.21   12.11
   0  -6   9  211.90   11.95
   0  -6  -9  202.42   11.67
   0  -6   9  205.04   11.59
   0  -6  10    2.57    2.50
   0  -6 -10   -2.93    2.70
   0  -6  10    5.45    3.12
   0  -6  11   56.77    6.74
   0  -6 -11   64.29    7.24
   0  -6  11   56.98    6.65
   0  -6  12  101.18    9.07
   0  -6 -12  111.70    9.66
   0  -6  12  103.06    8.97
   0  -6  13   60.36    7.41
   0  -6 -13   63.20    7.59
   0  -6  14   32.58    5.76
   0  -6 -14   44.73    6.81
   0  -6  15   14.24    4.11
   0  -6 -15   30.87    5.96
   0  -5   0    0.17    1.53
   0  -5   0   -0.10    1.30
   0  -5   1  204.43    9.11
   0  -5  -1  185.90    8.33
   0  -5  -1  206.74    8.50
   0  -5   1  206.39    8.16
   0  -5  -2  388.47   11.84
   0  -5   2  366.61   12.30
   0  -5   2  416.75   11.44
   0  -5  -2  395.34   12.03
   0  -5   3  328.63   11.98
   0  -5   3  292.82    9.58
   0  -5  -3  297.27   10.77
   0  -5   4    1.04    1.89
   0  -5   4    1.14    1.66
   0  -5  -4    0.99    1.64
   0  -5   5  133.81    7.84
   0  -5  -5  127.76    7.56
   0  -5   6   97.55    7.01
   0  -5  -6  109.73    7.24
   0  -5   6   92.34    6.67
   0  -5   7  241.86   11.04
   0  -5  -7  250.10   11.15
   0  -5   7  253.16   11.07
   0  -5   8   64.13    4.71
   0  -5   8   75.18    6.59
   0  -5  -8   70.04    6.31
   0  -5   8   72.86    6.28
   0  -5   9   51.97    4.61
   0  -5   9   38.37    4.88
   0  -5  -9   59.42    6.08
   0  -5   9   57.68    5.85
   0  -5  10  275.25   10.95
   0  -5  10  258.48   12.43
   0  -5 -10  254.24   12.55
   0  -5  10  266.18   12.49
   0  -5  11  137.91    8.19
   0  -5  11  136.63    9.36
   0  -5 -11  132.53    9.39
   0  -5  11  125.49    9.00
   0  -5 -12    5.41    2.61
   0  -5  12    7.00    2.46
   0  -5  12    1.32    2.40
   0  -5 -13    3.59    2.14
   0  -5  13    2.14    1.57
   0  -5  13    0.99    2.22
   0  -5 -14  115.45    9.89
   0  -5  14  105.75    9.04
   0  -5 -15  151.22   11.62
   0  -5  15  135.77   10.42
   0  -5 -16   -0.29    2.63
   0  -5  16    3.54    2.63
   0  -4   0 1055.47    9.82
   0  -4   0 1051.57   16.32
   0  -4   0 1070.52   17.63
   0  -4   1  308.37    5.55
   0  -4  -1  312.53    5.47
   0  -4   1  315.81    4.24
   0  -4   1  307.71    9.75
   0  -4  -1  339.34    9.79
   0  -4  -1  328.45    9.39
   0  -4   1  312.29    8.79
   0  -4   2   81.19    3.10
   0  -4  -2   84.82    4.94
   0  -4   2   93.07    5.63
   0  -4  -2   89.91    5.20
   0  -4   2   82.99    4.56
   0  -4   2   83.45    2.43
   0  -4   3  209.92    5.41
   0  -4  -3  213.02    8.11
   0  -4   3  211.07    4.48
   0  -4   4  718.24   11.13
   0  -4  -4  787.90   16.06
   0  -4   4  743.51    9.65
   0  -4   5  571.16   10.99
   0  -4   5  544.22   14.25
   0  -4  -5  575.39   14.36
   0  -4   5  589.63   14.37
   0  -4   5  561.16    9.40
   0  -4   6   25.54    2.74
   0  -4   6   27.35    3.74
   0  -4  -6   23.52    3.47
   0  -4   6   26.06    3.48
   0  -4   6   24.90    2.31
   0  -4   6   22.58    2.20
   0  -4   7  513.14   12.19
   0  -4   7  511.05   14.53
   0  -4  -7  504.40   14.50
   0  -4   7  481.04    8.90
   0  -4   7  499.40   14.10
   0  -4   7  490.73   10.60
   0  -4   8  735.34   15.62
   0  -4   8  740.16   18.03
   0  -4  -8  741.12   18.28
   0  -4   8  731.51   13.96
   0  -4   8  726.32   17.61
   0  -4   9  120.95    6.82
   0  -4   9  112.61    7.50
   0  -4  -9  112.17    7.59
   0  -4   9  134.75    6.53
   0  -4   9  122.80    7.69
   0  -4  10   12.37    2.42
   0  -4  10   12.11    3.07
   0  -4 -10    9.53    2.97
   0  -4  10   14.53    3.16
   0  -4  11   91.09    7.19
   0  -4 -11   96.28    7.66
   0  -4  11  105.88    6.59
   0  -4  12  319.31   13.57
   0  -4 -12  342.20   14.61
   0  -4  12  366.49   12.79
   0  -4  13  171.28   10.26
   0  -4 -13  179.07   11.12
   0  -4  13  176.59    9.42
   0  -4  14   12.97    3.20
   0  -4 -14    7.71    3.12
   0  -4  14   13.06    3.64
   0  -4  15   19.78    3.77
   0  -4 -15   11.80    3.77
   0  -4  15   12.97    3.33
   0  -4 -16   47.79    6.52
   0  -4  16   47.73    6.12
   0  -4 -17  142.26   11.48
   0  -4 -18   26.83    5.77
   0  -3   0    0.44    0.42
   0  -3   0    0.09    0.88
   0  -3   0   -0.26    1.16
   0  -3   1  488.31    6.30
   0  -3  -1  499.48    6.25
   0  -3  -1  490.62    9.84
   0  -3   1  505.45    9.47
   0  -3   1  520.36   10.82
   0  -3  -1  501.46   10.08
   0  -3   2  819.11    9.20
   0  -3   2  825.63    7.61
   0  -3  -2  817.50   12.73
   0  -3  -2  843.16   13.43
   0  -3   3  523.81    8.37
   0  -3  -3  549.56   11.40
   0  -3   3  534.83    7.16
   0  -3   4  104.56    4.20
   0  -3  -4  112.54    5.56
   0  -3   4  105.55    3.70
   0  -3   5  227.00    8.13
   0  -3  -5  236.01    8.29
   0  -3   5  256.02    6.41
   0  -3   5  245.26    8.25
   0  -3   6  915.88   16.86
   0  -3  -6  898.06   16.97
   0  -3   6  858.16    9.87
   0  -3   6  901.04   16.43
   0  -3   6  899.34   13.20
   0  -3   7  556.99   13.81
   0  -3  -7  581.91   14.38
   0  -3   7  587.57    6.97
   0  -3   7  563.08   13.67
   0  -3   7  581.94   11.56
   0  -3   8   16.12    2.31
   0  -3   8   18.85    2.92
   0  -3  -8   17.20    3.10
   0  -3   8   19.77    3.34
   0  -3   9  222.08    9.36
   0  -3  -9  243.73   10.25
   0  -3   9  201.80    9.16
   0  -3   9  236.40    8.62
   0  -3  10   89.70    6.31
   0  -3 -10   83.03    6.41
   0  -3  10   85.61    5.64
   0  -3  11  334.08   12.35
   0  -3 -11  349.89   13.39
   0  -3  11  354.92   11.83
   0  -3  12   69.78    6.06
   0  -3 -12   67.37    6.32
   0  -3  12   63.24    5.40
   0  -3  13  138.67    8.65
   0  -3 -13  143.33    9.42
   0  -3  13  146.35    8.66
   0  -3  14  210.85   10.87
   0  -3 -14  192.24   11.35
   0  -3  14  216.19   10.89
   0  -3  15  136.83    9.01
   0  -3 -15  140.94   10.14
   0  -3  15  153.82    9.73
   0  -3  16   10.78    2.91
   0  -3 -16   10.73    3.43
   0  -3  17   23.97    4.61
   0  -3 -17   22.30    4.59
   0  -3 -18  122.35   10.56
   0  -3  18  124.54   10.05
   0  -3 -19  101.04   10.10
   0  -3  19   85.50    8.50
   0  -3  20    5.18    2.84
   0  -2   0 1869.46    9.64
   0  -2   0 1845.22   14.94
   0  -2   0 1788.99   15.75
   0  -2   1 1326.00    9.02
   0  -2  -1 1359.48    8.91
   0  -2  -1 1328.56   13.28
   0  -2  -1 1322.64   13.06
   0  -2   2  101.86    3.09
   0  -2   2  105.91    2.66
   0  -2  -2  106.92    3.76
   0  -2  -2  109.40    4.18
   0  -2  -3  679.48   10.92
   0  -2   3  664.15    7.89
   0  -2  -4 1883.37   19.42
   0  -2   4 1884.56   18.88
   0  -2   4 1873.48   15.33
   0  -2   5  411.04    9.58
   0  -2  -5  416.00    9.79
   0  -2   5  404.67    9.37
   0  -2   5  408.12    4.91
   0  -2   5  440.85    8.43
   0  -2   6   24.37    2.42
   0  -2   6   28.53    2.89
   0  -2  -6   30.90    3.13
   0  -2   6   22.67    2.59
   0  -2  -6   26.30    1.37
   0  -2   7  130.47    6.01
   0  -2  -7  131.88    6.35
   0  -2   7  140.73    5.81
   0  -2  -7  136.03    3.27
   0  -2   7  127.12    6.06
   0  -2   8 1164.35   18.58
   0  -2  -8 1150.41   19.83
   0  -2   8 1161.65   17.66
   0  -2  -8 1152.44   10.25
   0  -2   9  540.36   13.18
   0  -2  -9  545.51   14.43
   0  -2  -9  537.93    7.59
   0  -2   9  545.62   13.02
   0  -2  10    3.16    1.82
   0  -2  10    2.00    1.67
   0  -2 -10    4.03    2.30
   0  -2 -10    0.92    0.55
   0  -2  11  155.19    7.77
   0  -2 -11  136.17    8.08
   0  -2  11  141.97    7.61
   0  -2  12  504.21   14.35
   0  -2 -12  497.83   15.93
   0  -2  12  476.46   14.67
   0  -2  13  292.98   11.36
   0  -2 -13  278.73   12.54
   0  -2  13  306.03   12.30
   0  -2 -14  126.53    8.97
   0  -2  14  139.26    8.86
   0  -2 -15   60.08    6.72
   0  -2  15   64.06    6.41
   0  -2 -16  417.77   17.30
   0  -2  16  396.49   16.16
   0  -2  17   58.00    6.68
   0  -2 -17   59.55    7.05
   0  -2  18    2.45    2.32
   0  -2 -18    2.28    2.29
   0  -2 -19   18.91    4.55
   0  -2  19   15.34    4.26
   0  -2  20   82.78    8.92
   0  -2 -20   89.84    9.40
   0  -1   0    3.92    0.64
   0  -1   0    3.36    0.68
   0  -1   1  868.61    5.25
   0  -1   1  878.35    6.29
   0  -1  -1  881.12    7.34
   0  -1  -1  893.72    8.12
   0  -1  -2 1201.79   10.92
   0  -1   2 1230.75    8.70
   0  -1   2 1229.01   10.56
   0  -1  -3  204.17    5.11
   0  -1   3  200.77    4.89
   0  -1   3  209.94    4.50
   0  -1   4  346.36    6.95
   0  -1  -4  338.55    7.37
   0  -1   4  348.34    7.23
   0  -1  -4  358.60    4.37
   0  -1   4  334.02    6.63
   0  -1   5  373.04    7.74
   0  -1  -5  375.61    8.52
   0  -1   5  366.90    7.74
   0  -1  -5  370.52    5.21
   0  -1   6 1904.71   18.72
   0  -1  -6 1911.36   20.83
   0  -1   6 1911.83   19.50
   0  -1  -6 1820.04   13.26
   0  -1   7  686.26   12.00
   0  -1  -7  713.14   13.89
   0  -1   7  694.86   12.75
   0  -1  -7  696.38    9.04
   0  -1   8  174.06    6.43
   0  -1  -8  175.59    7.43
   0  -1  -8  174.47    5.00
   0  -1   8  161.30    6.78
   0  -1   9  206.47    7.38
   0  -1  -9  204.19    8.45
   0  -1  -9  195.73    5.72
   0  -1   9  193.21    7.91
   0  -1  10  766.21   14.84
   0  -1 -10  802.53   17.67
   0  -1 -10  747.51   11.95
   0  -1  10  797.59   16.83
   0  -1  11  294.01    9.65
   0  -1 -11  288.87   11.29
   0  -1 -11  294.51    7.99
   0  -1  11  298.59   11.13
   0  -1 -12   74.70    6.09
   0  -1 -12   78.31    4.36
   0  -1  12   83.27    6.37
   0  -1 -13   76.82    6.79
   0  -1  13   65.14    6.15
   0  -1 -14  319.66   13.62
   0  -1  14  326.14   13.44
   0  -1 -15  191.44   11.02
   0  -1  15  216.54   11.52
   0  -1  16   43.13    5.58
   0  -1 -16   40.53    5.53
   0  -1 -16   52.25    6.22
   0  -1 -17   37.50    5.66
   0  -1  17   59.46    6.85
   0  -1 -18  120.67    9.98
   0  -1  18  117.45    9.84
   0  -1 -19   90.94    9.08
   0  -1  19  114.71    9.99
   0  -1 -20   37.64    6.33
   0  -1  20   30.81    5.80
   0   0   2  540.51    4.81
   0   0  -2  547.60    6.08
   0   0   3  399.62    5.11
   0   0  -3  398.89    6.40
   0   0  -3  397.13    5.43
   0   0   3  400.42    6.35
   0   0   4 3036.75   16.36
   0   0  -4 2980.57   20.36
   0   0   4 3040.37   20.13
   0   0  -4 3035.00   17.40
   0   0   5  531.31    7.68
   0   0  -5  526.93    9.68
   0   0   5  531.93    9.54
   0   0  -5  526.11    8.12
   0   0   6  304.18    6.42
   0   0  -6  315.94    8.21
   0   0   6  309.87    8.06
   0   0  -6  306.12    6.80
   0   0  -7  913.34   15.07
   0   0   7  909.72   14.87
   0   0  -7  888.41   12.51
   0   0  -8 1143.97   18.25
   0   0   8 1154.80   18.00
   0   0  -8 1138.85   15.16
   0   0  -9  118.13    6.42
   0   0  -9  117.11    5.22
   0   0   9  121.31    6.40
   0   0 -10  146.57    7.52
   0   0  10  143.53    7.51
   0   0 -10  137.88    6.00
   0   0 -11  210.16    9.49
   0   0 -11  210.29    7.80
   0   0  11  204.63    9.47
   0   0 -12 1047.77   22.15
   0   0  12  998.49   21.59
   0   0 -12 1046.38   18.01
   0   0 -13  235.15   11.24
   0   0 -13  233.13    8.93
   0   0  13  242.02   11.40
   0   0  14    5.68    2.97
   0   0 -14    1.94    2.55
   0   0 -14    4.04    1.60
   0   0 -15   94.67    7.86
   0   0  15   92.36    7.71
   0   0 -16  183.68   11.17
   0   0  16  172.10   10.82
   0   0 -17   94.57    8.49
   0   0  17   75.90    7.87
   0   0  18   54.29    6.77
   0   0 -18   60.91    7.25
   0   0 -19   49.07    6.73
   0   0  19   51.79    7.05
   0   0 -20  131.38   11.09
   0   0  20  150.07   11.96
   0   0 -21   29.63    5.55
   0   1   0    4.04    0.60
   0   1   0    3.58    0.63
   0   1   0    1.84    0.64
   0   1  -1  897.48    7.58
   0   1  -1  844.14    7.05
   0   1  -1  876.55    8.74
   0   1   1  839.09    7.21
   0   1   1  893.00    7.36
   0   1  -1  863.33    7.65
   0   1   1  873.04    6.36
   0   1  -1  860.39    8.85
   0   1  -2 1339.13   10.54
   0   1  -2 1416.41   11.36
   0   1  -2 1386.59   10.58
   0   1   2 1366.40   10.44
   0   1  -2 1393.28   12.63
   0   1  -3  169.64    4.25
   0   1  -3  161.72    4.26
   0   1  -3  163.89    4.86
   0   1   3  166.87    4.42
   0   1  -4  347.03    7.06
   0   1  -4  342.93    7.61
   0   1   4  342.08    7.18
   0   1  -5  437.96    8.86
   0   1   5  417.52    8.82
   0   1  -5  418.57    8.96
   0   1  -6 1824.04   19.84
   0   1   6 1835.05   20.11
   0   1  -6 1828.96   19.80
   0   1  -7  709.10   13.45
   0   1   7  697.81   13.40
   0   1  -7  712.73   13.12
   0   1  -8  171.20    7.18
   0   1   8  189.14    7.62
   0   1  -8  172.10    6.87
   0   1  -9  229.85    8.84
   0   1   9  231.20    8.98
   0   1  -9  228.13    8.28
   0   1 -10  795.10   17.33
   0   1 -10  821.11   16.33
   0   1  10  831.68   17.92
   0   1 -11  300.88   11.32
   0   1 -11  302.14   10.37
   0   1  11  317.09   11.73
   0   1 -12   76.07    6.16
   0   1  12   81.24    6.54
   0   1 -12   72.04    5.43
   0   1 -13   63.05    6.03
   0   1 -13   69.32    5.54
   0   1  13   69.59    6.56
   0   1 -14  306.82   13.30
   0   1 -14  322.52   12.13
   0   1  14  306.19   13.36
   0   1 -15  194.38   10.97
   0   1  15  217.11   11.72
   0   1 -15  217.49   10.29
   0   1  16   47.07    5.94
   0   1 -16   39.53    5.39
   0   1 -16   49.21    5.18
   0   1 -17   42.05    5.94
   0   1  17   58.44    6.93
   0   1 -18  109.81    9.48
   0   1  18  113.58    9.78
   0   1 -19   94.19    9.15
   0   1  19   95.90    9.38
   0   1 -20   30.85    5.54
   0   1  20   29.87    5.68
   0   1 -21   10.63    3.63
   0   2   0 1923.12   18.52
   0   2   0 1886.85   14.00
   0   2   0 1940.06   14.72
   0   2   0 1970.50   16.57
   0   2  -1 1445.76   13.47
   0   2   1 1402.53   12.45
   0   2  -1 1440.40   15.86
   0   2  -1 1431.34   12.43
   0   2   1 1425.11   12.68
   0   2  -1 1429.13   13.16
   0   2  -1 1402.39   15.23
   0   2   1 1408.58   13.02
   0   2  -2  112.03    3.85
   0   2  -2  112.14    4.59
   0   2  -2  105.63    3.66
   0   2   2  107.72    3.75
   0   2   2  112.32    3.79
   0   2  -2  118.34    4.79
   0   2   2  107.20    3.24
   0   2  -3  707.15   10.08
   0   2  -3  654.57    9.75
   0   2  -3  704.48   11.20
   0   2   3  679.53    9.97
   0   2   3  667.31    9.26
   0   2  -3  684.02   11.97
   0   2  -4 1928.80   19.10
   0   2  -4 1915.24   17.76
   0   2   4 1904.55   17.50
   0   2  -4 1939.09   21.27
   0   2  -5  421.29    9.21
   0   2  -5  455.14    9.36
   0   2  -5  435.31   10.75
   0   2   5  432.57    9.30
   0   2  -6   27.56    2.76
   0   2   6   27.23    2.80
   0   2  -6   26.60    3.02
   0   2  -7  128.40    5.86
   0   2   7  130.69    6.15
   0   2  -7  130.25    6.50
   0   2  -8 1198.45   18.87
   0   2  -8 1200.46   20.38
   0   2   8 1220.05   19.49
   0   2  -9  519.67   13.24
   0   2  -9  523.82   14.01
   0   2   9  532.14   13.79
   0   2 -10    1.83    1.53
   0   2  10    1.09    2.00
   0   2 -10    1.90    1.63
   0   2 -11  138.40    7.78
   0   2 -11  127.37    7.58
   0   2  11  136.57    8.04
   0   2 -12  494.74   15.17
   0   2 -12  548.07   15.94
   0   2  12  496.30   15.72
   0   2 -13  268.74   11.80
   0   2  13  273.19   12.29
   0   2 -13  287.61   12.01
   0   2 -14  114.08    8.16
   0   2 -14  122.33    8.16
   0   2  14  118.48    8.69
   0   2  15   59.05    6.59
   0   2 -15   56.99    6.10
   0   2 -15   58.33    6.00
   0   2 -16  384.66   16.00
   0   2  16  377.81   16.31
   0   2 -16  397.43   15.59
   0   2  17   43.14    6.01
   0   2 -17   59.72    6.74
   0   2 -17   70.25    6.93
   0   2 -18    6.68    3.39
   0   2  18    9.27    3.55
   0   2 -19   13.62    3.58
   0   2  19   29.14    5.50
   0   2 -20   67.54    8.04
   0   2  20   75.32    8.83
   0   2 -21   73.89    8.46
   0   3   0    1.51    1.03
   0   3   0   -0.84    1.41
   0   3   0    0.07    0.84
   0   3   0    0.20    1.10
   0   3  -1  517.85    9.16
   0   3  -1  527.02   11.88
   0   3   1  522.99    9.25
   0   3  -1  531.61    9.77
   0   3   1  537.82    9.54
   0   3  -1  533.35   11.32
   0   3   1  513.15    9.95
   0   3  -2  793.63   12.52
   0   3   2  819.15   11.97
   0   3  -2  838.50   14.95
   0   3  -2  804.92   11.74
   0   3   2  824.65   12.05
   0   3  -2  831.09   12.59
   0   3  -2  825.17   14.70
   0   3  -3  510.63   10.07
   0   3  -3  491.19    9.63
   0   3   3  477.83    9.63
   0   3  -3  511.27   11.75
   0   3   3  478.96    9.60
   0   3  -3  494.37   12.00
   0   3   3  499.42    8.42
   0   3  -4  104.53    4.75
   0   3   4  103.48    4.85
   0   3  -4  107.40    5.47
   0   3  -4  110.03    4.93
   0   3   4  115.87    5.01
   0   3  -4  113.66    6.11
   0   3   4  111.13    4.48
   0   3  -5  249.18    7.60
   0   3  -5  242.66    8.25
   0   3   5  224.19    7.40
   0   3  -5  238.64    9.11
   0   3   5  240.34    7.18
   0   3  -6  959.78   16.63
   0   3  -6  931.82   15.48
   0   3  -6  971.01   18.83
   0   3   6  952.31   15.53
   0   3  -7  614.47   13.29
   0   3   7  603.96   13.36
   0   3  -7  603.45   15.58
   0   3  -8   11.15    2.25
   0   3   8   12.79    2.46
   0   3  -8   13.00    2.98
   0   3  -9  216.48    8.84
   0   3   9  225.65    9.28
   0   3  -9  217.53    9.99
   0   3 -10   80.27    5.83
   0   3  10   79.43    6.09
   0   3 -10   94.30    6.91
   0   3 -11  394.76   13.12
   0   3  11  398.86   13.80
   0   3 -11  387.55   14.25
   0   3 -12   68.75    5.89
   0   3 -12   75.05    6.61
   0   3  12   81.95    6.76
   0   3 -13  144.60    8.89
   0   3 -13  150.17    9.57
   0   3  13  169.32    9.96
   0   3 -14  213.49   11.20
   0   3 -14  252.72   12.68
   0   3  14  209.29   11.51
   0   3 -15  116.54    8.73
   0   3  15  131.85    9.68
   0   3 -15  127.21    9.34
   0   3  16   16.39    4.23
   0   3 -16   12.86    3.46
   0   3 -16   15.55    3.89
   0   3 -17   19.43    4.27
   0   3  17   22.23    4.70
   0   3 -17   21.50    4.35
   0   3 -18  136.89   10.51
   0   3 -18  144.03   10.73
   0   3  18  153.63   11.57
   0   3  19   86.24    9.15
   0   3 -19   85.07    8.58
   0   3 -19   91.89    8.84
   0   4   0 1127.88   15.62
   0   4   0 1150.16   20.74
   0   4   0 1147.59   16.30
   0   4   0 1129.52   18.18
   0   4  -1  312.88    8.34
   0   4   1  313.21   11.05
   0   4   1  311.18    8.32
   0   4  -1  314.28   10.87
   0   4   1  302.15    8.36
   0   4  -1  310.65    8.67
   0   4  -1  316.96   10.09
   0   4   2   89.58    4.72
   0   4  -2   83.56    4.50
   0   4  -2   82.14    5.62
   0   4  -2   88.13    4.79
   0   4   2   85.89    4.56
   0   4  -2   87.28    5.66
   0   4  -3  193.51    7.25
   0   4  -3  192.54    6.86
   0   4  -3  194.23    8.53
   0   4   3  201.43    7.11
   0   4   3  194.52    6.94
   0   4  -3  201.00    8.69
   0   4  -4  829.50   15.04
   0   4  -4  844.78   14.84
   0   4   4  827.24   14.86
   0   4  -4  834.58   17.56
   0   4   4  842.94   14.86
   0   4  -4  827.58   18.24
   0   4  -5  573.84   12.80
   0   4  -5  565.93   14.54
   0   4  -5  559.73   12.64
   0   4   5  553.08   12.72
   0   4   5  548.80   12.53
   0   4   5  558.96   11.27
   0   4  -5  546.79   15.26
   0   4  -6   19.66    2.68
   0   4   6   18.57    2.49
   0   4  -6   22.20    3.18
   0   4   6   17.42    2.73
   0   4   6   20.19    2.69
   0   4  -6   23.16    3.75
   0   4  -7  504.66   12.93
   0   4   7  500.90   13.46
   0   4  -7  526.46   14.26
   0   4   7  519.66   13.43
   0   4   7  511.17   12.59
   0   4  -7  522.52   15.94
   0   4  -8  754.59   16.47
   0   4   8  740.43   16.83
   0   4  -8  751.75   19.82
   0   4   8  761.92   16.48
   0   4  -9   97.64    6.29
   0   4   9  109.62    6.95
   0   4  -9   86.11    7.11
   0   4   9  106.57    6.67
   0   4 -10    8.11    1.92
   0   4  10   15.90    2.95
   0   4 -10    9.34    2.95
   0   4 -11  118.18    7.52
   0   4 -11  107.67    8.35
   0   4  11  111.75    7.49
   0   4 -12  350.59   13.45
   0   4  12  351.36   13.81
   0   4 -12  350.43   15.16
   0   4 -13  161.72    9.57
   0   4 -13  172.65   11.05
   0   4  13  168.58   10.12
   0   4  14   14.81    3.31
   0   4 -14   13.20    3.18
   0   4 -14   11.70    3.35
   0   4  15   13.70    3.81
   0   4 -15   15.17    3.68
   0   4 -15   19.69    4.38
   0   4 -16   62.42    6.90
   0   4  16   47.63    6.34
   0   4 -16   49.97    6.65
   0   4 -17  139.15   11.05
   0   4  17  136.56   10.76
   0   4  18   26.75    5.51
   0   4 -18   20.00    4.68
   0   4  19   17.17    4.29
   0   4 -19   20.76    4.70
   0   5   0   -1.46    1.59
   0   5   0    2.33    2.24
   0   5   0   -0.31    1.11
   0   5  -1  185.93    7.31
   0   5   1  187.78    9.95
   0   5   1  200.17    7.62
   0   5  -1  188.67    9.70
   0   5   1  193.57    7.63
   0   5  -1  202.49    7.92
   0   5  -1  198.38    9.10
   0   5   2  412.73   10.97
   0   5  -2  423.22   11.09
   0   5   2  409.58   14.43
   0   5  -2  391.90   13.75
   0   5   2  423.25   11.25
   0   5  -2  421.49   13.57
   0   5   3  313.53    9.83
   0   5  -3  317.91   12.32
   0   5  -3  319.83    9.88
   0   5   3  300.55   12.66
   0   5   3  332.63   10.09
   0   5  -3  312.38   12.08
   0   5  -4   -1.25    1.93
   0   5  -4   -1.25    1.66
   0   5   4    0.35    1.68
   0   5   4   -0.02    1.22
   0   5  -4    1.52    1.71
   0   5  -5  139.37    7.20
   0   5  -5  139.58    6.98
   0   5   5  139.02    7.11
   0   5  -5  135.70    8.16
   0   5   5  140.12    6.94
   0   5  -5  128.61    8.41
   0   5  -6  118.82    6.69
   0   5  -6  110.92    7.49
   0   5   6  110.96    6.64
   0   5   6  117.77    6.59
   0   5  -6  118.67    8.16
   0   5  -7  230.12    9.56
   0   5   7  221.80    9.60
   0   5  -7  236.92   10.85
   0   5   7  237.25    9.76
   0   5  -7  238.82   11.85
   0   5  -8   76.92    5.77
   0   5  -8   71.81    6.16
   0   5   8   66.42    5.83
   0   5   8   71.80    5.61
   0   5   8   78.64    5.47
   0   5  -8   73.48    7.01
   0   5  -9   45.21    4.66
   0   5   9   45.50    4.49
   0   5   9   48.58    5.33
   0   5   9   51.15    5.09
   0   5  -9   47.95    5.91
   0   5 -10  302.55   11.98
   0   5  10  280.45   12.29
   0   5  10  285.72   12.12
   0   5 -10  269.99   13.72
   0   5  10  300.04   11.81
   0   5 -11  123.72    7.98
   0   5  11  115.26    8.39
   0   5  11  133.26    8.70
   0   5  11  115.60    7.81
   0   5 -11  112.78    9.22
   0   5 -12    3.63    1.90
   0   5  12   -1.19    2.43
   0   5  12    8.11    3.50
   0   5  12    5.45    2.61
   0   5 -12    4.04    2.71
   0   5  13   -1.25    2.20
   0   5  13    4.75    3.16
   0   5  13    5.41    2.37
   0   5 -13    1.63    2.15
   0   5  14  104.76    9.13
   0   5  14  100.30    8.65
   0   5 -14   96.67    9.19
   0   5  14  107.93    8.70
   0   5  15  142.50   10.51
   0   5  15  144.02   10.31
   0   5 -15  137.74   11.15
   0   5  16    4.56    2.79
   0   5 -16    9.20    3.75
   0   5  17   29.91    5.39
   0   5 -17   42.02    6.96
   0   5  18   57.03    7.38
   0   6   0  265.42   12.86
   0   6   0  281.13   10.01
   0   6   0  260.65    9.78
   0   6   1  112.40    8.46
   0   6   1  116.21    6.56
   0   6  -1  125.54    6.69
   0   6  -1  110.26    8.31
   0   6   1  109.92    6.40
   0   6   2   18.78    3.22
   0   6  -2   15.29    3.63
   0   6  -2   19.85    2.97
   0   6   2   15.94    3.78
   0   6   2   15.83    2.61
   0   6   3   97.00    8.21
   0   6  -3   97.37    6.22
   0   6   3  107.14    6.53
   0   6  -3   85.14    7.31
   0   6   3  106.75    6.41
   0   6  -3  114.19    8.20
   0   6   4  294.67   14.13
   0   6  -4  314.51   11.08
   0   6  -4  311.64   13.73
   0   6   4  329.66   11.43
   0   6   4  319.52   11.08
   0   6  -4  303.53   13.54
   0   6  -5   90.31    6.26
   0   6   5   85.50    6.20
   0   6   5   92.05    8.22
   0   6  -5  111.80    8.37
   0   6   5   94.34    6.19
   0   6  -5   84.78    7.50
   0   6   6    3.94    3.15
   0   6   6    5.23    2.54
   0   6  -6   -0.44    1.87
   0   6   6    3.90    1.77
   0   6  -7   46.13    4.90
   0   6  -7   42.22    5.21
   0   6   7   50.63    5.19
   0   6   7   52.68    5.03
   0   6  -7   43.75    5.93
   0   6   8  227.02   10.91
   0   6  -8  236.70   12.22
   0   6  -8  232.89   10.64
   0   6  -8  223.71   12.87
   0   6   9  197.77   10.66
   0   6  -9  183.12   10.80
   0   6  -9  189.46   12.17
   0   6  10    1.23    2.39
   0   6 -10    6.60    3.35
   0   6  11   46.02    6.06
   0   6 -11   51.44    6.91
   0   6  12  114.13    9.16
   0   6 -12  126.21   10.71
   0   6  13   52.01    6.64
   0   6 -13   59.66    7.78
   0   6  14   37.98    6.13
   0   6 -14   38.40    6.33
   0   6  15   19.22    4.96
   0   6 -15   20.56    5.41
   0   6  16   84.32    8.98
   0   7   0   -1.85    2.45
   0   7  -1  133.77   10.05
   0   7   1  124.17    9.88
   0   7   2  104.23    9.26
   0   7  -2  110.67    9.17
   0   7  -3   43.99    6.04
   0   7   3   47.84    6.29
   0   7  -4    5.74    2.82
   0   7   4    5.99    3.10
   0   7   5   64.71    7.63
   0   7  -5   48.96    6.37
   0   7   6  148.94   11.39
   0   7  -6  125.45    9.75
   0   7  -6  125.95   10.08
   0   7   7   55.52    7.30
   0   7  -7   38.14    5.68
   0   7  -7   53.16    6.92
   0   7   8    0.20    2.29
   0   7  -8   -0.79    2.60
   0   7  -8    4.78    3.23
   0   7   9   28.24    5.76
   0   7  -9   22.77    4.61
   0   7  -9   28.60    5.30
   0   7  10   33.82    5.97
   0   7 -10   33.64    6.01
   0   7  11   87.22    9.45
   0   7 -11   79.85    9.02
   0   7  12   21.46    5.38
   0   7 -12   21.74    5.27
   0   7  13   59.92    8.11
   0   8   0   59.91    7.55
   0   8   1   61.65    7.80
   0   8  -1   61.17    7.63
   0   8  -2    1.09    2.24
   0   8   2    7.13    3.13
   0   8  -3   73.95    8.29
   0   8   3   74.47    8.64
   0   8  -4   81.24    8.60
   0   8   4   97.74    9.85
   0   8   5   66.26    8.43
   0   8  -5   62.73    7.65
   0   8  -6    2.50    2.35
   0   8   6   10.89    4.57
   0   8  -7   10.48    3.51
   0   8   7    6.12    4.05
   0   8  -8   30.14    5.51
   0   8   8   26.92    5.88
   0   8  -9   30.25    5.42
   0   8   9   59.99    8.36
  -1  -9   4   10.19    3.64
   1  -9  -4   11.39    3.50
  -1  -9   3   55.94    7.16
  -1  -9   3   54.94    7.19
  -1  -9   0    4.13    2.75
  -1  -9  -1   46.35    6.73
   1  -9   2   77.53    8.53
  -1  -8   9   50.47    7.09
   1  -8  -9   49.13    6.83
  -1  -8   9   43.43    6.47
  -1  -8   8   52.61    7.08
  -1  -8   8   49.64    6.68
   1  -8  -8   49.72    6.73
  -1  -8   8   62.47    7.49
  -1  -8   7    0.48    1.80
  -1  -8   7    3.19    2.30
   1  -8  -7    2.19    2.53
  -1  -8   7    0.97    2.24
  -1  -8   6   43.84    6.08
  -1  -8   6   45.47    6.47
   1  -8  -6   39.32    6.07
  -1  -8   6   36.11    5.90
  -1  -8   5   18.36    4.37
  -1  -8   5   24.34    4.79
   1  -8  -5   23.94    4.53
  -1  -8   4   56.33    6.77
  -1  -8   4   64.29    7.07
   1  -8  -4   63.49    7.09
  -1  -8   3   14.79    3.87
  -1  -8   3   13.15    3.59
   1  -8  -3   14.81    3.57
  -1  -8   2   43.07    5.73
  -1  -8   2   56.83    6.61
   1  -8  -2   39.18    5.55
  -1  -8   2   51.49    6.15
  -1  -8   1   66.66    6.89
  -1  -8   1   75.45    7.38
   1  -8  -1   55.04    6.22
  -1  -8   1   78.19    7.67
  -1  -8   0   34.10    5.08
  -1  -8   0   35.97    5.04
   1  -8   0   29.25    4.62
   1  -8   1    3.32    1.74
   1  -8   1    7.42    2.74
   1  -8   2    8.08    3.20
   1  -8   2    9.41    3.24
   1  -8   2    6.08    2.40
   1  -8   3   42.90    5.91
   1  -8   3   43.33    6.15
   1  -8   4   85.09    8.08
   1  -8   4   97.09    9.10
  -1  -8  -4   77.69    7.51
   1  -8   5   -0.69    2.29
   1  -8   5    2.90    2.53
  -1  -8  -5    2.51    2.57
   1  -8   5   -2.90    2.88
   1  -8   6   38.55    6.12
   1  -8   6   39.05    6.41
  -1  -8  -6   22.71    4.40
   1  -8   6   27.58    5.20
   1  -8   7   52.23    7.28
   1  -8   7   45.19    6.55
  -1  -8  -7   39.02    5.88
   1  -8   7   33.71    5.57
   1  -8   8   77.00    8.70
   1  -8   8   58.75    7.37
  -1  -8  -8   50.04    6.59
   1  -8   8   54.60    6.92
  -1  -8  -9   14.78    4.16
   1  -8   9   17.95    4.51
  -1  -7  12   62.87    7.59
   1  -7 -12   58.00    7.57
  -1  -7  12   57.72    7.28
  -1  -7  11   33.96    5.68
   1  -7 -11   39.58    5.94
  -1  -7  11   43.95    6.42
  -1  -7  10   67.56    7.64
   1  -7 -10   65.32    7.63
  -1  -7  10   57.89    7.11
  -1  -7   9   13.19    3.82
  -1  -7   9   18.37    4.38
   1  -7  -9   23.89    4.96
  -1  -7   9   11.03    3.48
  -1  -7   8   83.01    8.31
  -1  -7   8  104.67    8.97
   1  -7  -8   80.18    7.98
  -1  -7   8   97.89    8.74
  -1  -7   7  178.74   11.62
  -1  -7   7  162.02   10.78
   1  -7  -7  167.86   10.94
  -1  -7   7  174.87   11.20
  -1  -7   6   42.08    5.70
  -1  -7   6   42.05    5.64
   1  -7  -6   45.78    5.72
  -1  -7   6   54.39    6.37
  -1  -7   5    7.28    3.01
  -1  -7   5    8.28    3.05
   1  -7  -5    4.77    2.41
  -1  -7   4   14.69    3.55
  -1  -7   4   19.05    3.95
   1  -7  -4   12.31    2.96
  -1  -7   4   12.22    2.80
  -1  -7   3  126.55    8.98
   1  -7  -3  121.05    8.64
  -1  -7   3  125.17    8.38
  -1  -7   2  184.54   10.51
   1  -7  -2  186.48   10.53
  -1  -7   1    2.37    2.01
   1  -7  -1    2.06    1.68
   1  -7  -1   -0.44    1.61
   1  -7   0   68.57    6.14
  -1  -7   0   72.07    6.46
   1  -7   0   65.65    6.61
  -1  -7   0   67.78    5.87
   1  -7   0   63.17    6.05
   1  -7   1   87.06    7.03
  -1  -7  -1   82.49    6.75
   1  -7   1   76.60    7.30
  -1  -7  -1   85.75    6.70
   1  -7   1   74.42    6.53
   1  -7   2   83.75    7.62
   1  -7   2   90.33    7.43
  -1  -7  -2   71.97    6.33
   1  -7   2   73.13    6.44
   1  -7   3   57.57    6.14
   1  -7   3   61.17    6.61
   1  -7   3   69.57    6.25
  -1  -7  -3   69.58    6.34
   1  -7   4   18.95    4.22
   1  -7   4   16.39    3.66
   1  -7   4   17.31    3.38
  -1  -7  -4   14.19    3.31
   1  -7   5  229.22   13.12
   1  -7   5  226.95   12.30
  -1  -7  -5  231.27   12.06
   1  -7   5  250.02   11.61
   1  -7   5  248.92   12.63
   1  -7   6   85.84    8.26
   1  -7   6   87.37    7.99
  -1  -7  -6   95.41    7.98
   1  -7   6   86.73    7.01
   1  -7   6  103.41    8.49
   1  -7   7    5.83    2.88
   1  -7   7    3.98    2.39
  -1  -7  -7    1.15    2.05
   1  -7   7    2.52    2.44
   1  -7   8   -0.24    2.25
   1  -7   8   -1.76    2.59
  -1  -7  -8    2.92    2.05
   1  -7   8    3.43    2.30
   1  -7   9   50.49    6.38
   1  -7   9   64.45    7.67
  -1  -7  -9   54.19    6.64
   1  -7   9   45.35    6.10
   1  -7  10  107.08    9.87
   1  -7  10   85.06    8.52
  -1  -7 -10   96.00    9.03
   1  -7  10   90.02    8.54
   1  -7  11   11.35    3.78
   1  -7  11    5.83    3.24
  -1  -7 -11    7.44    3.37
   1  -7  11   14.01    4.20
   1  -7  12   13.27    3.95
   1  -7  12   19.71    4.94
  -1  -7 -12   13.71    4.10
   1  -7  12   16.18    4.14
  -1  -6  15    3.81    2.53
   1  -6 -15    9.13    3.71
  -1  -6  14   54.72    7.06
   1  -6 -14   57.25    7.51
  -1  -6  13   37.62    5.78
   1  -6 -13   36.00    5.86
  -1  -6  13   32.14    5.58
  -1  -6  12   53.67    6.67
   1  -6 -12   54.31    6.93
  -1  -6  12   47.27    6.19
  -1  -6  11    3.32    2.60
   1  -6 -11    6.42    3.19
  -1  -6  11    1.15    2.39
  -1  -6  10   72.87    7.30
   1  -6 -10   71.56    7.31
  -1  -6  10   77.72    7.53
  -1  -6   9   93.02    7.94
   1  -6  -9   97.02    8.21
  -1  -6   9  103.61    8.35
  -1  -6   8   69.45    6.83
   1  -6  -8   76.50    7.03
  -1  -6   8   76.52    7.19
  -1  -6   7    8.37    2.68
   1  -6  -7   10.69    2.95
  -1  -6   7    8.56    2.98
   1  -6  -6   44.76    5.36
  -1  -6   6   55.50    5.74
  -1  -6   5  289.20   12.87
   1  -6  -5  286.91   12.43
  -1  -6   5  278.20   10.68
  -1  -6   4  187.41   10.19
  -1  -6   4  191.58    8.24
   1  -6  -4  191.07    9.99
  -1  -6   4  195.62    9.16
  -1  -6   3   29.76    4.13
   1  -6  -3   31.31    3.44
   1  -6  -3   34.06    4.35
  -1  -6   3   31.61    3.54
  -1  -6   2   53.39    5.25
   1  -6  -2   70.55    5.21
   1  -6  -2   69.65    5.89
  -1  -6   2   73.37    5.26
   1  -6  -1  206.23    9.10
  -1  -6   1  185.14    9.40
   1  -6  -1  185.57    9.75
   1  -6  -1  195.07    9.52
  -1  -6   1  196.03    8.73
   1  -6   0  225.89   10.85
   1  -6   0  244.62   10.22
  -1  -6   0  242.30   10.46
   1  -6   0  240.50   10.46
  -1  -6   0  230.77    9.65
  -1  -6  -1   19.88    3.14
   1  -6   1   14.20    3.26
   1  -6   1   22.84    3.43
   1  -6   1   18.32    3.08
  -1  -6  -1   16.95    2.89
   1  -6   2   59.06    5.42
   1  -6   2   60.46    6.02
  -1  -6  -2   64.90    5.29
  -1  -6  -2   49.98    4.82
   1  -6   2   60.76    5.33
   1  -6   3  158.35    9.64
   1  -6   3  179.46    9.53
  -1  -6  -3  177.20    9.07
   1  -6   3  179.47    8.89
   1  -6   4  191.03   10.17
   1  -6   4  172.77   10.21
  -1  -6  -4  189.83    9.71
   1  -6   4  196.46    9.30
   1  -6   5   19.36    3.83
   1  -6   5   15.87    3.26
  -1  -6  -5   22.37    3.76
   1  -6   6   37.32    5.27
   1  -6   6   36.39    5.04
  -1  -6  -6   30.89    4.44
   1  -6   6   32.13    4.54
   1  -6   7  152.64    9.75
   1  -6   7  133.97    9.65
  -1  -6  -7  131.06    8.90
   1  -6   7  144.94    9.11
   1  -6   8  219.09   12.41
   1  -6   8  217.92   11.93
  -1  -6  -8  218.41   11.81
   1  -6   8  226.51   11.71
   1  -6   9   14.68    3.75
   1  -6   9   15.28    3.95
  -1  -6  -9   15.74    3.61
   1  -6   9   15.38    3.44
   1  -6  10   26.26    5.06
   1  -6  10   25.14    4.63
  -1  -6 -10   30.86    5.11
   1  -6  10   33.65    5.04
   1  -6  11   89.85    8.73
   1  -6  11   83.74    8.19
  -1  -6 -11   93.98    8.60
   1  -6  11   85.61    7.93
   1  -6  12   83.80    8.46
  -1  -6 -12   82.97    8.54
   1  -6  12   70.20    7.65
   1  -6  13   36.83    5.83
  -1  -6 -13   33.54    5.80
   1  -6  14   26.44    5.19
  -1  -6 -14   27.94    5.35
  -1  -5  17   17.21    4.27
   1  -5 -17    5.35    3.36
  -1  -5  16   69.08    7.71
   1  -5 -16   72.26    8.38
  -1  -5  15  132.61   10.12
   1  -5 -15  132.16   10.78
  -1  -5  14   34.71    5.32
   1  -5 -14   42.48    6.29
  -1  -5  13   20.81    4.32
   1  -5 -13   20.55    4.40
  -1  -5  12   58.40    6.53
   1  -5 -12   44.38    5.82
  -1  -5  12   55.54    6.44
  -1  -5  11  476.46   17.09
   1  -5 -11  435.86   16.79
  -1  -5  11  468.07   17.29
  -1  -5  10  131.68    8.84
   1  -5 -10  158.30   10.03
  -1  -5  10  159.20    9.84
  -1  -5   9   31.13    4.44
   1  -5  -9   35.07    4.81
  -1  -5   9   37.36    5.01
  -1  -5   8   85.03    6.79
   1  -5  -8   70.69    6.33
  -1  -5   8   95.12    7.25
   1  -5  -7  377.37   13.87
  -1  -5   7  381.20   13.83
   1  -5  -6  262.06   11.15
  -1  -5   6  278.49   11.55
  -1  -5   6  265.89    8.90
   1  -5  -5   37.49    4.35
  -1  -5   5   38.96    3.38
  -1  -5   5   37.54    3.57
   1  -5  -4  221.83    7.38
  -1  -5   4  239.27    8.09
   1  -5  -4  217.67    9.64
  -1  -5   4  221.63    8.66
   1  -5  -3  356.47   11.99
  -1  -5   3  354.76    9.93
   1  -5  -3  370.44    9.94
   1  -5  -2  162.36    5.47
  -1  -5   2  167.85    6.95
   1  -5  -2  169.22    8.11
  -1  -5   2  160.23    8.04
   1  -5  -2  171.68    7.09
   1  -5  -2  180.96    8.45
   1  -5  -1   73.14    3.63
   1  -5  -1   90.87    5.95
  -1  -5   1   83.96    5.07
   1  -5  -1   84.54    5.21
   1  -5  -1   74.99    5.68
  -1  -5   1   79.68    5.58
   1  -5   0   74.44    3.62
  -1  -5   0   83.48    5.17
   1  -5   0   82.29    5.55
   1  -5   0   62.21    4.67
  -1  -5   0   82.54    5.49
   1  -5   0   72.38    5.64
   1  -5   1  668.01   10.88
   1  -5   1  676.43   15.45
  -1  -5  -1  668.10   14.78
   1  -5   1  666.15   16.74
   1  -5   1  646.44   15.21
  -1  -5  -1  639.00   14.67
   1  -5   2  461.17    9.40
   1  -5   2  467.74   12.85
  -1  -5  -2  485.61   13.01
   1  -5   2  467.46   13.34
  -1  -5  -2  464.99   12.33
   1  -5   2  454.41   14.27
   1  -5   3   34.51    2.77
  -1  -5  -3   34.67    3.81
   1  -5   3   34.28    4.03
   1  -5   3   38.29    4.62
   1  -5   4  199.40    6.86
  -1  -5  -4  204.88    9.16
   1  -5   4  208.30    9.60
   1  -5   4  220.23   10.41
   1  -5   5  358.86    9.74
   1  -5   5  365.54   13.02
   1  -5   5  354.33   13.38
  -1  -5  -5  361.74   12.47
   1  -5   6  261.60    8.87
   1  -5   6  260.99   11.79
   1  -5   6  256.24   11.30
  -1  -5  -6  247.26   10.75
   1  -5   6  261.05   10.81
   1  -5   7   55.34    4.41
   1  -5   7   53.49    5.68
  -1  -5  -7   52.87    5.49
   1  -5   7   52.64    5.38
   1  -5   8   58.83    4.88
   1  -5   8   51.40    5.57
  -1  -5  -8   56.70    5.85
   1  -5   8   71.97    6.22
   1  -5   9  295.23   11.27
   1  -5   9  275.47   12.76
  -1  -5  -9  281.22   12.85
   1  -5   9  277.29   12.30
   1  -5  10  172.31    9.07
   1  -5  10  167.08   10.23
  -1  -5 -10  170.73   10.40
   1  -5  10  170.87    9.95
   1  -5  11   33.46    4.95
   1  -5  11   33.13    4.39
  -1  -5 -11   40.58    5.52
   1  -5  11   31.93    4.77
  -1  -5 -12    9.02    3.25
   1  -5  12    2.75    1.50
   1  -5  12    9.74    3.46
   1  -5  13  103.25    8.17
  -1  -5 -13  107.84    9.40
   1  -5  13  107.07    9.01
   1  -5  14  179.16   11.14
   1  -5  14  180.84   11.88
  -1  -5 -14  178.04   12.28
   1  -5  15    7.92    2.98
  -1  -5 -15   16.51    4.56
   1  -5  16   13.98    3.82
  -1  -5 -16   17.11    4.71
  -1  -4  18   68.70    7.45
   1  -4 -18   67.90    8.31
  -1  -4  17   99.09    8.66
   1  -4 -17   74.90    8.26
  -1  -4  17   85.33    7.99
  -1  -4  16   56.15    6.19
   1  -4 -16   58.60    7.15
  -1  -4  16   53.09    6.33
  -1  -4  15   16.62    3.40
  -1  -4  15   16.10    3.69
   1  -4 -15   23.16    4.64
  -1  -4  14  217.00   11.63
   1  -4 -14  211.73   12.34
  -1  -4  14  211.23   10.85
  -1  -4  13  233.62   11.76
   1  -4 -13  237.46   12.58
  -1  -4  13  243.98   11.06
  -1  -4  12   46.95    5.25
   1  -4 -12   48.18    5.72
  -1  -4  12   43.15    4.81
  -1  -4  11   18.59    3.05
  -1  -4  11   17.24    3.60
   1  -4 -11   12.63    3.27
  -1  -4  11   12.56    3.45
  -1  -4  10  172.23    9.34
   1  -4 -10  184.34    9.97
  -1  -4  10  170.68    9.56
  -1  -4  10  194.57    8.43
  -1  -4   9  182.94    9.22
   1  -4  -9  182.28    9.61
  -1  -4   9  165.08    9.17
  -1  -4   9  173.55    7.57
   1  -4  -8  388.76   13.24
  -1  -4   8  417.94   10.92
  -1  -4   8  437.78   13.92
   1  -4  -7   37.17    4.30
  -1  -4   7   36.58    2.74
  -1  -4   7   38.12    4.35
  -1  -4   7   39.12    3.27
  -1  -4   6  480.83   10.24
   1  -4  -6  458.16    7.61
   1  -4  -6  488.01   13.81
  -1  -4   6  481.35   10.20
  -1  -4   6  472.21   10.14
  -1  -4   6  481.14   13.68
  -1  -4   5  267.29    6.85
   1  -4  -5  258.69    6.30
   1  -4  -5  274.61   10.05
  -1  -4   5  270.02    7.96
  -1  -4   5  271.52    7.18
  -1  -4   4  308.34    6.49
  -1  -4   4  326.00    7.34
   1  -4  -4  305.79    7.29
   1  -4  -4  324.70   10.57
  -1  -4   4  340.61    9.27
   1  -4  -3   94.09    4.15
  -1  -4   3   89.69    3.62
  -1  -4   3   89.64    2.87
  -1  -4   3   90.97    4.38
   1  -4  -3   97.44    5.70
   1  -4  -3  100.31    4.45
   1  -4  -2  242.94    6.30
  -1  -4   2  237.05    3.49
  -1  -4   2  256.23    7.34
   1  -4  -2  272.63    9.11
   1  -4  -2  249.11    7.36
   1  -4  -2  252.56    8.90
   1  -4  -1  864.26   11.57
   1  -4  -1  876.33   16.00
  -1  -4   1  883.20   13.93
  -1  -4   1  890.50   15.94
   1  -4  -1  898.02   14.55
   1  -4  -1  867.93   16.57
   1  -4   0  410.54    7.91
  -1  -4   0  408.01    9.79
   1  -4   0  419.12   10.88
   1  -4   0  398.36   11.33
   1  -4   0  404.32   10.23
  -1  -4   0  415.19   10.52
   1  -4   1   24.60    2.05
   1  -4   1   21.24    2.61
  -1  -4  -1   25.14    2.71
  -1  -4  -1   23.91    2.58
   1  -4   1   28.12    3.35
   1  -4   1   30.23    3.12
   1  -4   2   98.18    4.15
  -1  -4  -2  102.59    5.08
   1  -4   2   89.54    5.73
   1  -4   2   91.24    5.36
  -1  -4  -2  101.87    5.34
   1  -4   3  219.88    6.51
   1  -4   3  233.56    8.75
   1  -4   3  225.91    9.18
  -1  -4  -3  232.62    7.40
  -1  -4  -3  219.33    8.19
   1  -4   3  222.69    3.10
   1  -4   4  539.80   10.84
   1  -4   4  535.94   13.85
   1  -4   4  548.36   14.69
  -1  -4  -4  562.94   13.55
   1  -4   4  548.12    7.30
   1  -4   5  130.20    5.78
   1  -4   5  124.50    6.93
  -1  -4  -5  123.44    6.74
   1  -4   5  141.33    6.94
   1  -4   5  127.26    4.29
   1  -4   6   96.20    5.32
   1  -4   6  100.03    6.65
  -1  -4  -6   94.95    6.26
   1  -4   6   91.10    4.15
   1  -4   6   91.30    5.85
   1  -4   7  142.05    6.92
   1  -4   7  129.50    7.59
  -1  -4  -7  133.90    7.68
   1  -4   7  132.46    5.51
   1  -4   7  131.87    7.28
   1  -4   8  275.74   10.09
   1  -4   8  261.92   11.27
  -1  -4  -8  255.66   10.98
   1  -4   8  265.30   10.54
   1  -4   8  259.41    8.34
   1  -4   9  103.47    6.68
   1  -4   9  100.15    7.24
  -1  -4  -9   89.91    6.95
   1  -4   9   91.50    5.47
   1  -4   9   96.07    6.76
   1  -4  10   28.26    3.44
   1  -4  10   25.81    3.66
   1  -4  10   23.55    3.86
  -1  -4 -10   23.77    4.05
   1  -4  10   24.70    4.01
   1  -4  11  271.51   11.80
   1  -4  11  274.47   12.43
  -1  -4 -11  292.77   13.29
   1  -4  11  282.97   10.67
   1  -4  12  263.16   12.09
   1  -4  12  262.33   12.55
  -1  -4 -12  255.43   12.95
   1  -4  12  284.17   11.31
   1  -4  13   18.21    3.45
  -1  -4 -13   16.83    3.69
   1  -4  13   19.13    3.76
   1  -4  13   23.65    4.18
  -1  -4 -14   24.30    4.66
   1  -4  14   32.65    4.82
   1  -4  15   98.58    8.54
  -1  -4 -15   86.68    8.53
   1  -4  16  149.67   10.83
  -1  -4 -16  159.16   12.00
  -1  -4 -17   40.77    6.46
   1  -4  17   52.02    6.69
  -1  -4 -18    7.62    3.30
   1  -4  18    6.10    2.81
  -1  -3  20   56.28    7.33
   1  -3 -19  111.22   10.33
  -1  -3  19  105.48    9.71
  -1  -3  18   20.87    4.34
   1  -3 -18   26.19    5.38
  -1  -3  17    5.76    2.66
  -1  -3  17    5.95    2.69
   1  -3 -17    6.82    2.48
  -1  -3  16  114.77    8.41
   1  -3 -16  106.06    9.03
  -1  -3  16   97.41    8.09
  -1  -3  15  307.48   13.12
   1  -3 -15  318.93   14.97
  -1  -3  15  312.59   13.64
  -1  -3  14  255.12   11.66
   1  -3 -14  254.12   12.83
  -1  -3  14  238.94   11.37
  -1  -3  13    0.31    1.69
  -1  -3  13    6.44    2.53
   1  -3 -13    1.71    2.04
  -1  -3  12  336.85   12.51
   1  -3 -12  339.42   13.59
  -1  -3  12  343.13   12.35
  -1  -3  11  470.25   14.34
   1  -3 -11  506.79   15.78
  -1  -3  11  479.61   13.91
  -1  -3  10  244.28   10.00
   1  -3 -10  234.85   10.42
  -1  -3  10  241.21    9.41
  -1  -3   9   61.07    5.04
   1  -3  -9   47.52    4.93
  -1  -3   9   54.75    5.04
  -1  -3   9   65.58    4.66
   1  -3  -9   57.65    3.07
   1  -3  -8  355.27   11.68
  -1  -3   8  364.79    6.05
  -1  -3   8  355.62    9.97
  -1  -3   8  355.18   11.54
  -1  -3   7  942.98   10.96
   1  -3  -7  986.14   18.63
  -1  -3   7  995.90   18.38
  -1  -3   7  949.50   15.12
   1  -3  -6  374.70    4.72
  -1  -3   6  358.80    7.25
   1  -3  -6  373.84   10.93
  -1  -3   6  364.74    8.75
  -1  -3   6  374.54   10.85
  -1  -3   5   39.92    2.79
   1  -3  -5   38.51    1.84
   1  -3  -5   42.11    3.76
  -1  -3   5   35.72    2.48
  -1  -3   5   40.45    3.73
  -1  -3   4  179.02    5.29
   1  -3  -4  203.65    7.41
  -1  -3   4  169.12    5.54
  -1  -3   3 1062.31   10.21
   1  -3  -3 1039.68   12.76
  -1  -3   3 1035.61   11.72
   1  -3  -3 1104.01   16.48
  -1  -3   2 1149.38    8.17
   1  -3  -2 1173.27   12.79
   1  -3  -2 1202.52   16.65
  -1  -3   2 1139.59   12.76
   1  -3  -2 1185.27   13.25
   1  -3  -1   74.42    3.17
   1  -3  -1   75.12    4.14
  -1  -3   1   76.38    3.44
   1  -3  -1   76.20    3.66
   1  -3  -1   78.34    4.39
   1  -3   0  503.02    8.06
  -1  -3   0  526.60    9.35
   1  -3   0  527.47   10.54
   1  -3   0  521.11   11.26
   1  -3   0  509.84    9.85
   1  -3   1 1077.23   12.02
  -1  -3  -1 1100.75   14.27
   1  -3   1 1087.84   16.65
   1  -3   1 1083.22   15.08
  -1  -3  -1 1090.76   13.82
   1  -3   2  491.29    8.54
   1  -3   2  495.39   11.49
  -1  -3  -2  478.93    8.89
   1  -3   2  476.21   10.53
  -1  -3  -2  493.75   10.11
   1  -3   3  104.92    4.31
   1  -3   3  111.11    5.47
  -1  -3  -3  114.48    5.25
   1  -3   3  104.95    2.94
   1  -3   4  129.20    5.18
   1  -3   4  122.57    5.97
  -1  -3  -4  122.74    5.75
   1  -3   4  127.79    5.62
   1  -3   4  122.04    3.88
   1  -3   5  952.81   14.97
   1  -3   5  974.48   17.19
  -1  -3  -5  969.85   16.91
   1  -3   5  941.24   15.71
   1  -3   5  965.68   12.29
   1  -3   6  606.02   12.81
   1  -3   6  588.53   14.06
  -1  -3  -6  601.71   14.06
   1  -3   6  594.88   10.79
   1  -3   6  634.65   13.47
   1  -3   7  163.76    7.19
   1  -3   7  163.83    7.97
  -1  -3  -7  181.42    8.23
   1  -3   7  170.63    7.43
   1  -3   7  180.32    6.60
   1  -3   8  146.05    7.73
  -1  -3  -8  147.85    7.95
   1  -3   8  158.29    7.52
   1  -3   8  155.46    6.63
   1  -3   9  544.74   15.02
  -1  -3  -9  539.52   15.61
   1  -3   9  521.58   12.95
   1  -3  10  353.99   12.63
  -1  -3 -10  325.99   12.76
   1  -3  10  355.82   11.36
   1  -3  11  209.65   10.10
  -1  -3 -11  216.66   10.89
   1  -3  11  204.69    9.21
   1  -3  12   64.31    5.95
  -1  -3 -12   78.85    7.08
   1  -3  12   71.01    5.85
  -1  -3 -13  212.85   11.80
   1  -3  13  221.72   10.65
  -1  -3 -14  162.26   10.67
   1  -3  14  171.27    9.87
  -1  -3 -15   82.93    8.12
   1  -3  15  101.81    8.06
   1  -3  16    5.41    2.59
  -1  -3 -16    4.74    2.90
  -1  -3 -17  106.93    9.82
   1  -3  17  119.61    9.47
  -1  -3 -18  107.62   10.16
   1  -3  18  112.29    9.46
  -1  -3 -19   26.79    5.59
   1  -3  19   12.74    3.66
  -1  -3 -19   24.06    5.15
   1  -3  20    4.94    2.91
   1  -2 -20   14.54    4.22
  -1  -2  20   11.40    3.86
   1  -2 -20   14.03    4.17
  -1  -2  19    0.01    2.56
   1  -2 -19    5.14    3.09
  -1  -2  18   67.73    7.69
   1  -2 -18   61.06    7.24
   1  -2 -17  199.42   12.23
  -1  -2  17  209.21   12.29
  -1  -2  16   53.24    5.37
   1  -2 -16   61.12    6.65
  -1  -2  16   61.43    6.70
  -1  -2  15   29.09    4.57
  -1  -2  15   31.45    4.12
   1  -2 -15   31.32    4.86
  -1  -2  14   59.37    5.35
   1  -2 -14   59.38    6.21
  -1  -2  14   62.67    6.03
  -1  -2  13  215.25    9.48
   1  -2 -13  221.24   10.95
  -1  -2  13  226.01   10.55
  -1  -2  12  290.44   10.57
   1  -2 -12  291.90   11.92
  -1  -2  12  273.69   11.04
  -1  -2  11    0.94    1.73
  -1  -2  11    1.32    1.40
   1  -2 -11    0.59    2.00
   1  -2 -11    0.96    0.83
  -1  -2  10  455.53   12.28
   1  -2 -10  445.94   13.44
   1  -2 -10  423.90    8.84
  -1  -2  10  428.55   12.43
  -1  -2   9  644.49   13.96
   1  -2  -9  658.75   15.34
  -1  -2   9  654.58   14.26
   1  -2  -9  615.06   10.23
  -1  -2   8  189.74    7.32
   1  -2  -8  182.96    7.74
  -1  -2   8  185.22    3.17
  -1  -2   8  189.13    7.24
   1  -2  -8  183.54    5.32
  -1  -2   7  155.06    3.38
   1  -2  -7  161.47    6.91
  -1  -2   7  160.51    6.93
  -1  -2   7  147.61    5.96
   1  -2  -7  154.93    4.70
   1  -2  -6   93.73    4.96
  -1  -2   6   95.56    2.92
  -1  -2   6  103.01    5.27
  -1  -2   6   98.78    4.57
  -1  -2   5 1189.41   14.24
   1  -2  -5 1228.03   16.77
  -1  -2   5 1203.34   11.00
  -1  -2   5 1237.96   16.70
  -1  -2   4  607.01    9.33
   1  -2  -4  634.56    5.20
   1  -2  -4  634.99   11.31
  -1  -2   4  593.58    8.26
  -1  -2   4  635.70   11.35
  -1  -2   3   53.75    2.61
   1  -2  -3   51.35    2.71
   1  -2  -3   51.93    1.87
   1  -2  -3   49.30    3.17
  -1  -2   3   49.79    2.55
   1  -2  -2  407.25    6.91
   1  -2  -2  398.25    5.90
   1  -2  -2  402.79    8.15
  -1  -2   2  399.92    7.40
   1  -2  -1  494.37    7.23
  -1  -2   1  491.97    6.64
   1  -2  -1  517.45    8.90
   1  -2  -1  481.17    8.97
   1  -2  -1  503.68    7.38
   1  -2   0 1764.62   13.53
  -1  -2   0 1833.80   13.81
   1  -2   0 1872.26   17.53
   1  -2   0 1858.97   15.39
   1  -2   1  728.31    8.96
   1  -2   1  737.73   10.54
   1  -2   1  737.72   11.43
  -1  -2  -1  719.38    8.63
  -1  -2  -1  752.78    9.71
   1  -2   2 1757.83   15.11
   1  -2   2 1743.28   17.28
  -1  -2  -2 1740.85   12.73
  -1  -2  -2 1774.54   16.36
   1  -2   2 1779.09   10.30
   1  -2   3 1203.61   13.77
   1  -2   3 1202.19   15.30
  -1  -2  -3 1240.57   15.01
   1  -2   3 1231.51   13.97
   1  -2   3 1215.06   10.84
   1  -2   4  420.27    8.88
   1  -2   4  420.45    9.59
  -1  -2  -4  415.92    9.48
   1  -2   4  421.50    7.46
   1  -2   4  412.43    8.59
   1  -2   5  490.47   10.97
  -1  -2  -5  468.19   10.80
   1  -2   5  479.15    9.00
   1  -2   5  472.67    9.88
   1  -2   6  111.11    5.59
  -1  -2  -6   99.99    5.42
   1  -2   6  105.65    4.74
   1  -2   6  102.90    5.04
   1  -2   7  925.40   16.53
  -1  -2  -7  903.96   17.07
   1  -2   7  873.09   14.59
   1  -2   8 1088.85   18.74
  -1  -2  -8 1084.69   19.87
   1  -2   8 1044.40   17.27
   1  -2   9    4.95    2.15
   1  -2   9    5.63    2.12
  -1  -2  -9    2.44    1.90
   1  -2  10  196.90    8.77
  -1  -2 -10  197.27    9.51
   1  -2  10  199.33    8.59
  -1  -2 -11   89.96    6.99
   1  -2  11   73.23    5.64
  -1  -2 -12  372.42   14.23
   1  -2  12  361.75   12.90
  -1  -2 -13  180.98   10.48
   1  -2  13  173.15    9.45
   1  -2  14   53.82    5.70
  -1  -2 -14   53.00    6.07
  -1  -2 -15  220.50   12.48
   1  -2  15  247.71   12.41
  -1  -2 -16  141.41   10.42
   1  -2  16  161.95   10.55
   1  -2  17   23.49    4.55
  -1  -2 -17   20.44    4.38
  -1  -2 -17   16.05    4.06
   1  -2  18    6.28    3.09
  -1  -2 -18    0.84    2.65
  -1  -2 -19   36.32    6.45
   1  -2  19   41.48    6.40
   1  -2  20   92.66    9.58
   1  -1 -21   14.86    4.57
   1  -1 -20   50.26    7.01
  -1  -1  20   54.39    7.40
   1  -1 -19  191.36   12.77
  -1  -1  19  177.60   12.37
   1  -1 -18   98.31    9.08
  -1  -1  18   91.96    8.77
  -1  -1  17    1.67    2.66
   1  -1 -17    6.53    3.21
   1  -1 -16  161.18   10.38
  -1  -1  16  170.86   10.70
   1  -1 -15  510.91   17.38
  -1  -1  15  521.98   17.58
   1  -1 -14  150.12    9.25
  -1  -1  14  170.17    9.92
  -1  -1  13   33.09    4.73
  -1  -1  13   32.63    3.58
   1  -1 -13   28.54    4.12
   1  -1 -13   33.76    3.30
  -1  -1  12  122.32    6.27
   1  -1 -12  128.14    7.68
  -1  -1  12  130.39    7.78
   1  -1 -12  136.63    6.12
  -1  -1  11  809.80   15.20
   1  -1 -11  770.76   17.59
   1  -1 -11  765.36   13.76
  -1  -1  11  774.36   17.46
  -1  -1  10  297.41    8.85
   1  -1 -10  319.59   10.78
  -1  -1  10  301.25   10.31
   1  -1 -10  303.68    8.26
  -1  -1   9   16.43    2.73
  -1  -1   9   14.64    2.10
   1  -1  -9   10.94    2.20
   1  -1  -9   13.75    1.78
  -1  -1   8  156.72    5.83
   1  -1  -8  168.13    6.92
  -1  -1   8  158.00    6.64
   1  -1  -8  158.47    5.35
   1  -1  -7 2140.12   22.67
  -1  -1   7 2103.39   22.03
   1  -1  -7 2039.92   17.93
  -1  -1   6 1152.31    9.17
   1  -1  -6 1173.15   15.63
   1  -1  -6 1141.02   12.53
  -1  -1   6 1136.55   14.99
  -1  -1   5   23.05    2.24
   1  -1  -5   23.65    2.25
  -1  -1   5   22.19    1.31
   1  -1  -5   26.11    1.93
  -1  -1   5   22.72    2.40
  -1  -1   4 2153.16   17.01
   1  -1  -4 2134.95   17.79
  -1  -1   4 2201.03   12.44
  -1  -1   4 2180.25   18.42
  -1  -1   3 5275.72   23.75
   1  -1  -3 5363.72   25.75
  -1  -1   3 5525.32   20.22
  -1  -1   3 5309.83   25.92
   1  -1  -2 1087.98   10.06
   1  -1  -2 1112.67   10.72
  -1  -1   2 1136.83    9.47
   1  -1  -1 1051.63    7.61
   1  -1  -1 1014.50    8.86
  -1  -1   1 1033.01    9.43
   1  -1   0 1177.48    9.36
   1  -1   0 1199.15   10.69
   1  -1   0 1148.59    9.46
  -1  -1   0 1224.29    7.89
  -1  -1   0 1200.86   10.74
   1  -1   1 4927.19   20.56
   1  -1   1 4869.08   22.34
   1  -1   1 4791.50   21.93
  -1  -1  -1 4734.89   19.70
   1  -1   1 4977.51   15.12
   1  -1   2  855.01    9.71
   1  -1   2  791.23    9.92
  -1  -1  -2  804.47    9.65
   1  -1   2  803.93    7.89
   1  -1   2  847.74    8.32
   1  -1   3  435.21    7.99
  -1  -1  -3  432.08    8.09
   1  -1   3  432.04    6.89
   1  -1   3  438.16    6.97
   1  -1   4  254.39    6.60
  -1  -1  -4  255.04    6.97
   1  -1   4  256.94    6.14
   1  -1   5 1413.65   16.45
  -1  -1  -5 1422.12   17.70
  -1  -1  -5 1433.02    8.29
   1  -1   5 1390.31   15.73
   1  -1   6  864.00   13.62
  -1  -1  -6  842.33   14.89
   1  -1   6  837.06   13.42
  -1  -1  -6  830.47    7.75
  -1  -1  -7  305.33    9.65
  -1  -1  -7  283.43    5.25
   1  -1   7  282.97    8.52
  -1  -1  -8  316.33   10.46
  -1  -1  -8  307.80    6.12
   1  -1   8  307.85    9.59
  -1  -1  -9  964.88   19.20
   1  -1   9  962.34   17.96
  -1  -1  -9  944.02   11.70
  -1  -1 -10  501.04   14.58
   1  -1  10  451.20   13.15
  -1  -1 -10  474.74    8.93
  -1  -1 -11   81.61    6.50
  -1  -1 -11   78.69    3.90
   1  -1  11   72.47    5.72
   1  -1  12   39.35    4.83
  -1  -1 -12   34.04    4.65
  -1  -1 -13  343.67   13.97
   1  -1  13  338.48   13.33
  -1  -1 -14  233.83   12.08
   1  -1  14  252.49   12.13
  -1  -1 -15   80.65    7.52
   1  -1  15   77.52    7.23
  -1  -1 -16   44.01    5.94
   1  -1  16   44.37    5.89
  -1  -1 -17  128.20   10.25
   1  -1  17  137.75   10.16
  -1  -1 -18  109.19    9.78
   1  -1  18   92.59    8.85
  -1  -1 -19  117.67   10.46
   1  -1  19  116.36   10.26
   1  -1  20   12.51    4.71
  -1  -1 -20    8.10    3.89
   1   0 -21  129.36   11.07
   1   0 -20   40.22    6.40
  -1   0  20   62.28    7.84
   1   0 -19   27.47    5.15
  -1   0  19   22.99    4.97
   1   0 -18  110.81    9.30
  -1   0  18  104.31    9.23
   1   0 -17  161.12   10.72
  -1   0  17  136.01   10.01
   1   0 -16  103.66    8.28
  -1   0  16  118.63    9.06
   1   0 -15    4.82    2.50
  -1   0  15   -0.53    2.79
   1   0 -15    0.69    1.61
   1   0 -14  321.70   13.23
   1   0 -14  321.82   12.93
  -1   0  14  308.29   12.96
   1   0 -14  315.01   11.15
   1   0 -13  611.30   17.02
  -1   0  13  584.25   16.91
   1   0 -13  603.68   14.85
   1   0 -12   70.41    5.70
  -1   0  12   74.33    6.02
   1   0 -12   60.47    4.62
  -1   0  11    1.48    1.86
   1   0 -11    0.99    1.64
   1   0 -11    0.20    1.09
  -1   0  10  182.95    6.06
   1   0 -10  180.65    7.88
   1   0 -10  177.99    7.01
  -1   0  10  171.43    8.06
  -1   0   9 1056.90   13.64
   1   0  -9 1072.84   17.89
   1   0  -9 1040.61   16.00
  -1   0   9 1029.43   17.92
  -1   0   8 1114.22   13.00
   1   0  -8 1098.65   16.70
  -1   0   8 1123.29   17.52
   1   0  -8 1070.10   15.42
  -1   0   7   41.63    2.43
   1   0  -7   43.65    3.20
  -1   0   7   40.33    3.38
   1   0  -7   39.28    2.85
  -1   0   6 1167.76   11.22
   1   0  -6 1166.77   14.49
   1   0  -6 1190.37   14.24
  -1   0   6 1183.53   15.33
   1   0  -5  740.30   10.29
   1   0  -5  727.72   10.38
  -1   0   5  726.22   11.00
  -1   0   4    8.18    1.50
   1   0  -4    9.71    1.24
   1   0  -4    7.58    1.30
  -1   0   3   12.02    1.30
   1   0  -3   15.46    1.18
   1   0  -3   14.20    1.36
  -1   0   3   12.28    1.18
   1   0  -2   50.27    2.02
  -1   0   2   51.10    2.01
   1   0  -2   53.48    1.60
  -1   0   2   41.65    1.75
   1   0  -1  859.25    6.80
  -1   0   1  842.39    5.85
   1   0   0  795.60    6.16
  -1   0   0  223.13    3.59
  -1   0   0  738.91    5.20
   1   0   1   45.64    1.77
   1   0   1   46.51    1.27
  -1   0  -1   50.20    1.30
  -1   0  -1   45.82    1.68
  -1   0  -1   52.77    1.79
  -1   0  -2   42.77    2.19
  -1   0  -2   44.55    1.73
   1   0   2   37.89    2.01
  -1   0  -3 2128.14   17.03
  -1   0  -3 2170.55   12.34
   1   0   3 2160.48   16.47
  -1   0  -3 2155.47   13.32
  -1   0  -4 2051.95   18.86
  -1   0  -4 2050.64   12.79
   1   0   4 2010.29   17.84
  -1   0  -4 2047.70   14.48
  -1   0  -5  313.85    8.26
  -1   0  -5  309.55    5.32
  -1   0  -5  308.41    6.24
   1   0   5  311.94    7.84
  -1   0  -6  363.22    9.58
  -1   0  -6  383.87    6.22
  -1   0  -6  365.22    7.37
   1   0   6  390.07    9.44
  -1   0  -7 1084.28   17.62
  -1   0  -7 1078.62   13.58
   1   0   7 1086.75   16.97
  -1   0  -7 1057.23   10.98
  -1   0  -8  219.67    8.62
  -1   0  -8  222.56    5.25
  -1   0  -8  221.24    6.63
   1   0   8  217.77    8.26
  -1   0  -9  436.29   12.75
   1   0   9  416.01   12.12
  -1   0  -9  420.11    7.64
  -1   0  -9  406.13    9.48
  -1   0 -10   12.49    3.05
   1   0  10   14.26    3.37
  -1   0 -10    8.04    1.29
  -1   0 -10    9.71    1.96
  -1   0 -11  603.63   16.66
  -1   0 -11  595.43    9.72
  -1   0 -11  607.25   12.97
   1   0  11  603.87   16.17
  -1   0 -12  365.38   13.65
   1   0  12  361.61   13.32
  -1   0 -12  351.32   10.31
  -1   0 -13  184.84   10.19
   1   0  13  204.04   10.58
  -1   0 -13  203.14    8.18
  -1   0 -14   15.91    3.67
   1   0  14   14.75    3.90
  -1   0 -15  155.38   10.38
   1   0  15  142.61    9.96
  -1   0 -16  284.71   14.30
   1   0  16  291.22   14.33
  -1   0 -17  117.11    9.56
   1   0  17  121.93    9.69
  -1   0 -18   28.96    5.23
   1   0  18   29.46    5.51
  -1   0 -19   52.15    7.10
   1   0  19   70.51    8.17
   1   0  20   60.33    7.71
  -1   0 -20   57.54    7.83
   1   1 -21    8.40    3.66
   1   1 -20   44.92    6.38
  -1   1  20   22.62    5.07
   1   1 -19  167.52   11.79
  -1   1  19  189.51   12.88
   1   1 -18  106.32    9.13
  -1   1  18  112.05    9.69
   1   1 -17    3.09    2.36
  -1   1  17    2.49    2.58
   1   1 -17   -0.32    1.53
   1   1 -16  169.99   10.43
  -1   1  16  174.88   11.03
   1   1 -16  187.48   10.10
   1   1 -15  510.44   17.18
   1   1 -15  518.10   16.11
  -1   1  15  506.58   17.53
   1   1 -14  140.96    8.83
   1   1 -14  141.20    8.19
  -1   1  14  144.48    9.43
   1   1 -13   32.81    4.30
  -1   1  13   38.04    4.73
   1   1 -13   41.86    4.45
   1   1 -12  126.68    7.55
   1   1 -12  127.34    7.19
  -1   1  12  131.86    8.01
   1   1 -11  816.99   17.73
  -1   1  11  816.80   18.18
   1   1 -11  801.11   17.14
   1   1 -10  303.42   10.26
  -1   1  10  306.37   10.75
   1   1 -10  297.43   10.12
   1   1  -9   12.97    2.38
  -1   1   9   14.28    2.66
   1   1  -9   16.95    2.59
   1   1  -8  191.28    7.10
   1   1  -8  184.26    7.27
  -1   1   8  190.33    7.42
   1   1  -7 2057.55   21.33
  -1   1   7 2142.12   22.74
   1   1  -7 2109.22   23.05
   1   1  -6 1179.72   14.63
   1   1  -6 1141.10   16.01
  -1   1   6 1195.39   15.65
  -1   1   5   19.77    2.11
   1   1  -5   16.85    1.69
   1   1  -5   19.20    2.29
   1   1  -4 2336.73   15.83
  -1   1   4 2310.32   17.71
   1   1  -4 2294.28   19.92
   1   1  -3 5615.73   19.94
   1   1  -3 5366.78   28.14
  -1   1   3 5530.83   23.69
   1   1  -2 1098.32    6.42
   1   1  -2 1061.48   11.37
  -1   1   2 1027.07   10.35
   1   1  -2 1058.44   10.88
   1   1  -2 1047.97   11.31
  -1   1   2 1052.60    8.54
  -1   1   1 1049.35    6.52
  -1   1   1  999.70    9.50
   1   1  -1 1017.20   10.52
   1   1  -1 1015.31   10.08
   1   1  -1 1031.09   10.00
  -1   1   0 1099.12   10.39
   1   1   0 1142.15   10.65
  -1   1   0 1085.08    9.74
   1   1   0 1094.87   10.23
   1   1   0 1138.29    9.04
  -1   1  -1 5003.31   22.95
  -1   1  -1 4819.85   21.59
   1   1   1 4997.29   22.03
   1   1   1 5046.03   22.90
   1   1   1 5075.53   15.53
  -1   1  -2  970.84   10.65
  -1   1  -2  992.65    8.58
  -1   1  -2  977.56   11.00
  -1   1  -2  956.61   11.40
   1   1   2  962.83   10.56
  -1   1  -3  408.15    7.62
  -1   1  -3  434.32    5.74
  -1   1  -3  421.03    8.00
  -1   1  -3  395.63    7.95
   1   1   3  421.81    7.80
  -1   1  -4  257.30    6.87
  -1   1  -4  269.56    3.38
  -1   1  -4  255.43    6.71
   1   1   4  248.42    6.71
  -1   1  -5 1365.33   17.15
  -1   1  -5 1368.00   16.41
   1   1   5 1375.07   17.01
  -1   1  -6  816.66   14.41
  -1   1  -6  807.98   13.39
   1   1   6  806.53   14.11
  -1   1  -7  315.67    9.63
   1   1   7  296.55    9.30
  -1   1  -7  308.19    8.76
  -1   1  -8  308.30   10.19
  -1   1  -8  317.02    9.33
   1   1   8  329.38   10.37
  -1   1  -9  957.01   18.90
   1   1   9  962.46   18.80
  -1   1  -9  980.68   17.10
  -1   1 -10  415.66   13.24
  -1   1 -10  417.60   11.69
   1   1  10  422.16   13.27
  -1   1 -11   84.75    6.47
   1   1  11   98.19    6.86
  -1   1 -11   90.63    5.80
   1   1  12   37.29    4.84
  -1   1 -12   33.01    4.57
  -1   1 -12   30.62    3.74
  -1   1 -13  357.94   14.12
   1   1  13  351.59   13.87
  -1   1 -13  338.01   11.89
  -1   1 -14  250.65   12.36
   1   1  14  268.27   12.70
  -1   1 -14  270.27   11.00
  -1   1 -15   81.68    7.53
   1   1  15   67.11    6.87
  -1   1 -15   76.86    6.16
   1   1  16   47.04    6.45
  -1   1 -16   53.93    6.49
  -1   1 -17  131.38   10.13
   1   1  17  140.25   10.52
  -1   1 -18  108.44    9.70
   1   1  18  100.59    9.45
  -1   1 -19  132.53   10.87
   1   1  19  126.02   10.70
   1   1  20   13.78    4.38
  -1   1 -20    1.66    2.31
  -1   2  20   11.52    4.18
   1   2 -20   11.36    3.62
   1   2 -19   -8.26    3.06
  -1   2  19    5.93    3.38
   1   2 -18   64.58    7.12
  -1   2  18   55.85    7.10
   1   2 -18   72.82    7.27
   1   2 -17  201.00   11.81
  -1   2  17  217.34   12.77
   1   2 -17  228.98   12.32
  -1   2  16   48.19    6.11
   1   2 -16   39.57    5.30
   1   2 -16   53.64    6.07
   1   2 -15   25.34    4.03
  -1   2  15   20.18    4.22
   1   2 -15   33.21    4.68
   1   2 -14   66.59    6.08
   1   2 -14   67.25    6.10
  -1   2  14   61.51    6.20
   1   2 -13  214.05   10.15
  -1   2  13  228.66   11.01
   1   2 -13  234.15   10.96
   1   2 -12  293.71   11.22
  -1   2  12  290.61   11.73
   1   2 -12  279.12   11.57
   1   2 -11    3.16    1.79
  -1   2  11    2.36    1.97
   1   2 -11    1.65    1.81
   1   2 -10  442.48   12.25
   1   2 -10  430.94   13.28
  -1   2  10  426.56   12.80
   1   2  -9  672.02   14.15
  -1   2   9  650.95   14.89
   1   2  -9  681.12   16.09
   1   2  -8  222.51    7.60
   1   2  -8  218.94    8.86
  -1   2   8  204.25    7.81
   1   2  -7  159.55    5.94
  -1   2   7  166.36    6.60
   1   2  -7  165.12    7.39
   1   2  -6   85.20    3.96
   1   2  -6   85.96    5.15
  -1   2   6   84.89    4.38
   1   2  -5 1225.43   13.42
  -1   2   5 1256.83   14.98
   1   2  -5 1245.18   18.06
   1   2  -4  652.03   11.94
   1   2  -4  638.69    8.75
  -1   2   4  638.08    9.56
   1   2  -4  643.64   12.33
   1   2  -3   49.86    3.34
  -1   2   3   51.38    3.18
   1   2  -3   52.45    2.35
   1   2  -3   57.64    3.66
  -1   2   3   54.29    2.50
   1   2  -2  416.58    6.09
   1   2  -2  418.68    9.10
  -1   2   2  414.98    7.96
   1   2  -2  420.23    5.94
   1   2  -2  427.03    8.48
  -1   2   2  425.24    5.79
   1   2  -2  421.04    8.88
  -1   2   2  424.55    5.54
   1   2  -1  479.80    5.72
  -1   2   1  476.99    8.31
   1   2  -1  454.24    9.44
   1   2  -1  476.60    8.72
  -1   2   1  495.40    5.77
   1   2  -1  487.98    8.86
  -1   2   0 1783.14   17.13
   1   2   0 1751.62   18.18
   1   2   0 1809.84   11.03
  -1   2   0 1764.49   15.77
  -1   2   0 1813.16   11.54
   1   2   0 1812.16   16.64
   1   2   0 1781.63   15.46
  -1   2  -1  789.02   11.39
   1   2   1  779.49    7.98
   1   2   1  790.03   12.23
  -1   2  -1  773.99   10.65
   1   2   1  777.33   11.08
   1   2   1  801.44    9.26
  -1   2  -2 1853.00   17.80
  -1   2  -2 1791.44   16.97
  -1   2  -2 1842.69   17.46
   1   2   2 1871.73   17.87
  -1   2  -2 1788.83   19.35
   1   2   2 1839.29   12.02
  -1   2  -3 1267.44   15.43
  -1   2  -3 1270.99   15.00
  -1   2  -3 1273.37   14.38
   1   2   3 1251.82   15.38
   1   2   3 1243.38   14.23
  -1   2  -3 1253.64   16.83
  -1   2  -4  439.29    9.50
  -1   2  -4  440.34    8.50
  -1   2  -4  452.54    9.81
   1   2   4  443.20    9.32
  -1   2  -4  428.98   10.49
  -1   2  -5  518.28    9.38
  -1   2  -5  528.60   11.19
   1   2   5  512.41   10.84
  -1   2  -5  517.79   11.94
  -1   2  -6  133.43    6.08
  -1   2  -6  131.37    6.31
   1   2   6  137.01    6.11
  -1   2  -7  917.10   16.71
  -1   2  -7  942.30   17.43
   1   2   7  903.36   16.49
  -1   2  -8 1098.60   19.33
  -1   2  -8 1088.66   19.57
   1   2   8 1107.24   19.52
   1   2   9    4.76    2.16
  -1   2  -9    2.69    1.91
  -1   2  -9    4.69    1.85
  -1   2 -10  192.87    9.11
  -1   2 -10  198.56    9.05
   1   2  10  209.19    9.57
  -1   2 -11   80.33    6.27
  -1   2 -11   86.93    6.30
   1   2  11   84.73    6.64
  -1   2 -12  390.08   14.12
   1   2  12  423.59   14.84
  -1   2 -12  404.71   13.81
  -1   2 -13  160.94    9.57
   1   2  13  168.42   10.00
  -1   2 -13  194.44    9.94
  -1   2 -14   47.35    5.59
   1   2  14   63.17    6.66
  -1   2 -14   59.51    5.84
  -1   2 -15  223.39   12.26
  -1   2 -15  228.90   11.58
   1   2  15  236.14   12.76
  -1   2 -16  143.16   10.27
  -1   2 -16  141.45    9.37
   1   2  16  131.95   10.13
   1   2  17   29.89    5.50
  -1   2 -17   23.86    4.57
  -1   2 -17   40.77    5.40
  -1   2 -18    5.84    3.27
   1   2  18    5.34    3.36
  -1   2 -19   39.79    6.40
   1   2  19   39.35    6.41
  -1   2 -20   77.99    8.81
  -1   3  19   92.17    9.32
   1   3 -19   99.63    9.27
  -1   3  18   15.44    4.30
   1   3 -18   12.13    3.43
  -1   3  17    6.23    3.51
   1   3 -17    6.95    2.75
   1   3 -17    7.88    3.01
   1   3 -16   88.57    7.51
   1   3 -16  100.80    8.73
  -1   3  16  101.22    8.56
   1   3 -15  311.04   13.39
   1   3 -15  300.89   14.25
  -1   3  15  326.34   14.58
   1   3 -14  260.72   11.76
   1   3 -14  253.66   12.71
  -1   3  14  239.64   12.17
   1   3 -13    6.43    2.28
  -1   3  13    4.18    2.62
   1   3 -13    5.24    2.37
   1   3 -12  326.20   11.88
   1   3 -12  334.44   13.79
  -1   3  12  307.87   12.33
   1   3 -11  493.56   13.81
   1   3 -11  507.42   16.27
  -1   3  11  500.59   14.92
   1   3 -10  221.48    8.79
  -1   3  10  234.83    9.72
   1   3 -10  216.35   10.43
   1   3  -9   57.65    4.30
   1   3  -9   59.36    5.44
  -1   3   9   57.79    4.69
   1   3  -8  367.67    9.92
  -1   3   8  362.99   10.69
   1   3  -8  358.08   12.45
   1   3  -7 1012.66   15.44
  -1   3   7 1037.45   16.81
   1   3  -7  988.63   19.94
  -1   3   6  353.93   10.21
   1   3  -6  329.49   10.40
   1   3  -6  351.31    8.55
   1   3  -6  343.52   11.31
  -1   3   6  348.69    8.99
   1   3  -5   39.74    2.75
  -1   3   5   41.26    3.64
   1   3  -5   41.83    3.85
  -1   3   5   40.44    2.92
  -1   3   5   44.12    3.01
   1   3  -5   39.21    3.93
   1   3  -4  189.34    5.63
  -1   3   4  194.55    6.88
   1   3  -4  199.02    7.74
  -1   3   4  189.78    5.62
   1   3  -4  191.49    7.78
  -1   3   4  182.84    5.34
   1   3  -3 1142.44   13.33
   1   3  -3 1119.15   17.95
  -1   3   3 1145.44   15.85
   1   3  -3 1127.87   12.96
  -1   3   3 1151.51   12.86
   1   3  -3 1162.15   16.74
  -1   3   3 1108.49   11.26
   1   3  -3 1147.20   18.06
   1   3  -2 1229.91   12.64
   1   3  -2 1279.05   19.06
  -1   3   2 1218.09   15.85
  -1   3   2 1227.82   12.51
   1   3  -2 1216.96   16.49
   1   3  -2 1228.22   17.62
  -1   3   2 1212.34    9.28
  -1   3   1   83.99    4.19
   1   3  -1   91.45    3.34
   1   3  -1   84.92    5.02
   1   3  -1   85.04    4.39
  -1   3   1   89.30    3.39
   1   3  -1   85.87    4.52
   1   3   0  545.15   12.34
   1   3   0  543.46    8.11
  -1   3   0  512.46   10.04
   1   3   0  523.13   10.55
  -1   3   0  548.55    8.41
   1   3   0  535.49   10.46
  -1   3  -1 1162.51   16.35
  -1   3  -1 1165.19   15.30
   1   3   1 1115.32   17.67
   1   3   1 1135.54   12.16
  -1   3  -1 1141.18   17.30
   1   3   1 1139.36   15.63
   1   3   1 1143.29   14.14
  -1   3  -2  505.79   10.89
   1   3   2  497.96    8.55
  -1   3  -2  496.48   11.33
  -1   3  -2  491.64   10.20
   1   3   2  469.70   11.72
   1   3   2  479.03   10.37
  -1   3  -2  486.66   11.80
   1   3   2  489.92    8.51
  -1   3  -3  140.10    5.89
   1   3   3  129.93    4.80
  -1   3  -3  133.81    5.92
  -1   3  -3  132.36    5.56
   1   3   3  132.56    5.71
  -1   3  -3  133.71    6.66
  -1   3  -4  124.84    5.77
  -1   3  -4  128.57    5.76
  -1   3  -4  127.37    5.75
   1   3   4  128.54    5.83
  -1   3  -4  130.96    6.78
  -1   3  -5 1010.63   16.80
  -1   3  -5  996.71   16.57
  -1   3  -5 1001.70   15.98
   1   3   5 1008.97   16.99
  -1   3  -5 1017.35   18.88
   1   3   5  992.96   15.69
  -1   3  -6  593.96   13.53
  -1   3  -6  573.04   12.27
   1   3   6  571.68   13.47
  -1   3  -6  570.95   14.79
   1   3   6  582.97   12.91
  -1   3  -7  165.35    6.67
  -1   3  -7  161.14    7.43
   1   3   7  172.73    7.60
  -1   3  -7  160.18    8.20
  -1   3  -8  168.66    8.04
  -1   3  -8  156.64    8.44
   1   3   8  162.82    7.93
  -1   3  -9  539.62   14.81
   1   3   9  523.14   14.64
  -1   3  -9  543.72   15.96
  -1   3 -10  328.33   12.13
  -1   3 -10  335.77   12.98
   1   3  10  342.83   12.54
  -1   3 -11  214.47   10.33
   1   3  11  229.66   10.75
  -1   3 -11  230.54   11.09
  -1   3 -12   69.25    6.19
  -1   3 -12   77.25    6.77
   1   3  12   76.22    6.72
  -1   3 -13  193.92   10.69
  -1   3 -13  208.43   11.22
   1   3  13  196.18   10.96
  -1   3 -14  144.68    9.72
   1   3  14  136.23    9.48
  -1   3 -14  172.40   10.55
  -1   3 -15   81.00    7.53
  -1   3 -15  104.68    8.43
   1   3  15   95.16    8.39
  -1   3 -16    7.24    3.16
   1   3  16    4.60    3.07
  -1   3 -16    7.52    3.02
  -1   3 -17  115.40    9.85
  -1   3 -17  125.50    9.92
   1   3  17  128.06   10.56
  -1   3 -18  107.61    9.71
  -1   3 -18  105.00    9.21
   1   3  18  110.74   10.26
  -1   3 -19   30.18    5.56
   1   3  19   19.04    4.94
  -1   3 -20   -4.17    2.67
  -1   4  19    2.97    2.68
   1   4 -19    4.22    2.58
  -1   4  18   62.59    7.60
   1   4 -18   56.05    7.52
   1   4 -17  109.46    9.84
  -1   4  17  105.67    9.34
  -1   4  16   51.11    6.43
   1   4 -16   63.52    7.41
  -1   4  15   24.65    4.52
   1   4 -15   14.29    3.96
   1   4 -14  203.02   12.25
  -1   4  14  201.04   11.18
   1   4 -13  238.44   10.88
  -1   4  13  225.04   11.33
   1   4 -13  220.44   12.48
   1   4 -12   50.69    4.86
  -1   4  12   57.71    5.72
   1   4 -12   49.57    6.01
  -1   4  11   13.59    3.01
   1   4 -11   15.20    2.79
   1   4 -11   18.71    3.91
   1   4 -10  209.65    8.84
   1   4 -10  198.89   10.81
  -1   4  10  207.92    9.45
  -1   4   9  194.44    9.59
   1   4  -9  189.41    8.00
   1   4  -9  187.11   10.26
  -1   4   9  183.83    8.38
   1   4  -8  392.09   10.87
  -1   4   8  390.05   12.74
  -1   4   8  415.27   11.83
   1   4  -8  393.32   14.29
  -1   4   8  408.23   11.64
   1   4  -7   48.43    3.79
  -1   4   7   46.10    4.41
   1   4  -7   44.60    4.60
  -1   4   7   44.18    3.77
   1   4  -7   41.13    4.82
  -1   4   7   42.82    3.63
   1   4  -6  455.67   10.72
  -1   4   6  455.98   12.58
   1   4  -6  480.29   14.01
  -1   4   6  467.06   11.03
   1   4  -6  435.93   14.12
  -1   4   6  465.37   10.60
   1   4  -5  301.29    8.47
  -1   4   5  295.66    9.80
   1   4  -5  293.95   10.88
  -1   4   5  305.72    8.44
  -1   4   5  311.65    7.85
   1   4  -5  311.21   11.50
   1   4  -4  318.98    8.62
   1   4  -4  330.23   11.58
  -1   4   4  339.22   10.11
   1   4  -4  351.28    8.86
  -1   4   4  338.73    8.45
   1   4  -4  354.89   11.92
  -1   4   4  342.47    7.20
   1   4  -3   87.56    4.24
  -1   4   3   93.12    5.27
   1   4  -3   87.78    5.96
  -1   4   3   93.77    4.29
   1   4  -3   94.66    5.43
   1   4  -3   90.68    5.92
   1   4  -2  247.31    9.84
  -1   4   2  253.32    8.29
   1   4  -2  262.02    6.96
   1   4  -2  251.14    8.59
  -1   4   2  257.15    6.88
   1   4  -2  248.75    9.15
  -1   4   1  902.95   15.29
   1   4  -1  899.66   18.61
   1   4  -1  933.64   12.80
  -1   4   1  915.29   12.85
   1   4  -1  911.09   16.07
   1   4  -1  902.24   16.67
   1   4   0  414.11   12.62
  -1   4   0  403.73   12.36
   1   4   0  407.91    8.48
  -1   4   0  401.91   10.24
  -1   4   0  406.82    8.73
   1   4   0  399.37   10.55
   1   4   0  394.06   10.54
  -1   4  -1   22.66    3.15
  -1   4  -1   19.06    2.63
   1   4   1   20.75    3.42
   1   4   1   21.47    2.22
   1   4   1   22.91    2.74
   1   4   1   22.85    2.52
  -1   4  -2  109.87    5.87
  -1   4  -2   99.60    5.32
   1   4   2  102.87    4.59
  -1   4  -2  101.74    6.16
   1   4   2  102.89    6.55
   1   4   2  105.57    5.55
   1   4   2  101.95    4.83
  -1   4  -3  249.71    8.80
  -1   4  -3  267.54    8.79
   1   4   3  230.60    9.73
  -1   4  -3  254.47    9.60
   1   4   3  260.75    7.53
   1   4   3  254.70    8.78
  -1   4  -3  254.36    9.96
  -1   4  -4  534.24   13.18
  -1   4  -4  548.60   12.97
   1   4   4  547.42   11.48
  -1   4  -4  535.76   13.73
   1   4   4  533.75   14.92
   1   4   4  545.11   13.11
  -1   4  -4  576.18   15.44
  -1   4  -5  145.29    7.09
  -1   4  -5  140.78    6.90
   1   4   5  137.30    6.24
  -1   4  -5  141.78    7.18
   1   4   5  142.29    7.01
  -1   4  -5  152.51    8.36
  -1   4  -6   77.31    5.43
  -1   4  -6   72.42    5.26
   1   4   6   86.59    5.29
  -1   4  -6   83.17    5.52
   1   4   6   85.72    5.75
  -1   4  -6   77.10    6.28
  -1   4  -7  144.52    7.51
  -1   4  -7  146.12    7.36
   1   4   7  151.96    7.84
   1   4   7  152.79    7.30
  -1   4  -7  148.20    8.72
  -1   4  -8  270.76   10.69
  -1   4  -8  272.16   10.05
   1   4   8  272.49   10.92
   1   4   8  272.87   10.30
  -1   4  -8  267.26   12.11
  -1   4  -9   98.99    6.79
   1   4   9  104.73    7.19
  -1   4  -9  111.54    8.08
   1   4   9  107.79    6.97
   1   4  10   21.70    3.67
  -1   4 -10   27.82    3.91
   1   4  10   29.30    4.28
  -1   4 -10   30.95    4.71
  -1   4 -11  276.50   12.14
   1   4  11  279.26   12.14
  -1   4 -11  282.33   13.41
  -1   4 -12  254.68   12.11
   1   4  12  244.13   11.95
  -1   4 -12  275.14   13.53
   1   4  13   27.09    4.55
  -1   4 -13   23.34    4.12
  -1   4 -13   21.49    4.34
   1   4  14   24.15    4.47
  -1   4 -14   26.23    4.58
  -1   4 -14   30.02    5.01
  -1   4 -15   88.42    8.07
   1   4  15  108.22    9.12
  -1   4 -15  100.85    9.03
  -1   4 -16  144.23   10.73
  -1   4 -16  154.10   11.48
   1   4  16  140.06   10.73
  -1   4 -17   52.46    6.75
   1   4  17   61.63    7.60
  -1   4 -17   52.28    7.07
   1   4  18    4.64    3.15
  -1   4 -18    7.70    3.18
  -1   4 -18   14.87    4.12
  -1   4 -19   29.97    5.63
  -1   5  17    5.47    4.07
   1   5 -17    7.18    3.47
  -1   5  16   72.76    8.34
   1   5 -16   82.90    8.97
  -1   5  15  150.53   11.12
  -1   5  15  135.40    9.87
   1   5 -15  157.11   11.91
  -1   5  14   34.88    5.77
  -1   5  14   38.55    5.27
   1   5 -14   39.95    6.14
  -1   5  13   23.83    5.01
  -1   5  13   22.49    4.06
   1   5 -13   21.17    4.45
  -1   5  12   43.86    5.87
  -1   5  12   38.66    4.77
   1   5 -12   44.84    6.05
  -1   5  11  492.83   17.00
  -1   5  11  479.64   15.39
  -1   5  11  532.28   16.05
   1   5 -11  530.61   19.53
  -1   5  10  145.13    9.16
  -1   5  10  136.29    7.91
  -1   5  10  148.14    8.07
   1   5 -10  134.22    9.79
   1   5  -9   28.63    3.39
  -1   5   9   33.33    4.58
  -1   5   9   25.68    3.43
   1   5  -9   25.21    4.54
   1   5  -8   82.94    5.46
   1   5  -8   73.21    6.35
  -1   5   8   75.08    6.29
  -1   5   8   77.66    5.43
   1   5  -8   82.69    7.30
   1   5  -7  403.61   11.55
   1   5  -7  368.89   13.90
  -1   5   7  363.62   12.63
  -1   5   7  380.90   11.31
   1   5  -7  375.07   14.84
   1   5  -6  269.75    9.31
  -1   5   6  273.88   10.62
   1   5  -6  283.87   12.13
  -1   5   6  283.91    9.28
   1   5  -6  276.76   12.38
  -1   5   5   39.12    4.12
   1   5  -5   46.11    5.11
  -1   5   5   40.04    3.45
   1   5  -5   42.65    5.06
   1   5  -4  245.60    8.24
   1   5  -4  223.76   10.56
  -1   5   4  232.27    9.26
  -1   5   4  229.65    7.79
   1   5  -4  229.92   10.51
   1   5  -3  394.94   13.98
   1   5  -3  389.57    9.96
  -1   5   3  391.70   11.66
  -1   5   3  403.88   10.02
   1   5  -3  383.61   13.18
   1   5  -2  135.41    8.37
  -1   5   2  142.39    7.09
   1   5  -2  142.18    5.96
   1   5  -2  139.17    7.16
  -1   5   2  146.90    6.01
   1   5  -2  144.13    7.84
  -1   5   1   85.05    6.82
  -1   5   1   82.13    5.36
   1   5  -1   86.54    6.68
   1   5  -1   87.08    4.61
  -1   5   1   90.44    4.74
   1   5  -1   91.05    5.78
   1   5  -1   84.96    5.91
   1   5   0   68.10    4.12
   1   5   0   61.67    5.83
  -1   5   0   68.89    4.91
  -1   5   0   66.59    5.92
  -1   5   0   70.60    4.23
   1   5   0   71.28    5.17
   1   5   0   63.25    4.97
   1   5   1  719.24   19.01
   1   5   1  719.58   13.15
  -1   5  -1  678.15   18.05
  -1   5  -1  708.43   15.22
   1   5   1  716.38   15.79
   1   5   1  692.62   15.14
   1   5   2  458.58   15.28
   1   5   2  473.65   10.98
  -1   5  -2  446.66   12.33
  -1   5  -2  444.32   14.44
   1   5   2  474.71   12.91
  -1   5  -3   26.72    3.92
   1   5   3   23.20    4.00
  -1   5  -3   28.19    3.49
   1   5   3   30.69    3.13
   1   5   3   27.93    3.33
  -1   5  -4  206.19    9.11
  -1   5  -4  205.20    8.78
  -1   5  -4  198.18    9.61
   1   5   4  207.62   10.54
   1   5   4  206.39    7.89
   1   5   4  216.73    9.06
  -1   5  -4  207.14   10.48
  -1   5  -5  351.73   11.95
   1   5   5  380.38   11.06
  -1   5  -5  345.26   12.59
  -1   5  -5  354.09   11.73
   1   5   5  370.16   14.15
   1   5   5  355.60   11.96
  -1   5  -5  340.59   13.63
  -1   5  -6  243.84   10.26
  -1   5  -6  238.49   10.53
   1   5   6  236.72   11.64
   1   5   6  243.54    9.33
  -1   5  -6  242.02   10.09
   1   5   6  242.41   10.26
  -1   5  -6  228.34   11.58
  -1   5  -7   62.02    5.43
   1   5   7   56.08    4.95
  -1   5  -7   56.41    5.26
   1   5   7   62.96    5.54
  -1   5  -7   52.45    6.10
  -1   5  -8   51.82    5.09
   1   5   8   66.88    5.71
  -1   5  -8   63.81    5.72
   1   5   8   64.16    5.71
  -1   5  -8   62.26    6.52
  -1   5  -9  297.45   12.28
   1   5   9  288.80   11.80
  -1   5  -9  291.20   11.88
   1   5   9  275.84   12.12
  -1   5  -9  317.40   14.59
  -1   5 -10  175.33    9.76
   1   5  10  170.10    9.55
   1   5  10  164.92    9.80
  -1   5 -10  160.83   10.63
  -1   5 -11   40.00    5.06
   1   5  11   46.53    5.52
   1   5  11   40.92    5.33
  -1   5 -11   43.63    6.07
  -1   5 -12    6.56    2.08
   1   5  12    6.44    2.88
   1   5  12    6.25    2.68
  -1   5 -12    7.39    3.41
  -1   5 -13  100.96    8.42
   1   5  13   99.90    8.67
  -1   5 -13  111.48    9.71
   1   5  13  105.02    8.33
  -1   5 -14  177.74   11.27
   1   5  14  188.33   12.10
   1   5  14  199.81   12.11
  -1   5 -14  181.10   12.53
  -1   5 -15   16.77    4.18
   1   5  15   12.80    3.62
   1   5  15   11.01    3.54
  -1   5 -15   15.56    4.50
   1   5  16   13.61    3.65
   1   5  16   13.44    3.82
  -1   5 -16   15.76    3.97
   1   5  17   21.28    4.63
   1   5  17   25.86    5.21
  -1   5 -17   24.40    5.57
  -1   6  16   37.02    6.51
  -1   6  15   12.06    4.69
   1   6 -15    9.04    3.65
  -1   6  14   56.37    7.45
   1   6 -14   54.48    7.57
  -1   6  13   41.55    6.29
   1   6 -13   43.55    6.81
  -1   6  12   53.40    6.58
   1   6 -12   44.00    6.55
  -1   6  11    3.54    3.09
   1   6 -11    3.61    2.64
  -1   6  10   70.85    6.93
   1   6 -10   69.35    7.75
  -1   6   9  108.59    8.15
   1   6  -9  105.19    9.14
  -1   6   8   67.90    6.34
   1   6  -8   65.77    6.76
   1   6  -8   70.03    7.42
  -1   6   7   13.75    3.20
   1   6  -7    8.78    2.82
   1   6  -7   11.92    3.44
  -1   6   6   51.62    5.35
   1   6  -6   47.41    5.80
   1   6  -6   52.42    6.06
  -1   6   5  286.02   11.40
   1   6  -5  279.39   13.26
   1   6  -5  275.46   13.02
   1   6  -4  182.66   10.69
  -1   6   4  181.71   11.22
  -1   6   4  192.01    9.26
   1   6  -4  182.78   10.36
  -1   6   3   37.01    5.30
   1   6  -3   27.73    4.48
  -1   6   3   23.87    3.65
   1   6  -3   27.44    4.24
  -1   6   2   64.28    6.63
  -1   6   2   68.89    5.60
   1   6  -2   74.52    6.99
   1   6  -2   60.85    5.23
   1   6  -2   70.31    6.21
   1   6  -1  192.94   11.03
  -1   6   1  187.76   10.94
  -1   6   1  197.59    9.03
   1   6  -1  206.00    9.47
   1   6  -1  210.67   10.18
   1   6   0  225.81    9.91
   1   6   0  249.01   12.60
  -1   6   0  238.86    9.86
  -1   6   0  251.80   12.49
   1   6   1   25.44    3.62
  -1   6  -1   22.88    4.15
  -1   6  -1   20.14    3.47
   1   6   1   23.52    4.33
   1   6   2   61.94    5.29
  -1   6  -2   54.72    5.12
  -1   6  -2   59.82    6.25
   1   6   2   56.32    6.36
   1   6   2   55.55    4.33
   1   6   3  188.47    9.09
   1   6   3  195.33   11.27
  -1   6  -3  192.94    9.08
  -1   6  -3  176.15   10.29
   1   6   3  187.06    7.91
   1   6   4  211.28    9.79
   1   6   4  220.38    8.84
  -1   6  -4  200.56   10.83
   1   6   4  196.67   11.57
  -1   6  -4  208.11    9.61
   1   6   5   18.11    3.13
  -1   6  -5   26.49    3.91
   1   6   5   23.38    3.46
  -1   6  -5   21.79    3.99
   1   6   5   22.65    4.39
  -1   6  -6   37.97    4.66
  -1   6  -6   43.31    4.87
   1   6   6   38.72    5.56
   1   6   6   43.09    4.40
  -1   6  -6   38.82    5.05
   1   6   6   41.64    4.68
  -1   6  -7  120.15    8.10
   1   6   7  129.01    7.67
  -1   6  -7  124.94    8.67
   1   6   7  128.65    9.75
   1   6   7  140.73    8.65
  -1   6  -7  134.66    9.91
  -1   6  -8  190.08   10.33
  -1   6  -8  216.22   11.36
   1   6   8  203.32   12.29
   1   6   8  203.57   10.02
   1   6   8  201.84   10.61
  -1   6  -8  204.94   12.51
  -1   6  -9   23.87    3.96
   1   6   9   24.64    4.07
   1   6   9   24.31    4.76
  -1   6  -9   20.61    3.93
   1   6   9   21.80    3.79
  -1   6  -9   16.85    4.34
  -1   6 -10   23.52    4.07
   1   6  10   21.27    4.24
   1   6  10   30.36    5.30
   1   6  10   20.07    3.91
  -1   6 -10   26.47    5.33
  -1   6 -11   96.63    8.02
   1   6  11   87.52    8.54
   1   6  11   92.53    7.91
   1   6  11   87.42    7.77
  -1   6 -11   96.50    9.35
   1   6  12   86.57    7.89
   1   6  12   92.28    8.90
   1   6  12   89.01    8.09
  -1   6 -12   83.34    9.01
   1   6  13   29.89    5.22
   1   6  13   26.70    5.02
  -1   6 -13   34.76    5.93
  -1   6 -14   33.00    6.03
  -1   7  14   30.34    5.68
  -1   7  13    3.59    3.40
  -1   7  12   53.87    6.85
   1   7 -12   62.24    8.24
  -1   7  11   34.23    5.62
   1   7 -11   26.79    5.51
  -1   7  10   52.83    6.33
   1   7 -10   56.77    7.54
  -1   7   9    9.78    3.31
   1   7  -9   12.87    3.82
   1   7  -8   89.34    8.49
  -1   7   8   88.16    9.17
  -1   7   8   80.82    7.39
   1   7  -8   95.32    9.12
  -1   7   7  166.96   10.08
   1   7  -7  158.46   11.13
  -1   7   7  183.50   12.93
   1   7  -7  174.25   11.86
  -1   7   6   50.36    5.69
   1   7  -6   49.29    6.38
  -1   7   6   49.76    6.88
   1   7  -6   48.05    6.39
  -1   7   5   12.29    3.15
   1   7  -5   10.50    3.49
  -1   7   5   10.69    3.89
   1   7  -5    9.32    2.94
  -1   7   4   10.30    3.18
  -1   7   4   11.88    4.01
   1   7  -4    7.91    3.33
   1   7  -4   16.24    3.89
  -1   7   3  146.16    8.59
  -1   7   3  134.45   10.56
   1   7  -3  130.73   10.10
   1   7  -3  129.25    9.38
   1   7  -2  175.10   11.57
  -1   7   2  154.62   11.11
  -1   7   2  177.43    9.40
  -1   7   1   -1.04    2.22
   1   7  -1    1.98    2.59
  -1   7   1   -1.34    2.50
   1   7  -1    0.02    1.52
  -1   7   0   58.11    6.93
  -1   7   0   61.17    5.68
   1   7   0   66.01    7.23
   1   7   0   62.47    5.78
   1   7   1   79.44    8.13
  -1   7  -1   74.73    6.20
  -1   7  -1   65.51    7.18
   1   7   1   79.13    6.36
  -1   7  -2   64.38    5.85
  -1   7  -2   65.52    7.02
   1   7   2   62.98    7.25
   1   7   2   65.76    5.87
  -1   7  -3   62.84    5.88
  -1   7  -3   55.51    6.48
   1   7   3   61.59    7.28
  -1   7  -4   27.82    4.26
  -1   7  -4   20.16    4.21
   1   7   4   21.19    4.55
  -1   7  -5  233.39   11.25
  -1   7  -5  240.35   13.11
   1   7   5  245.99   14.30
  -1   7  -6   93.80    8.31
   1   7   6  103.79    9.51
  -1   7  -7   -0.86    2.10
   1   7   7    5.47    2.79
  -1   7  -8    3.47    2.65
   1   7   8    4.50    3.09
  -1   7  -9   36.59    5.26
   1   7   9   48.83    6.93
   1   7  10   77.91    8.58
   1   7  11   11.11    3.95
   1   7  12   13.71    4.03
   1   7  13   31.65    5.92
  -1   8   9   42.62    7.05
   1   8  -9   47.37    7.36
   1   8  -8   32.56    5.58
  -1   8   8   56.13    8.22
   1   8  -8   46.69    6.94
  -1   8   7    2.86    2.82
   1   8  -7    3.35    2.53
   1   8  -7   -1.26    2.98
   1   8  -6   44.93    6.55
  -1   8   6   34.32    6.16
   1   8  -5   26.73    5.35
  -1   8   5   13.67    4.54
   1   8  -4   60.60    7.47
  -1   8   4   63.66    8.10
   1   8  -3   11.34    3.83
  -1   8   3    5.35    3.27
  -1   8   2   48.21    6.97
   1   8  -2   53.23    7.11
   1   8  -1   48.25    6.63
  -1   8   1   48.63    6.84
   1   8   0   36.96    6.33
  -1   8   0   28.94    5.47
  -1   8  -1   11.83    3.65
   1   8   1   10.05    3.76
   1   8   2    3.23    3.07
  -1   8  -2   12.86    4.15
   1   8   3   50.37    7.08
  -1   8  -3   42.80    6.48
  -1   8  -4   82.96    8.67
   1   8   4   77.20    8.69
  -1   8  -5   -1.92    2.61
   1   8   5    1.93    2.97
  -1   8  -6   15.98    4.10
   1   8   6   30.38    6.07
   1   8   7   47.57    7.64
  -1   8  -7   42.36    6.14
  -1   8  -8   60.62    7.42
   1   8   8   42.90    7.04
   1   8   9   19.73    5.08
   2  -9  -2    5.43    2.97
   2  -9  -1   -0.47    2.19
  -2  -9   0   32.54    5.74
  -2  -8   9   39.48    6.30
   2  -8  -9   49.95    7.00
  -2  -8   8    4.60    2.38
  -2  -8   8    6.69    2.81
   2  -8  -8    3.68    2.51
  -2  -8   8    9.71    3.71
  -2  -8   7   17.37    4.40
  -2  -8   7    9.08    2.91
   2  -8  -7   16.23    4.22
  -2  -8   7   12.39    3.84
  -2  -8   6   42.30    6.00
  -2  -8   6   34.97    5.56
   2  -8  -6   44.10    6.23
  -2  -8   6   48.08    6.69
  -2  -8   5   45.64    6.28
  -2  -8   5   36.02    5.61
   2  -8  -5   38.25    5.68
  -2  -8   4   19.52    4.09
   2  -8  -4   24.94    4.84
  -2  -8   3   -0.05    1.89
   2  -8  -3    4.80    2.51
   2  -8  -2  107.12    9.03
  -2  -8   2  110.68    9.08
   2  -8  -1   95.09    8.32
  -2  -8   1   99.02    8.69
   2  -8   0   25.80    4.55
  -2  -8   0   23.20    4.69
   2  -8   1   15.30    3.70
  -2  -8  -1   10.41    3.18
   2  -8   2   64.40    7.48
   2  -8   2   50.66    6.22
   2  -8   2   57.06    6.55
  -2  -8  -2   67.58    7.48
   2  -8   3   76.10    8.18
   2  -8   3   69.01    7.22
   2  -8   3   70.58    7.05
  -2  -8  -3   74.70    8.05
   2  -8   4   24.13    5.43
   2  -8   4   18.13    4.11
   2  -8   4   18.92    3.86
  -2  -8  -4   17.56    4.37
   2  -8   5    6.82    3.62
   2  -8   5    6.21    3.01
  -2  -8  -5   -1.02    2.45
   2  -8   5    3.62    2.04
   2  -8   6   16.38    4.36
  -2  -8  -6   15.43    4.16
   2  -8   6   21.04    4.36
   2  -8   7   51.36    7.29
   2  -8   7   51.21    7.03
   2  -8   7   36.47    5.45
  -2  -8  -7   39.15    6.25
   2  -8   8   24.73    5.14
  -2  -8  -8   27.19    5.02
   2  -8   8   19.01    4.42
  -2  -8  -9   -0.35    2.13
   2  -8   9    5.06    3.07
  -2  -7  12   31.07    5.81
   2  -7 -12   31.98    5.89
  -2  -7  12   26.60    5.59
  -2  -7  11   43.67    6.24
   2  -7 -11   53.20    6.94
  -2  -7  11   52.33    6.97
  -2  -7  10   28.98    5.27
   2  -7 -10   34.39    5.75
  -2  -7  10   29.73    5.32
  -2  -7   9   40.13    5.72
   2  -7  -9   41.02    5.84
  -2  -7   9   47.18    6.46
  -2  -7   8   90.14    8.34
   2  -7  -8   99.26    8.76
  -2  -7   8   98.46    8.99
   2  -7  -7   62.68    7.01
  -2  -7   7   69.46    7.45
  -2  -7   6   12.48    3.60
   2  -7  -6   13.31    3.37
  -2  -7   6    4.71    2.77
  -2  -7   5    7.47    2.59
   2  -7  -5   13.93    3.64
  -2  -7   4   46.94    5.74
   2  -7  -4   53.25    6.10
  -2  -7   4   55.63    5.73
  -2  -7   3  252.09   12.41
   2  -7  -3  247.93   12.54
  -2  -7   3  244.39   12.03
  -2  -7   2   16.97    3.47
   2  -7  -2   17.50    3.59
  -2  -7   2   23.95    4.10
  -2  -7   1   52.79    5.53
   2  -7  -1   44.47    5.35
  -2  -7   1   55.72    6.02
   2  -7   0   70.59    6.99
  -2  -7   0   69.43    6.16
   2  -7   0   71.66    6.23
   2  -7   0   74.14    6.74
  -2  -7   0   66.84    6.68
   2  -7   1  123.58    8.40
   2  -7   1  121.55    9.22
   2  -7   1  121.22    8.49
  -2  -7  -1  116.25    8.86
   2  -7   2   46.66    5.44
   2  -7   2   43.33    5.81
   2  -7   2   42.22    5.08
  -2  -7  -2   41.94    5.49
   2  -7   3    4.64    2.38
   2  -7   3    8.87    3.16
  -2  -7  -3    9.87    2.78
   2  -7   3    5.52    2.54
   2  -7   4  144.28   10.55
   2  -7   4  146.48    9.77
   2  -7   4  146.06    9.32
  -2  -7  -4  147.14    9.37
   2  -7   5  131.11    9.59
   2  -7   5  134.40   10.30
   2  -7   5  131.20    8.84
  -2  -7  -5  129.75    9.00
   2  -7   5  129.71    9.04
   2  -7   6    4.40    3.13
   2  -7   6    4.71    2.84
   2  -7   6    2.85    1.67
  -2  -7  -6    4.45    2.46
   2  -7   6    2.41    2.50
   2  -7   7    6.69    3.08
   2  -7   7    9.71    3.82
  -2  -7  -7    4.61    2.85
   2  -7   7    0.75    1.94
   2  -7   8   23.94    5.10
   2  -7   8   23.89    4.87
  -2  -7  -8   27.77    4.86
   2  -7   8   27.23    4.71
   2  -7   9  179.14   12.69
   2  -7   9  172.39   11.88
  -2  -7  -9  166.32   11.47
   2  -7   9  164.41   10.88
   2  -7  10   36.00    5.98
   2  -7  10   36.54    6.13
  -2  -7 -10   31.31    5.49
   2  -7  10   45.65    6.07
   2  -7  11   11.38    3.92
   2  -7  11   16.49    4.80
  -2  -7 -11   17.17    4.35
  -2  -7 -11   11.78    3.73
   2  -7  11    8.78    3.27
  -2  -7 -12   28.17    5.43
  -2  -6  15   20.84    4.65
   2  -6 -15   15.67    4.14
  -2  -6  14  119.29   10.07
   2  -6 -14  124.39   10.62
  -2  -6  13  115.51    9.63
   2  -6 -13  110.38    9.83
  -2  -6  13  121.97   10.22
  -2  -6  12    8.30    3.23
   2  -6 -12    6.86    2.79
  -2  -6  12   12.28    4.07
  -2  -6  11   89.61    8.30
   2  -6 -11  105.93    9.12
  -2  -6  11   99.50    8.87
  -2  -6  10  165.02   10.71
   2  -6 -10  182.66   11.40
  -2  -6  10  185.90   11.58
   2  -6  -9   69.98    7.18
  -2  -6   9   79.10    7.50
   2  -6  -8   37.42    5.34
  -2  -6   8   36.99    5.23
   2  -6  -7    4.58    2.45
  -2  -6   7    8.92    3.04
   2  -6  -6  269.78   12.59
  -2  -6   6  290.78   13.25
   2  -6  -5  166.10    9.77
  -2  -6   5  187.27    9.16
   2  -6  -4   11.82    2.98
  -2  -6   4    9.00    2.45
  -2  -6   3   14.40    3.17
   2  -6  -3   11.45    2.83
  -2  -6   3   13.68    3.03
   2  -6  -2  209.60    8.91
  -2  -6   2  210.25    9.96
   2  -6  -2  207.26   10.24
  -2  -6   2  217.34   10.37
   2  -6  -1  494.56   14.11
  -2  -6   1  509.56   14.98
  -2  -6   1  474.13   12.96
   2  -6  -1  479.05   15.38
  -2  -6   1  496.43   15.93
   2  -6   0   67.10    5.51
   2  -6   0   67.23    6.29
  -2  -6   0   71.32    5.59
   2  -6   0   71.98    6.02
  -2  -6   0   69.86    5.24
  -2  -6   0   76.39    6.50
   2  -6   1   79.16    7.07
  -2  -6  -1   80.21    5.77
   2  -6   1   83.81    6.39
   2  -6   1   74.92    6.07
  -2  -6  -1   79.99    5.72
   2  -6   2  207.13   10.10
  -2  -6  -2  207.24    8.91
   2  -6   2  198.76   10.78
  -2  -6  -2  213.17    9.54
   2  -6   2  206.07   10.04
   2  -6   3  123.09    8.07
   2  -6   3  112.77    8.44
   2  -6   3  113.37    7.45
  -2  -6  -3  128.12    7.71
   2  -6   4   61.61    6.05
   2  -6   4   53.34    6.12
  -2  -6  -4   64.17    5.75
   2  -6   5   36.02    5.05
   2  -6   5   29.61    4.57
  -2  -6  -5   31.32    4.39
   2  -6   5   39.67    4.86
   2  -6   6  170.36   10.17
   2  -6   6  175.48   10.92
  -2  -6  -6  185.68   10.29
   2  -6   6  188.30   10.07
   2  -6   7  133.00    9.38
   2  -6   7  113.47    9.06
  -2  -6  -7  149.90    9.58
   2  -6   7  148.86    9.20
   2  -6   8   48.13    5.92
   2  -6   8   37.29    5.51
  -2  -6  -8   38.85    5.30
   2  -6   8   42.54    5.24
   2  -6   9   -3.13    3.15
   2  -6   9    7.52    3.29
  -2  -6  -9    4.55    2.55
   2  -6   9    1.86    2.42
   2  -6  10   67.89    7.59
   2  -6  10   60.49    7.15
  -2  -6 -10   66.16    7.18
   2  -6  10   65.31    6.76
   2  -6  11  142.32   10.80
   2  -6  11  132.43   10.32
  -2  -6 -11  146.28   10.85
   2  -6  11  139.76    9.91
   2  -6  12   40.97    6.09
  -2  -6 -12   66.47    7.62
   2  -6  13    1.04    2.19
  -2  -6 -13    2.57    2.10
  -2  -6 -13    3.99    2.82
   2  -6  14   60.37    7.66
  -2  -6 -14   74.06    8.52
  -2  -6 -14   58.56    7.20
  -2  -6 -15   37.01    5.79
  -2  -5  18    1.26    2.32
  -2  -5  17   46.34    6.45
   2  -5 -17   56.19    7.44
  -2  -5  16   45.61    6.36
   2  -5 -16   32.57    5.73
  -2  -5  15   82.56    8.10
   2  -5 -15   64.95    7.56
  -2  -5  14   14.03    3.70
   2  -5 -14   10.94    3.70
  -2  -5  13   77.00    7.50
   2  -5 -13   63.30    7.23
  -2  -5  12  141.67    9.67
   2  -5 -12  141.57    9.96
  -2  -5  12  152.91   10.52
  -2  -5  11  142.54    9.40
   2  -5 -11  156.93   10.21
  -2  -5  11  155.88   10.29
   2  -5 -10    2.12    2.26
  -2  -5  10    6.90    3.13
   2  -5  -9   28.73    4.30
  -2  -5   9   24.16    4.09
   2  -5  -8  152.73    9.26
  -2  -5   8  145.50    9.15
   2  -5  -7  451.82   15.21
  -2  -5   7  489.84   15.99
   2  -5  -6   49.84    5.19
  -2  -5   6   56.43    4.41
  -2  -5   6   51.83    5.35
  -2  -5   5  181.95    6.62
   2  -5  -5  173.05    9.05
  -2  -5   5  171.79    7.79
  -2  -5   4  398.74    9.38
   2  -5  -4  387.60   10.23
   2  -5  -4  399.36    9.85
  -2  -5   4  404.19    9.71
   2  -5  -4  416.10   13.54
  -2  -5   4  397.48   12.09
   2  -5  -3  162.80    6.48
   2  -5  -3  179.87    7.00
  -2  -5   3  162.59    6.32
   2  -5  -3  159.62    8.30
  -2  -5   3  164.77    8.00
   2  -5  -2   79.34    4.44
   2  -5  -2   85.29    5.11
  -2  -5   2   82.89    4.69
   2  -5  -2   73.93    5.65
  -2  -5   2   76.41    5.61
   2  -5  -1   20.89    2.34
   2  -5  -1   18.46    3.39
  -2  -5   1   26.43    3.25
   2  -5  -1   12.61    2.30
   2  -5  -1   21.04    3.21
  -2  -5   1   18.53    2.43
  -2  -5   1   22.44    3.28
   2  -5   0  323.71    8.80
   2  -5   0  327.53   11.42
  -2  -5   0  332.13    9.84
   2  -5   0  325.94   10.71
  -2  -5   0  325.64   10.36
   2  -5   0  318.51   12.07
   2  -5   1  321.03    8.85
  -2  -5  -1  327.93   10.23
   2  -5   1  328.35   11.37
   2  -5   1  327.07   11.08
   2  -5   1  317.45   12.22
  -2  -5  -1  324.48   10.03
   2  -5   2   64.65    4.13
  -2  -5  -2   60.58    4.69
   2  -5   2   64.95    5.29
   2  -5   2   61.53    5.79
  -2  -5  -2   67.99    4.55
  -2  -5  -3   17.65    2.77
   2  -5   3   12.10    2.78
  -2  -5  -3   13.26    2.12
   2  -5   3    9.77    2.77
   2  -5   3    8.07    1.66
   2  -5   4   69.52    4.62
   2  -5   4   79.67    6.29
   2  -5   4   62.51    5.91
  -2  -5  -4   73.15    5.57
   2  -5   5  407.16   11.44
   2  -5   5  407.88   14.01
   2  -5   5  398.85   14.54
  -2  -5  -5  419.86   13.56
   2  -5   5  412.71   13.09
   2  -5   6  137.55    7.00
   2  -5   6  149.61    8.92
   2  -5   6  130.04    8.64
  -2  -5  -6  126.65    7.82
   2  -5   6  138.98    7.83
   2  -5   7   77.97    5.65
   2  -5   7   77.50    6.73
   2  -5   7   71.39    6.67
  -2  -5  -7   78.58    6.53
   2  -5   7   70.25    5.86
   2  -5   8  196.32    9.15
   2  -5   8  174.99   10.37
   2  -5   8  184.89   10.45
  -2  -5  -8  195.56   10.49
   2  -5   8  200.80    9.91
   2  -5   9  112.17    7.41
   2  -5   9  115.13    8.63
   2  -5   9  111.82    8.47
  -2  -5  -9  116.51    8.51
   2  -5   9  120.02    8.06
   2  -5  10   33.17    4.49
   2  -5  10   23.55    4.49
   2  -5  10   25.90    4.41
  -2  -5 -10   31.26    4.88
   2  -5  10   28.92    4.28
   2  -5  11    5.06    2.07
   2  -5  11    3.21    2.38
  -2  -5 -11    1.27    2.21
   2  -5  12   46.38    5.55
  -2  -5 -12   48.06    6.18
   2  -5  13  169.27   10.69
  -2  -5 -13  197.12   12.64
  -2  -5 -13  170.73   10.86
   2  -5  14   62.31    6.94
  -2  -5 -14   43.62    6.50
  -2  -5 -14   67.23    7.19
   2  -5  15    8.73    3.12
  -2  -5 -15    8.79    3.52
  -2  -5 -15   10.57    3.26
   2  -5  16   17.80    4.50
  -2  -5 -16   16.07    4.45
  -2  -5 -16   17.60    3.92
   2  -5  17   76.29    8.39
  -2  -4  19   32.32    5.53
  -2  -4  19   40.44    6.22
  -2  -4  18   92.02    8.53
  -2  -4  18   93.47    8.76
  -2  -4  17   70.97    7.37
   2  -4 -17   76.74    8.43
  -2  -4  17   73.76    7.50
  -2  -4  16    8.93    3.33
  -2  -4  16   17.23    4.01
   2  -4 -16   16.04    4.20
  -2  -4  15   73.16    7.00
   2  -4 -15   87.36    8.26
  -2  -4  15   77.27    7.12
  -2  -4  14  325.58   14.17
   2  -4 -14  329.15   15.15
  -2  -4  14  382.85   14.68
  -2  -4  13   80.39    6.98
   2  -4 -13   75.66    7.19
  -2  -4  13   90.57    6.89
  -2  -4  12   44.36    4.81
  -2  -4  12   43.95    5.18
   2  -4 -12   47.69    5.83
  -2  -4  11   15.75    2.90
  -2  -4  11   18.57    3.43
   2  -4 -11   23.88    4.12
  -2  -4  11   23.74    4.18
   2  -4 -10  404.99   14.49
  -2  -4  10  430.20   15.07
  -2  -4  10  411.11   12.53
   2  -4  -9  435.39   14.58
  -2  -4   9  446.46   12.46
  -2  -4   9  431.38   14.61
   2  -4  -8   82.06    6.28
  -2  -4   8   81.34    5.13
  -2  -4   8   89.04    6.59
  -2  -4   7  162.75    6.80
   2  -4  -7  167.57    8.56
  -2  -4   7  167.83    6.44
  -2  -4   7  175.43    8.87
  -2  -4   6  254.17    8.01
   2  -4  -6  254.02   10.31
  -2  -4   6  268.19    8.35
  -2  -4   6  244.87   10.09
  -2  -4   5  355.39    9.01
   2  -4  -5  345.79    7.16
   2  -4  -5  365.16   11.79
  -2  -4   5  342.90    7.50
  -2  -4   5  346.48    9.73
  -2  -4   4  255.25    5.11
  -2  -4   4  256.71    7.37
   2  -4  -4  266.16    8.08
   2  -4  -4  271.35    6.90
   2  -4  -4  257.61    9.64
  -2  -4   4  260.87    6.57
  -2  -4   4  267.56    8.84
  -2  -4   3  140.81    2.42
   2  -4  -3  151.50    5.93
   2  -4  -3  150.23    5.55
   2  -4  -3  144.07    7.16
  -2  -4   3  151.69    5.17
  -2  -4   3  156.53    6.88
   2  -4  -2  595.58   11.34
   2  -4  -2  587.01   11.54
  -2  -4   2  595.21   10.47
   2  -4  -2  616.51   14.22
  -2  -4   2  599.92   13.64
   2  -4  -1  380.62    8.92
   2  -4  -1  381.03    9.82
   2  -4  -1  379.47   11.70
   2  -4  -1  402.76   11.36
  -2  -4   1  375.20    8.69
  -2  -4   1  391.60   11.39
   2  -4   0   63.76    3.71
  -2  -4   0   61.66    3.79
   2  -4   0   63.34    4.66
   2  -4   0   57.43    4.13
   2  -4   0   60.12    4.91
  -2  -4   0   56.29    3.86
   2  -4   1   40.31    3.06
  -2  -4  -1   37.63    3.15
   2  -4   1   36.26    3.51
  -2  -4  -1   38.50    3.08
   2  -4   1   42.11    4.18
   2  -4   2  675.39   12.41
  -2  -4  -2  695.61   13.68
   2  -4   2  702.21   15.09
   2  -4   2  688.55   16.17
  -2  -4  -2  688.22   12.09
   2  -4   3  918.99   15.03
  -2  -4  -3  910.03   16.53
   2  -4   3  902.77   17.67
  -2  -4  -3  895.11   13.26
   2  -4   3  907.65   18.81
   2  -4   4  114.55    5.61
   2  -4   4  119.58    6.93
   2  -4   4  113.11    7.06
  -2  -4  -4  113.35    6.26
   2  -4   5   98.76    5.47
   2  -4   5   99.43    6.54
   2  -4   5  113.97    7.27
  -2  -4  -5  100.99    6.22
   2  -4   5  104.80    5.97
   2  -4   6  359.64   10.94
   2  -4   6  371.72   12.76
   2  -4   6  369.63   12.92
  -2  -4  -6  365.60   12.26
   2  -4   6  375.33   11.45
   2  -4   7  427.81   12.55
   2  -4   7  428.48   14.16
  -2  -4  -7  439.55   13.98
   2  -4   7  427.44   12.70
   2  -4   8  310.31   11.25
   2  -4   8  276.97   11.82
  -2  -4  -8  282.89   11.73
   2  -4   8  305.32   11.20
   2  -4   9    5.37    1.89
   2  -4   9    6.78    3.00
  -2  -4  -9    5.09    2.14
   2  -4   9    4.82    2.08
   2  -4  10  223.24   10.64
  -2  -4 -10  216.71   11.27
   2  -4  10  209.66   10.96
   2  -4  11  184.58   10.12
  -2  -4 -11  189.13   11.06
   2  -4  12   70.92    6.75
  -2  -4 -12   56.61    6.50
   2  -4  13   10.44    3.17
  -2  -4 -13    7.25    3.27
  -2  -4 -13    6.84    2.41
   2  -4  14   53.55    6.34
  -2  -4 -14   60.19    7.33
  -2  -4 -14   62.35    6.34
   2  -4  15  218.23   12.76
  -2  -4 -15  213.83   13.57
  -2  -4 -15  208.66   11.52
   2  -4  16   77.03    8.10
  -2  -4 -16   64.48    7.97
  -2  -4 -17    6.88    3.74
   2  -4  17    6.10    2.96
   2  -4  18   41.01    6.41
  -2  -3  20   77.83    8.61
   2  -3 -20   84.65    9.26
  -2  -3  19   42.62    6.41
   2  -3 -19   28.09    5.30
  -2  -3  18   16.64    3.74
   2  -3 -18   10.13    3.43
  -2  -3  18    7.21    2.70
  -2  -3  17   57.20    6.59
  -2  -3  17   54.32    6.07
   2  -3 -17   47.17    6.36
  -2  -3  16  143.32    9.20
   2  -3 -16  134.02    9.99
  -2  -3  16  152.09   10.13
  -2  -3  15   92.68    7.22
   2  -3 -15   78.48    7.57
  -2  -3  15   82.19    7.23
  -2  -3  14   17.92    3.68
  -2  -3  14   11.61    2.89
   2  -3 -14   17.97    3.76
  -2  -3  13  128.75    8.02
   2  -3 -13  140.26    9.14
  -2  -3  13  137.68    8.44
  -2  -3  12  146.48    8.26
   2  -3 -12  145.46    9.04
  -2  -3  12  154.11    8.49
  -2  -3  11  235.80   10.08
   2  -3 -11  218.28   10.40
  -2  -3  11  234.63    9.92
   2  -3 -10  221.20   10.02
  -2  -3  10  201.26    9.73
   2  -3 -10  220.34    7.25
  -2  -3  10  239.88    9.48
   2  -3  -9  152.93    8.03
  -2  -3   9  138.32    7.79
  -2  -3   9  153.70    7.24
   2  -3  -8  645.64   15.77
  -2  -3   8  663.54   10.50
  -2  -3   8  678.77   14.21
  -2  -3   8  669.96   16.20
  -2  -3   7  399.90   10.30
   2  -3  -7  415.73   12.12
  -2  -3   7  406.57    8.66
  -2  -3   7  406.21   12.05
  -2  -3   6   53.51    3.74
  -2  -3   6   58.28    3.43
   2  -3  -6   51.72    4.38
  -2  -3   6   56.17    4.51
  -2  -3   5  267.49    7.57
  -2  -3   5  259.86    7.35
   2  -3  -5  276.22    9.22
  -2  -3   5  269.10    9.12
   2  -3  -4  494.50   10.35
   2  -3  -4  525.65   12.12
  -2  -3   4  475.12    6.97
  -2  -3   4  487.53   10.29
   2  -3  -3  918.48   13.52
   2  -3  -3  914.27   11.31
   2  -3  -3  970.72   16.03
  -2  -3   3  866.83    9.66
  -2  -3   3  885.75   14.23
   2  -3  -2  306.40    7.60
  -2  -3   2  297.63    3.15
   2  -3  -2  311.70    7.19
   2  -3  -2  304.14    8.85
  -2  -3   2  302.80    5.98
  -2  -3   2  318.26    8.77
   2  -3  -1  240.06    6.61
   2  -3  -1  245.46    6.82
   2  -3  -1  238.48    8.15
  -2  -3   1  232.12    5.57
   2  -3  -1  244.62    7.82
  -2  -3   1  236.17    7.77
   2  -3   0  172.24    5.61
   2  -3   0  190.25    6.39
   2  -3   0  188.02    7.24
  -2  -3   0  180.27    5.34
  -2  -3   0  188.27    7.10
   2  -3   1 1411.66   16.26
  -2  -3  -1 1431.35   16.16
   2  -3   1 1445.24   18.29
   2  -3   1 1485.08   20.31
  -2  -3  -1 1424.65   14.82
   2  -3   2  768.41   12.41
  -2  -3  -2  777.60   12.83
   2  -3   2  789.52   14.30
  -2  -3  -2  758.94   10.20
   2  -3   2  800.53   15.19
   2  -3   3  177.57    6.30
   2  -3   3  182.75    7.32
  -2  -3  -3  167.72    4.55
   2  -3   3  169.63    7.31
  -2  -3  -3  183.15    6.72
   2  -3   4  298.70    8.64
   2  -3   4  299.06    9.78
   2  -3   4  304.53    9.87
  -2  -3  -4  306.53    9.23
   2  -3   4  283.24    6.22
   2  -3   4  296.37    8.26
   2  -3   5  590.43   12.85
   2  -3   5  572.41   13.86
  -2  -3  -5  596.46   13.69
   2  -3   5  569.92    9.96
   2  -3   5  586.52   12.12
   2  -3   6  145.38    6.89
   2  -3   6  147.87    7.60
  -2  -3  -6  150.66    7.35
   2  -3   6  145.01    6.47
   2  -3   6  150.71    5.68
   2  -3   7   20.96    2.49
   2  -3   7   19.54    2.95
   2  -3   7   16.47    3.22
  -2  -3  -7   20.87    3.16
   2  -3   7   20.26    2.84
   2  -3   8  291.04   10.64
   2  -3   8  274.45   10.94
  -2  -3  -8  264.75   10.86
   2  -3   8  285.71    9.23
   2  -3   9  608.88   16.16
  -2  -3  -9  617.70   17.19
   2  -3   9  638.03   14.68
   2  -3  10   62.41    5.68
  -2  -3 -10   57.89    5.71
   2  -3  10   57.50    4.91
   2  -3  11   67.96    6.11
  -2  -3 -11   74.31    6.76
   2  -3  11   71.89    5.73
   2  -3  12  132.72    8.74
  -2  -3 -12  143.66    9.61
   2  -3  12  147.37    8.41
  -2  -3 -12  138.36    8.08
   2  -3  13  208.77   11.35
  -2  -3 -13  204.22   11.82
   2  -3  13  186.17    9.91
  -2  -3 -13  189.89    9.59
   2  -3  14  112.98    8.78
  -2  -3 -14  115.93    9.40
   2  -3  14  111.60    8.16
  -2  -3 -14  108.76    7.43
   2  -3  15   -1.44    2.42
   2  -3  15    0.78    2.22
  -2  -3 -15    1.50    2.78
   2  -3  16   64.80    7.39
  -2  -3 -16   75.54    8.19
   2  -3  16   73.23    7.20
   2  -3  17  143.99   11.12
  -2  -3 -17  154.09   11.78
  -2  -3 -17  114.36   10.26
   2  -3  17  137.56   10.33
  -2  -3 -18   28.34    5.65
   2  -3  18   35.03    5.79
   2  -3  18   25.96    5.01
   2  -3  19    2.03    2.12
   2  -2 -21   31.64    5.79
  -2  -2  20   25.27    5.33
   2  -2 -20   12.01    3.87
  -2  -2  19   71.85    8.02
   2  -2 -19   47.52    6.57
   2  -2 -18  306.61   15.48
  -2  -2  18  338.21   16.15
   2  -2 -17  139.09   10.13
  -2  -2  17  154.79   10.54
  -2  -2  16   15.60    3.66
   2  -2 -16   20.06    4.19
  -2  -2  16   12.52    2.75
  -2  -2  15   57.95    6.06
  -2  -2  15   56.62    5.23
   2  -2 -15   61.85    6.37
  -2  -2  14  279.38   10.94
   2  -2 -14  299.15   12.97
  -2  -2  14  301.89   12.88
  -2  -2  13  475.34   13.79
   2  -2 -13  466.38   15.54
  -2  -2  13  467.35   15.26
  -2  -2  12   35.58    4.28
  -2  -2  12   35.15    3.77
   2  -2 -12   29.18    3.90
   2  -2 -12   30.22    3.01
  -2  -2  11  239.15    9.21
   2  -2 -11  247.00   10.38
  -2  -2  11  250.23   10.15
   2  -2 -11  239.34    7.94
   2  -2 -10  685.44   16.21
  -2  -2  10  696.56   15.86
   2  -2 -10  681.15   12.90
  -2  -2   9  494.82    8.05
   2  -2  -9  529.23   13.63
  -2  -2   9  509.25   12.82
   2  -2  -9  521.12   10.93
  -2  -2   8  148.18    4.60
   2  -2  -8  152.09    7.04
  -2  -2   8  158.10    7.49
  -2  -2   8  161.22    6.94
  -2  -2   7  249.72    8.03
   2  -2  -7  268.10    8.78
  -2  -2   7  252.97    6.05
  -2  -2   7  248.13    8.77
  -2  -2   6 2396.67   23.09
   2  -2  -6 2445.48   25.11
  -2  -2   6 2400.54   18.78
  -2  -2   6 2412.73   25.37
  -2  -2   5  938.72   13.60
  -2  -2   5  955.32   12.16
   2  -2  -5  942.15   14.90
  -2  -2   5  943.29   15.02
   2  -2  -4  253.27    6.98
  -2  -2   4  256.43    6.49
   2  -2  -4  259.78    7.49
  -2  -2   4  251.69    7.46
   2  -2  -3  183.38    5.69
  -2  -2   3  184.62    5.66
  -2  -2   3  186.93    2.86
   2  -2  -3  188.05    6.14
   2  -2  -2  784.11   11.19
  -2  -2   2  778.78   11.82
  -2  -2   2  770.54    6.44
   2  -2  -2  808.73   12.28
   2  -2  -1  965.69   12.09
  -2  -2   1  942.42    8.50
  -2  -2   1  932.90   13.15
   2  -2   0  751.03   10.67
   2  -2   0  771.85   12.41
  -2  -2   0  735.15    8.83
  -2  -2   0  756.35   12.26
   2  -2   1  525.43    9.15
   2  -2   1  528.27   10.53
   2  -2   1  541.29    9.88
  -2  -2  -1  539.98    8.63
  -2  -2  -1  544.13   10.62
   2  -2   2 1964.58   18.53
   2  -2   2 1994.56   20.48
  -2  -2  -2 1982.72   11.33
   2  -2   2 1927.93   19.87
  -2  -2  -2 1949.55   18.20
  -2  -2  -2 1979.83   20.82
   2  -2   3  271.34    7.38
   2  -2   3  276.61    7.90
   2  -2   3  261.72    7.83
  -2  -2  -3  281.52    7.63
  -2  -2  -3  281.92    8.08
   2  -2   3  275.40    5.83
   2  -2   3  272.76    6.35
   2  -2   4  230.61    7.32
   2  -2   4  233.11    7.75
  -2  -2  -4  232.37    7.51
   2  -2   4  235.27    6.12
   2  -2   4  231.09    6.28
   2  -2   5    7.24    1.52
   2  -2   5    6.09    1.64
  -2  -2  -5    5.60    1.71
   2  -2   5    9.39    1.62
   2  -2   6  784.36   15.16
  -2  -2  -6  754.01   15.44
   2  -2   6  760.13   13.17
   2  -2   7  991.67   18.06
  -2  -2  -7 1037.46   19.21
   2  -2   7 1050.42   16.68
  -2  -2  -8  311.72   11.20
   2  -2   8  289.72    9.50
  -2  -2  -9   42.73    4.53
   2  -2   9   49.32    4.28
  -2  -2 -10  127.94    8.06
   2  -2  10  118.12    6.93
  -2  -2 -10  128.71    6.60
  -2  -2 -11  312.98   13.03
  -2  -2 -11  314.13   10.53
   2  -2  11  299.37   11.45
  -2  -2 -12  353.66   14.37
  -2  -2 -12  371.86   11.71
   2  -2  12  347.69   13.05
   2  -2  13   27.59    4.10
  -2  -2 -13   31.55    5.04
  -2  -2 -13   33.34    3.83
  -2  -2 -14  170.53   10.92
  -2  -2 -14  169.21   10.87
   2  -2  14  154.59    9.71
  -2  -2 -15  178.58   11.41
   2  -2  15  178.37   10.69
  -2  -2 -16  122.23   10.03
   2  -2  16  118.79    9.25
   2  -2  17   11.26    3.62
  -2  -2 -17   11.94    3.32
   2  -2  18   51.03    6.78
  -2  -2 -18   49.55    7.08
  -2  -2 -19  179.17   13.25
   2  -2  19  181.53   12.82
   2  -1 -21   64.31    8.11
   2  -1 -20   56.05    7.21
  -2  -1  20   87.10    9.08
   2  -1 -19   34.92    5.62
  -2  -1  19   42.78    6.63
   2  -1 -19   44.50    6.27
  -2  -1  18    0.66    2.29
   2  -1 -18   -1.59    2.21
  -2  -1  17   61.25    7.02
   2  -1 -17   48.56    6.05
   2  -1 -16  242.01   12.27
  -2  -1  16  227.09   12.13
  -2  -1  15  254.14    9.76
   2  -1 -15  243.88   11.83
  -2  -1  15  233.80   11.86
  -2  -1  14   44.35    5.17
  -2  -1  14   48.93    4.20
   2  -1 -14   48.84    5.32
   2  -1 -14   50.75    4.43
  -2  -1  13  148.65    6.96
   2  -1 -13  166.39    8.89
  -2  -1  13  167.97    9.25
   2  -1 -13  159.07    7.40
  -2  -1  12  645.20   13.87
   2  -1 -12  629.28   16.37
  -2  -1  12  655.15   17.04
   2  -1 -12  663.62   14.48
  -2  -1  11  440.47   11.02
   2  -1 -11  440.18   12.94
   2  -1 -11  403.68   10.87
  -2  -1  11  412.59   12.97
  -2  -1  10   38.30    4.02
  -2  -1  10   42.13    3.39
   2  -1 -10   38.54    3.77
   2  -1 -10   40.69    3.47
   2  -1  -9  169.95    7.19
  -2  -1   9  166.41    7.39
   2  -1  -9  161.86    6.35
   2  -1  -8  456.06   10.97
   2  -1  -8  433.14    9.87
  -2  -1   8  425.04   11.06
  -2  -1   7  524.63    8.59
   2  -1  -7  542.50   11.19
  -2  -1   7  546.57   11.66
   2  -1  -7  530.11   10.48
  -2  -1   6  518.52   10.62
   2  -1  -6  522.61   10.23
  -2  -1   6  503.26    8.32
  -2  -1   5  125.49    4.91
  -2  -1   5  119.68    4.07
   2  -1  -5  117.34    4.58
  -2  -1   5  121.90    5.06
   2  -1  -4  565.25    9.83
   2  -1  -4  559.27    9.24
  -2  -1   4  557.49    8.59
  -2  -1   4  567.50    9.68
   2  -1  -3 1089.85   12.81
   2  -1  -3 1095.13   12.15
  -2  -1   3 1097.04   12.11
  -2  -1   3 1119.83   12.36
   2  -1  -2  344.93    6.82
  -2  -1   2  336.97    6.85
   2  -1  -2  344.71    6.59
   2  -1  -1  202.97    5.08
  -2  -1   1  205.42    5.49
   2  -1   0 1987.60   15.89
  -2  -1   0 2021.14   11.28
  -2  -1   0 1981.49   16.96
  -2  -1   0 1983.69   12.50
   2  -1   1 2644.53   18.69
   2  -1   1 2587.69   18.64
  -2  -1  -1 2560.61   19.88
  -2  -1  -1 2571.40   17.18
   2  -1   2  235.43    6.05
   2  -1   2  231.46    5.81
  -2  -1  -2  240.23    6.09
  -2  -1  -2  248.00    6.38
   2  -1   2  237.13    4.21
   2  -1   3  306.01    7.44
   2  -1   3  306.28    6.86
  -2  -1  -3  299.05    7.48
  -2  -1  -3  293.95    7.19
   2  -1   3  293.73    6.54
   2  -1   4  789.41   12.77
  -2  -1  -4  801.08   13.39
  -2  -1  -4  804.39   12.08
   2  -1   4  786.85   11.69
   2  -1   5  819.39   13.90
  -2  -1  -5  832.18   14.64
  -2  -1  -5  837.82   12.67
   2  -1   5  809.20   12.96
  -2  -1  -6  619.05   13.62
  -2  -1  -6  608.40   11.14
   2  -1   6  617.19   12.28
  -2  -1  -7   84.21    5.49
  -2  -1  -7   90.41    4.49
   2  -1   7   84.22    4.98
  -2  -1  -8  607.74   15.29
   2  -1   8  598.21   13.84
  -2  -1  -8  587.79   11.60
  -2  -1  -9  807.62   18.45
  -2  -1  -9  794.14   13.87
   2  -1   9  811.49   17.11
  -2  -1 -10  270.73   11.23
  -2  -1 -10  252.40   10.89
  -2  -1 -10  257.37    8.15
   2  -1  10  253.88   10.25
  -2  -1 -11   59.00    5.72
  -2  -1 -11   58.07    4.08
   2  -1  11   59.22    5.52
  -2  -1 -12  121.26    8.35
  -2  -1 -12  127.83    6.07
   2  -1  12  121.75    8.06
  -2  -1 -13  465.50   16.75
   2  -1  13  479.63   16.12
  -2  -1 -14  180.31   10.96
   2  -1  14  192.15   10.77
  -2  -1 -15   10.01    3.08
   2  -1  15   14.31    3.67
   2  -1  16   66.12    7.13
  -2  -1 -16   81.30    8.13
  -2  -1 -17   98.65    9.17
   2  -1  17  100.86    8.98
   2  -1  18   25.10    5.26
  -2  -1 -18   23.52    4.98
  -2  -1 -19   10.65    3.43
   2  -1  19    3.35    2.79
   2   0 -21   73.59    8.32
  -2   0  20   24.77    4.96
   2   0 -20   21.52    4.68
  -2   0  19   26.98    5.24
   2   0 -19   26.44    4.77
   2   0 -18  108.73    8.99
  -2   0  18  121.65    9.90
   2   0 -17  171.63   10.79
  -2   0  17  181.94   11.38
   2   0 -16  113.28    8.47
   2   0 -16  113.37    7.55
  -2   0  16  109.00    8.58
   2   0 -15  138.71    8.65
   2   0 -15  136.47    8.00
  -2   0  15  121.50    8.79
   2   0 -14  612.54   17.30
   2   0 -14  593.28   15.90
  -2   0  14  595.07   17.94
  -2   0  13   93.04    4.84
   2   0 -13   92.75    6.47
   2   0 -13   89.99    6.02
  -2   0  13   91.84    6.91
  -2   0  12   15.25    3.17
  -2   0  12   18.46    2.21
   2   0 -12   15.43    2.90
   2   0 -12   17.05    2.66
  -2   0  11   39.55    4.22
  -2   0  11   42.25    3.01
   2   0 -11   41.44    4.00
   2   0 -11   41.20    3.88
  -2   0  10 1077.30   13.87
   2   0 -10 1089.39   18.30
  -2   0  10 1047.48   19.48
   2   0 -10 1033.48   17.79
  -2   0   9  607.36    9.91
   2   0  -9  618.47   12.90
  -2   0   9  603.69   13.80
   2   0  -9  605.44   13.08
  -2   0   8    9.00    2.14
   2   0  -8   14.62    2.06
   2   0  -8   11.30    2.00
   2   0  -7  309.58    7.74
  -2   0   7  306.57    8.66
   2   0  -7  310.21    8.51
  -2   0   6 1915.48   19.93
   2   0  -6 1931.67   17.41
   2   0  -6 1896.42   19.87
  -2   0   5 2169.84   19.52
  -2   0   5 2095.86   17.80
   2   0  -5 2141.94   16.26
   2   0  -5 2117.80   19.87
  -2   0   4 1200.58   13.49
   2   0  -4 1247.12   10.91
  -2   0   4 1222.85   13.16
   2   0  -4 1203.83   14.25
   2   0  -3  344.27    6.70
   2   0  -3  353.45    5.12
  -2   0   3  353.38    6.90
   2   0  -2 3730.87   20.12
  -2   0   2 3666.58   17.39
   2   0  -2 3603.84   17.83
  -2   0   2 3661.41   21.56
   2   0  -1  997.21    9.90
  -2   0   1 1019.49    8.52
  -2   0   1  989.28    8.43
   2   0  -1 1001.41    8.93
  -2   0   1  997.85   11.09
  -2   0   1 1002.77    6.68
   2   0   0  486.85    6.93
  -2   0   0  508.10    6.54
   2   0   0  493.63    6.49
  -2   0   0  501.81    7.76
  -2   0   0  487.62    6.06
   2   0   1   33.55    2.05
  -2   0  -1   34.31    2.05
  -2   0  -1   32.48    2.16
  -2   0  -1   30.31    1.79
   2   0   2 1119.93   12.13
  -2   0  -2 1095.87   12.33
   2   0   2 1098.95    8.74
  -2   0  -2 1116.88   11.71
   2   0   3 2459.35   19.67
  -2   0  -3 2460.57   20.74
   2   0   3 2532.03   13.90
  -2   0  -3 2505.96   17.85
   2   0   3 2469.31   20.20
  -2   0  -4  305.99    8.08
  -2   0  -4  315.97    6.51
   2   0   4  329.00    8.03
  -2   0  -5  189.77    6.95
  -2   0  -5  189.91    5.18
   2   0   5  191.39    6.65
  -2   0  -6  502.76   12.02
  -2   0  -6  500.65    8.59
   2   0   6  505.37   11.48
  -2   0  -7  763.55   15.75
  -2   0  -7  760.11   10.77
   2   0   7  752.12   15.02
  -2   0  -8  498.85   13.65
  -2   0  -8  471.67    8.73
   2   0   8  489.04   12.89
   2   0   9   16.75    3.20
  -2   0  -9   13.64    3.01
  -2   0  -9   12.98    1.69
  -2   0 -10  988.52   21.24
  -2   0 -10  997.07   13.39
  -2   0 -10 1012.72   16.04
   2   0  10  979.39   20.29
  -2   0 -11  226.45   10.68
  -2   0 -11  219.66    6.40
   2   0  11  226.51   10.42
  -2   0 -11  218.40    7.80
   2   0  12   30.54    4.42
  -2   0 -12   35.77    4.71
   2   0  13   26.30    4.47
  -2   0 -13   22.64    4.17
  -2   0 -14  229.44   12.26
   2   0  14  220.43   11.72
  -2   0 -15  393.66   16.58
   2   0  15  417.96   16.64
  -2   0 -16  163.76   11.23
   2   0  16  170.09   11.21
   2   0  17   19.68    4.66
  -2   0 -17   10.02    3.28
   2   0  18   58.68    7.47
  -2   0 -18   40.66    6.18
   2   0  19   46.15    7.02
  -2   0 -19   62.01    7.95
  -2   1  20   67.61    8.28
   2   1 -20   69.02    7.78
   2   1 -19   42.26    6.03
  -2   1  19   39.61    6.10
  -2   1  18   -1.44    2.49
   2   1 -18    0.36    1.84
   2   1 -18    3.45    2.54
   2   1 -17   65.29    6.75
  -2   1  17   47.87    6.17
   2   1 -17   50.78    5.75
   2   1 -16  216.85   11.49
  -2   1  16  206.10   11.64
   2   1 -16  239.09   11.60
   2   1 -15  226.62   11.26
   2   1 -15  221.39   10.88
  -2   1  15  205.79   11.25
  -2   1  14   41.49    5.33
   2   1 -14   48.28    5.12
   2   1 -14   64.57    5.77
   2   1 -13  158.58    8.46
  -2   1  13  156.23    8.96
   2   1 -13  178.99    9.05
   2   1 -12  635.76   16.00
  -2   1  12  661.63   17.13
   2   1 -12  687.22   17.05
   2   1 -11  409.97   12.13
   2   1 -11  409.75   12.69
  -2   1  11  411.08   13.00
  -2   1  10   36.90    4.03
   2   1 -10   37.23    3.70
   2   1 -10   37.44    3.86
  -2   1   9  154.89    7.21
   2   1  -9  147.51    7.08
  -2   1   8  377.20    5.04
   2   1  -8  378.34    8.90
  -2   1   8  390.86   10.52
   2   1  -8  393.01   10.96
  -2   1   7  536.80    5.31
   2   1  -7  532.78    9.48
   2   1  -7  559.69   12.46
  -2   1   7  575.11   11.82
   2   1  -6  531.16    8.43
  -2   1   6  555.83   10.72
   2   1  -6  562.87   11.86
   2   1  -5  121.62    3.41
  -2   1   5  123.09    4.74
   2   1  -5  127.35    5.47
  -2   1   4  555.31    8.93
   2   1  -4  561.72   10.62
  -2   1   3 1102.43   11.34
  -2   1   3 1083.64   12.62
   2   1  -3 1048.99   12.98
   2   1  -3 1098.25   14.03
   2   1  -2  376.52    5.79
  -2   1   2  351.83    6.87
   2   1  -2  354.43    7.22
   2   1  -2  361.62    7.53
   2   1  -1  227.99    4.10
  -2   1   1  213.79    5.47
  -2   1   1  218.68    5.33
  -2   1   1  215.27    5.88
   2   1  -1  222.83    5.60
   2   1  -1  230.66    5.62
  -2   1   0 2025.32   16.68
   2   1   0 1999.72   11.85
   2   1   0 1966.91   15.83
  -2   1   0 2012.78   15.83
  -2   1   0 2044.88   16.77
   2   1   0 1971.57   16.53
   2   1   0 1980.54   14.93
   2   1   1 2802.84   15.22
  -2   1  -1 2740.85   20.24
  -2   1  -1 2725.90   18.89
   2   1   1 2747.46   20.14
  -2   1  -1 2772.69   19.27
   2   1   1 2748.83   17.72
   2   1   2  244.17    5.21
  -2   1  -2  240.08    6.48
  -2   1  -2  257.49    5.62
   2   1   2  245.63    6.48
  -2   1  -2  254.59    6.26
   2   1   2  245.11    5.22
  -2   1  -3  334.22    8.15
   2   1   3  321.32    5.92
  -2   1  -3  308.65    7.40
  -2   1  -3  325.61    4.48
  -2   1  -3  326.31    6.21
  -2   1  -4  732.88   12.82
  -2   1  -4  739.12    6.35
   2   1   4  730.64    9.06
  -2   1  -4  753.78    9.05
   2   1   4  735.42   12.50
  -2   1  -5  936.67   15.50
  -2   1  -5  903.82    9.80
   2   1   5  925.89   15.16
  -2   1  -6  649.42   13.84
  -2   1  -6  645.33    8.05
  -2   1  -6  655.26   12.55
   2   1   6  638.63   13.41
  -2   1  -7   96.59    5.81
  -2   1  -7   95.98    3.09
  -2   1  -7   92.19    5.07
   2   1   7   93.78    5.61
  -2   1  -8  628.38   15.27
  -2   1  -8  580.64    7.42
   2   1   8  630.14   14.97
  -2   1  -8  598.52   13.11
  -2   1  -9  769.08   17.93
  -2   1  -9  746.26    8.14
  -2   1  -9  783.22   15.58
   2   1   9  822.81   18.16
  -2   1 -10  232.44   10.35
  -2   1 -10  265.41    9.54
   2   1  10  244.97   10.50
  -2   1 -11   48.40    5.20
   2   1  11   55.66    5.72
  -2   1 -11   61.69    4.93
  -2   1 -12  133.14    8.69
   2   1  12  141.88    8.95
  -2   1 -12  136.06    7.41
  -2   1 -13  442.05   16.35
  -2   1 -13  483.58   14.29
   2   1  13  436.79   15.87
  -2   1 -14  173.19   10.66
  -2   1 -14  183.43    9.13
   2   1  14  168.12   10.48
  -2   1 -15    9.24    3.18
   2   1  15   13.82    3.73
  -2   1 -16   68.17    7.38
   2   1  16   70.89    7.57
  -2   1 -17   95.63    9.02
   2   1  17   76.40    8.33
  -2   1 -18   26.49    5.21
   2   1  18   29.37    5.34
  -2   1 -19    4.51    3.27
   2   1  19    9.28    3.92
  -2   2  20   10.91    3.67
  -2   2  19   55.36    7.32
   2   2 -19   56.77    6.80
   2   2 -18  297.74   14.39
   2   2 -18  309.95   14.95
  -2   2  18  321.63   15.99
   2   2 -17  139.09    9.51
   2   2 -17  139.21    9.87
  -2   2  17  140.17   10.24
  -2   2  16   13.02    3.65
   2   2 -16   17.56    3.49
   2   2 -16   17.14    3.86
  -2   2  15   45.89    5.54
   2   2 -15   49.19    5.36
   2   2 -15   42.36    5.37
   2   2 -14  309.05   12.30
  -2   2  14  313.56   13.28
   2   2 -14  316.02   13.36
   2   2 -13  464.22   14.25
   2   2 -13  450.40   15.54
  -2   2  13  464.25   15.42
   2   2 -12   30.66    3.66
  -2   2  12   32.83    4.32
   2   2 -12   29.91    4.16
   2   2 -11  248.09    9.28
  -2   2  11  263.50   10.52
   2   2 -11  272.74   11.18
   2   2 -10  703.80   14.51
   2   2 -10  706.48   17.38
  -2   2  10  729.13   16.35
   2   2  -9  491.99   11.27
   2   2  -9  485.26   13.90
  -2   2   9  503.75   12.89
   2   2  -8  150.62    5.69
   2   2  -8  160.58    7.72
  -2   2   8  149.64    6.66
   2   2  -7  273.65    6.94
   2   2  -7  278.45    9.74
  -2   2   7  284.34    8.46
   2   2  -6 2303.83   17.79
   2   2  -6 2393.53   27.19
  -2   2   5  997.66   15.48
   2   2  -5  972.84    9.94
  -2   2   5  974.91   13.20
   2   2  -5 1011.20   16.82
   2   2  -4  298.51    4.61
  -2   2   4  278.87    7.80
   2   2  -4  308.62    8.45
   2   2  -4  302.03    8.78
  -2   2   4  296.15    6.52
   2   2  -3  203.31    3.19
   2   2  -3  206.05    7.07
  -2   2   3  211.57    6.48
   2   2  -3  211.58    6.74
   2   2  -3  205.29    6.91
  -2   2   3  205.29    4.83
  -2   2   2  838.47    8.35
   2   2  -2  853.98   13.73
  -2   2   2  850.83   12.48
   2   2  -2  853.73   13.14
   2   2  -2  858.74   13.16
  -2   2   1  963.99    7.58
   2   2  -1  965.64   14.28
  -2   2   1  957.53   13.02
   2   2  -1  969.09   13.83
   2   2  -1  933.34   12.84
   2   2   0  787.30    5.53
  -2   2   0  783.85   12.63
   2   2   0  752.01   12.54
  -2   2   0  804.79   11.99
   2   2   0  776.83   12.35
   2   2   0  779.24   10.83
  -2   2  -1  526.96   10.48
   2   2   1  541.69    5.48
  -2   2  -1  539.40   10.08
   2   2   1  515.53   10.38
   2   2   1  555.33   10.66
   2   2   1  534.13    8.16
   2   2   2 2000.25   13.14
  -2   2  -2 1993.28   20.85
   2   2   2 1981.02   19.85
  -2   2  -2 2043.60   20.02
   2   2   2 1960.45   20.52
   2   2   2 2021.97   13.84
  -2   2  -3  250.71    7.75
  -2   2  -3  220.50    7.00
   2   2   3  230.09    6.86
  -2   2  -3  225.06    5.93
   2   2   3  232.32    7.47
   2   2   3  230.84    3.87
  -2   2  -4  221.19    7.61
   2   2   4  219.57    7.62
  -2   2  -4  217.83    7.31
  -2   2  -4  218.31    5.76
   2   2   4  207.83    6.67
  -2   2  -5   12.63    1.50
  -2   2  -5   14.06    2.46
  -2   2  -5   10.47    2.03
   2   2   5   10.82    2.06
  -2   2  -6  742.86   10.45
  -2   2  -6  730.88   15.18
   2   2   6  753.56   15.17
  -2   2  -6  717.73   15.10
  -2   2  -7  991.52   18.64
   2   2   7  971.90   18.18
  -2   2  -7  994.47   18.40
  -2   2  -8  293.83   10.80
  -2   2  -8  328.10   11.03
   2   2   8  326.06   11.19
  -2   2  -9   47.31    4.93
   2   2   9   43.24    4.68
  -2   2  -9   56.98    4.98
  -2   2 -10  109.95    7.39
  -2   2 -10  112.65    7.00
   2   2  10  117.06    7.55
  -2   2 -11  274.97   12.00
  -2   2 -11  289.59   11.53
   2   2  11  305.48   12.60
  -2   2 -12  354.99   14.19
  -2   2 -12  384.03   13.61
   2   2  12  356.33   14.05
  -2   2 -13   35.04    5.07
   2   2  13   39.68    5.26
  -2   2 -13   43.76    4.98
  -2   2 -14  144.31    9.98
  -2   2 -14  170.82    9.78
   2   2  14  161.95   10.58
  -2   2 -15  168.68   11.08
   2   2  15  186.50   11.62
  -2   2 -15  177.53   10.21
  -2   2 -16  117.13    9.55
  -2   2 -16  120.99    8.72
   2   2  16  124.58   10.03
   2   2  17   11.19    3.84
  -2   2 -17   12.89    3.82
  -2   2 -18   51.52    7.11
   2   2  18   55.56    7.42
  -2   2 -19  172.81   12.80
   2   2  19  180.50   13.25
   2   3 -20   78.81    8.60
  -2   3  20   92.55    9.62
  -2   3  19   29.95    5.57
   2   3 -19   31.17    5.57
  -2   3  18    6.73    3.15
   2   3 -18   15.53    4.30
  -2   3  17   50.47    6.37
   2   3 -17   61.07    7.06
   2   3 -16  153.24   10.60
  -2   3  16  151.82   10.36
   2   3 -15   76.69    7.50
  -2   3  15   94.91    7.97
  -2   3  14    4.85    2.43
   2   3 -14    9.27    2.53
   2   3 -14   10.98    2.84
   2   3 -13  146.01    7.89
  -2   3  13  135.24    8.57
   2   3 -13  143.67    9.42
   2   3 -12  129.23    7.04
  -2   3  12  143.09    8.35
   2   3 -12  137.74    9.05
   2   3 -11  271.63    9.56
   2   3 -11  284.81   12.42
  -2   3  11  270.85   10.86
   2   3 -10  222.36    8.03
  -2   3  10  244.03    9.77
   2   3 -10  228.30   10.79
   2   3  -9  157.20    6.30
   2   3  -9  152.66    8.72
  -2   3   9  161.18    7.57
  -2   3   8  695.20   16.22
   2   3  -8  677.34   12.11
  -2   3   8  703.43   14.52
   2   3  -8  701.49   17.56
  -2   3   7  377.11   11.49
   2   3  -7  376.70    8.28
  -2   3   7  394.79   10.15
   2   3  -7  368.55   12.44
  -2   3   6   51.49    4.33
   2   3  -6   51.75    2.90
  -2   3   6   56.08    3.64
   2   3  -6   49.75    4.68
   2   3  -5  249.83    5.73
   2   3  -5  270.42    9.60
  -2   3   5  247.70    8.61
  -2   3   5  245.01    6.06
  -2   3   5  247.86    6.78
   2   3  -5  243.09    9.27
   2   3  -4  528.68    7.85
   2   3  -4  516.08   13.07
  -2   3   4  513.82   11.69
  -2   3   4  514.67    7.74
   2   3  -4  526.49   12.43
  -2   3   4  516.57    8.64
   2   3  -4  517.84   12.96
   2   3  -3  925.02   17.17
  -2   3   3  941.84   15.42
  -2   3   3  921.91    9.09
   2   3  -3  972.31   16.41
  -2   3   3  904.93    9.83
   2   3  -3  962.13   16.70
   2   3  -2  287.95    9.50
  -2   3   2  300.06    8.58
   2   3  -2  291.49    5.00
   2   3  -2  299.99    8.97
  -2   3   2  296.14    4.70
  -2   3   2  297.89    4.48
   2   3  -2  285.37    8.68
   2   3  -1  259.17    8.87
  -2   3   1  255.86    7.83
   2   3  -1  255.66    4.39
   2   3  -1  268.98    8.35
   2   3  -1  263.96    7.94
  -2   3   0  177.88    7.04
   2   3   0  182.11    7.39
   2   3   0  178.35    3.80
  -2   3   0  178.03    6.58
   2   3   0  178.76    6.81
   2   3   0  171.28    6.04
  -2   3  -1 1436.18   19.98
  -2   3  -1 1449.79   18.79
   2   3   1 1468.90   11.97
   2   3   1 1418.95   20.49
   2   3   1 1467.40   19.58
   2   3   1 1440.65   16.14
   2   3   2  818.93    6.79
  -2   3  -2  868.02   15.51
  -2   3  -2  821.25   14.49
   2   3   2  814.00   15.54
  -2   3  -2  853.46   14.76
   2   3   2  848.24   10.26
   2   3   2  825.03   15.04
   2   3   2  823.15   11.01
  -2   3  -3  195.10    7.63
   2   3   3  191.91    7.60
  -2   3  -3  184.75    7.12
  -2   3  -3  186.03    6.80
   2   3   3  191.11    7.46
   2   3   3  174.45    4.52
  -2   3  -4  349.59   10.42
   2   3   4  352.34   10.51
  -2   3  -4  348.98   10.23
  -2   3  -4  353.36    9.24
   2   3   4  352.81   10.42
  -2   3  -5  575.05   13.88
  -2   3  -5  603.24   11.95
  -2   3  -5  579.57   13.55
   2   3   5  585.77   13.53
   2   3   5  595.44   14.16
  -2   3  -6  147.09    7.38
  -2   3  -6  152.34    6.03
   2   3   6  160.83    7.85
  -2   3  -6  158.62    8.12
   2   3   7   19.03    2.98
  -2   3  -7   17.61    3.08
  -2   3  -7   19.13    2.33
   2   3   7   18.23    3.16
  -2   3  -7   19.37    3.33
  -2   3  -8  289.91   11.21
   2   3   8  274.28   10.56
  -2   3  -8  266.56   11.21
  -2   3  -9  663.99   17.59
   2   3   9  667.01   17.31
  -2   3  -9  665.23   18.08
  -2   3 -10   66.15    5.98
   2   3  10   55.67    5.43
  -2   3 -10   60.36    5.96
  -2   3 -11   73.45    6.54
  -2   3 -11   74.42    6.54
   2   3  11   66.17    6.25
  -2   3 -12  133.22    9.03
   2   3  12  131.48    8.91
  -2   3 -12  140.51    9.07
  -2   3 -13  160.93   10.18
  -2   3 -13  202.13   11.17
   2   3  13  193.23   11.20
  -2   3 -14  108.03    8.82
   2   3  14  110.60    8.88
  -2   3 -14  120.46    8.90
   2   3  15    4.64    3.16
  -2   3 -15    3.83    2.55
  -2   3 -15    5.09    2.69
  -2   3 -16   69.91    7.60
   2   3  16   67.98    7.70
  -2   3 -17  118.30   10.13
   2   3  17  135.33   10.91
   2   3  18   29.34    5.46
  -2   3 -18   18.41    4.58
  -2   3 -19    3.16    2.99
  -2   4  19   47.57    7.01
   2   4 -19   34.42    6.10
   2   4 -18   86.61    9.03
  -2   4  18   91.35    8.96
  -2   4  17   77.83    8.16
   2   4 -17   85.74    8.86
  -2   4  16    8.34    3.40
   2   4 -16    9.34    3.20
  -2   4  15   56.21    6.35
   2   4 -15   69.77    7.54
   2   4 -14  346.48   16.06
  -2   4  14  350.51   14.65
  -2   4  13   82.75    7.02
   2   4 -13   83.92    7.88
  -2   4  12   38.82    5.29
  -2   4  12   45.79    4.82
   2   4 -12   49.67    6.06
  -2   4  11   16.71    3.89
  -2   4  11   20.04    3.44
   2   4 -11   17.63    3.58
  -2   4  10  439.04   15.04
   2   4 -10  414.27   15.66
  -2   4  10  431.54   13.29
  -2   4   9  413.47   13.97
   2   4  -9  423.70   10.69
   2   4  -9  396.61   14.85
  -2   4   9  402.38   12.05
   2   4  -8   72.74    4.27
  -2   4   8   80.85    6.27
  -2   4   8   75.65    4.70
   2   4  -8   80.98    6.77
  -2   4   8   81.39    5.21
   2   4  -7  186.22    6.34
  -2   4   7  154.14    8.01
  -2   4   7  182.11    6.63
  -2   4   7  180.13    7.03
   2   4  -7  175.27    9.37
   2   4  -6  286.53    7.54
   2   4  -6  272.05   11.08
  -2   4   6  285.54   10.31
  -2   4   6  285.42    7.65
   2   4  -6  271.22   11.31
  -2   4   6  280.09    7.94
   2   4  -5  341.33   12.08
  -2   4   5  375.48   11.46
  -2   4   5  372.34    8.07
   2   4  -5  345.51   12.22
  -2   4   5  365.36    8.13
  -2   4   4  272.56    9.60
   2   4  -4  268.52   10.63
  -2   4   4  271.07    6.37
   2   4  -4  279.15   10.08
   2   4  -4  267.90   10.36
  -2   4   4  272.51    6.10
   2   4  -3  147.35    7.93
  -2   4   3  159.33    7.21
  -2   4   3  144.84    4.44
   2   4  -3  150.72    7.32
  -2   4   3  161.61    3.63
   2   4  -3  146.34    7.48
   2   4  -2  603.77    9.04
  -2   4   2  581.52   13.37
   2   4  -2  572.30   15.35
  -2   4   2  582.56    8.58
   2   4  -2  577.01   13.84
   2   4  -2  589.06   14.15
   2   4  -1  417.09    7.35
   2   4  -1  405.97   12.73
  -2   4   1  390.88   10.88
   2   4  -1  413.85   11.59
   2   4  -1  406.77   11.22
   2   4   0   63.82    5.28
  -2   4   0   69.73    4.78
   2   4   0   73.48    3.19
   2   4   0   69.99    4.90
   2   4   0   76.32    4.70
  -2   4  -1   43.42    4.30
  -2   4  -1   48.13    4.16
  -2   4  -1   44.97    4.35
   2   4   1   50.30    2.76
   2   4   1   44.02    4.41
   2   4   1   40.56    3.84
   2   4   1   45.98    3.43
  -2   4  -2  724.02   15.96
  -2   4  -2  714.59   15.05
  -2   4  -2  725.91   16.10
   2   4   2  736.87   10.97
   2   4   2  704.42   16.74
   2   4   2  721.32   15.49
   2   4   2  733.73   12.53
   2   4   3  864.44    7.10
  -2   4  -3  918.01   18.21
  -2   4  -3  928.31   17.53
   2   4   3  942.21   13.38
  -2   4  -3  924.49   17.93
   2   4   3  887.80   18.94
   2   4   3  918.81   18.00
   2   4   3  892.83   12.68
  -2   4  -4  109.06    6.48
   2   4   4  104.79    6.31
  -2   4  -4  111.06    6.32
   2   4   4  108.56    5.02
  -2   4  -4  110.65    6.23
   2   4   4  106.94    6.85
  -2   4  -5  108.97    6.60
   2   4   5  108.24    6.58
   2   4   5   97.47    5.19
  -2   4  -5  112.15    6.62
   2   4   5  105.98    6.79
  -2   4  -5  110.12    6.17
  -2   4  -6  386.45   12.62
  -2   4  -6  360.63   11.04
   2   4   6  362.44   12.56
  -2   4  -6  364.96   12.21
   2   4   6  370.09   12.54
  -2   4  -7  404.44   13.42
  -2   4  -7  430.07   12.09
   2   4   7  428.22   13.90
   2   4   7  413.61   13.68
  -2   4  -7  407.94   14.65
  -2   4  -8  283.56   11.63
  -2   4  -8  289.94    9.99
   2   4   8  307.33   11.90
   2   4   8  289.73   11.96
  -2   4  -8  346.66   13.86
  -2   4  -9    3.72    1.87
   2   4   9    7.25    2.60
  -2   4  -9    4.38    2.70
  -2   4 -10  210.06   10.78
   2   4  10  233.88   11.68
   2   4  10  230.74   11.00
  -2   4 -10  216.90   11.67
  -2   4 -11  189.37   10.64
   2   4  11  218.16   11.66
  -2   4 -11  174.58   10.76
   2   4  11  187.47   10.32
  -2   4 -12   61.49    6.49
   2   4  12   70.20    7.01
   2   4  12   68.42    6.68
  -2   4 -12   75.48    7.49
   2   4  13    8.90    3.17
  -2   4 -13    7.47    2.84
   2   4  13    8.77    2.81
  -2   4 -13   15.27    4.01
  -2   4 -14   60.24    6.84
   2   4  14   65.87    7.26
  -2   4 -14   62.12    7.23
  -2   4 -15  183.98   12.16
   2   4  15  195.16   12.38
   2   4  16   52.28    6.77
  -2   4 -16   55.70    7.08
   2   4  17    4.02    3.08
  -2   4 -17    4.92    2.80
  -2   4 -18   30.30    5.69
   2   4  18   36.64    6.09
  -2   5  17   55.61    7.58
   2   5 -17   44.20    6.90
  -2   5  16   34.54    6.31
   2   5 -16   41.74    6.51
  -2   5  15   69.43    7.88
   2   5 -15   52.73    7.14
  -2   5  14   14.63    4.09
   2   5 -14   21.87    5.00
  -2   5  13   65.56    7.17
   2   5 -13   72.10    7.97
  -2   5  12  154.88   10.30
   2   5 -12  144.70   10.71
  -2   5  11  162.23   10.14
   2   5 -11  155.11   10.84
  -2   5  10    5.62    3.14
   2   5 -10    0.01    2.46
  -2   5   9   25.71    4.40
   2   5  -9   27.59    4.65
  -2   5   8  135.94    8.50
   2   5  -8  144.33    9.51
   2   5  -7  461.83   15.99
  -2   5   7  469.39   14.79
   2   5  -7  455.79   16.29
   2   5  -6   64.89    6.20
  -2   5   6   63.37    5.58
   2   5  -6   56.81    5.94
   2   5  -5  186.05   10.13
  -2   5   5  178.81    8.80
   2   5  -5  183.13    9.77
  -2   5   4  417.17   12.98
   2   5  -4  401.73   14.54
   2   5  -4  417.61   13.45
   2   5  -4  407.47   14.07
   2   5  -3  167.35    9.50
   2   5  -3  173.31    5.91
  -2   5   3  164.10    8.08
   2   5  -3  173.23    8.54
   2   5  -3  174.66    8.92
   2   5  -2   84.39    4.04
   2   5  -2   71.09    6.29
  -2   5   2   91.74    6.02
   2   5  -2   92.58    6.18
   2   5  -2   79.97    5.95
  -2   5   1   15.44    2.95
   2   5  -1   15.41    1.86
   2   5  -1   14.36    3.23
   2   5  -1   16.16    2.72
   2   5  -1   14.53    2.65
  -2   5   0  332.74   11.17
   2   5   0  362.30    8.27
   2   5   0  333.54   13.06
  -2   5   0  354.75   13.14
   2   5   0  333.67   11.50
   2   5   0  352.64   11.23
   2   5   1  328.87   13.06
  -2   5  -1  338.86   12.90
  -2   5  -1  335.89   11.28
   2   5   1  357.12    8.40
   2   5   1  338.18   11.68
   2   5   1  371.82   10.95
  -2   5  -2   75.06    5.57
   2   5   2   69.93    6.21
   2   5   2   70.55    3.97
  -2   5  -2   78.45    6.31
   2   5   2   80.05    5.82
   2   5   2   70.22    4.56
  -2   5  -3   12.57    2.84
   2   5   3    8.19    2.17
   2   5   3   10.05    1.88
  -2   5  -3    6.56    2.51
  -2   5  -3   11.43    2.84
   2   5   3   10.58    2.70
  -2   5  -4   71.58    5.91
   2   5   4   67.82    5.70
  -2   5  -4   77.17    5.93
   2   5   4   78.09    4.65
  -2   5  -4   70.54    5.92
   2   5   4   84.11    6.94
  -2   5  -5  407.27   13.75
   2   5   5  424.02   13.92
  -2   5  -5  429.37   13.71
  -2   5  -5  409.65   13.59
   2   5   5  419.01   15.07
   2   5   5  456.87   11.61
  -2   5  -6  119.00    7.68
   2   5   6  137.48    8.26
   2   5   6  148.56    7.10
  -2   5  -6  136.19    7.89
  -2   5  -6  134.25    8.02
   2   5   6  130.37    8.68
  -2   5  -7   81.69    6.58
   2   5   7   89.18    6.88
   2   5   7   74.46    6.77
  -2   5  -7   69.51    5.73
   2   5   7   78.71    5.56
  -2   5  -8  216.38   10.86
   2   5   8  191.72   10.31
   2   5   8  207.10   11.09
   2   5   8  212.58    9.48
  -2   5  -8  201.34    9.52
  -2   5  -9  107.24    7.86
   2   5   9  116.19    8.34
  -2   5  -9  106.91    6.94
   2   5   9  117.66    8.54
   2   5   9  113.61    7.46
  -2   5 -10   28.00    4.36
   2   5  10   23.64    4.07
   2   5  10   24.00    4.31
  -2   5 -11    4.68    2.47
   2   5  11    2.49    2.25
   2   5  11    5.56    2.63
  -2   5 -12   58.07    6.47
   2   5  12   64.29    6.97
   2   5  12   61.26    6.52
  -2   5 -13  170.13   11.32
   2   5  13  176.10   11.74
  -2   5 -14   43.48    5.95
   2   5  14   60.59    7.22
  -2   5 -15    4.97    2.83
   2   5  15   13.25    4.04
  -2   5 -16   21.52    4.74
   2   5  16   18.18    4.62
  -2   5 -17   67.31    8.14
   2   5  17   83.72    9.27
  -2   6  15   17.74    4.65
   2   6 -15   24.65    5.48
  -2   6  14  105.24    9.70
   2   6 -14   96.31    9.90
  -2   6  13  121.24    9.95
   2   6 -13  115.63   10.48
  -2   6  12   11.26    3.92
   2   6 -12   14.00    4.28
  -2   6  11   90.08    8.21
   2   6 -11   91.05    8.88
  -2   6  10  192.92   11.29
   2   6 -10  178.58   12.10
  -2   6   9   92.30    7.79
   2   6  -9   72.47    7.59
  -2   6   8   31.07    4.76
   2   6  -8   33.56    5.24
  -2   6   7    5.90    3.01
   2   6  -7    5.89    2.74
   2   6  -7    8.82    2.89
   2   6  -6  262.13   13.21
  -2   6   6  274.10   11.89
   2   6  -6  270.79   13.28
   2   6  -5  180.45   10.98
  -2   6   5  194.90    9.92
   2   6  -5  160.02   10.00
  -2   6   4   12.65    3.28
   2   6  -4    7.63    2.60
   2   6  -4   11.89    3.16
  -2   6   3   23.03    3.82
   2   6  -3   17.31    3.85
   2   6  -3   20.48    3.30
   2   6  -3   25.17    4.12
   2   6  -2  210.04   11.62
  -2   6   2  214.52    9.99
  -2   6   2  208.55   11.70
   2   6  -2  221.86   10.43
   2   6  -2  221.90   10.76
   2   6  -1  442.33   16.66
  -2   6   1  423.32   16.29
  -2   6   1  478.22   14.65
   2   6  -1  438.47   14.51
   2   6  -1  464.18   14.89
  -2   6   0   58.47    5.47
   2   6   0   58.26    6.36
  -2   6   0   58.34    6.24
   2   6   0   58.24    5.46
   2   6   0   70.93    5.69
   2   6   1   61.61    6.52
  -2   6  -1   67.55    5.84
  -2   6  -1   76.82    6.97
   2   6   1   79.16    6.26
   2   6   1   71.82    5.52
   2   6   2  192.28    9.75
   2   6   2  190.09   11.25
  -2   6  -2  192.32    9.57
  -2   6  -2  193.14   10.66
   2   6   3  119.73    7.79
  -2   6  -3  130.35    8.82
  -2   6  -3  129.00    8.00
   2   6   3  110.97    8.69
   2   6   4   61.42    5.72
  -2   6  -4   63.65    5.91
  -2   6  -4   63.73    6.18
   2   6   4   66.58    6.72
  -2   6  -5   43.51    5.16
   2   6   5   40.66    4.90
  -2   6  -5   43.86    5.22
  -2   6  -5   37.31    4.91
   2   6   5   46.59    5.83
  -2   6  -6  184.62   10.36
   2   6   6  165.17    9.63
  -2   6  -6  163.97    9.62
  -2   6  -6  175.45   10.01
   2   6   6  176.97   11.12
  -2   6  -7  122.92    8.60
   2   6   7  127.22    8.72
  -2   6  -7  140.33    8.99
   2   6   7  132.18    9.76
  -2   6  -8   40.80    5.14
   2   6   8   51.22    5.82
  -2   6  -8   54.37    5.73
   2   6   8   50.77    6.40
  -2   6  -9   -0.88    1.73
   2   6   9    1.29    1.75
   2   6   9    3.51    2.89
  -2   6 -10   63.18    6.68
   2   6  10   67.39    7.15
   2   6  10   57.25    6.69
  -2   6 -11  113.37    9.10
   2   6  11  120.03    9.53
   2   6  11  137.46   10.43
  -2   6 -12   57.69    6.82
   2   6  12   53.37    6.77
   2   6  12   49.23    6.54
  -2   6 -13    7.28    3.51
   2   6  13    3.31    2.65
   2   6  14   59.28    7.52
   2   6  15   39.62    6.40
  -2   7  13   28.00    5.69
  -2   7  12   24.37    5.13
   2   7 -12   31.44    6.10
  -2   7  11   33.98    5.60
   2   7 -11   43.84    6.87
  -2   7  10   30.22    5.33
   2   7 -10   22.58    5.13
  -2   7   9   32.66    5.24
   2   7  -9   41.17    6.33
   2   7  -8   91.44    8.88
  -2   7   8   89.83    8.05
   2   7  -8   76.08    8.14
   2   7  -7   53.53    6.85
  -2   7   7   54.43    6.33
   2   7  -7   46.94    6.42
  -2   7   6    6.63    2.87
   2   7  -6   11.49    3.41
   2   7  -6    6.74    3.21
  -2   7   5    2.18    2.41
   2   7  -5   11.08    3.70
  -2   7   5    9.48    3.95
   2   7  -5    6.09    2.82
  -2   7   4   52.06    5.88
   2   7  -4   33.16    5.30
  -2   7   4   38.85    6.02
   2   7  -4   42.94    5.83
   2   7  -3  257.82   14.13
  -2   7   3  245.92   14.12
  -2   7   3  262.48   12.06
   2   7  -3  253.18   12.90
   2   7  -2   20.38    4.58
  -2   7   2   21.56    4.15
  -2   7   2   13.99    3.80
   2   7  -2   21.63    3.76
   2   7  -2   18.85    3.68
  -2   7   1   51.66    5.59
   2   7  -1   51.50    6.56
  -2   7   1   42.82    6.11
   2   7  -1   46.12    5.25
   2   7  -1   49.28    5.43
   2   7   0   50.69    5.55
   2   7   0   59.55    7.04
  -2   7   0   57.22    5.91
  -2   7   0   53.73    6.52
   2   7   1  118.52    8.33
  -2   7  -1  130.26    8.64
   2   7   1  124.51    9.96
  -2   7  -1  121.37    9.56
   2   7   2   43.83    5.12
  -2   7  -2   46.44    5.52
   2   7   2   46.36    6.44
  -2   7  -2   46.30    6.11
   2   7   3    5.64    1.93
   2   7   3    4.02    2.73
  -2   7  -3    5.33    2.66
  -2   7  -3    1.94    2.19
   2   7   4  136.73    9.11
  -2   7  -4  141.48    9.17
  -2   7  -4  155.51   10.55
   2   7   4  152.64   11.19
   2   7   5  117.61    8.56
  -2   7  -5  123.23    8.77
  -2   7  -5  122.34    9.33
   2   7   5  121.86   10.10
   2   7   6    2.35    1.98
  -2   7  -6    2.38    2.17
  -2   7  -6    0.94    2.41
   2   7   6    1.69    2.48
   2   7   7    6.98    2.66
  -2   7  -7    4.20    2.23
   2   7   7    2.22    2.14
  -2   7  -8   26.88    4.59
   2   7   8   23.54    4.23
  -2   7  -8   19.27    4.01
   2   7   8   29.45    5.58
   2   7   9  173.07   12.49
  -2   7  -9  164.45   11.05
   2   7  10   46.00    6.84
   2   7  11   11.22    3.81
   2   7  12   28.10    5.35
   2   8  -9   56.81    7.79
  -2   8   8    7.29    3.47
   2   8  -8   16.28    4.54
   2   8  -7   14.88    4.25
  -2   8   7   14.20    4.45
   2   8  -7   15.52    4.34
   2   8  -6   53.06    7.35
  -2   8   6   50.62    7.26
   2   8  -6   42.93    6.57
   2   8  -5   50.20    7.05
  -2   8   5   45.30    7.15
   2   8  -5   46.09    6.61
   2   8  -4   20.38    4.79
  -2   8   4   18.65    4.74
   2   8  -4   17.24    4.08
   2   8  -3    3.87    3.06
  -2   8   3    2.82    3.14
   2   8  -2   95.73    9.50
  -2   8   2  108.91   10.14
   2   8  -1   73.50    8.29
  -2   8   1   72.87    8.41
   2   8   0   36.48    6.31
  -2   8   0   22.62    5.02
   2   8   1   17.92    5.08
  -2   8  -1    8.10    3.42
   2   8   2   67.61    8.26
  -2   8  -2   40.23    6.19
  -2   8  -3   75.80    8.32
   2   8   3   76.95    8.90
  -2   8  -4   14.78    4.03
   2   8   4   15.53    4.58
  -2   8  -5    2.98    2.92
   2   8   5    2.00    3.16
   2   8   6   24.75    5.08
  -2   8  -6   16.96    4.29
  -2   8  -7   51.93    6.73
   2   8   7   50.41    7.28
   2   8   8   23.35    5.22
  -3  -8   9   25.67    5.17
  -3  -8   8   11.38    3.88
   3  -8  -8    9.97    3.72
  -3  -8   7   27.49    5.20
   3  -8  -7   19.08    4.44
  -3  -8   7   23.18    4.99
  -3  -8   6   60.81    7.19
   3  -8  -6   63.20    7.41
  -3  -8   6   69.79    8.00
  -3  -8   5   14.18    3.80
   3  -8  -5    9.18    3.63
  -3  -8   5    8.89    3.44
   3  -8  -4   13.31    3.48
   3  -8  -3   37.18    5.74
  -3  -8   3   24.51    4.53
   3  -8  -2   40.54    5.74
  -3  -8   2   45.99    6.13
   3  -8  -1    4.14    2.53
  -3  -8   1    8.90    3.14
   3  -8   0   12.90    3.61
  -3  -8   0    4.76    2.64
   3  -8   1   30.16    4.95
  -3  -8  -1   40.80    5.97
   3  -8   2   80.16    7.95
  -3  -8  -2  103.24    9.47
   3  -8   3   18.88    4.73
   3  -8   3   20.28    4.25
  -3  -8  -3   30.02    5.40
   3  -8   4    5.19    3.16
   3  -8   4   -1.30    1.93
   3  -8   4    1.68    2.13
  -3  -8  -4   -1.13    2.33
   3  -8   5   26.56    5.50
   3  -8   5   20.11    4.13
  -3  -8  -5   21.15    4.66
   3  -8   6   80.57    9.00
   3  -8   6   68.30    7.31
  -3  -8  -6   68.06    8.10
  -3  -7  12   86.18    8.93
   3  -7 -12   86.68    9.02
  -3  -7  12   74.65    8.66
  -3  -7  11   33.04    5.69
   3  -7 -11   26.09    5.11
  -3  -7  11   28.12    5.29
  -3  -7  10    8.54    3.25
   3  -7 -10   10.49    3.58
  -3  -7  10    9.76    3.67
   3  -7  -9   94.03    8.85
  -3  -7   9  100.21    9.19
   3  -7  -8   63.99    7.18
  -3  -7   8   60.72    7.17
   3  -7  -7   42.40    5.84
  -3  -7   7   47.38    6.46
   3  -7  -6    4.27    2.22
  -3  -7   6    3.22    3.07
  -3  -7   5  206.76   11.71
   3  -7  -5  216.30   12.34
  -3  -7   4  160.78    9.93
  -3  -7   4  157.62    9.85
   3  -7  -4  159.00   10.50
  -3  -7   3   15.70    3.43
   3  -7  -3   13.08    3.56
  -3  -7   3    8.68    2.80
  -3  -7   2   19.63    3.44
   3  -7  -2   23.49    4.15
  -3  -7   2   24.22    4.16
   3  -7  -1   36.83    5.15
  -3  -7   1   36.20    5.23
   3  -7   0   87.36    7.05
   3  -7   0   94.39    7.88
  -3  -7   0  104.54    8.55
   3  -7   1  131.61    8.86
   3  -7   1  128.22    9.03
  -3  -7  -1  135.18    9.77
   3  -7   2    5.45    2.72
   3  -7   2    3.27    2.90
   3  -7   2    7.04    2.68
  -3  -7  -2    2.01    1.93
   3  -7   3   79.26    7.92
   3  -7   3   83.10    7.48
   3  -7   3   77.30    7.17
  -3  -7  -3   96.65    8.55
   3  -7   4   80.38    8.21
   3  -7   4   78.26    7.56
   3  -7   4   84.98    7.53
  -3  -7  -4   88.41    8.38
   3  -7   4   86.72    7.34
   3  -7   5   24.13    4.75
   3  -7   5   18.12    4.18
   3  -7   5   24.10    4.28
   3  -7   5   24.81    4.31
  -3  -7  -5   21.87    4.50
   3  -7   6    1.87    2.77
  -3  -7  -6    1.23    2.08
   3  -7   6    1.94    1.67
  -3  -7  -6   -1.81    2.96
   3  -7   7   31.25    5.74
  -3  -7  -7   40.31    5.62
   3  -7   7   32.49    4.65
  -3  -7  -7   38.89    5.95
   3  -7   8   92.89    9.29
  -3  -7  -8  117.74    9.49
  -3  -7  -8  112.44   10.10
   3  -7   9   21.28    5.10
  -3  -7  -9   20.49    4.53
  -3  -7  -9   28.38    5.31
   3  -7  10   -0.71    2.73
  -3  -7 -10   -0.12    2.23
  -3  -7 -10    0.36    2.10
  -3  -7 -11   11.15    3.80
  -3  -6  15   15.34    4.31
   3  -6 -15   22.94    5.05
  -3  -6  14   58.46    7.14
   3  -6 -14   84.44    8.83
  -3  -6  13   18.98    4.44
   3  -6 -13   11.89    3.64
  -3  -6  13   20.93    4.59
  -3  -6  12   22.82    4.68
   3  -6 -12   22.60    4.81
  -3  -6  12   27.46    5.29
   3  -6 -11   82.80    8.14
  -3  -6  11   85.10    8.38
   3  -6 -10  137.32   10.17
  -3  -6  10  129.98    9.96
   3  -6  -9   30.23    4.95
  -3  -6   9   26.01    4.56
   3  -6  -8   14.20    3.41
  -3  -6   8    6.01    2.95
   3  -6  -7  180.32   10.75
  -3  -6   7  182.30   10.96
   3  -6  -6  199.24   11.05
  -3  -6   6  222.58   10.24
  -3  -6   6  216.07   11.63
   3  -6  -5   59.30    6.08
  -3  -6   5   61.00    5.57
   3  -6  -4   18.51    3.73
  -3  -6   4   13.78    3.07
   3  -6  -3   40.69    4.97
  -3  -6   3   60.65    5.76
  -3  -6   2  313.34   11.97
   3  -6  -2  290.03   12.59
  -3  -6   2  327.30   13.27
  -3  -6   1  137.29    7.68
   3  -6  -1  126.69    7.44
   3  -6  -1  130.39    8.47
  -3  -6   1  116.38    8.10
  -3  -6   0   22.32    3.07
   3  -6   0   26.16    3.63
   3  -6   0   21.07    3.60
  -3  -6   0   22.80    3.86
   3  -6   1   96.68    7.87
   3  -6   1   82.69    6.58
   3  -6   1   92.48    7.10
  -3  -6  -1   95.76    7.62
   3  -6   2  187.96   10.86
   3  -6   2  183.49    9.82
   3  -6   2  188.52    9.95
  -3  -6  -2  195.04    9.08
  -3  -6  -2  172.02   10.30
   3  -6   3  125.25    9.15
   3  -6   3  132.04    8.59
  -3  -6  -3  122.11    7.55
  -3  -6  -3  117.47    8.65
   3  -6   4   10.44    3.31
   3  -6   4   17.94    3.85
  -3  -6  -4   14.16    2.92
  -3  -6  -4    7.76    2.55
   3  -6   5  122.57    9.24
   3  -6   5  139.35    9.36
  -3  -6  -5  149.40    8.97
   3  -6   5  143.05    8.53
  -3  -6  -5  140.94    9.80
   3  -6   6  188.78   11.56
   3  -6   6  211.91   11.77
  -3  -6  -6  212.06   11.09
  -3  -6  -6  199.97   11.67
   3  -6   6  205.99   10.31
   3  -6   7   25.74    4.70
  -3  -6  -7   35.31    4.86
   3  -6   7   26.47    3.99
  -3  -6  -7   24.27    4.56
   3  -6   8    3.89    2.75
  -3  -6  -8    4.55    2.22
  -3  -6  -8    6.17    3.36
   3  -6   8    3.87    1.92
   3  -6   9   95.22    8.76
  -3  -6  -9   72.21    7.40
  -3  -6  -9   88.87    8.31
   3  -6   9   85.83    7.31
   3  -6  10  119.06    9.95
  -3  -6 -10  136.94   10.34
  -3  -6 -10  140.72   10.57
   3  -6  10  135.59    9.51
   3  -6  11   55.74    7.12
  -3  -6 -11   49.38    6.56
  -3  -6 -11   48.86    6.55
   3  -6  12    6.43    3.02
  -3  -6 -12   10.49    3.74
  -3  -6 -12    7.27    3.33
   3  -6  13   15.48    4.38
  -3  -6 -13   19.04    5.02
  -3  -6 -13   13.78    3.89
  -3  -6 -14   49.47    6.77
  -3  -5  18   25.54    5.04
  -3  -5  17   78.81    8.27
   3  -5 -17   78.17    8.75
  -3  -5  16   62.40    7.27
   3  -5 -16   62.66    7.77
  -3  -5  15   47.19    6.26
   3  -5 -15   38.51    6.04
  -3  -5  14    7.66    2.93
   3  -5 -14   14.97    3.91
  -3  -5  13  214.25   12.12
   3  -5 -13  217.83   12.70
   3  -5 -12  130.27    9.64
  -3  -5  12  123.53    9.52
  -3  -5  11   27.45    3.78
   3  -5 -11   22.35    4.28
  -3  -5  11   29.05    4.96
  -3  -5  10   16.92    2.93
   3  -5 -10   14.91    3.70
  -3  -5  10   17.46    3.96
   3  -5  -9   74.81    6.87
  -3  -5   9   80.97    5.79
  -3  -5   9   68.33    6.69
  -3  -5   8  290.01   10.29
   3  -5  -8  289.64   12.77
  -3  -5   8  277.93   12.62
  -3  -5   7  117.05    6.39
   3  -5  -7  105.02    7.61
  -3  -5   7  110.23    6.44
  -3  -5   7  100.25    7.44
  -3  -5   6   28.47    3.18
   3  -5  -6   25.23    3.98
  -3  -5   6   25.99    3.91
  -3  -5   6   30.15    3.47
  -3  -5   5  157.11    6.92
   3  -5  -5  148.48    7.19
   3  -5  -5  132.86    8.25
  -3  -5   5  151.52    7.79
   3  -5  -4  280.25    9.59
   3  -5  -4  277.30   11.47
  -3  -5   4  305.70   11.27
   3  -5  -3  134.53    6.55
   3  -5  -3  136.15    7.92
  -3  -5   3  146.23    7.95
   3  -5  -2    8.87    1.82
   3  -5  -2    7.66    2.46
  -3  -5   2    6.30    2.39
   3  -5  -1  580.46   13.19
   3  -5  -1  586.88   14.32
   3  -5  -1  604.99   16.13
  -3  -5   1  573.69   12.08
  -3  -5   1  585.59   16.23
   3  -5   0  519.51   12.50
   3  -5   0  518.70   15.98
  -3  -5   0  541.67   12.91
   3  -5   0  571.08   14.60
  -3  -5   0  554.05   12.45
   3  -5   0  507.07   14.83
  -3  -5   0  540.25   15.96
   3  -5   1  111.80    5.92
   3  -5   1  112.85    7.70
  -3  -5  -1  103.67    5.49
   3  -5   1  109.09    6.74
  -3  -5  -1   96.83    5.58
  -3  -5  -1  106.24    7.23
   3  -5   2   -0.47    1.14
   3  -5   2    2.30    2.09
   3  -5   2    2.07    2.37
  -3  -5  -2    0.67    1.08
  -3  -5  -2    0.61    1.39
  -3  -5  -2    4.14    1.80
   3  -5   3  136.86    6.82
   3  -5   3  126.80    8.34
   3  -5   3  134.72    7.98
  -3  -5  -3  141.86    7.35
  -3  -5  -3  147.84    8.95
   3  -5   4  335.21   10.97
   3  -5   4  343.95   13.77
   3  -5   4  335.71   12.90
  -3  -5  -4  333.60   11.81
  -3  -5  -4  341.37   13.58
   3  -5   4  336.67   11.37
   3  -5   5  283.13   10.47
   3  -5   5  266.94   12.25
   3  -5   5  282.14   12.16
  -3  -5  -5  294.56   11.55
   3  -5   5  282.54   10.62
  -3  -5  -5  290.67   12.72
   3  -5   6   15.44    3.64
   3  -5   6   10.57    3.25
   3  -5   6   14.11    2.86
  -3  -5  -6   12.19    2.72
   3  -5   6   14.21    2.75
  -3  -5  -6    9.51    2.86
   3  -5   7  169.33    8.71
   3  -5   7  135.55    9.31
  -3  -5  -7  146.00    8.99
  -3  -5  -7  166.98   10.00
   3  -5   7  152.20    8.28
   3  -5   8  245.70   10.95
   3  -5   8  209.92   11.58
  -3  -5  -8  224.74   11.48
  -3  -5  -8  209.89   11.49
   3  -5   8  213.37   10.13
   3  -5   9  194.83   10.14
   3  -5   9  195.58   11.49
  -3  -5  -9  203.32   11.37
  -3  -5  -9  190.48   11.01
   3  -5   9  200.50   10.10
   3  -5  10   14.53    3.26
   3  -5  10   11.42    3.36
  -3  -5 -10   15.57    3.66
  -3  -5 -10   17.57    3.88
   3  -5  11  119.87    8.81
   3  -5  11  110.33    9.01
  -3  -5 -11  118.18    9.39
  -3  -5 -11  116.30    8.95
   3  -5  12  130.55    9.46
   3  -5  12  131.75   10.02
  -3  -5 -12  128.09   10.08
  -3  -5 -12  126.12    9.55
   3  -5  13   38.75    5.62
   3  -5  13   47.14    6.36
  -3  -5 -13   36.16    5.93
  -3  -5 -13   44.24    5.88
   3  -5  14    4.37    2.56
   3  -5  14    1.86    2.58
  -3  -5 -14    3.35    2.77
  -3  -5 -14    2.14    1.89
   3  -5  15    5.40    2.78
   3  -5  15   16.37    4.36
  -3  -5 -15   13.34    3.95
  -3  -5 -15    9.27    3.13
   3  -5  16   42.01    6.43
   3  -5  16   32.98    5.64
  -3  -4  19   28.49    5.25
  -3  -4  18   62.01    7.34
   3  -4 -18   67.89    8.07
  -3  -4  18   58.04    6.75
  -3  -4  17   31.70    5.13
   3  -4 -17   27.53    5.33
  -3  -4  17   25.09    4.60
  -3  -4  16   42.29    5.66
  -3  -4  16   44.46    5.74
   3  -4 -16   38.84    6.05
  -3  -4  15   76.86    7.14
   3  -4 -15   83.14    7.89
  -3  -4  15   91.02    7.76
  -3  -4  14  153.92    9.80
   3  -4 -14  167.75   10.89
  -3  -4  14  170.09   10.13
  -3  -4  13   38.53    4.78
   3  -4 -13   21.64    4.00
  -3  -4  13   34.75    4.81
  -3  -4  12   23.18    3.65
   3  -4 -12   24.35    4.18
   3  -4 -11  249.00   11.86
  -3  -4  11  255.15   10.77
  -3  -4  11  233.84   11.78
   3  -4 -10  367.71   14.01
  -3  -4  10  414.18   13.16
  -3  -4  10  377.69   14.50
  -3  -4   9   26.58    3.42
   3  -4  -9   17.75    3.29
  -3  -4   9   24.56    4.03
  -3  -4   8   74.09    5.16
  -3  -4   8   71.82    4.57
   3  -4  -8   68.87    5.84
  -3  -4   8   74.52    6.18
  -3  -4   7  245.39    8.91
  -3  -4   7  240.94    8.55
   3  -4  -7  236.41   10.33
  -3  -4   7  254.50   10.78
   3  -4  -6  437.66   12.04
  -3  -4   6  412.57   11.10
   3  -4  -6  448.09   13.76
  -3  -4   6  456.63   11.93
  -3  -4   6  434.80   13.57
   3  -4  -5  395.81   11.14
   3  -4  -5  399.65   12.80
  -3  -4   5  382.28   11.13
   3  -4  -4   40.78    3.66
   3  -4  -4   41.94    4.50
  -3  -4   4   43.13    3.96
  -3  -4   4   41.24    2.32
   3  -4  -3  455.04   11.33
  -3  -4   3  427.67    7.70
  -3  -4   3  467.03   12.76
   3  -4  -3  452.92   13.08
   3  -4  -2  396.96   10.39
   3  -4  -2  393.10   11.96
  -3  -4   2  401.54    8.04
  -3  -4   2  404.33   11.98
   3  -4  -1  281.86    8.71
   3  -4  -1  282.80   10.08
  -3  -4   1  295.35    7.46
  -3  -4   1  271.50   10.11
   3  -4   0   24.35    2.73
   3  -4   0   28.22    3.80
  -3  -4   0   24.67    2.45
  -3  -4   0   25.68    3.44
   3  -4   1  153.46    6.54
   3  -4   1  139.63    7.62
  -3  -4  -1  148.56    5.62
  -3  -4  -1  149.51    6.13
  -3  -4  -1  150.72    7.86
   3  -4   2  744.72   14.56
   3  -4   2  744.66   17.68
  -3  -4  -2  727.72   11.59
  -3  -4  -2  753.31   14.47
  -3  -4  -2  734.00   17.27
   3  -4   3   88.09    5.29
   3  -4   3  102.34    6.75
  -3  -4  -3   91.36    3.89
  -3  -4  -3   85.79    5.27
  -3  -4  -3  103.74    6.91
   3  -4   4   57.04    4.47
   3  -4   4   48.75    4.97
  -3  -4  -4   56.06    4.60
  -3  -4  -4   55.10    5.18
   3  -4   4   57.07    4.23
   3  -4   5   88.72    5.69
   3  -4   5   85.47    6.47
  -3  -4  -5   88.42    6.06
  -3  -4  -5   85.13    6.43
   3  -4   5   87.60    5.31
   3  -4   6  304.61   10.83
   3  -4   6  293.90   11.89
  -3  -4  -6  281.09   11.03
  -3  -4  -6  284.32   11.69
   3  -4   6  302.10   10.09
   3  -4   7  278.90   10.82
   3  -4   7  243.32   11.09
  -3  -4  -7  273.95   11.43
  -3  -4  -7  269.23   11.58
   3  -4   7  275.75   10.07
   3  -4   8    1.42    1.49
   3  -4   8   -2.35    2.28
  -3  -4  -8    3.39    1.92
  -3  -4  -8   -0.66    1.80
   3  -4   8    0.08    1.54
   3  -4   9  182.92    9.71
   3  -4   9  180.54   10.00
  -3  -4  -9  169.76   10.00
  -3  -4  -9  182.68    9.85
   3  -4  10  235.78   11.40
   3  -4  10  227.95   11.48
  -3  -4 -10  222.39   11.73
  -3  -4 -10  231.46   11.27
   3  -4  11   62.18    6.28
   3  -4  11   52.52    5.79
  -3  -4 -11   64.06    6.67
  -3  -4 -11   52.16    5.63
   3  -4  12   14.43    3.57
   3  -4  12   15.63    3.62
  -3  -4 -12   17.21    4.06
  -3  -4 -12   11.66    2.90
   3  -4  13   24.57    4.44
   3  -4  13   20.49    4.28
  -3  -4 -13   24.12    4.82
  -3  -4 -13   13.78    3.32
   3  -4  14  178.23   11.63
   3  -4  14  176.62   11.33
  -3  -4 -14  197.56   12.90
  -3  -4 -14  183.68   10.97
   3  -4  15  100.83    9.03
   3  -4  15   92.97    8.56
  -3  -4 -15   90.36    9.20
  -3  -4 -15  102.94    8.35
  -3  -4 -16    4.50    2.94
  -3  -4 -16    3.71    2.64
   3  -4  16    0.54    2.01
   3  -4  16   -1.84    2.86
  -3  -4 -17    1.51    2.54
   3  -4  17    5.69    3.10
   3  -4  17    8.26    3.15
  -3  -3  20   67.39    8.15
   3  -3 -20   67.94    8.18
  -3  -3  19   25.34    5.11
   3  -3 -19   27.29    5.26
  -3  -3  18   32.16    5.52
   3  -3 -18   18.67    4.30
  -3  -3  17  184.34   10.60
   3  -3 -17  162.51   11.25
  -3  -3  17  179.53   11.45
  -3  -3  16  238.42   11.69
   3  -3 -16  233.09   12.87
  -3  -3  16  199.88   11.63
  -3  -3  15   66.62    6.17
   3  -3 -15   71.56    7.06
  -3  -3  15   61.94    6.51
  -3  -3  14   38.59    5.04
  -3  -3  14   38.98    4.67
   3  -3 -14   45.97    5.60
  -3  -3  13  410.33   14.09
   3  -3 -13  409.50   15.23
  -3  -3  13  423.99   15.00
   3  -3 -12  278.50   12.11
  -3  -3  12  268.44   11.38
   3  -3 -11  120.22    7.77
  -3  -3  11  118.01    7.31
   3  -3 -11  117.56    6.18
   3  -3 -10   46.45    4.79
  -3  -3  10   51.65    4.74
  -3  -3  10   53.62    5.47
  -3  -3   9  492.05   13.45
   3  -3  -9  484.89   14.29
  -3  -3   9  501.10   10.65
  -3  -3   9  489.93   14.67
  -3  -3   8  393.78   11.46
   3  -3  -8  402.53   12.62
  -3  -3   8  386.25    9.53
  -3  -3   8  388.55   12.68
  -3  -3   7  206.45    7.94
   3  -3  -7  238.02    9.39
  -3  -3   7  231.86    7.51
  -3  -3   7  233.38    9.38
  -3  -3   6   51.56    4.00
   3  -3  -6   49.04    3.90
  -3  -3   6   55.12    1.75
  -3  -3   6   56.93    3.92
   3  -3  -6   56.60    4.59
  -3  -3   6   52.95    4.47
   3  -3  -5  586.75   12.79
  -3  -3   5  568.13    5.04
   3  -3  -5  622.39   14.09
  -3  -3   5  612.51   12.65
  -3  -3   5  630.18   14.18
   3  -3  -4  958.06   15.85
   3  -3  -4  981.37   17.39
  -3  -3   4  964.28   16.04
  -3  -3   4  915.52    6.89
   3  -3  -3  206.19    7.21
   3  -3  -3  205.60    7.78
  -3  -3   3  189.56    7.32
  -3  -3   3  183.32    3.69
   3  -3  -2  207.36    7.07
  -3  -3   2  214.46    7.86
   3  -3  -2  210.05    7.78
  -3  -3   2  194.71    4.50
   3  -3  -1  488.21   10.69
  -3  -3   1  469.11    7.83
  -3  -3   1  479.97   11.98
   3  -3   0  642.14   12.31
   3  -3   0  652.10   14.26
  -3  -3   0  637.94   10.20
  -3  -3   0  658.44   14.31
   3  -3   1  671.01   12.74
   3  -3   1  703.00   14.91
  -3  -3  -1  662.90   11.43
  -3  -3  -1  688.22   14.95
   3  -3   2   93.86    4.98
   3  -3   2   92.28    5.72
  -3  -3  -2   91.80    3.27
  -3  -3  -2   94.61    4.76
  -3  -3  -2   84.61    5.41
   3  -3   3  814.78   14.95
   3  -3   3  802.14   16.52
  -3  -3  -3  787.33    8.26
  -3  -3  -3  789.82   14.53
  -3  -3  -3  850.52   17.04
   3  -3   3  792.03   12.62
   3  -3   4  481.81   11.98
   3  -3   4  481.57   13.04
  -3  -3  -4  470.64   11.98
   3  -3   4  454.93    9.98
  -3  -3  -4  486.86   13.18
   3  -3   5  452.16   12.09
   3  -3   5  428.94   12.49
  -3  -3  -5  421.43   12.01
  -3  -3  -5  442.93   12.82
   3  -3   5  420.83   10.10
   3  -3   6   44.73    4.21
   3  -3   6   35.96    3.99
  -3  -3  -6   45.53    4.47
   3  -3   6   47.32    3.45
   3  -3   6   38.09    3.38
  -3  -3  -6   44.67    4.44
   3  -3   7   93.79    6.22
   3  -3   7  105.55    6.62
  -3  -3  -7  104.55    6.77
  -3  -3  -7   84.39    6.04
   3  -3   7   97.44    5.31
   3  -3   8  527.96   15.05
   3  -3   8  524.31   14.86
  -3  -3  -8  566.31   16.41
  -3  -3  -8  570.63   15.41
   3  -3   8  540.28   13.15
   3  -3   9  322.31   12.42
  -3  -3  -9  331.30   13.01
  -3  -3  -9  326.90   11.94
   3  -3   9  321.31   10.81
   3  -3  10   44.76    5.04
  -3  -3 -10   46.47    5.49
  -3  -3 -10   43.24    4.68
   3  -3  10   45.42    4.44
   3  -3  11   60.59    6.22
  -3  -3 -11   63.94    6.63
  -3  -3 -11   64.47    5.73
   3  -3  11   61.17    5.41
   3  -3  12  266.99   12.83
  -3  -3 -12  253.85   13.07
  -3  -3 -12  244.27   11.01
   3  -3  12  230.78   10.83
   3  -3  13  190.78   11.28
  -3  -3 -13  165.22   11.01
  -3  -3 -13  177.82    9.58
   3  -3  13  167.51    9.73
   3  -3  14   17.06    3.71
  -3  -3 -14   25.74    4.84
   3  -3  14   20.78    4.21
  -3  -3 -14   18.36    4.30
  -3  -3 -14   13.13    2.97
   3  -3  15   65.81    7.29
  -3  -3 -15   86.31    8.63
   3  -3  15   81.05    7.57
   3  -3  16  142.12   10.86
  -3  -3 -16  153.34   11.56
   3  -3  16  149.86   10.36
   3  -3  17   46.30    6.09
  -3  -3 -17   56.04    7.38
   3  -3  17   62.58    7.79
   3  -3  18   12.55    4.42
   3  -2 -21    7.44    2.97
  -3  -2  20   34.30    6.03
   3  -2 -20   31.20    5.42
   3  -2 -19  109.19    9.55
  -3  -2  19  145.09   11.04
  -3  -2  18   45.75    6.15
   3  -2 -18   37.80    5.46
  -3  -2  17    7.02    2.99
   3  -2 -17    7.81    3.10
  -3  -2  16   11.94    3.49
  -3  -2  16   14.10    3.04
   3  -2 -16   14.48    3.38
  -3  -2  15  173.48    8.93
   3  -2 -15  170.10   10.07
  -3  -2  15  175.78   10.52
  -3  -2  14  484.59   14.34
   3  -2 -14  474.31   16.05
  -3  -2  14  456.92   16.03
  -3  -2  13   52.86    4.77
   3  -2 -13   44.51    4.92
  -3  -2  13   52.88    5.66
   3  -2 -13   52.80    4.45
   3  -2 -12  208.22    9.82
  -3  -2  12  227.69   10.31
   3  -2 -12  219.04    8.73
   3  -2 -11   75.71    5.73
  -3  -2  11   75.61    5.87
   3  -2 -11   75.23    4.98
   3  -2 -10  216.08    9.17
  -3  -2  10  230.26    6.81
  -3  -2  10  230.83    9.45
   3  -2 -10  221.07    8.32
  -3  -2   9  436.99   12.34
   3  -2  -9  413.17   12.00
  -3  -2   9  431.09    9.34
  -3  -2   8   19.03    2.81
   3  -2  -8   20.26    2.84
  -3  -2   8   16.38    2.00
  -3  -2   8   18.23    3.13
  -3  -2   7  548.95   12.50
  -3  -2   7  552.86   10.72
   3  -2  -7  568.39   12.87
  -3  -2   7  546.49   13.13
  -3  -2   6 1028.59   16.41
   3  -2  -6 1078.82   17.26
  -3  -2   6 1057.18   14.97
   3  -2  -6 1071.02   16.98
  -3  -2   6 1088.36   17.50
   3  -2  -5  124.91    5.71
  -3  -2   5  121.38    5.18
   3  -2  -5  137.76    5.99
  -3  -2   5  119.36    5.59
   3  -2  -4    6.18    1.58
   3  -2  -4    3.72    1.43
  -3  -2   4    6.18    1.73
  -3  -2   4    8.30    1.67
   3  -2  -3  258.92    7.56
   3  -2  -3  270.13    7.77
  -3  -2   3  261.77    7.74
   3  -2  -2 1944.67   20.08
  -3  -2   2 1976.76   21.47
   3  -2  -1  516.87   10.25
  -3  -2   1  530.37    5.60
  -3  -2   1  525.86   11.23
  -3  -2   1  514.93    6.83
   3  -2   0    6.37    1.41
  -3  -2   0    7.80    1.23
  -3  -2   0    7.71    1.94
   3  -2   1  272.63    7.69
   3  -2   1  297.11    8.43
  -3  -2  -1  294.04    8.73
  -3  -2  -1  274.03    6.72
   3  -2   2 1155.14   16.08
   3  -2   2 1186.18   17.03
  -3  -2  -2 1183.11   17.69
  -3  -2  -2 1156.82   15.20
   3  -2   2 1105.80   11.49
   3  -2   3  484.62   10.93
   3  -2   3  480.45   11.04
  -3  -2  -3  480.51   10.70
  -3  -2  -3  481.84   11.62
   3  -2   3  472.46    7.99
   3  -2   4   41.64    3.51
   3  -2   4   45.04    3.63
  -3  -2  -4   42.94    3.58
  -3  -2  -4   39.04    3.64
   3  -2   4   45.23    2.82
   3  -2   5  639.85   13.89
   3  -2   5  680.29   13.70
  -3  -2  -5  659.66   14.41
  -3  -2  -5  700.43   14.45
   3  -2   5  671.13   12.28
   3  -2   6  896.11   17.34
   3  -2   6  918.02   16.43
  -3  -2  -6  914.72   17.91
  -3  -2  -6  930.21   17.15
   3  -2   6  902.98   15.36
   3  -2   7  175.94    8.18
  -3  -2  -7  154.27    7.92
  -3  -2  -7  172.19    7.58
   3  -2   7  173.97    7.23
   3  -2   8    5.00    1.95
   3  -2   8    1.86    1.66
  -3  -2  -8    1.72    1.96
  -3  -2  -8    0.33    1.43
   3  -2   9  107.70    7.10
  -3  -2  -9  106.60    7.27
  -3  -2  -9  121.85    6.67
   3  -2   9  113.11    6.61
   3  -2  10  495.52   15.64
  -3  -2 -10  579.50   17.14
  -3  -2 -10  539.23   16.83
  -3  -2 -10  537.58   14.15
   3  -2  10  520.13   14.87
  -3  -2 -11  322.54   13.50
   3  -2  11  308.92   12.83
  -3  -2 -11  324.32   13.66
   3  -2  11  331.10   12.49
  -3  -2 -11  311.84   11.03
   3  -2  12    4.35    2.83
  -3  -2 -12    5.51    2.35
   3  -2  12    3.56    1.97
  -3  -2 -12    4.61    1.81
  -3  -2 -13   98.97    8.30
   3  -2  13   93.82    7.81
  -3  -2 -13  105.46    6.75
   3  -2  13   93.27    7.46
   3  -2  14   90.01    8.00
  -3  -2 -14   91.14    8.20
   3  -2  14   81.69    7.34
   3  -2  15   85.76    7.98
  -3  -2 -15   84.09    8.22
   3  -2  15   84.36    7.62
   3  -2  16   18.10    4.29
   3  -2  16   19.84    4.44
  -3  -2 -16   20.19    4.50
   3  -2  17   44.53    6.65
  -3  -2 -17   44.54    6.44
   3  -2  17   60.00    7.35
  -3  -2 -18   98.98    9.97
   3  -2  18   77.77    8.68
   3  -2  18   84.11    8.69
   3  -2  19   26.81    5.43
   3  -1 -21  173.69   12.61
   3  -1 -20  138.81   11.05
   3  -1 -20  147.65   11.07
  -3  -1  20  141.26   11.47
  -3  -1  19    8.48    3.69
   3  -1 -19    5.32    2.89
  -3  -1  18   31.63    5.54
   3  -1 -18   34.76    5.44
   3  -1 -17  143.64    9.82
  -3  -1  17  154.35   10.56
   3  -1 -16  209.32   11.24
  -3  -1  16  231.98   12.29
   3  -1 -15   73.56    6.47
   3  -1 -15   70.28    5.71
  -3  -1  15   87.47    7.59
  -3  -1  14   48.96    5.51
  -3  -1  14   46.66    4.09
   3  -1 -14   46.88    5.02
   3  -1 -14   47.96    4.56
  -3  -1  13  468.56   12.15
   3  -1 -13  476.11   14.68
  -3  -1  13  456.86   15.23
   3  -1 -13  451.44   13.32
  -3  -1  12  490.46   12.05
   3  -1 -12  480.34   13.89
  -3  -1  12  477.63   14.72
   3  -1 -12  484.30   13.38
   3  -1 -11   88.96    5.77
  -3  -1  11   82.25    5.99
   3  -1 -11   91.07    5.65
   3  -1 -10   66.47    4.73
   3  -1 -10   61.43    4.51
  -3  -1  10   76.90    5.70
  -3  -1   9 1044.66   14.92
   3  -1  -9 1061.31   17.46
  -3  -1   9 1038.38   18.80
   3  -1  -9 1030.78   17.52
  -3  -1   8 1287.69   19.84
  -3  -1   8 1304.20   16.45
   3  -1  -8 1328.00   18.43
   3  -1  -8 1341.58   19.42
  -3  -1   7  275.79    8.69
   3  -1  -7  270.83    7.89
  -3  -1   7  264.13    7.35
  -3  -1   6  184.50    6.79
   3  -1  -6  195.08    6.36
  -3  -1   6  195.27    6.28
   3  -1  -5 1201.98   16.62
   3  -1  -5 1188.74   14.77
  -3  -1   5 1164.62   15.18
  -3  -1   5 1203.73   15.84
   3  -1  -4  878.35   13.52
   3  -1  -4  858.19   12.05
  -3  -1   4  847.14   12.84
  -3  -1   4  849.81   12.29
   3  -1  -3  538.20   10.21
  -3  -1   3  557.41    6.62
  -3  -1   3  552.22   10.38
   3  -1  -3  542.60    9.26
  -3  -1   3  539.02    8.95
   3  -1  -2   22.40    2.27
  -3  -1   2   25.42    1.25
   3  -1  -2   30.22    1.42
  -3  -1   2   24.27    2.45
  -3  -1   2   20.90    1.83
   3  -1  -1 1029.44   13.42
  -3  -1   1  999.11    7.92
   3  -1  -1 1028.84    8.05
  -3  -1   1 1025.64   14.31
  -3  -1   1 1020.54    7.30
  -3  -1   0 1445.77   11.68
   3  -1   0 1501.71   16.19
  -3  -1   0 1505.61   10.03
  -3  -1   0 1399.10   16.85
   3  -1   0 1470.62   10.84
   3  -1   1  799.50   12.15
  -3  -1  -1  785.91   10.19
  -3  -1  -1  796.92   12.99
   3  -1   1  806.26    5.30
   3  -1   2   56.27    3.49
  -3  -1  -2   48.93    2.99
  -3  -1  -2   46.35    3.36
   3  -1   2   48.17    3.06
   3  -1   3 1070.82   15.36
  -3  -1  -3 1042.49   14.60
  -3  -1  -3 1064.63   15.40
   3  -1   3 1050.79   13.56
   3  -1   4 1318.77   18.08
  -3  -1  -4 1293.54   17.66
   3  -1   4 1312.13   15.57
  -3  -1  -4 1315.05   17.53
   3  -1   5  415.38   10.76
  -3  -1  -5  400.35   10.65
   3  -1   5  406.85    8.98
  -3  -1  -5  387.25    9.71
   3  -1   5  406.29   10.02
   3  -1   6   99.82    5.70
  -3  -1  -6  101.80    5.83
   3  -1   6  101.45    4.71
  -3  -1  -6   96.58    5.04
   3  -1   6   96.15    5.29
   3  -1   7  346.70   11.08
  -3  -1  -7  340.77   11.14
  -3  -1  -7  342.57    9.50
   3  -1   7  332.98   10.27
   3  -1   8  544.61   14.58
  -3  -1  -8  560.03   15.11
  -3  -1  -8  571.16   12.54
   3  -1   8  551.52   13.99
   3  -1   9  316.84   11.71
  -3  -1  -9  321.33   12.02
  -3  -1  -9  327.53    9.71
   3  -1   9  332.79   11.49
   3  -1  10    6.78    2.57
   3  -1  10    2.72    2.49
  -3  -1 -10    6.77    2.74
  -3  -1 -10    7.41    1.85
  -3  -1 -11  283.37   12.43
  -3  -1 -11  263.19    9.11
   3  -1  11  255.41   11.16
  -3  -1 -12  235.62   12.01
  -3  -1 -12  267.34    9.28
   3  -1  12  248.46   11.63
  -3  -1 -13  367.92   15.37
   3  -1  13  363.89   14.49
  -3  -1 -14   51.88    6.50
   3  -1  14   50.35    6.08
  -3  -1 -15  113.78    9.49
   3  -1  15  119.03    9.26
  -3  -1 -16  245.38   14.11
   3  -1  16  258.50   13.88
   3  -1  17  188.98   12.44
  -3  -1 -17  193.45   12.96
   3  -1  17  183.06   12.22
   3  -1  18   10.21    3.64
  -3  -1 -18    5.30    3.25
   3  -1  18    8.34    3.44
   3  -1  19   14.74    4.05
  -3  -1 -19   22.67    4.89
   3  -1  19   22.49    4.83
   3   0 -21   -0.02    2.29
  -3   0  20   46.43    6.74
   3   0 -20   46.71    6.42
   3   0 -19   48.54    6.32
  -3   0  19   54.60    7.21
   3   0 -18  199.14   11.98
  -3   0  18  186.16   12.07
  -3   0  17   22.98    4.49
   3   0 -17   23.46    4.24
   3   0 -17   27.98    4.08
  -3   0  16   61.11    6.61
   3   0 -16   60.63    5.93
   3   0 -16   62.45    6.01
   3   0 -15  379.27   13.90
   3   0 -15  383.13   13.83
  -3   0  15  367.45   14.90
   3   0 -14  225.43   10.21
   3   0 -14  211.59    9.99
  -3   0  14  217.27   11.11
   3   0 -13  102.97    6.67
  -3   0  13  103.95    7.54
   3   0 -13  101.38    6.72
  -3   0  12   18.18    3.47
  -3   0  12   19.11    2.16
   3   0 -12   18.50    2.85
   3   0 -12   16.76    3.00
  -3   0  11  491.30    9.85
   3   0 -11  497.76   12.75
  -3   0  11  458.96   13.83
   3   0 -11  465.73   13.32
   3   0 -10  911.01   16.13
   3   0 -10  884.82   17.59
  -3   0  10  897.59   18.19
   3   0  -9   87.77    4.71
  -3   0   9   87.08    5.68
   3   0  -9   90.20    5.48
  -3   0   8   31.76    3.41
   3   0  -8   28.92    2.62
   3   0  -8   30.00    3.16
  -3   0   7  242.08    8.01
   3   0  -7  241.77    6.57
   3   0  -7  237.54    8.19
  -3   0   6 1077.59   15.90
   3   0  -6 1085.52   12.65
  -3   0   6 1068.34   15.16
   3   0  -6 1100.05   16.83
  -3   0   5  372.67    8.88
   3   0  -5  380.69    8.96
  -3   0   5  376.76    8.82
   3   0  -5  385.94    6.88
   3   0  -5  387.07    9.63
   3   0  -4  232.85    6.61
   3   0  -4  227.18    4.89
  -3   0   4  229.10    6.83
  -3   0   4  223.51    5.76
   3   0  -3 1715.55   16.91
   3   0  -3 1635.82   14.83
   3   0  -3 1667.72   12.62
  -3   0   3 1671.16   18.08
  -3   0   3 1713.48   14.61
  -3   0   2 1333.31   12.09
   3   0  -2 1375.67   14.55
   3   0  -2 1336.40   12.86
  -3   0   2 1363.59   16.00
  -3   0   2 1333.23   12.24
  -3   0   1  165.83    4.41
   3   0  -1  168.77    5.05
   3   0  -1  160.88    4.48
  -3   0   1  168.87    5.70
  -3   0   1  167.21    4.29
  -3   0   0   28.28    2.11
   3   0   0   29.14    2.26
   3   0   0   28.91    2.09
  -3   0   0   31.30    2.70
  -3   0   0   28.63    1.94
   3   0   1  991.06   12.49
  -3   0  -1  947.78   11.93
   3   0   1  934.33   11.68
  -3   0  -1  973.03   13.31
  -3   0  -1  992.60   11.25
  -3   0  -2 1705.94   17.46
   3   0   2 1708.40   17.20
  -3   0  -2 1707.08   17.74
  -3   0  -2 1727.29   16.18
  -3   0  -3  357.61    8.74
   3   0   3  347.40    8.36
  -3   0  -3  353.42    8.20
   3   0   3  345.16    6.03
   3   0   4  202.45    6.84
  -3   0  -4  201.34    7.11
   3   0   4  200.53    4.73
  -3   0  -4  198.85    6.25
   3   0   5  247.59    8.09
  -3   0  -5  230.40    8.13
   3   0   5  235.63    5.43
  -3   0  -5  246.83    7.00
   3   0   5  247.29    8.20
   3   0   6  680.63   14.02
  -3   0  -6  700.46   15.08
   3   0   6  678.41    9.77
  -3   0  -6  677.12   11.70
   3   0   6  692.54   14.37
   3   0   7 1062.65   18.60
  -3   0  -7 1036.36   19.42
  -3   0  -7 1032.24   14.73
   3   0   7 1051.10   18.77
   3   0   8   27.53    3.60
  -3   0  -8   20.34    3.37
  -3   0  -8   27.24    2.68
  -3   0  -9  421.67   13.84
  -3   0  -9  421.50    9.81
   3   0   9  435.32   13.44
  -3   0 -10  533.67   16.27
  -3   0 -10  543.16   11.17
   3   0  10  502.31   15.32
  -3   0 -11   15.34    3.28
   3   0  11   14.67    3.12
   3   0  12   57.98    6.00
  -3   0 -12   55.08    5.88
  -3   0 -13    1.37    2.24
   3   0  13   -1.07    2.44
  -3   0 -14  349.61   15.59
   3   0  14  309.46   14.21
  -3   0 -15  102.29    8.90
   3   0  15   95.40    8.50
  -3   0 -16   -3.81    3.00
   3   0  16   -5.89    3.41
   3   0  17   45.19    6.43
  -3   0 -17   35.60    5.83
   3   0  18   58.69    7.51
  -3   0 -18   45.66    6.79
   3   0  19   66.77    8.22
  -3   0 -19   70.28    8.56
  -3   1  20  159.34   12.22
  -3   1  19    2.06    2.79
  -3   1  18   26.11    5.13
   3   1 -18   30.65    4.84
   3   1 -18   32.95    4.86
   3   1 -17  136.79    9.32
  -3   1  17  137.83   10.01
   3   1 -17  164.55   10.36
   3   1 -16  195.20   10.62
  -3   1  16  209.83   11.82
   3   1 -16  207.42   11.23
   3   1 -15   64.38    5.88
  -3   1  15   63.17    6.48
   3   1 -15   66.17    6.33
  -3   1  14   47.49    5.45
   3   1 -14   46.07    4.83
   3   1 -14   48.91    5.29
   3   1 -13  504.07   14.55
   3   1 -13  476.85   15.27
  -3   1  13  466.91   15.24
   3   1 -12  447.27   12.98
  -3   1  12  462.42   14.48
   3   1 -12  458.39   14.56
   3   1 -11   80.33    4.97
  -3   1  11   83.23    6.05
   3   1 -11   75.45    5.91
  -3   1  10   63.64    2.54
   3   1 -10   72.72    4.40
  -3   1  10   75.19    5.51
   3   1 -10   63.10    5.22
   3   1  -9 1090.50   15.30
  -3   1   9 1106.04   18.99
   3   1  -9 1099.59   20.00
   3   1  -8 1385.45   15.62
  -3   1   8 1381.21   20.11
   3   1  -8 1348.81   21.37
   3   1  -7  255.49    6.02
  -3   1   7  267.35    8.34
   3   1  -7  261.89    9.10
  -3   1   6  194.77    6.68
   3   1  -6  191.85    4.50
   3   1  -6  202.11    7.72
  -3   1   5 1179.42   15.16
  -3   1   5 1172.81   15.84
   3   1  -5 1157.23    8.98
   3   1  -5 1196.76   17.73
   3   1  -4  814.54   11.71
  -3   1   4  809.60   11.82
  -3   1   4  809.14   12.46
   3   1  -4  818.29   12.95
   3   1  -4  818.36    5.61
   3   1  -4  820.91   14.09
   3   1  -3  571.55    9.16
  -3   1   3  580.59   10.04
   3   1  -3  576.09   10.55
  -3   1   3  558.17   11.36
   3   1  -3  605.21   11.51
   3   1  -2   23.76    1.96
  -3   1   2   24.29    2.20
   3   1  -2   23.29    2.23
  -3   1   2   27.39    2.67
   3   1  -2   25.82    2.54
   3   1  -1 1049.51   11.30
  -3   1   1 1055.39   13.60
  -3   1   1 1047.21   14.74
   3   1  -1 1043.69   13.64
  -3   1   1 1055.87   13.09
  -3   1   0 1445.57   16.10
   3   1   0 1440.00   13.26
   3   1   0 1443.31   16.27
  -3   1   0 1482.91   16.95
  -3   1   0 1469.69   15.49
  -3   1  -1  775.68   12.34
   3   1   1  768.06   10.03
   3   1   1  771.88   12.30
  -3   1  -1  806.99   12.31
  -3   1  -1  802.18   11.81
  -3   1  -2   51.87    3.54
   3   1   2   53.68    2.93
   3   1   2   53.06    3.53
  -3   1  -2   55.83    3.33
  -3   1  -2   50.74    3.27
   3   1   2   52.98    2.71
  -3   1  -3  952.41   15.16
   3   1   3  992.80   13.20
   3   1   3  973.18   15.10
  -3   1  -3 1007.54   13.40
  -3   1  -3  971.37   14.41
   3   1   3  963.25   10.75
  -3   1  -4 1236.61   18.24
   3   1   4 1257.74   16.04
  -3   1  -4 1252.72   14.86
   3   1   4 1248.18   11.86
  -3   1  -4 1280.87   17.42
  -3   1  -5  449.95   11.67
   3   1   5  459.84   10.48
   3   1   5  419.55    6.85
  -3   1  -5  427.52    8.66
  -3   1  -6  107.88    6.16
   3   1   6   93.57    2.26
   3   1   6   96.00    3.33
  -3   1  -6   97.15    4.13
   3   1   6   90.84    5.58
  -3   1  -7  318.82   11.03
   3   1   7  315.42    6.15
  -3   1  -7  320.88    7.38
   3   1   7  327.70   11.02
  -3   1  -8  518.04   14.74
   3   1   8  514.82    8.14
  -3   1  -8  514.91    9.24
   3   1   8  541.98   14.74
  -3   1  -9  318.27   12.27
  -3   1  -9  321.34    7.31
   3   1   9  333.09   12.15
  -3   1 -10    6.28    2.67
   3   1  10    4.69    2.35
  -3   1 -11  250.48   11.76
   3   1  11  267.95   11.99
  -3   1 -12  264.51   12.62
   3   1  12  280.26   12.68
  -3   1 -13  331.81   14.69
   3   1  13  361.57   15.08
  -3   1 -14   49.51    6.14
   3   1  14   53.82    6.32
  -3   1 -15   96.34    8.73
   3   1  15  110.58    9.24
  -3   1 -16  251.89   14.24
   3   1  16  246.22   13.94
  -3   1 -17  185.30   12.67
   3   1  17  210.85   13.46
  -3   1 -18   10.02    3.33
   3   1  18    4.33    3.40
   3   1  19   11.50    3.64
  -3   1 -19   31.53    5.97
  -3   2  20   32.62    6.15
   3   2 -20   26.39    4.92
  -3   2  19  123.05   10.45
   3   2 -19  118.59    9.85
  -3   2  18   44.07    6.29
   3   2 -18   42.01    5.72
  -3   2  17    6.48    3.19
   3   2 -17    8.17    3.09
  -3   2  16   19.58    4.13
   3   2 -16   22.78    4.39
   3   2 -15  164.96    9.04
  -3   2  15  157.56    9.98
   3   2 -15  167.29   10.38
   3   2 -14  442.85   14.07
  -3   2  14  445.09   15.76
   3   2 -14  441.65   16.30
   3   2 -13   68.78    5.38
  -3   2  13   65.17    6.01
   3   2 -13   70.43    6.48
   3   2 -12  207.78    8.56
   3   2 -12  202.69   10.28
  -3   2  12  196.04    9.64
   3   2 -11   67.76    4.64
   3   2 -11   65.63    5.89
  -3   2  11   59.25    5.20
   3   2 -10  254.52    8.19
  -3   2  10  256.94    9.91
   3   2 -10  257.96   10.82
   3   2  -9  441.72    9.80
  -3   2   9  462.24   12.45
   3   2  -9  410.81   13.19
  -3   2   8   22.77    3.08
   3   2  -8   23.43    2.15
   3   2  -8   26.54    3.65
  -3   2   7  527.91   12.99
   3   2  -7  537.36    8.43
   3   2  -7  543.27   14.05
  -3   2   7  529.98   11.72
  -3   2   6 1051.15   17.21
   3   2  -6  993.80    9.41
  -3   2   6 1003.46   14.93
   3   2  -6 1045.07   18.72
  -3   2   5  123.83    5.77
   3   2  -5  124.34    2.40
  -3   2   5  122.38    4.87
   3   2  -5  128.11    6.35
  -3   2   4    2.98    1.00
  -3   2   4    3.45    1.49
   3   2  -4    7.61    1.86
   3   2  -4    6.08    1.80
  -3   2   3  273.80    6.16
  -3   2   3  277.77    8.01
   3   2  -3  293.32    8.59
   3   2  -3  285.01    8.61
   3   2  -2 1922.95   14.29
   3   2  -2 1990.75   22.48
  -3   2   2 2002.13   20.96
   3   2  -2 1991.23   22.02
   3   2  -2 1962.81   21.38
  -3   2   1  529.02   11.44
   3   2  -1  520.21    6.95
   3   2  -1  518.31   11.30
  -3   2   1  530.65   10.77
   3   2  -1  545.46   11.44
   3   2  -1  522.06   10.48
  -3   2   0    6.85    1.78
   3   2   0    7.20    1.01
   3   2   0    7.69    1.96
  -3   2   0    5.12    1.41
   3   2   0    8.31    2.06
   3   2   0    5.55    1.42
  -3   2  -1  277.94    8.45
   3   2   1  268.65    5.29
  -3   2  -1  285.95    8.11
   3   2   1  276.35    7.81
   3   2   1  276.06    8.36
   3   2   1  298.53    7.01
  -3   2  -2 1279.68   18.31
   3   2   2 1228.28   12.31
  -3   2  -2 1233.51   17.32
   3   2   2 1250.97   16.29
   3   2   2 1246.95   18.14
   3   2   2 1222.59   13.07
   3   2   3  486.86    8.68
  -3   2  -3  503.81   12.02
  -3   2  -3  520.12   11.55
   3   2   3  485.36   10.12
   3   2   3  505.36   11.92
   3   2   3  497.04    7.59
   3   2   4   41.57    2.89
  -3   2  -4   42.73    3.87
  -3   2  -4   47.94    3.90
   3   2   4   45.49    3.20
  -3   2  -4   43.37    2.55
   3   2   4   41.22    3.87
   3   2   4   41.03    1.96
  -3   2  -5  664.24   14.94
   3   2   5  681.09   12.17
   3   2   5  657.28   11.83
  -3   2  -5  657.29    9.17
  -3   2  -5  671.47   14.46
   3   2   5  663.62   15.08
   3   2   5  646.19    6.49
  -3   2  -6  930.98   10.43
   3   2   6  922.36   14.12
  -3   2  -6  946.59   18.70
   3   2   7  162.69    6.04
  -3   2  -7  184.92    8.78
   3   2   8    3.40    1.20
   3   2   8    1.85    1.96
  -3   2  -8   -0.09    2.20
   3   2   9  119.23    5.43
  -3   2  -9  112.09    7.41
   3   2   9  120.95    7.68
  -3   2 -10  501.81   16.30
   3   2  10  517.78   16.22
  -3   2 -11  293.17   12.95
   3   2  11  336.61   13.74
  -3   2 -12    0.32    2.09
   3   2  12    2.36    2.38
  -3   2 -13   85.34    7.71
   3   2  13   83.83    7.54
  -3   2 -14   77.28    7.69
   3   2  14   83.53    7.86
  -3   2 -15   89.12    8.47
   3   2  15   87.88    8.37
   3   2  16   19.27    4.52
  -3   2 -16   13.59    3.65
  -3   2 -17   47.79    6.69
   3   2  17   52.34    7.24
  -3   2 -18   83.19    8.99
   3   2  18   91.86    9.46
  -3   3  20   53.96    7.36
   3   3 -20   65.15    8.10
  -3   3  19   12.65    4.00
   3   3 -19   28.60    5.34
  -3   3  18   18.31    4.61
   3   3 -18   18.23    4.36
  -3   3  17  188.35   11.91
   3   3 -17  188.83   12.31
  -3   3  16  225.60   12.47
   3   3 -16  213.11   12.89
  -3   3  15   56.09    6.21
   3   3 -15   46.22    5.97
  -3   3  14   49.29    5.67
   3   3 -14   45.41    5.76
  -3   3  13  387.32   14.20
   3   3 -13  383.84   15.70
  -3   3  12  261.78   11.27
   3   3 -12  273.01   12.80
  -3   3  11  122.25    7.29
   3   3 -11  127.84    8.55
  -3   3  10   50.74    5.28
   3   3 -10   54.67    3.62
  -3   3  10   62.45    5.09
   3   3 -10   61.17    5.99
  -3   3   9  517.91   14.95
   3   3  -9  520.01   10.06
  -3   3   9  515.63   13.27
   3   3  -9  469.50   15.28
  -3   3   8  369.76   12.17
   3   3  -8  387.71    7.83
   3   3  -8  377.52   13.24
  -3   3   8  387.48   10.86
  -3   3   7  223.56    9.29
   3   3  -7  218.75    5.16
   3   3  -7  224.04    9.90
  -3   3   7  225.93    7.79
  -3   3   6   49.76    4.56
   3   3  -6   51.55    2.17
  -3   3   6   50.28    3.57
   3   3  -6   47.62    4.65
  -3   3   5  586.71   13.64
  -3   3   5  576.33    7.48
   3   3  -5  607.32   14.55
  -3   3   5  599.85   10.70
   3   3  -5  599.49   14.88
  -3   3   4 1024.18   17.64
   3   3  -4 1013.16   19.25
   3   3  -4 1051.77   18.51
  -3   3   4  995.07    7.04
  -3   3   4 1020.53   12.63
   3   3  -4 1071.21   19.07
   3   3  -3  197.33    8.29
  -3   3   3  184.37    7.54
   3   3  -3  193.44    7.91
  -3   3   3  189.27    4.87
   3   3  -3  189.43    7.74
   3   3  -2  204.34    8.37
  -3   3   2  208.86    7.74
   3   3  -2  204.81    8.04
   3   3  -2  207.68    7.76
  -3   3   2  211.69    4.53
  -3   3   1  458.50    5.85
   3   3  -1  458.52   12.32
  -3   3   1  458.87   11.44
   3   3  -1  472.16   11.97
   3   3  -1  448.07   10.77
  -3   3   0  609.21   14.16
   3   3   0  602.66    5.05
   3   3   0  619.27   14.02
  -3   3   0  617.15   13.14
   3   3   0  601.05   13.53
   3   3   0  619.06   11.92
   3   3   1  681.07    6.42
  -3   3  -1  707.03   14.98
  -3   3  -1  732.91   14.45
   3   3   1  697.13   14.74
   3   3   1  727.55   15.05
   3   3   1  679.15   11.72
  -3   3  -2   84.56    5.39
   3   3   2   86.13    2.81
  -3   3  -2   90.32    5.36
   3   3   2   86.49    5.26
   3   3   2  106.87    6.02
   3   3   2   84.95    3.89
   3   3   3  799.99   10.02
  -3   3  -3  822.20   16.84
  -3   3  -3  846.46   16.40
   3   3   3  818.54   15.85
  -3   3  -3  834.20   14.33
   3   3   3  834.77   16.82
   3   3   3  817.66   10.65
  -3   3  -4  454.69   12.97
   3   3   4  456.80    8.59
  -3   3  -4  446.24   12.24
   3   3   4  453.70   11.90
  -3   3  -4  469.37   10.53
   3   3   4  460.68   12.99
   3   3   4  442.44    6.54
  -3   3  -5  416.59   12.84
   3   3   5  400.62    8.96
   3   3   5  414.90   12.74
  -3   3  -5  436.64    9.96
  -3   3  -5  416.42   12.33
   3   3   5  408.84   11.32
  -3   3  -6   42.72    4.55
   3   3   6   43.62    4.55
  -3   3  -6   47.14    3.29
   3   3   6   44.28    3.92
  -3   3  -6   36.41    4.33
  -3   3  -7  100.05    6.84
   3   3   7   81.07    6.32
   3   3   7   86.44    5.44
  -3   3  -7   90.45    4.43
  -3   3  -8  533.79   16.14
   3   3   8  543.76   16.33
   3   3   8  565.16   13.80
  -3   3  -9  329.37   13.21
   3   3   9  327.33   13.20
   3   3   9  321.00   10.61
   3   3  10   39.84    3.88
   3   3  10   43.10    5.14
  -3   3 -10   42.30    5.10
  -3   3 -11   66.22    6.56
   3   3  11   68.25    6.61
  -3   3 -12  225.77   12.19
   3   3  12  239.40   12.36
  -3   3 -13  197.60   11.81
   3   3  13  184.39   11.22
   3   3  14   17.92    4.24
  -3   3 -14   11.83    3.87
  -3   3 -15   91.54    8.83
   3   3  15   79.00    8.21
  -3   3 -16  114.58   10.07
   3   3  16  131.53   10.61
   3   3  17   46.04    6.84
  -3   3 -17   53.24    7.18
   3   3  18   11.17    4.04
  -3   3 -18   12.51    4.02
  -3   4  19   24.00    5.01
   3   4 -19   16.98    4.12
  -3   4  18   63.42    8.12
  -3   4  18   65.83    7.66
   3   4 -18   88.35    9.45
  -3   4  17   33.77    6.12
  -3   4  17   29.42    5.28
   3   4 -17   25.60    5.18
  -3   4  16   43.78    6.65
  -3   4  16   40.24    5.71
   3   4 -16   50.91    6.90
  -3   4  15  110.19    9.49
   3   4 -15  113.92    9.64
  -3   4  15  101.24    8.24
  -3   4  14  176.10   11.34
   3   4 -14  172.81   11.65
  -3   4  14  168.40   10.07
  -3   4  13   32.16    5.18
  -3   4  13   37.76    4.81
   3   4 -13   24.29    4.63
  -3   4  12   23.60    4.77
  -3   4  12   19.96    3.51
   3   4 -12   21.27    4.17
  -3   4  11  249.09   12.07
  -3   4  11  263.99   10.90
   3   4 -11  238.69   12.56
  -3   4  10  370.93   14.00
  -3   4  10  428.24   13.03
   3   4 -10  408.15   15.77
  -3   4   9   28.34    4.41
  -3   4   9   31.08    3.54
   3   4  -9   23.30    4.08
  -3   4   8   67.92    5.94
  -3   4   8   71.18    4.79
   3   4  -8   81.48    6.87
  -3   4   7  268.62   10.89
  -3   4   7  276.08    8.54
   3   4  -7  258.96   11.64
  -3   4   6  431.78   13.26
  -3   4   6  451.40   10.02
   3   4  -6  445.35   14.64
   3   4  -5  417.02   14.00
  -3   4   5  385.93   12.26
   3   4  -5  388.62   12.70
  -3   4   5  398.50    8.48
   3   4  -5  404.17   13.49
  -3   4   4   37.45    4.31
   3   4  -4   43.24    4.80
   3   4  -4   41.27    4.40
   3   4  -4   42.77    4.51
  -3   4   4   38.16    2.41
   3   4  -3  474.94   14.57
  -3   4   3  459.89   12.85
   3   4  -3  456.46   13.36
   3   4  -3  476.18   13.51
  -3   4   3  459.47    6.46
   3   4  -2  412.28   13.48
  -3   4   2  430.36   12.24
   3   4  -2  434.38   12.86
   3   4  -2  426.75   12.31
   3   4  -1  291.78   11.17
  -3   4   1  302.02   10.27
   3   4  -1  297.59   10.59
   3   4  -1  290.68    9.71
   3   4   0   28.03    3.65
  -3   4   0   28.11    3.58
   3   4   0   20.99    3.10
   3   4   0   24.82    2.98
  -3   4  -1  127.12    7.40
  -3   4  -1  143.18    7.31
   3   4   1  139.48    7.87
   3   4   1  140.11    7.34
   3   4   1  148.45    6.25
  -3   4  -2  750.82   17.44
   3   4   2  766.45    9.97
  -3   4  -2  725.18   16.31
  -3   4  -2  754.03   16.41
   3   4   2  743.12   17.48
   3   4   2  756.98   17.12
   3   4   2  751.74   12.96
  -3   4  -3  109.75    6.94
  -3   4  -3  111.70    6.73
   3   4   3  117.47    4.43
   3   4   3  113.12    7.07
  -3   4  -3  111.79    6.34
   3   4   3  114.11    6.96
   3   4   3  111.91    4.54
  -3   4  -4   60.83    5.37
   3   4   4   51.92    4.89
   3   4   4   55.25    3.45
  -3   4  -4   57.37    5.12
   3   4   4   56.97    5.12
  -3   4  -4   60.99    4.67
  -3   4  -5  106.50    7.04
   3   4   5  101.29    6.94
  -3   4  -5   93.75    6.58
  -3   4  -5  113.42    6.16
   3   4   5  107.04    6.84
  -3   4  -6  287.90   11.75
   3   4   6  281.99   11.66
  -3   4  -6  300.92    9.88
  -3   4  -6  288.78   11.50
   3   4   6  300.99   11.49
  -3   4  -7  240.10   11.06
   3   4   7  238.35   11.10
  -3   4  -7  269.31    9.24
   3   4   7  254.98   10.64
  -3   4  -8   -1.79    2.17
   3   4   8    4.26    2.36
   3   4   8   -0.15    1.48
  -3   4  -9  180.10   10.25
   3   4   9  179.86   10.29
   3   4   9  179.06    9.17
  -3   4 -10  207.14   11.44
   3   4  10  232.12   12.16
   3   4  10  247.14   10.93
  -3   4 -11   61.77    6.63
   3   4  11   57.13    6.54
  -3   4 -12   16.43    3.91
   3   4  12   13.03    4.00
  -3   4 -13   17.35    3.84
   3   4  13   23.20    4.88
  -3   4 -14  161.17   11.54
   3   4  14  175.56   12.15
  -3   4 -15   91.72    9.08
   3   4  15   85.67    8.90
  -3   4 -16    2.64    2.62
   3   4  16    2.96    2.94
  -3   4 -17   13.56    4.29
   3   4  17   17.65    4.71
  -3   5  17   70.05    8.59
   3   5 -17   95.19   10.00
  -3   5  16   70.67    8.28
   3   5 -16   65.90    8.26
  -3   5  15   45.36    7.02
   3   5 -15   36.08    5.85
  -3   5  14   19.30    4.71
   3   5 -14   18.86    4.88
  -3   5  13  228.10   12.92
   3   5 -13  216.60   13.38
  -3   5  12  129.46    9.65
   3   5 -12  120.43    9.90
  -3   5  11   25.12    4.54
   3   5 -11   30.07    5.37
  -3   5  10   14.45    3.83
   3   5 -10   13.79    3.81
  -3   5   9   85.87    7.33
   3   5  -9   90.40    8.04
  -3   5   8  283.94   12.30
   3   5  -8  315.44   14.16
  -3   5   7  103.68    7.53
   3   5  -7  107.71    8.18
  -3   5   6   26.72    4.06
   3   5  -6   21.53    3.84
   3   5  -6   24.82    4.16
  -3   5   5  139.59    8.17
   3   5  -5  151.68    9.44
   3   5  -5  136.34    8.63
  -3   5   4  268.03   10.98
   3   5  -4  272.90   12.39
   3   5  -4  265.60   11.40
   3   5  -4  271.99   11.62
   3   5  -3  144.62    9.05
  -3   5   3  137.16    7.80
   3   5  -3  125.06    7.73
   3   5  -3  135.67    8.04
  -3   5   2    4.99    2.35
   3   5  -2    9.52    2.83
   3   5  -2    4.39    2.04
   3   5  -2    9.68    2.30
   3   5  -1  607.31   17.89
  -3   5   1  604.98   15.95
   3   5  -1  573.34   16.07
   3   5  -1  629.94   15.85
  -3   5   0  524.54   14.87
   3   5   0  495.34   16.14
   3   5   0  491.86   14.93
   3   5   0  523.28   13.77
  -3   5  -1   83.75    6.21
   3   5   1   82.33    6.80
  -3   5  -1   95.32    7.00
   3   5   1   81.12    6.20
   3   5   1   82.40    5.23
  -3   5  -2    0.51    1.83
  -3   5  -2    1.59    2.22
   3   5   2    6.20    2.55
  -3   5  -2   -0.62    1.80
   3   5   2    4.13    2.15
   3   5   2    0.46    1.00
  -3   5  -3  127.45    8.13
   3   5   3  119.07    7.67
  -3   5  -3  127.01    7.81
   3   5   3  124.05    8.30
  -3   5  -3  132.91    7.85
  -3   5  -4  339.98   13.21
   3   5   4  344.86   13.05
  -3   5  -4  371.60   13.24
   3   5   4  349.83   13.72
  -3   5  -4  352.46   12.59
  -3   5  -5  266.81   11.90
   3   5   5  291.55   12.25
  -3   5  -5  270.39   11.59
  -3   5  -5  307.90   11.68
   3   5   5  315.33   13.08
  -3   5  -6   16.04    3.45
   3   5   6   13.77    3.22
  -3   5  -6   19.45    4.08
  -3   5  -6   12.82    2.59
   3   5   6   16.31    3.42
  -3   5  -7  133.15    8.89
   3   5   7  139.56    9.07
  -3   5  -7  142.18    7.84
   3   5   7  139.61    9.01
  -3   5  -7  129.06    8.67
  -3   5  -8  192.65   10.85
   3   5   8  194.22   10.93
   3   5   8  184.80   10.35
  -3   5  -9  203.71   11.39
   3   5   9  188.26   11.14
   3   5   9  196.27   10.85
  -3   5 -10   11.26    3.40
   3   5  10   17.07    3.87
   3   5  10   18.52    3.74
  -3   5 -11  121.52    9.49
   3   5  11  120.40    9.56
  -3   5 -12  123.40    9.85
   3   5  12  104.98    9.25
  -3   5 -13   26.80    4.93
   3   5  13   28.15    5.32
  -3   5 -14    0.72    2.27
   3   5  14    5.83    3.14
  -3   5 -15    6.57    3.05
   3   5  15   12.85    4.19
  -3   5 -16   40.09    6.63
   3   5  16   34.30    6.09
  -3   6  15   33.31    6.13
   3   6 -15   25.37    5.41
  -3   6  14   60.78    7.77
   3   6 -14   77.44    8.99
  -3   6  13   18.92    4.88
   3   6 -13   19.48    4.85
  -3   6  12   20.95    5.10
   3   6 -12   24.31    5.09
  -3   6  11   68.14    7.39
   3   6 -11   69.98    8.01
  -3   6  10  138.38    9.92
   3   6 -10  111.62    9.72
  -3   6   9   28.29    4.95
   3   6  -9   28.95    5.25
  -3   6   8   18.10    4.01
   3   6  -8   14.88    3.62
  -3   6   7  147.18    9.46
   3   6  -7  160.29   10.68
   3   6  -6  217.05   12.39
  -3   6   6  233.62   11.45
   3   6  -6  201.70   11.66
   3   6  -5   63.51    6.89
  -3   6   5   72.66    6.63
   3   6  -5   73.43    7.02
  -3   6   4    6.11    2.77
   3   6  -4   16.11    3.81
   3   6  -4   19.82    3.78
   3   6  -4    7.21    2.65
   3   6  -3   59.61    6.44
  -3   6   3   64.92    6.18
   3   6  -3   63.40    6.18
   3   6  -3   60.56    6.01
   3   6  -2  348.45   15.20
  -3   6   2  339.12   13.08
   3   6  -2  344.76   13.66
   3   6  -2  346.98   13.44
  -3   6   1  119.66    7.95
   3   6  -1  119.79    9.06
  -3   6   1  127.23    9.18
   3   6  -1  118.47    8.04
   3   6  -1  129.90    7.94
  -3   6   0   18.75    3.72
   3   6   0   22.34    4.34
  -3   6   0   22.49    4.23
   3   6   0   23.90    3.88
   3   6   0   18.21    3.12
   3   6   1   87.02    7.00
   3   6   1   84.74    7.56
  -3   6  -1   85.27    7.31
  -3   6  -1   89.62    7.12
   3   6   2  192.65   10.33
   3   6   2  178.75   10.87
  -3   6  -2  184.44   10.52
  -3   6  -2  203.80   10.46
   3   6   3  119.37    8.21
  -3   6  -3  110.25    7.87
   3   6   3  113.18    8.87
  -3   6  -3  113.74    8.25
  -3   6  -4   10.64    3.03
   3   6   4   15.41    3.52
  -3   6  -4   19.79    4.12
   3   6   4   11.63    3.52
  -3   6  -4    9.77    2.83
  -3   6  -5  127.80    8.98
   3   6   5  142.42    9.31
  -3   6  -5  126.38    8.61
  -3   6  -5  147.09    9.16
   3   6   5  143.13    9.94
  -3   6  -6  209.56   11.60
   3   6   6  202.21   11.24
  -3   6  -6  195.96   10.45
  -3   6  -6  203.78   11.11
   3   6   6  197.51   11.70
  -3   6  -7   34.17    5.06
   3   6   7   41.58    5.47
  -3   6  -7   24.67    4.52
   3   6   7   35.51    5.24
  -3   6  -8    5.50    2.60
   3   6   8    4.87    2.55
   3   6   8    1.78    1.99
  -3   6  -9   94.62    8.45
   3   6   9   88.21    8.15
   3   6   9   95.52    8.49
  -3   6 -10  140.36   10.34
   3   6  10  113.78    9.52
   3   6  10  123.63    9.64
  -3   6 -11   48.98    6.56
   3   6  11   42.70    6.16
  -3   6 -12    5.47    2.77
   3   6  12    6.59    3.22
  -3   6 -13   21.83    4.90
   3   6  13   13.52    3.76
  -3   6 -14   55.19    7.35
   3   6  14   44.94    6.75
  -3   7  13   27.44    5.67
  -3   7  12   93.17    9.27
   3   7 -12   83.26    9.54
  -3   7  11   20.46    5.03
   3   7 -11   27.41    5.58
  -3   7  10    7.29    3.77
   3   7 -10    5.02    2.66
  -3   7   9  116.68    9.54
   3   7  -9  114.10   10.16
  -3   7   8   55.15    6.69
   3   7  -8   58.48    7.33
  -3   7   7   35.21    5.41
   3   7  -7   38.48    5.93
   3   7  -7   37.79    5.90
  -3   7   6    7.52    3.15
   3   7  -6    7.84    3.42
   3   7  -6    8.52    3.29
   3   7  -5  189.19   12.57
  -3   7   5  202.64   11.36
   3   7  -5  185.99   11.67
   3   7  -4  149.08   11.11
  -3   7   4  159.88   10.06
   3   7  -4  153.23   10.34
   3   7  -3   13.34    3.67
  -3   7   3   13.35    3.67
  -3   7   3   11.26    3.51
   3   7  -3   14.19    3.40
   3   7  -3   17.84    3.83
  -3   7   2   25.96    4.51
   3   7  -2   26.20    5.07
  -3   7   2   16.26    3.95
   3   7  -2   21.46    3.84
   3   7  -2   15.44    3.29
   3   7  -1   28.43    4.43
  -3   7   1   28.81    4.62
   3   7  -1   38.13    5.83
  -3   7   1   25.03    4.87
   3   7   0   80.32    7.19
   3   7   0   75.02    8.01
  -3   7   0   89.18    8.48
  -3   7   0   84.93    7.35
   3   7   1  109.29    8.51
  -3   7  -1  116.13    8.53
   3   7   1  123.68   10.14
  -3   7  -1  126.45    9.91
   3   7   2    6.38    2.58
  -3   7  -2    6.44    3.12
   3   7   2    2.57    2.58
  -3   7  -2   11.33    3.69
   3   7   3   78.06    7.31
  -3   7  -3   80.19    7.39
   3   7   3   90.55    8.69
  -3   7  -3   85.28    7.97
   3   7   4   74.05    7.25
  -3   7  -4   80.89    7.45
   3   7   4   77.14    8.03
  -3   7  -4   93.28    8.22
   3   7   5   18.30    3.81
  -3   7  -5   25.26    4.66
  -3   7  -5   25.22    4.56
   3   7   5   31.57    5.40
   3   7   6    0.79    1.63
  -3   7  -6    3.62    3.06
  -3   7  -6    1.50    1.66
   3   7   6    2.82    2.26
  -3   7  -7   18.42    4.19
   3   7   7   34.44    5.38
   3   7   7   33.66    5.75
  -3   7  -8  107.09    9.43
   3   7   8   99.28    8.86
   3   7   8  118.91   10.34
  -3   7  -9   20.44    4.50
   3   7   9   17.37    4.02
   3   7   9   23.28    4.97
  -3   7 -10    0.34    1.93
   3   7  10   -2.16    2.23
   3   7  10    2.80    2.68
  -3   7 -11    1.47    2.01
   3   7  11   13.44    3.83
  -3   7 -12   23.41    4.78
   3   7  12   29.11    5.40
  -3   8  10   43.63    6.44
  -3   8   9   28.01    5.40
   3   8  -9   22.87    5.05
  -3   8   8   10.50    3.72
   3   8  -8    8.79    3.65
  -3   8   7   26.40    5.16
  -3   8   7   25.71    5.82
   3   8  -7   32.55    5.78
   3   8  -6   77.06    8.80
  -3   8   6   65.63    7.25
  -3   8   6   78.28    9.24
   3   8  -6   71.55    8.13
   3   8  -5   15.00    4.50
  -3   8   5   11.12    3.79
  -3   8   5   13.39    4.31
   3   8  -5    5.55    2.41
   3   8  -4   21.03    4.81
  -3   8   4   12.05    4.16
  -3   8   4   14.36    3.97
  -3   8   3   30.72    5.22
   3   8  -3   24.25    5.17
  -3   8   3   27.10    5.56
  -3   8   2   63.23    6.89
   3   8  -2   50.17    7.13
  -3   8   2   52.40    7.37
   3   8  -2   52.81    6.46
  -3   8   1    3.72    3.27
   3   8  -1    6.69    3.34
  -3   8   1    6.42    3.55
   3   8  -1    0.01    1.67
  -3   8   0    5.32    2.60
   3   8   0   11.60    3.73
  -3   8   0    8.64    3.30
   3   8   0   10.27    3.09
   3   8   1   41.02    6.59
  -3   8  -1   33.59    5.27
  -3   8  -1   27.83    5.28
   3   8   1   31.89    5.12
  -3   8  -2   78.76    7.87
   3   8   2   97.78    9.77
  -3   8  -2   94.82    9.13
   3   8   2   81.47    7.88
  -3   8  -3   24.22    4.84
   3   8   3   30.63    5.84
  -3   8  -3   26.17    5.22
  -3   8  -4   -2.18    2.90
   3   8   4    1.33    3.27
  -3   8  -4    4.93    3.09
  -3   8  -5   24.35    5.07
  -3   8  -5   23.88    4.85
   3   8   5   32.83    6.11
  -3   8  -6   76.19    7.90
   3   8   6   78.60    8.97
   3   8   7   29.07    5.80
   3   8   8    7.39    3.21
  -4  -8   8   13.79    4.02
  -4  -8   7   40.94    5.96
   4  -8  -6   93.91    9.18
  -4  -8   6  101.33    9.70
   4  -8  -5   25.13    5.07
  -4  -8   5   20.70    4.85
   4  -8  -4   29.29    5.32
   4  -8  -3   81.51    8.32
  -4  -8   3   77.98    7.94
   4  -8  -2   52.36    6.58
  -4  -8   2   40.87    6.11
   4  -8  -1    6.17    3.00
  -4  -8   1    8.04    3.15
   4  -8   0   13.77    4.05
  -4  -8   0   12.38    4.14
   4  -8   1   73.55    7.64
  -4  -8  -1   66.39    7.82
   4  -8   2   13.19    3.58
  -4  -8  -2   13.74    4.24
   4  -8   3    4.61    2.95
  -4  -8  -3    6.03    3.26
   4  -8   4    8.49    3.16
  -4  -8  -4    4.75    2.91
   4  -8   5   51.82    6.72
   4  -8   6   52.48    6.85
   4  -8   7   -0.94    1.94
   4  -7 -11   21.54    4.67
  -4  -7  11   30.71    5.86
   4  -7 -10   30.34    5.59
  -4  -7  10   30.40    5.46
   4  -7  -9   37.22    5.81
  -4  -7   9   44.78    6.44
   4  -7  -8    9.67    2.82
  -4  -7   8   10.10    3.49
   4  -7  -7   16.56    4.34
  -4  -7   7   16.75    4.13
   4  -7  -6   20.63    4.08
  -4  -7   6   20.61    4.49
  -4  -7   5  177.99   10.73
   4  -7  -5  166.03   11.21
  -4  -7   4   11.37    2.94
   4  -7  -4   12.95    3.64
  -4  -7   4   20.71    4.08
   4  -7  -3   -0.48    2.02
  -4  -7   3   -0.73    1.94
   4  -7  -2   19.10    4.01
  -4  -7   2   11.58    3.15
   4  -7  -1  148.03   10.18
  -4  -7   1  138.27   10.05
  -4  -7   0   94.31    8.40
   4  -7   0   98.33    8.31
   4  -7   1    2.40    2.25
  -4  -7  -1    4.74    2.75
   4  -7   2   65.87    6.88
  -4  -7  -2   64.08    7.27
   4  -7   3   56.29    7.04
   4  -7   3   60.72    6.65
  -4  -7  -3   46.48    6.36
   4  -7   4   49.52    7.00
   4  -7   4   39.49    5.60
  -4  -7  -4   56.72    6.96
   4  -7   5   31.13    5.41
  -4  -7  -5   37.99    5.87
   4  -7   6   22.00    5.05
  -4  -7  -6   19.89    4.94
   4  -7   7  164.43   12.25
  -4  -7  -7  138.17   11.05
   4  -7   8   70.81    8.37
  -4  -7  -8   52.20    7.03
   4  -7   9   -4.44    3.31
  -4  -7  -9    7.61    3.57
  -4  -7 -11   36.09    6.13
  -4  -6  14   20.49    4.53
   4  -6 -14   20.19    4.78
  -4  -6  13   13.69    3.86
   4  -6 -13   10.65    3.51
  -4  -6  13   10.85    3.80
   4  -6 -12   43.71    6.40
  -4  -6  12   47.06    6.64
   4  -6 -11  116.63    9.77
  -4  -6  11  118.56    9.89
   4  -6 -10   71.82    7.39
  -4  -6  10   72.36    7.71
   4  -6  -9    0.05    2.16
  -4  -6   9    1.31    2.73
   4  -6  -8  100.99    8.53
  -4  -6   8   88.94    8.02
   4  -6  -7  211.94   11.94
  -4  -6   7  228.46   12.41
   4  -6  -6   74.10    7.12
  -4  -6   6   73.58    6.28
  -4  -6   6   72.93    7.08
   4  -6  -5   17.33    3.65
  -4  -6   5   28.35    4.11
   4  -6  -4   98.50    7.80
  -4  -6   4   98.56    7.47
   4  -6  -3  277.07   12.76
  -4  -6   3  279.64   12.67
  -4  -6   2  104.90    6.89
   4  -6  -2   95.37    7.57
  -4  -6   2  102.26    7.79
   4  -6  -1   -0.96    1.85
  -4  -6   1    2.15    2.18
   4  -6   0   72.73    6.64
  -4  -6   0   70.40    6.83
   4  -6   1  134.79    7.46
   4  -6   1  131.13    8.69
  -4  -6  -1  133.89    9.29
   4  -6   2  137.07    9.82
   4  -6   2  147.44    7.95
  -4  -6  -2  139.70    9.70
   4  -6   3   20.92    3.26
   4  -6   3   30.77    5.06
  -4  -6  -3   29.38    4.64
   4  -6   4   81.68    7.80
   4  -6   4   99.64    6.84
  -4  -6  -4   76.16    7.37
   4  -6   4   87.68    6.43
   4  -6   5  135.63    8.10
   4  -6   5  144.43   10.36
  -4  -6  -5  142.23    8.86
  -4  -6  -5  151.91   10.46
   4  -6   6   66.78    5.95
   4  -6   6   54.07    6.61
  -4  -6  -6   59.27    6.09
  -4  -6  -6   56.99    6.63
   4  -6   7   36.98    5.60
   4  -6   7   41.60    4.96
  -4  -6  -7   38.43    5.14
  -4  -6  -7   27.71    4.85
   4  -6   8   19.32    3.62
   4  -6   8   21.91    4.58
  -4  -6  -8   19.09    3.90
  -4  -6  -8   22.26    4.50
   4  -6   9  173.57   11.94
  -4  -6  -9  159.11   10.95
  -4  -6  -9  168.11   11.60
   4  -6  10   55.69    7.06
  -4  -6 -10   60.35    7.10
  -4  -6 -10   50.64    6.81
   4  -6  11    8.06    3.05
  -4  -6 -11    5.39    3.01
  -4  -6 -11    7.73    3.34
   4  -6  12    9.45    3.45
  -4  -6 -12   14.38    3.85
  -4  -6 -12   11.83    3.70
   4  -6  13   36.52    6.28
  -4  -6 -13   33.75    5.92
  -4  -6 -13   28.14    5.23
  -4  -5  17   69.38    7.72
  -4  -5  16   45.99    6.32
   4  -5 -16   48.37    6.93
  -4  -5  15    5.48    2.47
   4  -5 -15   11.31    4.02
  -4  -5  14   85.46    8.17
   4  -5 -14   97.73    8.99
   4  -5 -13   95.48    8.61
  -4  -5  13  110.78    8.20
  -4  -5  12   37.55    4.74
   4  -5 -12   30.21    4.90
  -4  -5  12   32.19    5.33
  -4  -5  11   18.95    3.27
   4  -5 -11   24.10    4.50
  -4  -5  11   20.79    4.29
   4  -5 -10   96.51    7.95
  -4  -5  10  115.24    8.86
  -4  -5  10  117.70    7.58
  -4  -5   9  383.85   13.10
   4  -5  -9  363.61   14.91
  -4  -5   9  347.73   14.68
  -4  -5   8  149.94    8.03
   4  -5  -8  135.91    8.98
  -4  -5   8  139.77    9.27
  -4  -5   7   18.59    2.89
   4  -5  -7   13.46    3.17
  -4  -5   7   11.82    3.20
  -4  -5   7   21.44    3.18
   4  -5  -6   97.27    6.47
  -4  -5   6  113.62    6.64
   4  -5  -6   89.13    7.03
  -4  -5   6  105.03    6.94
  -4  -5   6   99.31    7.48
   4  -5  -5  204.55    9.07
   4  -5  -5  209.07   10.48
  -4  -5   5  207.56    9.79
   4  -5  -4  222.55    9.36
  -4  -5   4  220.72   10.17
   4  -5  -4  223.78   10.72
   4  -5  -3   73.95    5.36
   4  -5  -3   78.17    6.39
  -4  -5   3   82.45    6.47
   4  -5  -2   83.79    5.63
   4  -5  -2   88.46    6.65
  -4  -5   2   88.98    6.67
   4  -5  -1  383.11   11.88
  -4  -5   1  383.49   13.97
   4  -5  -1  406.02   13.84
   4  -5   0  131.73    6.99
  -4  -5   0  133.77    6.31
  -4  -5   0  143.01    8.71
   4  -5   1   10.25    2.14
  -4  -5  -1   12.50    3.26
   4  -5   2   35.27    3.80
   4  -5   2   37.86    4.90
  -4  -5  -2   33.17    3.54
  -4  -5  -2   41.87    5.15
   4  -5   3  493.01   14.11
   4  -5   3  472.86   16.39
  -4  -5  -3  476.32   13.72
  -4  -5  -3  500.57   16.83
   4  -5   4   83.33    6.07
   4  -5   4   82.46    7.09
  -4  -5  -4   81.26    6.05
  -4  -5  -4   82.20    7.11
   4  -5   4   83.34    5.54
   4  -5   5   43.60    4.60
   4  -5   5   39.77    5.32
  -4  -5  -5   46.86    4.90
  -4  -5  -5   49.79    5.83
   4  -5   5   45.00    4.32
   4  -5   6   85.12    6.45
   4  -5   6   86.48    7.56
  -4  -5  -6   73.26    6.23
  -4  -5  -6   69.06    6.79
   4  -5   6   84.22    5.91
   4  -5   7   79.24    6.44
   4  -5   7   91.81    7.76
  -4  -5  -7   92.58    7.31
  -4  -5  -7   85.48    7.53
   4  -5   7   83.31    6.05
   4  -5   8  103.08    7.53
   4  -5   8   92.57    7.98
  -4  -5  -8   96.74    7.94
  -4  -5  -8   99.17    8.26
   4  -5   9   73.82    6.70
   4  -5   9   69.38    7.23
  -4  -5  -9   70.51    7.01
  -4  -5  -9   75.15    7.42
   4  -5  10   58.28    6.29
   4  -5  10   58.68    6.68
  -4  -5 -10   64.57    7.00
  -4  -5 -10   53.65    6.39
   4  -5  11  145.79   10.05
   4  -5  11  144.94   10.46
  -4  -5 -11  146.67   10.69
  -4  -5 -11  129.33    9.81
   4  -5  12   59.45    6.59
   4  -5  12   66.46    7.31
  -4  -5 -12   65.02    7.60
  -4  -5 -12   63.07    7.13
   4  -5  13   16.87    3.79
   4  -5  13   32.74    5.50
  -4  -5 -13   20.13    4.55
  -4  -5 -13   28.03    5.00
  -4  -5 -14    5.88    3.52
   4  -5  14    2.90    2.80
   4  -5  14    5.56    2.82
  -4  -5 -14    9.21    3.72
  -4  -5 -14    8.60    3.21
   4  -5  15   43.39    6.35
   4  -5  15   50.43    6.71
  -4  -5 -15   59.15    7.62
  -4  -5 -15   54.27    6.87
  -4  -4  19  118.16   10.30
  -4  -4  18   29.33    5.15
   4  -4 -18   28.29    5.38
  -4  -4  18   28.69    4.96
  -4  -4  17   28.25    5.14
  -4  -4  17   28.79    4.76
   4  -4 -17   27.37    5.17
  -4  -4  16  112.57    9.00
   4  -4 -16  107.53    9.33
  -4  -4  16  108.12    9.08
  -4  -4  15   60.32    6.47
   4  -4 -15   66.88    7.15
  -4  -4  15   72.41    7.17
   4  -4 -14  100.81    8.43
  -4  -4  14  104.66    8.17
  -4  -4  13   -1.34    2.19
   4  -4 -13    4.00    2.66
   4  -4 -12  160.73    9.98
  -4  -4  12  158.36    9.31
   4  -4 -11  246.84   11.96
  -4  -4  11  265.51   11.46
  -4  -4  11  242.82   12.29
  -4  -4  10   89.02    6.49
   4  -4 -10  100.49    7.49
  -4  -4  10   97.14    7.63
  -4  -4   9   11.98    2.48
   4  -4  -9    7.45    2.50
  -4  -4   9   10.89    2.99
  -4  -4   8   99.21    6.37
  -4  -4   8   97.61    5.93
   4  -4  -8   93.39    6.94
  -4  -4   8   96.30    7.09
   4  -4  -7  444.52   13.40
  -4  -4   7  435.52   12.71
   4  -4  -7  417.93   13.91
  -4  -4   7  422.28   12.35
  -4  -4   7  412.52   13.84
   4  -4  -6  288.04   10.51
  -4  -4   6  299.77   10.60
   4  -4  -6  296.01   11.57
  -4  -4   6  292.80   11.49
   4  -4  -5   32.70    3.63
   4  -4  -5   32.03    4.14
  -4  -4   5   30.43    3.84
  -4  -4   5   32.49    3.81
   4  -4  -4  389.65   11.67
   4  -4  -4  392.50   12.75
  -4  -4   4  398.33   12.48
   4  -4  -3  198.47    8.36
  -4  -4   3  210.85    9.19
   4  -4  -3  196.76    9.01
   4  -4  -2  183.62    7.81
   4  -4  -2  188.93    8.78
  -4  -4   2  179.66    8.68
   4  -4  -1  154.19    7.21
  -4  -4   1  148.66    5.31
  -4  -4   1  158.93    8.32
   4  -4   0  259.17    9.30
  -4  -4   0  269.21   10.81
  -4  -4   0  263.10    7.68
   4  -4   1  786.88   16.27
   4  -4   1  796.96   18.93
  -4  -4  -1  821.79   19.20
  -4  -4  -1  792.08   14.43
   4  -4   2  508.48   13.37
   4  -4   2  507.56   15.11
  -4  -4  -2  505.27   12.33
  -4  -4  -2  489.84   15.13
   4  -4   3  138.98    7.26
   4  -4   3  146.47    8.44
  -4  -4  -3  147.20    7.17
  -4  -4  -3  130.84    8.02
   4  -4   3  144.12    6.18
   4  -4   4   83.45    5.78
   4  -4   4   89.23    6.73
  -4  -4  -4   78.88    5.56
  -4  -4  -4   86.96    6.68
   4  -4   4   85.17    4.90
   4  -4   5  308.29   11.26
   4  -4   5  287.53   12.01
  -4  -4  -5  315.40   11.52
  -4  -4  -5  301.24   12.35
   4  -4   5  297.88    9.42
   4  -4   6  616.01   16.35
   4  -4   6  585.03   17.33
  -4  -4  -6  636.97   17.23
  -4  -4  -6  604.85   17.76
   4  -4   6  636.74   14.28
   4  -4   7   23.20    3.88
   4  -4   7   30.52    4.02
  -4  -4  -7   26.49    4.06
  -4  -4  -7   23.47    4.05
   4  -4   7   29.89    3.38
   4  -4   8   95.36    7.11
   4  -4   8   95.04    7.38
  -4  -4  -8  104.94    7.74
  -4  -4  -8   93.82    7.35
   4  -4   9  143.06    8.92
   4  -4   9  141.18    9.03
  -4  -4  -9  146.76    9.51
  -4  -4  -9  140.73    9.11
   4  -4  10  154.46    9.61
   4  -4  10  132.09    8.98
  -4  -4 -10  147.68    9.99
  -4  -4 -10  150.62    9.61
   4  -4  11   64.24    6.51
   4  -4  11   55.86    6.22
  -4  -4 -11   74.64    7.40
  -4  -4 -11   47.27    5.55
   4  -4  12   17.40    3.65
   4  -4  12   24.42    4.47
  -4  -4 -12   18.85    4.65
  -4  -4 -12   19.37    3.70
  -4  -4 -13  150.42   10.87
   4  -4  13  146.39   10.49
  -4  -4 -13  144.43   11.02
  -4  -4 -13  146.15    9.94
   4  -4  13  148.12   10.19
   4  -4  14  105.30    9.33
  -4  -4 -14   99.15    9.30
  -4  -4 -14   92.32    8.15
   4  -4  14   90.60    8.16
  -4  -4 -15   12.45    3.72
   4  -4  15    8.82    3.19
   4  -4  15   10.26    3.49
  -4  -4 -16   12.96    4.37
   4  -4  16   11.97    3.48
   4  -3 -20   33.00    5.70
  -4  -3  19   37.00    5.97
   4  -3 -19   31.43    5.58
   4  -3 -18   75.21    8.07
  -4  -3  18   85.38    8.50
  -4  -3  17   84.07    7.28
   4  -3 -17   86.68    8.38
  -4  -3  17  102.35    9.08
  -4  -3  16   27.41    4.94
   4  -3 -16   26.03    4.62
  -4  -3  16   21.80    3.89
  -4  -3  15   29.13    4.92
  -4  -3  15   26.84    4.13
   4  -3 -15   25.02    4.50
   4  -3 -14   60.72    6.16
  -4  -3  14   74.88    6.87
   4  -3 -13  361.37   14.24
  -4  -3  13  402.95   14.92
   4  -3 -12   91.38    7.10
  -4  -3  12  106.18    7.45
   4  -3 -12  109.79    6.80
  -4  -3  11   18.71    3.56
   4  -3 -11   15.12    3.22
  -4  -3  10  203.24    9.49
   4  -3 -10  193.66    9.56
  -4  -3  10  217.69    7.98
  -4  -3  10  188.16    9.72
  -4  -3   9  464.58   13.65
   4  -3  -9  450.31   13.95
  -4  -3   9  459.18   11.72
  -4  -3   9  483.91   14.89
  -4  -3   8  248.40    9.67
  -4  -3   8  243.55    8.62
   4  -3  -8  220.79    9.47
  -4  -3   8  238.47   10.15
  -4  -3   7   27.84    3.37
   4  -3  -7   22.77    3.21
   4  -3  -7   25.30    3.46
  -4  -3   7   27.35    3.61
  -4  -3   7   29.03    3.28
   4  -3  -6  280.90   10.05
  -4  -3   6  270.73    9.29
   4  -3  -6  268.71    9.88
  -4  -3   6  254.25    9.68
   4  -3  -5  749.52   15.72
   4  -3  -5  751.08   16.10
  -4  -3   5  751.79   15.54
  -4  -3   5  764.00   16.00
   4  -3  -4  390.97   11.15
  -4  -3   4  360.32   10.97
   4  -3  -4  399.40   11.54
   4  -3  -3    9.64    1.96
   4  -3  -3   10.41    2.24
  -4  -3   3    8.21    2.18
   4  -3  -2   92.20    5.34
  -4  -3   2   87.44    5.65
   4  -3  -1  488.73   11.96
  -4  -3   1  471.72    6.55
  -4  -3   1  484.09   13.17
  -4  -3   1  471.12    8.19
   4  -3   0  583.71   13.09
  -4  -3   0  556.66   10.14
  -4  -3   0  570.63   14.44
   4  -3   1  107.56    5.82
  -4  -3  -1  110.27    6.61
  -4  -3  -1  107.68    4.93
   4  -3   2  316.03   10.00
   4  -3   2  314.18   10.78
  -4  -3  -2  306.49    8.95
  -4  -3  -2  319.59   11.13
   4  -3   3  433.54   12.04
   4  -3   3  446.18   12.84
  -4  -3  -3  444.41   11.54
  -4  -3  -3  434.03   13.14
   4  -3   3  430.43    8.85
   4  -3   4  254.71    9.48
   4  -3   4  247.89    9.77
  -4  -3  -4  269.77   10.59
  -4  -3  -4  265.94    9.55
   4  -3   4  242.90    7.03
   4  -3   5   66.31    5.22
   4  -3   5   65.08    5.22
  -4  -3  -5   64.67    5.10
  -4  -3  -5   63.99    5.46
   4  -3   5   64.57    3.93
   4  -3   6  144.93    7.78
   4  -3   6  146.52    7.84
  -4  -3  -6  139.16    7.92
  -4  -3  -6  133.79    7.62
   4  -3   7  520.81   15.27
   4  -3   7  525.70   14.95
  -4  -3  -7  511.20   15.46
  -4  -3  -7  508.40   15.09
   4  -3   8  263.21   11.29
   4  -3   8  240.31   10.41
  -4  -3  -8  239.26   10.66
  -4  -3  -8  259.71   11.56
   4  -3   9    5.67    2.49
   4  -3   9    2.98    1.94
  -4  -3  -9    9.54    2.95
  -4  -3  -9    2.68    1.48
   4  -3  10   24.02    3.50
  -4  -3 -10   25.69    4.24
   4  -3  10   38.77    4.97
   4  -3  10   24.75    3.68
  -4  -3 -10   24.04    4.15
  -4  -3 -10   27.39    3.87
   4  -3  11  145.86    9.60
  -4  -3 -11  158.50    9.98
   4  -3  11  162.75    9.28
  -4  -3 -11  162.31    9.23
  -4  -3 -11  149.76   10.10
   4  -3  11  158.68    8.89
   4  -3  12  191.99   11.26
  -4  -3 -12  210.19   11.88
   4  -3  12  197.82   10.53
  -4  -3 -12  207.36   10.73
   4  -3  12  203.03   10.40
   4  -3  13   20.83    4.17
   4  -3  13   15.83    3.29
   4  -3  13   26.09    4.20
  -4  -3 -13   19.11    4.16
  -4  -3 -13   27.15    4.26
   4  -3  14   23.64    4.60
   4  -3  14   27.04    4.32
   4  -3  14   23.99    4.15
  -4  -3 -14   27.46    4.89
   4  -3  15  126.51   10.31
  -4  -3 -15  120.85   10.16
   4  -3  15  116.23    9.05
   4  -3  16   91.97    9.08
  -4  -3 -16  108.09    9.98
   4  -3  17   13.93    4.51
  -4  -3 -17    8.43    3.89
   4  -2 -20  153.12   11.46
  -4  -2  20  185.95   13.19
   4  -2 -19   83.67    8.24
  -4  -2  19   87.78    9.11
  -4  -2  18    9.72    3.37
   4  -2 -18    7.79    2.91
  -4  -2  17   13.19    3.89
   4  -2 -17    3.21    2.71
   4  -2 -16  136.37    9.42
  -4  -2  16  133.44    9.77
  -4  -2  15  434.41   14.07
   4  -2 -15  453.35   16.22
  -4  -2  15  427.40   16.33
   4  -2 -14  149.91    8.99
  -4  -2  14  163.72    9.81
   4  -2 -14  163.99    8.66
  -4  -2  13   32.81    4.65
   4  -2 -13   47.43    5.13
   4  -2 -13   39.11    4.26
   4  -2 -12  343.27   12.57
  -4  -2  12  362.05   13.42
   4  -2 -12  378.15   12.43
  -4  -2  11  306.81    9.19
   4  -2 -11  314.17   11.47
  -4  -2  11  295.59   11.63
   4  -2 -11  308.78   11.01
  -4  -2  10  483.97   14.22
   4  -2 -10  482.95   13.66
  -4  -2  10  474.53   11.48
   4  -2 -10  505.11   13.75
  -4  -2   9    4.75    2.02
   4  -2  -9    3.84    1.66
  -4  -2   9    2.95    1.55
  -4  -2   8  750.83   16.26
   4  -2  -8  766.72   15.86
  -4  -2   8  737.45   14.32
  -4  -2   8  745.05   16.47
   4  -2  -7  486.19   12.99
  -4  -2   7  495.76   12.83
   4  -2  -7  486.59   12.31
  -4  -2   7  486.45   11.65
  -4  -2   7  499.74   12.89
   4  -2  -6  277.66    9.53
  -4  -2   6  280.89    8.89
   4  -2  -6  271.19    8.90
  -4  -2   6  267.56    8.96
   4  -2  -5   25.67    3.05
   4  -2  -5   20.07    2.58
  -4  -2   5   24.95    2.88
  -4  -2   5   26.72    2.99
   4  -2  -4  307.04    9.30
  -4  -2   4  335.61    4.74
  -4  -2   4  333.19    9.78
   4  -2  -4  334.22    9.35
  -4  -2   4  332.14    9.03
   4  -2  -3 1388.07   19.26
  -4  -2   3 1361.70   19.85
   4  -2  -2  738.74   13.95
  -4  -2   2  734.95   14.77
   4  -2  -1   39.45    3.36
  -4  -2   1   37.32    1.68
  -4  -2   1   38.65    3.69
   4  -2   0  318.08    9.15
  -4  -2   0  315.31    6.14
   4  -2   0  311.47    4.65
  -4  -2   0  325.76   10.04
   4  -2   1  579.81   12.49
  -4  -2  -1  562.48    9.55
  -4  -2  -1  562.31   13.37
   4  -2   1  558.44    6.95
   4  -2   2  887.79   15.77
  -4  -2  -2  868.63   13.29
   4  -2   2  886.21   15.72
  -4  -2  -2  908.92   17.19
   4  -2   2  835.03    9.09
   4  -2   3  178.18    7.45
  -4  -2  -3  187.03    6.77
  -4  -2  -3  185.69    8.03
   4  -2   3  186.36    7.35
   4  -2   4  331.96   10.41
  -4  -2  -4  348.49    9.95
  -4  -2  -4  349.08   11.03
   4  -2   4  362.66   10.37
   4  -2   5  594.02   14.41
  -4  -2  -5  556.03   13.40
  -4  -2  -5  587.54   14.47
   4  -2   5  545.43   12.89
   4  -2   6  220.96    9.28
  -4  -2  -6  218.24    9.02
  -4  -2  -6  203.89    8.83
   4  -2   6  223.91    8.50
   4  -2   7  105.45    6.84
  -4  -2  -7  103.57    6.61
   4  -2   7  110.91    6.14
  -4  -2  -7   94.03    6.07
   4  -2   8   57.98    5.35
  -4  -2  -8   60.22    5.52
   4  -2   8   61.22    4.81
  -4  -2  -8   63.01    5.15
   4  -2   8   63.53    5.10
   4  -2   9  455.84   15.14
  -4  -2  -9  462.94   15.19
   4  -2   9  468.54   13.28
  -4  -2  -9  443.53   13.43
   4  -2   9  466.66   14.00
   4  -2  10  511.84   16.61
  -4  -2 -10  521.35   16.89
   4  -2  10  496.47   14.14
  -4  -2 -10  502.67   14.61
   4  -2  10  495.44   15.16
   4  -2  11   13.75    3.31
   4  -2  11   17.22    2.94
  -4  -2 -11   18.80    3.68
   4  -2  11   20.07    3.68
  -4  -2 -11   13.41    2.71
   4  -2  12   74.10    6.95
  -4  -2 -12   82.30    7.37
   4  -2  12   68.37    5.67
  -4  -2 -12   76.87    6.11
   4  -2  12   72.63    6.51
   4  -2  13   45.74    5.82
   4  -2  13   53.96    5.25
   4  -2  13   41.73    5.12
  -4  -2 -13   48.85    6.06
  -4  -2 -14  267.73   14.19
   4  -2  14  259.87   13.77
   4  -2  14  237.50   12.48
   4  -2  15  146.89   10.86
  -4  -2 -15  143.08   10.79
   4  -2  15  148.26   10.38
   4  -2  16   37.48    5.75
  -4  -2 -16   38.03    6.11
   4  -2  16   41.84    6.12
   4  -2  17  124.67   10.63
  -4  -2 -17  142.46   11.61
   4  -2  17  128.20   10.41
   4  -2  18   46.62    6.81
   4  -1 -21  115.47   10.35
  -4  -1  20   13.91    4.39
  -4  -1  19   12.89    4.14
   4  -1 -18  111.64    8.80
  -4  -1  18  113.18    9.58
   4  -1 -17  190.95   11.07
  -4  -1  17  204.13   12.28
   4  -1 -16  123.55    8.61
  -4  -1  16  126.05    9.47
   4  -1 -16  139.03    8.67
  -4  -1  15   -0.74    2.40
   4  -1 -15    1.23    1.70
   4  -1 -15    1.17    1.33
  -4  -1  14  208.99    8.49
   4  -1 -14  209.18   10.07
  -4  -1  14  201.52   10.79
   4  -1 -14  207.03    9.97
   4  -1 -13  353.99   12.40
   4  -1 -13  346.54   12.50
  -4  -1  13  353.96   13.64
   4  -1 -12  203.61    9.00
  -4  -1  12  192.17    9.74
   4  -1 -12  196.34    9.17
   4  -1 -11   52.81    4.47
  -4  -1  11   60.08    5.47
   4  -1 -11   60.85    5.05
  -4  -1  10  168.85    8.37
  -4  -1  10  169.42    7.01
   4  -1 -10  165.18    7.30
   4  -1 -10  160.83    7.87
  -4  -1   9  670.70   15.76
  -4  -1   9  652.03   13.54
   4  -1  -9  675.60   13.95
   4  -1  -9  652.89   15.32
  -4  -1   8  392.17   11.68
   4  -1  -8  402.51   10.28
  -4  -1   8  390.90   10.46
  -4  -1   7   41.01    3.75
   4  -1  -7   42.38    3.31
  -4  -1   7   41.74    3.57
   4  -1  -6  622.96   13.51
   4  -1  -6  636.40   11.77
  -4  -1   6  625.99   12.91
   4  -1  -5 1300.80   18.90
  -4  -1   5 1291.61   13.83
   4  -1  -5 1278.48   16.10
  -4  -1   5 1293.04   18.48
  -4  -1   5 1271.07   16.83
   4  -1  -4  388.21    9.93
  -4  -1   4  396.01    6.86
  -4  -1   4  376.68    9.99
   4  -1  -4  384.95    8.67
  -4  -1   4  376.83    8.52
   4  -1  -3   82.95    4.57
  -4  -1   3   89.62    3.02
  -4  -1   3   80.48    4.74
  -4  -1   3   87.86    3.83
  -4  -1   2  789.53    8.01
   4  -1  -2  816.75   13.71
  -4  -1   2  811.98    8.49
   4  -1  -2  783.09    8.88
  -4  -1   2  775.22   14.34
  -4  -1   2  770.18   10.40
  -4  -1   1 1170.37   11.08
   4  -1  -1 1170.63   16.34
   4  -1  -1 1179.83   11.17
  -4  -1   1 1170.72   17.56
  -4  -1   1 1187.02   10.36
   4  -1   0  304.48    8.39
  -4  -1   0  282.12    6.14
  -4  -1   0  312.34    5.74
   4  -1   0  290.36    5.97
  -4  -1   0  309.12    9.16
  -4  -1  -1    8.41    1.38
   4  -1   1    6.81    1.57
   4  -1   1    7.95    1.28
  -4  -1  -1   10.60    2.13
   4  -1   2  471.10   10.91
  -4  -1  -2  462.60    9.69
  -4  -1  -2  468.03   11.51
   4  -1   3 1111.58   17.26
  -4  -1  -3 1080.85   16.08
  -4  -1  -3 1078.78   17.58
   4  -1   3 1070.84   14.97
  -4  -1  -4  724.54   14.22
   4  -1   4  734.23   14.67
  -4  -1  -4  706.42   14.38
   4  -1   4  717.08   12.43
   4  -1   5   54.06    4.40
  -4  -1  -5   46.24    4.05
  -4  -1  -5   47.76    3.93
   4  -1   5   48.37    3.43
   4  -1   6   95.21    6.05
  -4  -1  -6   99.94    6.08
  -4  -1  -6   94.68    5.53
   4  -1   6   97.24    4.88
   4  -1   7  511.20   14.28
  -4  -1  -7  517.02   14.40
   4  -1   7  490.10   11.13
  -4  -1  -7  506.43   12.74
   4  -1   8  467.00   14.23
  -4  -1  -8  468.60   14.48
   4  -1   8  465.79   11.28
  -4  -1  -8  485.84   12.69
   4  -1   8  489.77   13.92
   4  -1   9  131.69    7.93
  -4  -1  -9  130.30    8.12
   4  -1   9  130.47    6.18
  -4  -1  -9  128.34    6.72
   4  -1   9  117.28    7.41
   4  -1  10   90.92    7.02
  -4  -1 -10   93.22    7.24
   4  -1  10   94.60    5.46
  -4  -1 -10  100.27    6.01
   4  -1  10   97.07    7.02
   4  -1  11  223.63   11.14
  -4  -1 -11  221.77   11.54
   4  -1  11  251.51    9.23
  -4  -1 -11  246.01    9.50
   4  -1  11  243.24   11.41
   4  -1  12   56.26    5.99
  -4  -1 -12   67.06    6.67
   4  -1  12   66.77    6.45
  -4  -1 -13   78.95    7.49
   4  -1  13   68.21    6.90
   4  -1  13   76.15    7.22
   4  -1  14   21.88    4.45
   4  -1  14   17.60    4.04
  -4  -1 -14   23.00    4.49
   4  -1  15   83.73    8.18
  -4  -1 -15   90.06    8.65
   4  -1  15   77.15    7.67
   4  -1  16  122.78   10.02
  -4  -1 -16  141.21   11.25
   4  -1  16  122.12    9.88
   4  -1  17   51.77    7.00
   4  -1  17   51.06    6.82
  -4  -1 -17   44.57    6.79
   4  -1  18   12.42    4.01
   4  -1  18   12.30    4.09
  -4  -1 -18   10.83    3.86
  -4   0  20   76.78    8.55
   4   0 -19  161.69   11.00
  -4   0  19  176.85   12.25
  -4   0  18   56.19    6.84
   4   0 -18   55.74    6.47
  -4   0  17   29.73    5.16
   4   0 -17   36.81    5.04
   4   0 -16  207.66   10.52
   4   0 -16  193.26   10.62
  -4   0  16  177.98   10.97
   4   0 -15  267.51   11.44
  -4   0  15  276.71   13.15
   4   0 -15  252.50   11.85
   4   0 -14   74.81    5.85
  -4   0  14   64.49    6.56
   4   0 -14   69.69    6.14
  -4   0  13    0.62    2.01
   4   0 -13   -0.13    1.62
   4   0 -13    2.95    1.90
   4   0 -12  722.30   15.92
  -4   0  12  734.46   18.59
   4   0 -12  758.35   18.52
   4   0 -11  808.90   15.84
  -4   0  11  777.25   18.23
   4   0 -11  790.48   18.42
  -4   0  10   18.08    3.18
   4   0 -10   17.96    2.38
   4   0 -10   18.39    2.96
  -4   0   9   30.94    3.74
   4   0  -9   30.81    2.80
   4   0  -9   37.25    4.03
  -4   0   8  195.05    8.13
  -4   0   8  198.08    7.73
   4   0  -8  193.81    6.31
   4   0  -8  206.08    8.66
  -4   0   7 1067.62   17.61
   4   0  -7 1037.78   13.50
  -4   0   7 1028.61   17.17
   4   0  -7 1066.01   18.80
  -4   0   6  766.99   14.39
   4   0  -6  730.20   14.11
  -4   0   6  781.97   12.90
  -4   0   6  747.22   14.44
   4   0  -6  753.52   10.75
   4   0  -6  767.60   15.63
   4   0  -5   33.09    3.06
  -4   0   5   32.53    2.58
   4   0  -5   30.80    2.12
  -4   0   5   27.08    2.88
   4   0  -4  774.99   13.31
   4   0  -4  749.54    9.81
   4   0  -4  741.92   11.59
  -4   0   4  751.20   14.15
  -4   0   4  778.26   11.43
   4   0  -3  278.25    7.76
   4   0  -3  277.13    6.88
  -4   0   3  278.46    8.57
  -4   0   3  286.04    6.62
  -4   0   2 1331.51   13.96
   4   0  -2 1300.95   16.39
   4   0  -2 1306.74   14.58
  -4   0   2 1341.59   18.58
  -4   0   2 1377.86   14.12
   4   0  -1 1022.55   14.37
  -4   0   1  992.07   12.42
   4   0  -1 1021.69   13.00
  -4   0   1 1041.89   16.20
  -4   0   1 1041.83   12.27
   4   0   0 1019.01   14.34
  -4   0   0 1013.78   13.25
  -4   0   0 1027.34   15.99
   4   0   0 1037.19   13.43
  -4   0   0 1031.28   12.52
   4   0   1 1280.73   16.32
  -4   0  -1 1251.28   15.64
  -4   0  -1 1261.23   17.80
   4   0   1 1230.70   15.31
  -4   0  -1 1256.30   14.45
  -4   0  -2  483.17   10.38
   4   0   2  498.69   10.61
  -4   0  -2  510.77   11.38
   4   0   2  484.53   10.15
  -4   0  -2  494.56    9.69
  -4   0  -3   93.66    4.98
   4   0   3  100.15    5.06
  -4   0  -3   91.10    4.93
   4   0   4  280.98    8.74
  -4   0  -4  264.98    8.80
  -4   0  -4  267.66    8.36
   4   0   5  245.67    8.80
  -4   0  -5  247.80    9.02
  -4   0  -5  250.91    8.15
   4   0   5  243.95    5.93
   4   0   6  704.26   15.29
  -4   0  -6  677.35   15.72
  -4   0  -6  630.97   12.97
   4   0   6  681.22   10.20
  -4   0  -7  144.05    7.81
   4   0   7  137.78    7.24
   4   0   7  149.70    5.00
  -4   0  -7  142.84    6.32
   4   0   8  364.50   12.13
  -4   0  -8  355.36   12.72
   4   0   8  372.90    8.30
  -4   0  -8  362.95   10.12
   4   0   8  364.74   12.38
   4   0   9  500.95   14.93
  -4   0  -9  511.80   16.03
   4   0   9  513.93   10.23
  -4   0  -9  497.97   11.99
   4   0   9  507.97   15.37
  -4   0 -10  639.87   18.50
   4   0  10  632.42   17.40
  -4   0 -10  626.91   13.56
   4   0  10  650.41   17.95
   4   0  11   90.09    7.06
  -4   0 -11  106.39    8.03
   4   0  11  102.99    7.77
  -4   0 -12  107.57    8.49
   4   0  12  101.05    7.76
   4   0  12  100.44    7.85
  -4   0 -13  356.78   15.79
   4   0  13  345.08   14.72
   4   0  13  377.89   15.69
  -4   0 -14  319.48   15.44
   4   0  14  297.81   14.20
   4   0  14  308.72   14.72
   4   0  15    1.63    2.12
   4   0  15    0.75    2.73
  -4   0 -15    6.78    3.16
   4   0  16    5.34    3.03
   4   0  16    0.98    2.63
  -4   0 -16    4.79    2.87
   4   0  17   43.21    6.37
   4   0  17   50.19    7.02
  -4   0 -17   47.30    6.91
   4   0  18  103.33    9.85
  -4   0 -18  121.92   11.12
   4   0  18  135.87   11.33
  -4   1  20   15.14    4.61
  -4   1  19   17.21    4.56
   4   1 -19   12.09    3.70
  -4   1  18  114.60    9.69
   4   1 -18  115.86    9.21
  -4   1  17  173.25   11.25
   4   1 -17  196.39   11.61
   4   1 -16  149.80    9.86
  -4   1  16  126.99    9.42
  -4   1  15    1.54    2.44
   4   1 -15    4.03    1.99
   4   1 -15    1.90    1.73
   4   1 -14  221.98    9.99
  -4   1  14  226.78   11.44
   4   1 -14  241.19   11.74
  -4   1  13  332.01   13.13
   4   1 -13  353.81   13.77
   4   1 -12  165.24    7.18
  -4   1  12  176.06    9.15
   4   1 -12  182.80    9.62
   4   1 -11   57.26    3.98
  -4   1  11   54.41    5.10
   4   1 -11   49.02    4.98
   4   1 -10  151.85    5.87
  -4   1  10  138.59    7.41
   4   1 -10  134.58    7.90
   4   1  -9  678.95   11.30
   4   1  -9  676.53   16.67
  -4   1   9  688.98   15.55
  -4   1   8  388.87   11.07
   4   1  -8  380.85    7.67
   4   1  -8  373.12   12.06
  -4   1   7   42.45    3.69
  -4   1   7   40.10    3.65
   4   1  -7   41.68    2.30
   4   1  -7   45.86    4.33
  -4   1   6  595.96   12.36
  -4   1   6  607.42   12.55
   4   1  -6  577.07    7.20
   4   1  -6  614.17   14.38
  -4   1   5 1215.23   16.83
   4   1  -5 1268.56   17.00
  -4   1   5 1229.43   16.99
   4   1  -5 1181.44   17.43
   4   1  -5 1181.97    8.81
   4   1  -5 1271.69   20.00
   4   1  -4  425.38    9.38
  -4   1   4  424.60    9.71
   4   1  -4  422.27   10.11
  -4   1   4  413.03   11.11
   4   1  -4  417.51    4.91
   4   1  -4  459.13   11.57
   4   1  -3   80.30    3.94
  -4   1   3   86.01    4.32
   4   1  -3   87.40    4.58
  -4   1   3   92.75    5.37
   4   1  -3   85.98    5.01
  -4   1   2  833.33   13.31
   4   1  -2  830.85   12.10
  -4   1   2  853.46   15.20
   4   1  -2  839.27   13.72
  -4   1   2  834.33   12.99
   4   1  -1 1207.33   14.37
  -4   1   1 1182.98   16.07
   4   1  -1 1194.59   16.37
  -4   1   1 1196.81   17.94
  -4   1   1 1220.13   15.59
   4   1   0  310.49    7.35
  -4   1   0  317.20    8.50
  -4   1   0  320.38    8.11
  -4   1   0  312.50    9.09
   4   1   0  316.05    8.51
  -4   1  -1    8.83    1.84
  -4   1  -1   10.44    1.81
   4   1   1    9.87    1.59
   4   1   1   12.20    2.00
  -4   1  -1   11.87    2.08
  -4   1  -2  481.40   11.27
   4   1   2  476.96    9.71
   4   1   2  475.06   11.08
  -4   1  -2  497.84   11.15
  -4   1  -2  479.04   10.63
  -4   1  -3 1147.27   18.18
   4   1   3 1127.91   15.69
   4   1   3 1111.93   17.74
  -4   1  -3 1171.20   16.98
  -4   1  -3 1137.86   16.93
   4   1   4  776.70   13.82
  -4   1  -4  733.86   15.21
   4   1   4  750.29   15.26
  -4   1  -4  748.32   13.56
  -4   1  -4  735.25   14.28
  -4   1  -4  721.41    5.65
   4   1   5   46.60    3.74
  -4   1  -5   50.28    4.45
  -4   1  -5   46.16    3.49
   4   1   6   96.16    5.60
  -4   1  -6   95.99    6.28
  -4   1  -6  100.04    4.97
   4   1   6   99.79    3.18
   4   1   7  461.30   12.68
  -4   1  -7  433.85   13.61
  -4   1  -7  448.14   10.40
   4   1   8  485.86   13.66
  -4   1  -8  470.26   14.89
  -4   1  -8  487.19   10.84
  -4   1  -9  126.11    8.16
   4   1   9  126.32    7.38
  -4   1  -9  128.81    5.54
  -4   1 -10   91.89    7.29
   4   1  10   85.75    6.44
   4   1  10   90.62    7.01
  -4   1 -11  249.99   12.32
   4   1  11  239.10   11.07
   4   1  11  247.22   12.05
   4   1  12   54.83    5.80
  -4   1 -12   52.88    6.03
   4   1  12   59.46    6.51
   4   1  13   54.98    5.96
  -4   1 -13   53.31    6.44
   4   1  13   49.02    6.16
   4   1  14   13.62    3.55
  -4   1 -14   16.26    4.24
   4   1  14   16.62    3.93
   4   1  15   84.03    7.92
   4   1  15   73.05    7.74
  -4   1 -15   72.97    7.91
  -4   1 -16  137.85   10.96
   4   1  16  121.35    9.72
   4   1  16  130.65   10.53
   4   1  17   38.26    6.04
   4   1  17   38.79    6.42
  -4   1 -17   36.97    6.04
   4   1  18   12.27    3.72
  -4   1 -18   -0.18    3.32
   4   1  18    6.97    3.13
  -4   2  20  157.61   12.10
   4   2 -20  144.07   11.34
  -4   2  19   84.03    8.54
   4   2 -19   83.64    8.52
  -4   2  18   11.75    3.91
   4   2 -18    5.26    2.72
  -4   2  17    6.86    3.00
   4   2 -17    6.22    2.40
  -4   2  16  133.32    9.66
   4   2 -16  144.10   10.24
  -4   2  15  416.47   15.95
   4   2 -15  394.61   16.16
   4   2 -14  157.75   10.12
  -4   2  14  136.16    8.96
  -4   2  13   43.01    5.20
   4   2 -13   40.93    5.18
  -4   2  12  378.17   13.50
   4   2 -12  367.45   14.29
  -4   2  11  297.31   11.41
   4   2 -11  314.43   12.88
  -4   2  10  500.89   14.87
   4   2 -10  492.78   10.45
  -4   2  10  509.68   13.99
   4   2 -10  481.42   15.55
  -4   2   9    5.49    2.34
  -4   2   9    4.33    1.79
   4   2  -9    5.45    1.18
   4   2  -9    8.08    2.50
  -4   2   8  774.08   16.75
   4   2  -8  750.99    9.97
   4   2  -8  766.47   18.19
  -4   2   8  718.54   15.04
  -4   2   7  498.27   12.92
   4   2  -7  493.01    6.43
  -4   2   7  496.44   11.76
   4   2  -7  492.01   14.14
  -4   2   6  278.30    9.34
  -4   2   6  269.48    8.20
   4   2  -6  286.39   10.58
  -4   2   5   23.57    2.50
  -4   2   5   25.12    3.09
   4   2  -5   24.89    3.05
   4   2  -5   20.09    2.95
  -4   2   4  319.37    7.91
  -4   2   4  337.42    9.77
   4   2  -4  351.94   10.35
   4   2  -4  347.42   10.69
   4   2  -3 1346.50   14.93
  -4   2   3 1384.18   19.26
   4   2  -3 1396.37   20.20
   4   2  -3 1385.02   20.51
   4   2  -2  724.23   10.45
  -4   2   2  746.39   13.90
   4   2  -2  769.16   14.77
   4   2  -2  745.43   14.47
  -4   2   1   37.55    3.48
   4   2  -1   40.12    2.45
  -4   2   1   39.80    3.41
   4   2  -1   38.61    3.48
   4   2  -1   36.76    3.20
  -4   2   0  308.83    9.55
   4   2   0  310.21    6.69
  -4   2   0  318.54    9.24
   4   2   0  324.96    9.75
   4   2   0  310.61    8.57
   4   2   1  533.84    9.03
  -4   2  -1  523.00   12.61
  -4   2  -1  518.75   11.96
   4   2   1  531.85   11.52
   4   2   1  524.61   12.62
   4   2   1  535.24   10.74
  -4   2  -2  886.03   16.77
   4   2   2  874.58   12.16
  -4   2  -2  889.42   15.90
   4   2   2  859.34   14.28
  -4   2  -2  894.79   15.62
   4   2   2  877.15   16.54
   4   2   2  874.50   13.04
  -4   2  -3  156.24    7.41
   4   2   3  166.41    5.69
  -4   2  -3  166.76    7.31
   4   2   3  171.85    6.30
  -4   2  -3  168.54    6.77
   4   2   3  173.00    7.77
   4   2   3  177.28    5.60
   4   2   4  335.56    8.63
  -4   2  -4  352.01   11.34
  -4   2  -4  344.71   10.64
   4   2   4  336.32    8.63
  -4   2  -4  326.72    6.81
   4   2   4  334.59   10.96
  -4   2  -4  335.46    9.33
   4   2   4  320.83    7.16
   4   2   5  547.01   11.85
  -4   2  -5  555.39   14.82
   4   2   5  531.91   10.71
  -4   2  -5  541.10    7.82
  -4   2  -5  532.23   13.72
  -4   2  -5  539.46   11.53
   4   2   5  529.18   14.48
   4   2   5  549.88    8.74
   4   2   6  231.43    8.25
  -4   2  -6  213.90    9.73
  -4   2  -6  229.50    7.43
   4   2   6  208.76    9.46
   4   2   6  218.86    6.84
   4   2   7   99.63    5.85
  -4   2  -7   97.35    6.92
  -4   2  -7   97.34    4.76
   4   2   7  104.09    7.13
   4   2   7  100.03    4.64
  -4   2  -8   59.91    5.75
   4   2   8   62.41    4.91
  -4   2  -9  432.18   15.25
   4   2   9  437.68   13.23
  -4   2 -10  477.90   16.71
   4   2  10  510.64   15.10
   4   2  11   18.17    3.34
  -4   2 -11   25.20    4.49
   4   2  12   76.67    6.60
  -4   2 -12   73.40    7.27
   4   2  13   49.45    5.78
   4   2  13   51.21    6.29
  -4   2 -13   59.59    6.86
   4   2  14  243.56   12.57
  -4   2 -14  234.55   13.58
   4   2  14  252.54   13.95
   4   2  15  138.09    9.87
  -4   2 -15  152.05   11.42
   4   2  15  148.83   11.24
   4   2  16   39.17    5.71
  -4   2 -16   27.39    5.12
   4   2  16   23.52    4.94
  -4   2 -17  109.46   10.34
   4   2  17  105.86    9.39
   4   2  17  124.32   10.92
   4   2  18   53.86    7.05
  -4   2 -18   57.00    7.93
   4   3 -20   27.40    5.32
  -4   3  19   25.67    5.24
   4   3 -19   30.95    5.75
  -4   3  18   80.20    8.26
   4   3 -18   82.43    8.87
   4   3 -17  106.71    9.60
  -4   3  17   93.13    8.50
  -4   3  16   24.52    4.65
   4   3 -16   26.63    5.16
  -4   3  15   26.25    5.04
  -4   3  15   33.83    5.10
   4   3 -15   22.53    4.51
  -4   3  14   71.29    7.31
  -4   3  14   60.27    6.23
   4   3 -14   74.56    7.55
  -4   3  13  382.82   15.37
  -4   3  13  423.12   14.95
   4   3 -13  398.39   16.37
  -4   3  12  109.64    8.24
   4   3 -12  106.27    8.36
  -4   3  12  108.51    7.43
  -4   3  11   18.67    3.92
  -4   3  11   11.22    2.60
   4   3 -11   19.08    3.63
  -4   3  10  208.99   10.28
   4   3 -10  215.90   11.00
  -4   3  10  220.89    9.40
  -4   3   9  434.07   13.97
  -4   3   9  440.28   12.54
   4   3  -9  452.15   15.54
  -4   3   8  239.89   10.20
  -4   3   8  246.10    8.83
   4   3  -8  225.90   10.77
  -4   3   7   22.15    3.61
  -4   3   7   26.60    2.90
   4   3  -7   32.06    4.30
  -4   3   6  285.78   10.45
  -4   3   6  291.23    8.49
   4   3  -6  295.25   11.39
  -4   3   5  748.23   16.40
   4   3  -5  712.11   16.75
  -4   3   5  765.08   12.70
   4   3  -5  784.47   17.90
  -4   3   4  401.43    8.58
  -4   3   4  407.39   11.81
   4   3  -4  410.79   12.41
   4   3  -4  428.39   12.70
  -4   3   3    8.65    1.38
  -4   3   3   12.56    2.69
   4   3  -3   12.71    2.76
   4   3  -3   12.85    2.51
  -4   3   2   93.67    3.63
   4   3  -2   95.12    6.12
  -4   3   2   85.92    5.57
   4   3  -2   98.87    6.12
   4   3  -2   94.42    5.60
  -4   3   1  581.27   14.51
   4   3  -1  533.89    7.56
   4   3  -1  549.55   14.06
  -4   3   1  537.65   13.27
   4   3  -1  548.00   13.88
   4   3  -1  544.07   12.70
  -4   3   0  622.70   14.98
   4   3   0  567.02    7.78
   4   3   0  594.51   14.29
  -4   3   0  586.31   13.93
   4   3   0  599.79   14.71
   4   3   0  585.56   12.53
   4   3   1   99.83    3.45
  -4   3  -1   93.70    6.26
  -4   3  -1  100.54    6.02
   4   3   1  102.31    2.04
   4   3   1   99.17    5.92
   4   3   1   97.93    6.15
   4   3   1   99.06    4.96
   4   3   2  318.16    6.60
  -4   3  -2  326.55   11.39
  -4   3  -2  337.42   10.94
   4   3   2  336.00   10.47
   4   3   2  318.85   11.17
   4   3   2  326.49    8.34
   4   3   3  432.06    8.37
  -4   3  -3  434.21   13.17
  -4   3  -3  417.60   12.50
   4   3   3  430.64   11.83
   4   3   3  429.18   13.03
   4   3   3  440.63    8.89
  -4   3  -4  248.50   10.40
   4   3   4  252.36    7.07
  -4   3  -4  242.69    9.73
   4   3   4  245.03    8.90
  -4   3  -4  259.82    7.84
   4   3   4  254.52   10.31
   4   3   4  246.88    5.99
   4   3   5   82.95    4.43
  -4   3  -5   69.67    5.83
   4   3   5   67.60    5.66
  -4   3  -5   72.66    5.96
   4   3   5   78.34    5.10
  -4   3  -5   69.36    3.95
   4   3   6  141.05    6.21
  -4   3  -6  126.17    7.97
   4   3   6  152.60    8.64
  -4   3  -6  143.59    5.37
   4   3   6  148.60    6.94
  -4   3  -6  140.93    8.11
   4   3   7  522.58   12.63
  -4   3  -7  499.61   16.08
   4   3   7  522.51   16.25
   4   3   7  517.72   12.91
  -4   3  -8  247.09   11.72
   4   3   8  250.37    9.33
   4   3   8  239.77   11.50
   4   3   8  230.13    8.67
  -4   3  -9   -0.54    1.97
   4   3   9    3.41    2.44
   4   3   9    3.97    1.52
  -4   3 -10   22.20    4.22
   4   3  10   23.50    4.33
   4   3  10   25.72    3.58
  -4   3 -11  123.66    9.24
   4   3  11  139.28    8.26
   4   3  11  143.70   10.10
  -4   3 -12  191.23   11.80
   4   3  12  194.58   10.24
   4   3  13   15.22    3.26
  -4   3 -13   11.86    3.66
   4   3  14   27.26    4.46
  -4   3 -14   29.38    5.39
  -4   3 -15  111.72   10.06
   4   3  15  101.07    8.44
  -4   3 -16   98.71    9.71
   4   3  16   91.16    8.34
   4   3  17   11.84    3.48
  -4   3 -17   10.64    4.07
   4   3  18   -0.40    1.94
  -4   4  19  111.40   10.02
  -4   4  18   23.53    5.18
  -4   4  18   19.12    4.31
   4   4 -18   23.47    5.17
  -4   4  17   31.97    6.33
  -4   4  17   29.74    5.08
   4   4 -17   32.09    5.78
  -4   4  16  128.18   10.69
  -4   4  16   97.83    8.48
   4   4 -16  105.13    9.86
  -4   4  15   79.19    8.24
  -4   4  15   57.16    6.34
   4   4 -15   69.38    8.00
  -4   4  14   90.60    8.48
  -4   4  14   95.72    7.70
   4   4 -14  106.72    9.36
  -4   4  13    3.36    3.22
  -4   4  13    2.65    2.23
   4   4 -13   -0.78    2.06
  -4   4  12  146.17    9.86
  -4   4  12  151.90    8.77
   4   4 -12  155.60   10.67
  -4   4  11  258.34   12.39
  -4   4  11  263.15   10.90
   4   4 -11  242.46   12.95
  -4   4  10  100.64    7.76
  -4   4  10  100.24    6.49
   4   4 -10   91.22    7.80
  -4   4   9   11.50    3.34
  -4   4   9   12.97    2.39
   4   4  -9    9.93    2.95
  -4   4   8  103.10    7.28
  -4   4   8  103.21    5.76
   4   4  -8  100.34    7.83
  -4   4   7  398.49   13.72
   4   4  -7  404.16   14.85
  -4   4   7  442.94   10.99
  -4   4   6  258.49   10.74
   4   4  -6  263.50   11.63
  -4   4   6  260.11    7.85
  -4   4   5   31.11    4.10
   4   4  -5   32.05    4.08
   4   4  -5   28.51    3.94
  -4   4   5   30.12    2.56
   4   4  -4  396.71   13.91
  -4   4   4  401.48   12.88
   4   4  -4  367.58   12.80
   4   4  -4  366.09   12.77
   4   4  -3  203.81   10.05
  -4   4   3  232.32    9.67
   4   4  -3  218.00    9.82
   4   4  -3  203.21    9.19
   4   4  -2  193.48    9.57
  -4   4   2  188.58    8.73
   4   4  -2  175.38    8.84
   4   4  -2  183.12    8.49
   4   4  -1  152.34    8.39
  -4   4   1  168.11    8.25
   4   4  -1  151.88    8.17
   4   4  -1  156.16    7.46
  -4   4   0  270.12   11.22
  -4   4   0  283.27   10.73
   4   4   0  273.36   11.03
   4   4   0  257.58   10.61
   4   4   0  275.99    9.41
  -4   4  -1  765.39   18.47
   4   4   1  762.72   18.18
  -4   4  -1  777.72   17.76
   4   4   1  725.23   17.70
   4   4   1  744.40   14.62
  -4   4  -2  527.69   15.49
  -4   4  -2  535.55   14.85
   4   4   2  522.98   15.09
   4   4   2  544.95   15.69
   4   4   2  541.86   11.57
  -4   4  -3  147.22    8.53
   4   4   3  151.23    8.41
  -4   4  -3  164.73    8.68
   4   4   3  172.87    8.63
  -4   4  -3  163.10    7.67
  -4   4  -4   93.68    6.91
   4   4   4   97.30    7.02
  -4   4  -4   83.00    6.35
   4   4   4   97.61    6.59
  -4   4  -4  101.90    5.96
  -4   4  -5  321.02   12.80
   4   4   5  315.58   12.68
  -4   4  -5  315.50   12.22
   4   4   5  321.79   11.76
  -4   4  -5  314.28   10.08
  -4   4  -6  605.95   18.11
   4   4   6  627.14   18.25
  -4   4  -6  623.74   13.81
  -4   4  -6  592.48   17.36
   4   4   6  623.77   16.46
  -4   4  -7   21.16    3.78
   4   4   7   16.29    3.51
  -4   4  -7   24.37    4.05
   4   4   7   22.24    3.44
  -4   4  -8   89.24    7.46
   4   4   8  104.36    8.26
   4   4   8  111.03    7.09
  -4   4  -9  148.62    9.90
   4   4   9  154.81   10.13
  -4   4 -10  160.01   10.58
   4   4  10  162.58   10.73
  -4   4 -11   54.02    6.56
   4   4  11   53.32    6.66
  -4   4 -12   13.65    3.41
   4   4  12   26.16    4.87
  -4   4 -13  127.48   10.43
   4   4  13  139.08   10.94
  -4   4 -14   93.99    9.20
   4   4  14  100.33    9.65
  -4   4 -15   10.33    4.00
   4   4  15   20.15    4.78
  -4   4 -16    5.42    3.13
   4   4  16   13.77    4.18
  -4   5  16   57.34    7.80
   4   5 -16   42.19    7.02
  -4   5  15    8.05    4.19
   4   5 -15    1.86    2.83
  -4   5  14   90.51    8.81
   4   5 -14   90.88    9.32
  -4   5  13   94.22    8.71
   4   5 -13  117.57   10.20
  -4   5  12   40.07    5.97
   4   5 -12   32.00    5.38
  -4   5  11   23.05    4.87
   4   5 -11   13.80    3.76
  -4   5  10  118.24    8.98
   4   5 -10  103.53    8.87
  -4   5   9  397.65   15.29
   4   5  -9  379.22   16.31
  -4   5   8  131.84    8.85
   4   5  -8  133.14    9.51
  -4   5   7   19.63    3.83
   4   5  -7   16.86    3.59
  -4   5   6  111.51    7.90
   4   5  -6  103.72    8.00
   4   5  -5  209.63   11.26
  -4   5   5  215.38   10.50
   4   5  -5  184.97   10.17
   4   5  -5  200.66   10.71
   4   5  -4  245.15   12.06
  -4   5   4  234.03   10.83
   4   5  -4  223.11   10.98
   4   5  -4  223.42   10.81
   4   5  -3   87.36    7.34
  -4   5   3   85.03    6.75
   4   5  -3   79.31    6.61
   4   5  -3   81.64    6.47
   4   5  -2   92.82    7.42
  -4   5   2   96.39    6.97
   4   5  -2   92.60    6.99
   4   5  -2   98.37    6.81
   4   5  -1  403.63   15.07
  -4   5   1  382.67   13.52
   4   5  -1  387.49   14.08
   4   5  -1  389.91   12.80
  -4   5   0  115.07    7.66
   4   5   0  103.04    7.72
   4   5   0  104.42    7.41
   4   5   0  118.26    6.76
  -4   5  -1   10.66    3.07
   4   5   1   16.04    3.62
   4   5   1    9.96    2.92
   4   5   1   12.98    2.38
  -4   5  -2   26.87    4.15
   4   5   2   27.58    4.03
  -4   5  -2   30.88    4.52
   4   5   2   31.66    4.54
  -4   5  -2   30.20    4.00
  -4   5  -3  483.76   16.28
   4   5   3  495.00   16.30
  -4   5  -3  507.45   15.97
   4   5   3  473.78   16.16
  -4   5  -3  513.59   15.41
  -4   5  -4   83.31    7.25
   4   5   4   99.60    7.54
  -4   5  -4  104.53    7.77
   4   5   4  104.56    7.64
  -4   5  -4   94.63    6.63
  -4   5  -5   34.45    4.75
   4   5   5   28.18    4.36
  -4   5  -5   38.94    5.22
   4   5   5   36.12    4.64
  -4   5  -5   35.53    4.15
  -4   5  -6   80.48    7.20
   4   5   6   86.78    7.40
  -4   5  -6   95.00    7.71
   4   5   6   93.52    7.40
  -4   5  -7   82.12    7.40
   4   5   7   79.51    7.26
   4   5   7   85.24    7.09
  -4   5  -7   85.59    7.59
  -4   5  -8   95.17    8.05
   4   5   8  105.93    8.58
   4   5   8  115.31    8.19
  -4   5  -9   78.91    7.67
   4   5   9   76.14    7.53
  -4   5 -10   60.04    6.90
   4   5  10   60.61    6.97
  -4   5 -11  138.64   10.66
   4   5  11  149.85   11.11
  -4   5 -12   45.70    6.46
   4   5  12   50.75    6.98
  -4   5 -13   14.44    4.24
   4   5  13   21.40    4.89
  -4   5 -14    1.52    2.72
   4   5  14    7.15    3.42
  -4   5 -15   53.79    7.56
   4   5  15   48.19    7.16
  -4   6  14   19.25    5.07
   4   6 -14   16.61    4.77
  -4   6  13   14.77    4.84
   4   6 -13   10.61    4.29
  -4   6  12   44.99    6.60
   4   6 -12   36.63    6.04
  -4   6  11  124.74    9.82
   4   6 -11  107.22    9.79
  -4   6  10   76.14    7.74
   4   6 -10   62.34    7.48
  -4   6   9    3.37    2.71
   4   6  -9    3.50    2.59
  -4   6   8  106.72    8.61
   4   6  -8  107.92    9.19
  -4   6   7  199.51   11.28
   4   6  -7  190.52   11.79
  -4   6   6   68.84    6.85
   4   6  -6   67.16    6.95
  -4   6   5   21.53    4.22
   4   6  -5   27.07    4.81
   4   6  -5   22.49    3.98
   4   6  -5   17.03    3.54
   4   6  -4  102.44    8.72
  -4   6   4  105.93    8.16
   4   6  -4   98.56    8.05
   4   6  -4   94.24    7.69
   4   6  -3  249.18   13.24
  -4   6   3  253.51   12.02
   4   6  -3  246.06   12.20
   4   6  -3  236.25   11.71
   4   6  -2   91.61    8.07
  -4   6   2  108.84    8.04
   4   6  -2   80.82    7.13
   4   6  -2  108.02    7.68
  -4   6   1    4.04    2.93
   4   6  -1    3.57    2.51
   4   6  -1    4.23    2.58
   4   6  -1   -0.39    1.45
   4   6   0   76.14    6.90
   4   6   0   87.83    7.85
  -4   6   0   73.94    6.80
  -4   6   0   65.11    6.61
   4   6   1  130.94    8.95
  -4   6  -1  137.51    9.10
   4   6   1  147.97   10.06
  -4   6  -1  144.28    9.62
   4   6   2  137.13    9.24
  -4   6  -2  140.21    9.25
   4   6   2  142.86    9.97
  -4   6  -2  137.12    9.18
   4   6   3   26.48    4.51
   4   6   3   16.78    3.71
  -4   6  -3   23.38    3.98
  -4   6  -3   23.74    4.47
  -4   6  -4   72.22    7.23
   4   6   4   82.06    7.40
  -4   6  -4   87.81    7.66
   4   6   4   98.84    8.39
  -4   6  -4   89.89    7.24
  -4   6  -5  126.02    9.46
   4   6   5  138.92    9.67
  -4   6  -5  134.00    9.50
   4   6   5  148.58   10.21
  -4   6  -5  132.58    8.63
  -4   6  -6   56.08    6.43
   4   6   6   50.05    6.09
   4   6   6   63.29    6.93
  -4   6  -6   54.07    6.56
  -4   6  -7   35.35    5.33
   4   6   7   23.74    4.51
  -4   6  -7   34.19    5.48
   4   6   7   36.14    5.44
  -4   6  -8   13.74    3.77
   4   6   8   19.46    4.09
   4   6   8   20.97    4.21
  -4   6  -9  152.14   11.09
   4   6   9  142.74   10.84
  -4   6 -10   56.26    7.12
   4   6  10   59.17    7.27
  -4   6 -11   12.55    4.02
   4   6  11   14.29    4.10
  -4   6 -12   14.06    4.28
   4   6  12    3.02    2.95
  -4   6 -13   22.96    5.03
   4   6  13   33.53    6.12
  -4   7  12   30.47    5.66
   4   7 -12   57.18    8.05
  -4   7  11   32.24    6.01
   4   7 -11   17.50    4.67
  -4   7  10   24.35    5.17
   4   7 -10   27.61    5.69
  -4   7   9   46.68    6.50
   4   7  -9   53.58    7.23
  -4   7   8   16.11    4.32
   4   7  -8   23.03    4.83
  -4   7   7   16.16    4.16
   4   7  -7   17.22    4.28
  -4   7   6   19.37    4.32
   4   7  -6   25.70    4.90
   4   7  -5  208.78   13.36
  -4   7   5  197.38   11.67
   4   7  -5  189.16   11.99
   4   7  -4   17.30    4.43
  -4   7   4   15.65    3.80
   4   7  -4   21.35    4.34
   4   7  -4   18.81    4.12
   4   7  -3    0.76    2.33
  -4   7   3    0.02    2.75
   4   7  -3   -0.42    2.01
   4   7  -3   -1.83    2.21
   4   7  -2   14.63    3.69
  -4   7   2   13.46    3.95
   4   7  -2   19.08    4.61
  -4   7   2   15.02    3.99
   4   7  -1  138.16    9.87
  -4   7   1  142.76    9.81
   4   7  -1  143.61   10.99
  -4   7   1  138.42   10.66
   4   7   0  102.36    8.49
  -4   7   0  113.98    8.91
   4   7   0   90.28    8.83
  -4   7   0   88.71    8.40
   4   7   1    0.49    2.10
  -4   7  -1    0.35    2.90
   4   7   1   -0.51    2.62
  -4   7  -1    5.80    3.00
   4   7   2   53.01    6.23
   4   7   2   53.86    6.84
  -4   7  -2   60.33    6.77
  -4   7  -2   58.80    6.74
   4   7   3   45.55    5.94
  -4   7  -3   38.35    5.57
   4   7   3   50.66    6.70
  -4   7  -3   47.96    6.04
   4   7   4   41.56    6.00
  -4   7  -4   49.20    6.27
   4   7   4   50.39    6.61
  -4   7  -4   51.96    6.34
   4   7   5   35.10    5.42
   4   7   5   39.31    6.19
  -4   7  -5   43.65    6.07
  -4   7  -6   17.39    4.33
   4   7   6   25.63    4.90
  -4   7  -6   17.78    4.38
   4   7   6   23.68    5.14
  -4   7  -7  133.96   10.88
   4   7   7  136.69   10.58
   4   7   7  143.79   11.11
  -4   7  -7  144.54   10.75
  -4   7  -8   53.97    7.09
   4   7   8   56.01    7.07
   4   7   8   50.57    6.84
  -4   7  -9   10.17    3.78
   4   7   9    2.67    2.48
  -4   7 -10    0.65    2.15
   4   7  10    0.63    1.97
  -4   7 -11   39.03    6.51
   4   7  11   37.81    6.21
  -4   8   8   25.72    5.08
   4   8  -8   19.26    4.46
  -4   8   7   48.19    6.70
   4   8  -7   44.04    6.79
  -4   8   6   92.21   10.17
  -4   8   6   73.25    7.97
   4   8  -6   69.78    8.04
   4   8  -5   20.95    4.87
  -4   8   5   13.56    4.44
  -4   8   5   28.14    5.80
  -4   8   4   29.16    5.35
   4   8  -4   30.00    5.99
  -4   8   4   29.82    5.94
   4   8  -3   94.19    9.89
  -4   8   3   77.83    9.00
  -4   8   3   87.27    8.38
  -4   8   2   53.25    6.91
   4   8  -2   52.17    7.44
  -4   8   2   41.41    6.66
   4   8  -2   44.82    6.21
  -4   8   1    5.48    3.43
   4   8  -1    7.96    3.73
  -4   8   1    1.27    2.59
   4   8  -1    0.99    2.31
  -4   8   0    9.56    3.62
   4   8   0   11.34    4.14
  -4   8   0   12.09    3.83
   4   8   0    2.49    2.31
   4   8   1   72.24    8.55
  -4   8  -1   69.36    7.64
  -4   8  -1   62.74    7.60
   4   8   1   58.19    7.09
  -4   8  -2   23.62    4.92
   4   8   2   10.95    3.80
  -4   8  -2   27.15    5.32
   4   8   2   17.54    4.33
  -4   8  -3    3.38    3.01
   4   8   3    7.70    2.96
  -4   8  -3    3.24    2.62
   4   8   3    3.10    2.20
   4   8   4   -1.06    3.01
  -4   8  -4    4.65    3.53
   4   8   4    6.99    3.30
  -4   8  -5   44.42    6.59
   4   8   5   54.20    7.55
   4   8   5   50.01    6.79
   4   8   6   58.43    7.96
  -4   8  -6   39.79    6.21
   4   8   6   48.64    6.76
   4   8   7    6.37    3.15
   5  -8  -3   48.38    6.60
  -5  -8   3   44.72    6.40
   5  -8  -2   11.46    3.60
  -5  -8   2   10.64    4.08
   5  -8  -1    2.79    2.17
  -5  -8   1    2.58    2.31
   5  -8   0   57.02    7.02
  -5  -8   0   59.43    7.52
   5  -8   1   70.51    7.99
  -5  -8  -1   51.03    7.13
   5  -8   2    1.42    2.50
  -5  -8  -2    7.47    3.17
   5  -8   3   13.67    4.12
   5  -7 -10  116.26   10.37
  -5  -7  10  125.95   10.71
   5  -7  -9   84.84    8.63
  -5  -7   9   98.94    9.48
   5  -7  -8   19.61    4.39
  -5  -7   8    3.51    2.68
   5  -7  -7   40.08    5.99
  -5  -7   7   53.10    6.95
   5  -7  -6  139.08   10.46
  -5  -7   6  126.74   10.25
   5  -7  -5   27.33    4.97
  -5  -7   5   19.35    4.31
  -5  -7   5   22.61    4.37
   5  -7  -4   14.96    4.17
  -5  -7   4    9.15    3.21
   5  -7  -3    1.24    2.22
  -5  -7   3    0.11    2.36
   5  -7  -2  116.04    9.40
  -5  -7   2  117.64    9.62
   5  -7  -1   88.71    8.20
  -5  -7   1   99.64    8.91
   5  -7   0    9.06    3.08
  -5  -7   0    8.71    3.32
   5  -7   1   28.18    4.75
  -5  -7  -1   21.80    4.41
   5  -7   2   98.61    8.72
  -5  -7  -2   94.97    8.95
   5  -7   3   49.90    6.36
  -5  -7  -3   50.51    6.73
  -5  -7  -4   62.35    7.49
   5  -7   5   28.63    5.49
  -5  -7  -5   27.88    5.50
   5  -7   6   73.94    8.58
  -5  -7  -6   73.81    8.41
   5  -7   7   34.32    6.01
  -5  -7  -7   26.71    5.57
   5  -7   8   17.76    5.01
   5  -6 -14   12.06    4.40
   5  -6 -13   28.85    5.58
  -5  -6  13   25.20    5.33
   5  -6 -12   96.31    9.36
  -5  -6  12  101.55    9.67
   5  -6 -11   50.43    6.71
  -5  -6  11   52.74    7.01
   5  -6 -10   -0.04    2.32
  -5  -6  10    1.49    2.43
   5  -6  -9   30.43    5.21
  -5  -6   9   35.69    5.69
   5  -6  -8  111.82    9.04
  -5  -6   8  105.08    8.71
   5  -6  -7   78.74    7.61
  -5  -6   7   71.80    7.19
   5  -6  -6   22.11    3.59
   5  -6  -6   20.45    4.13
  -5  -6   6   34.09    5.18
  -5  -6   6   18.00    3.59
   5  -6  -5   23.03    3.60
   5  -6  -5   19.99    4.11
  -5  -6   5    8.54    3.12
  -5  -6   5   10.51    2.86
   5  -6  -4  244.48   11.03
   5  -6  -4  245.13   12.55
  -5  -6   4  236.22   12.21
   5  -6  -3   81.38    6.37
  -5  -6   3   79.86    7.26
   5  -6  -3   81.58    7.44
   5  -6  -2   14.67    2.85
   5  -6  -2   10.75    3.00
  -5  -6   2   13.53    3.67
   5  -6  -1   34.70    4.23
   5  -6  -1   34.13    5.10
  -5  -6   1   35.42    5.12
   5  -6   0  108.93    7.27
   5  -6   0  107.89    8.22
  -5  -6   0   97.03    8.25
   5  -6   1  103.29    7.26
  -5  -6  -1  115.41    9.04
   5  -6   1  107.80    8.27
   5  -6   2   80.55    6.47
  -5  -6  -2   76.42    7.63
   5  -6   3   28.14    3.86
  -5  -6  -3   29.28    5.02
   5  -6   4  141.09    8.69
  -5  -6  -4  145.24   10.62
   5  -6   4  121.65    9.70
   5  -6   5   80.74    6.85
   5  -6   5   69.95    7.58
  -5  -6  -5   79.02    7.93
   5  -6   6   61.54    7.36
   5  -6   6   59.20    5.99
  -5  -6  -6   59.15    7.06
   5  -6   7   25.76    4.98
   5  -6   7   20.59    4.01
  -5  -6  -7   27.44    5.42
   5  -6   8  136.99    9.55
  -5  -6  -8  132.65   10.49
   5  -6   8  116.27    9.97
   5  -6   9   90.52    7.98
   5  -6   9   84.18    8.66
  -5  -6  -9  108.51    9.64
  -5  -6  -9   92.81    8.57
   5  -6  10   10.80    3.50
   5  -6  10   13.11    3.60
  -5  -6 -10   14.70    3.80
  -5  -6 -10   12.24    3.81
   5  -6  11    2.95    2.02
   5  -6  11    3.30    2.99
  -5  -6 -11   -1.90    2.32
  -5  -6 -11    0.16    2.77
   5  -6  12   41.67    6.05
   5  -6  12   42.47    6.52
  -5  -6 -12   35.11    6.06
  -5  -5  17   65.59    7.64
  -5  -5  16    2.11    2.37
   5  -5 -16    3.87    2.74
   5  -5 -15   82.41    8.52
  -5  -5  15   72.89    7.48
   5  -5 -14   80.85    8.26
  -5  -5  14   92.39    8.16
  -5  -5  13   58.88    6.33
   5  -5 -13   62.84    7.05
  -5  -5  12   37.70    5.21
   5  -5 -12   46.60    6.10
  -5  -5  12   46.56    6.45
  -5  -5  11   63.13    6.11
   5  -5 -11   46.95    5.90
  -5  -5  11   57.84    6.67
  -5  -5  10  196.42   10.36
   5  -5 -10  188.69   11.29
  -5  -5  10  212.85   12.11
  -5  -5   9   76.04    6.35
   5  -5  -9   65.04    6.53
  -5  -5   9   83.00    7.55
  -5  -5   8    7.71    2.59
   5  -5  -8    7.86    3.22
  -5  -5   8    7.16    2.90
  -5  -5   8    9.39    2.74
  -5  -5   7   39.01    4.37
   5  -5  -7   52.01    5.16
   5  -5  -7   43.52    5.35
  -5  -5   7   40.59    5.22
  -5  -5   7   43.85    4.98
   5  -5  -6  171.62    9.21
  -5  -5   6  172.31    9.46
   5  -5  -6  160.84    9.64
  -5  -5   6  164.19    9.75
   5  -5  -5  258.34   11.03
   5  -5  -5  260.98   12.09
  -5  -5   5  293.38   12.44
  -5  -5   5  265.90   11.96
   5  -5  -4   39.87    4.45
   5  -5  -4   41.13    4.91
  -5  -5   4   30.57    4.37
   5  -5  -3  156.35    8.37
   5  -5  -3  163.87    9.49
  -5  -5   3  167.63    9.66
   5  -5  -2  153.50    8.19
  -5  -5   2  156.98    9.40
   5  -5  -2  151.54    9.06
   5  -5  -1  184.91    9.02
  -5  -5   1  191.64   10.48
   5  -5  -1  180.03    9.77
   5  -5   0  102.26    6.89
  -5  -5   0  108.68    8.11
   5  -5   1    2.02    1.84
  -5  -5  -1    3.60    2.28
   5  -5   2  318.89   12.12
  -5  -5  -2  284.19   13.21
   5  -5   3  435.55   14.37
   5  -5   3  429.81   16.26
  -5  -5  -3  427.50   16.36
   5  -5   4   21.53    3.49
   5  -5   4   22.01    4.21
  -5  -5  -4   19.51    3.25
  -5  -5  -4   24.20    4.35
   5  -5   5   19.38    3.65
   5  -5   5   18.41    4.09
  -5  -5  -5   22.86    3.68
  -5  -5  -5   18.80    4.20
   5  -5   6   94.19    7.26
  -5  -5  -6  111.26    7.91
  -5  -5  -6   99.52    8.47
   5  -5   6   93.21    8.03
   5  -5   7  192.92   10.61
  -5  -5  -7  186.21   10.70
  -5  -5  -7  177.42   11.20
   5  -5   7  175.80   11.00
   5  -5   8   74.70    6.92
   5  -5   8   73.18    7.41
  -5  -5  -8   72.36    7.41
  -5  -5  -8   65.83    6.74
   5  -5   9   33.10    4.83
   5  -5   9   36.52    5.54
  -5  -5  -9   25.69    4.55
  -5  -5  -9   26.88    4.89
   5  -5  10  103.51    8.54
  -5  -5 -10  108.73    8.70
   5  -5  10  101.35    8.84
  -5  -5 -10   96.94    8.69
  -5  -5 -10  101.16    8.82
  -5  -5 -11   57.10    6.62
   5  -5  11   46.20    6.03
   5  -5  11   33.54    5.46
  -5  -5 -11   52.07    6.76
  -5  -5 -11   41.05    5.87
   5  -5  12   56.18    6.98
   5  -5  12   45.16    6.14
  -5  -5 -12   57.36    6.93
  -5  -5 -12   52.41    6.74
   5  -5  13    1.19    2.16
   5  -5  13    2.04    2.65
  -5  -5 -13   -1.82    2.54
  -5  -5 -13    0.47    2.05
   5  -5  14   68.83    7.88
  -5  -5 -14   55.47    7.30
   5  -5  14   76.43    8.45
  -5  -5 -14   67.46    7.64
  -5  -4  18   20.81    4.72
   5  -4 -18   12.57    3.76
  -5  -4  17   18.47    4.37
  -5  -4  17   17.92    3.94
   5  -4 -17   24.75    5.13
  -5  -4  16   72.00    7.30
   5  -4 -16   81.95    8.23
  -5  -4  16   90.28    8.49
   5  -4 -15  110.22    9.25
  -5  -4  15  116.96    9.18
  -5  -4  14    4.63    2.87
   5  -4 -14   11.76    3.52
   5  -4 -13  172.41   10.78
  -5  -4  13  165.91   10.30
   5  -4 -12  246.71   12.47
  -5  -4  12  258.65   12.26
  -5  -4  11   79.03    6.73
   5  -4 -11   75.84    6.83
  -5  -4  11   68.39    6.81
  -5  -4  10    8.55    2.59
   5  -4 -10   10.04    3.18
  -5  -4  10    9.14    3.12
  -5  -4   9   27.78    3.86
   5  -4  -9   31.86    4.49
  -5  -4   9   23.32    3.27
  -5  -4   9   23.31    4.09
  -5  -4   8  362.56   12.79
   5  -4  -8  345.48   12.92
  -5  -4   8  367.12   12.50
   5  -4  -8  351.74   13.51
  -5  -4   8  359.48   13.72
   5  -4  -7  498.98   15.15
  -5  -4   7  484.28   14.46
   5  -4  -7  475.54   15.22
  -5  -4   7  483.18   15.30
   5  -4  -6   21.26    3.39
   5  -4  -6   20.36    3.49
  -5  -4   6   22.53    3.64
  -5  -4   6   20.41    3.46
   5  -4  -5   83.19    6.10
   5  -4  -5   73.66    6.16
  -5  -4   5   70.85    5.91
  -5  -4   5   60.20    5.46
   5  -4  -4  318.98   11.40
  -5  -4   4  326.45   12.27
   5  -4  -4  313.02   11.84
   5  -4  -3  277.87   10.67
  -5  -4   3  291.99   11.79
   5  -4  -3  281.91   11.21
   5  -4  -2   36.18    4.01
   5  -4  -2   32.35    4.06
  -5  -4   2   34.69    4.32
   5  -4  -1  147.04    7.73
  -5  -4   1  133.02    8.16
   5  -4   0  433.48   13.16
  -5  -4   0  454.97   15.01
   5  -4   1   75.43    5.67
  -5  -4  -1   78.10    6.45
  -5  -4  -1   78.49    4.71
   5  -4   2    7.44    2.32
  -5  -4  -2    8.07    1.96
  -5  -4  -2    8.07    2.82
  -5  -4  -3   30.00    3.16
   5  -4   3   35.59    4.55
   5  -4   3   26.37    3.68
  -5  -4  -3   27.62    3.37
  -5  -4  -3   31.42    4.41
   5  -4   4  186.48    9.21
  -5  -4  -4  186.96    8.17
  -5  -4  -4  180.84   10.07
  -5  -4  -4  194.30    8.95
   5  -4   4  165.66    9.33
   5  -4   5  287.18   11.69
  -5  -4  -5  288.58   10.76
   5  -4   5  272.42   12.15
  -5  -4  -5  290.32   12.85
  -5  -4  -5  292.60   11.59
  -5  -4  -6   44.99    4.61
   5  -4   6   40.54    4.97
   5  -4   6   49.87    5.14
  -5  -4  -6   35.45    4.34
  -5  -4  -6   46.42    5.56
  -5  -4  -7   58.77    5.57
   5  -4   7   50.17    5.47
   5  -4   7   47.67    5.24
  -5  -4  -7   53.97    5.74
  -5  -4  -7   48.67    5.60
   5  -4   8   79.45    6.85
  -5  -4  -8   91.03    7.05
  -5  -4  -8   74.64    6.96
  -5  -4  -8   71.63    6.62
   5  -4   8   81.10    7.04
   5  -4   9  182.74   10.52
  -5  -4  -9  182.30   10.40
  -5  -4  -9  169.27   10.46
  -5  -4  -9  172.21   10.71
   5  -4   9  157.98    9.81
   5  -4  10  102.16    8.36
  -5  -4 -10  101.41    8.27
   5  -4  10   98.47    8.07
  -5  -4 -10   98.03    8.20
   5  -4  11   16.58    3.57
   5  -4  11   27.09    4.73
  -5  -4 -11   22.29    4.16
  -5  -4 -11   20.41    4.08
  -5  -4 -12  110.59    9.14
   5  -4  12  119.99    9.53
   5  -4  12  122.04    9.19
  -5  -4 -12  103.82    8.58
   5  -4  13   65.58    7.01
  -5  -4 -13   66.82    7.54
   5  -4  13   74.05    7.91
  -5  -4 -13   59.08    6.67
   5  -4  14   14.17    4.14
   5  -4  14   19.36    4.08
  -5  -4 -14   20.59    4.86
  -5  -4 -14   10.85    3.47
  -5  -4 -15    9.27    3.24
   5  -4  15   13.40    3.85
   5  -3 -20    8.99    3.45
   5  -3 -19  123.97   10.54
  -5  -3  19  145.95   11.49
   5  -3 -18   69.75    7.78
  -5  -3  18   92.87    9.09
   5  -3 -17   83.73    8.06
  -5  -3  17   88.31    8.59
  -5  -3  16    8.41    3.11
  -5  -3  16   12.70    3.01
   5  -3 -16   13.32    3.52
   5  -3 -15   66.72    6.90
  -5  -3  15   70.35    7.12
   5  -3 -14  227.89   11.83
  -5  -3  14  242.81   12.49
   5  -3 -13  246.24   11.90
  -5  -3  13  283.06   12.99
   5  -3 -13  273.59   11.70
  -5  -3  12   -0.61    1.94
   5  -3 -12    0.35    1.67
   5  -3 -12   -1.60    1.79
  -5  -3  11   96.83    7.23
   5  -3 -11   88.08    6.80
  -5  -3  10  216.64   10.35
   5  -3 -10  191.34    9.56
  -5  -3  10  199.06    8.61
  -5  -3  10  207.09   10.39
  -5  -3   9  312.13   11.85
   5  -3  -9  293.65   11.50
  -5  -3   9  317.94   10.93
  -5  -3   9  297.55   11.99
  -5  -3   8   53.33    4.99
   5  -3  -8   54.73    5.27
  -5  -3   8   52.48    4.62
   5  -3  -8   50.83    4.91
  -5  -3   8   48.84    4.86
   5  -3  -7  258.65   10.55
  -5  -3   7  246.06    9.77
   5  -3  -7  244.99   10.04
  -5  -3   7  246.49   10.15
   5  -3  -6  495.23   14.11
  -5  -3   6  508.65   14.02
   5  -3  -6  484.41   13.77
  -5  -3   6  500.32   13.77
   5  -3  -5  461.69   13.41
   5  -3  -5  474.05   13.39
  -5  -3   5  486.00   13.82
  -5  -3   5  475.31   12.98
   5  -3  -4   49.76    4.55
   5  -3  -4   60.65    4.92
  -5  -3   4   54.99    4.89
  -5  -3   4   61.14    4.69
   5  -3  -3  216.44    8.98
  -5  -3   3  248.69   10.20
   5  -3  -3  226.23    9.06
   5  -3  -2  514.65   13.62
  -5  -3   2  493.66   14.35
   5  -3  -1  986.96   18.70
  -5  -3   1  997.58   20.42
   5  -3   0  146.96    7.28
  -5  -3   0  125.57    4.24
  -5  -3   0  138.16    7.90
   5  -3   1  249.14    9.68
  -5  -3  -1  248.72    6.92
  -5  -3  -1  240.33   10.34
   5  -3   2  400.99   12.29
  -5  -3  -2  399.01    9.74
  -5  -3  -2  391.25   13.20
   5  -3   2  376.88    7.43
   5  -3   3  388.67   12.44
  -5  -3  -3  413.57   10.84
  -5  -3  -3  408.15   13.74
   5  -3   3  412.14   13.00
   5  -3   4  165.42    8.30
  -5  -3  -4  153.32    7.14
   5  -3   4  154.50    8.23
  -5  -3  -4  157.40    8.70
   5  -3   5   41.33    4.49
   5  -3   5   40.68    4.46
  -5  -3  -5   48.98    4.38
  -5  -3  -5   43.84    4.88
   5  -3   6  342.14   12.70
  -5  -3  -6  356.90   12.19
  -5  -3  -6  335.13   13.05
   5  -3   6  343.28   12.34
   5  -3   7  438.26   14.75
  -5  -3  -7  432.00   14.06
  -5  -3  -7  407.28   14.39
   5  -3   7  432.73   14.11
   5  -3   8  110.93    7.82
  -5  -3  -8  114.61    7.73
   5  -3   8  105.82    7.24
  -5  -3  -8  113.19    7.91
   5  -3   9   14.31    3.37
   5  -3   9   10.58    2.93
  -5  -3  -9   18.82    3.64
  -5  -3  -9    8.36    2.73
   5  -3  10  112.61    8.49
  -5  -3 -10  125.38    8.71
  -5  -3 -10  126.36    8.62
   5  -3  10  117.55    7.91
   5  -3  11  381.13   15.81
  -5  -3 -11  369.18   15.56
   5  -3  11  366.13   14.16
  -5  -3 -11  395.68   15.15
   5  -3  12   25.74    4.78
   5  -3  12   25.55    4.13
  -5  -3 -12   23.65    4.49
  -5  -3 -12   25.10    4.06
   5  -3  13   33.41    5.30
  -5  -3 -13   40.44    5.99
  -5  -3 -13   29.63    4.58
  -5  -3 -14   22.51    4.67
   5  -3  14   22.67    5.07
   5  -3  15  129.12   10.64
  -5  -3 -15  114.73   10.15
  -5  -3 -16   40.18    6.49
   5  -3  16   39.81    6.50
  -5  -2  19   44.03    6.47
  -5  -2  18    1.24    2.43
   5  -2 -18    3.78    2.58
  -5  -2  17   70.36    7.64
   5  -2 -17   73.06    7.29
   5  -2 -16  210.52   11.63
  -5  -2  16  211.44   12.35
  -5  -2  15   55.75    6.43
   5  -2 -15   51.80    5.67
   5  -2 -15   55.96    5.73
  -5  -2  14   12.70    3.62
   5  -2 -14   12.17    2.91
   5  -2 -14   19.13    3.35
   5  -2 -13   76.49    6.37
  -5  -2  13   97.70    7.63
   5  -2 -13   85.25    6.68
   5  -2 -12  300.48   11.72
  -5  -2  12  296.88   12.59
   5  -2 -12  308.91   12.22
  -5  -2  11  329.59   12.91
   5  -2 -11  329.32   11.86
  -5  -2  11  344.93   11.11
   5  -2 -11  331.49   12.37
  -5  -2  10   20.53    3.82
   5  -2 -10   23.86    3.31
  -5  -2  10   25.44    3.18
  -5  -2   9  352.68   12.28
  -5  -2   9  363.94   11.39
   5  -2  -9  358.23   11.54
  -5  -2   8  334.96   11.64
   5  -2  -8  339.54   11.98
   5  -2  -8  318.83   10.59
  -5  -2   8  338.40   10.98
   5  -2  -7  269.00   10.38
   5  -2  -7  279.16    9.58
  -5  -2   7  276.06    9.94
  -5  -2   7  281.12    9.88
   5  -2  -6  165.95    8.08
  -5  -2   6  157.99    4.66
  -5  -2   6  150.94    7.37
   5  -2  -6  151.98    6.97
  -5  -2   6  153.32    7.06
   5  -2  -5  141.06    7.21
  -5  -2   5  149.50    3.92
  -5  -2   5  154.03    7.48
   5  -2  -5  151.88    6.83
  -5  -2   5  150.46    6.68
   5  -2  -4  631.79   14.58
  -5  -2   4  611.33    6.56
   5  -2  -4  609.52   13.44
  -5  -2   4  638.69   15.11
  -5  -2   4  623.10   12.80
   5  -2  -3  480.58   12.63
  -5  -2   3  453.83    4.53
  -5  -2   3  486.45   13.21
  -5  -2   3  487.20   10.86
   5  -2  -2   14.50    2.61
  -5  -2   2   13.15    0.87
  -5  -2   2   14.02    2.87
  -5  -2   1   61.21    2.53
   5  -2  -1   58.27    4.47
   5  -2  -1   53.57    2.04
  -5  -2   1   61.63    5.08
   5  -2   0  358.79   10.79
  -5  -2   0  371.78    7.39
   5  -2   0  365.46    6.23
  -5  -2   0  378.58   12.01
   5  -2   0  348.09    4.26
   5  -2   1 1196.41   19.76
  -5  -2  -1 1164.54   14.80
  -5  -2  -1 1057.42   20.22
   5  -2   1 1117.41   12.48
   5  -2   2   69.38    5.11
  -5  -2  -2   66.63    4.00
  -5  -2  -2   74.11    5.67
   5  -2   3  182.38    8.17
  -5  -2  -3  174.04    6.95
  -5  -2  -3  182.74    8.77
   5  -2   4  299.05   10.74
  -5  -2  -4  303.55    9.82
  -5  -2  -4  288.94   10.89
   5  -2   4  312.49   10.24
   5  -2   5  368.08   12.24
  -5  -2  -5  361.03   11.42
  -5  -2  -5  349.11   12.15
   5  -2   5  366.24   11.20
  -5  -2  -6  145.10    7.66
   5  -2   6  133.10    7.78
   5  -2   6  132.41    6.99
  -5  -2  -6  144.47    7.95
   5  -2   7   13.02    3.00
   5  -2   7   11.25    2.48
  -5  -2  -7   12.54    2.82
  -5  -2  -7   13.48    2.84
   5  -2   8  373.78   13.71
  -5  -2  -8  353.67   13.15
  -5  -2  -8  352.84   12.62
   5  -2   8  355.28   11.72
   5  -2   9  357.60   13.97
  -5  -2  -9  383.36   14.37
   5  -2   9  378.32   12.31
  -5  -2  -9  353.61   12.80
   5  -2  10   11.00    3.23
   5  -2  10   19.17    3.31
  -5  -2 -10   19.09    3.92
  -5  -2 -10   10.08    2.76
   5  -2  11   13.47    3.38
   5  -2  11   15.68    2.88
  -5  -2 -11   13.99    3.41
  -5  -2 -11   16.01    2.93
   5  -2  12   80.30    7.63
  -5  -2 -12   73.78    7.24
  -5  -2 -12   74.55    6.30
   5  -2  13  150.11   10.55
  -5  -2 -13  140.06   10.33
   5  -2  14   92.16    8.66
  -5  -2 -14  107.51    9.48
   5  -2  15    0.52    2.30
  -5  -2 -15   -0.34    2.27
   5  -2  16   82.40    8.75
  -5  -2 -16   79.55    8.76
  -5  -2 -17   59.99    7.89
  -5  -1  20    0.05    2.39
  -5  -1  19   93.24    9.14
  -5  -1  18  214.66   13.31
  -5  -1  17   63.41    7.10
   5  -1 -17   78.78    7.16
  -5  -1  16    8.70    3.08
   5  -1 -16    5.57    2.14
   5  -1 -16    5.74    2.39
   5  -1 -15  182.03    9.82
  -5  -1  15  180.60   10.88
   5  -1 -15  177.70   10.07
   5  -1 -14  330.72   12.54
  -5  -1  14  324.74   14.00
   5  -1 -14  320.31   13.22
   5  -1 -13  232.25   10.04
  -5  -1  13  239.96   11.57
   5  -1 -13  239.81   11.21
   5  -1 -12   42.87    4.20
   5  -1 -12   48.44    5.08
  -5  -1  12   54.36    5.61
  -5  -1  11  314.58   12.32
  -5  -1  11  321.93   10.87
   5  -1 -11  317.80   10.70
   5  -1 -11  316.72   12.22
  -5  -1  10  297.84   11.55
  -5  -1  10  328.52   10.94
   5  -1 -10  327.26   10.39
   5  -1 -10  333.40   12.19
  -5  -1   9  396.69   12.71
   5  -1  -9  387.90   10.74
  -5  -1   9  387.91   11.75
   5  -1  -9  404.02   13.15
  -5  -1   8  207.74    8.98
   5  -1  -8  212.84    7.67
  -5  -1   8  214.76    8.72
   5  -1  -7  284.12   10.28
   5  -1  -7  274.40    8.39
  -5  -1   7  279.60    9.83
  -5  -1   7  275.03    7.79
   5  -1  -6  654.46   15.06
   5  -1  -6  647.88   12.51
  -5  -1   6  661.78   14.98
  -5  -1   6  673.36   11.20
   5  -1  -5  975.53   17.64
  -5  -1   5  994.62   12.63
   5  -1  -5  954.96   14.80
  -5  -1   5  977.41   18.14
   5  -1  -4  107.05    5.84
  -5  -1   4  117.08    4.12
  -5  -1   4  107.04    6.18
   5  -1  -4  114.20    5.12
  -5  -1   4  102.67    4.67
   5  -1  -3  225.95    8.33
  -5  -1   3  227.49    5.44
   5  -1  -3  216.29    5.58
  -5  -1   3  231.12    8.83
  -5  -1   3  226.17    6.36
   5  -1  -2  467.12   11.57
  -5  -1   2  473.43    7.63
  -5  -1   2  455.74    7.50
   5  -1  -2  445.96    7.99
  -5  -1   2  450.00   12.36
  -5  -1   2  457.10    8.35
   5  -1  -1 1140.52   18.18
  -5  -1   1 1101.36   12.67
  -5  -1   1 1136.86   12.14
   5  -1  -1 1085.98   12.87
  -5  -1   1 1143.19   19.53
  -5  -1   1 1120.83   12.33
   5  -1   0  318.79    9.73
  -5  -1   0  310.58    7.39
   5  -1   0  319.75    7.32
  -5  -1   0  326.67   10.53
  -5  -1   0  314.62    6.75
   5  -1   1  124.13    6.18
  -5  -1  -1  113.96    4.89
   5  -1   1  114.32    4.66
  -5  -1  -1  120.25    6.73
   5  -1   2  407.92   11.23
  -5  -1  -2  415.44   10.02
   5  -1   2  407.64    9.36
  -5  -1  -2  406.47   12.00
   5  -1   3  770.17   15.81
  -5  -1  -3  756.89   14.51
  -5  -1  -3  776.78   16.60
   5  -1   4  216.70    8.75
  -5  -1  -4  199.55    8.03
  -5  -1  -4  203.05    8.61
  -5  -1  -5  232.85    9.18
   5  -1   5  223.30    9.26
  -5  -1  -5  237.45    9.36
   5  -1   6  401.34   12.76
  -5  -1  -6  407.17   12.75
  -5  -1  -6  365.00   11.74
   5  -1   6  381.73   10.10
   5  -1   7  809.12   18.81
  -5  -1  -7  744.31   18.12
  -5  -1  -7  770.75   17.28
   5  -1   7  778.65   14.71
   5  -1   8  195.45    9.71
  -5  -1  -8  209.61   10.18
  -5  -1  -8  210.97    9.25
   5  -1   8  224.42    8.09
  -5  -1  -9   59.00    5.83
  -5  -1  -9   59.31    5.08
   5  -1   9   55.04    5.52
   5  -1   9   66.37    4.59
   5  -1  10  257.05   12.10
  -5  -1 -10  246.44   12.07
  -5  -1 -10  266.10   10.56
   5  -1  11  483.51   17.01
  -5  -1 -11  475.44   17.41
  -5  -1 -11  476.18   14.25
   5  -1  12   79.69    7.40
  -5  -1 -12   96.20    8.20
   5  -1  13   16.04    3.72
  -5  -1 -13   11.68    3.47
   5  -1  14   65.14    7.26
  -5  -1 -14   82.32    8.37
   5  -1  15  190.29   12.40
  -5  -1 -15  200.18   13.16
   5  -1  16   51.35    6.82
  -5  -1 -16   49.47    6.98
   5  -1  17    4.77    3.05
  -5  -1 -17   10.47    4.15
  -5   0  20  163.72   12.46
  -5   0  19   65.62    7.83
  -5   0  18    0.79    2.84
   5   0 -18    1.18    2.30
  -5   0  17   51.04    6.60
   5   0 -17   52.51    6.18
  -5   0  16   46.99    6.10
   5   0 -16   47.78    5.75
  -5   0  15  263.35   12.97
   5   0 -15  268.01   12.85
   5   0 -14   80.59    6.93
  -5   0  14   86.25    7.32
   5   0 -13  176.05    8.21
  -5   0  13  170.59    9.75
   5   0 -13  161.53    9.44
   5   0 -12  641.22   14.65
  -5   0  12  616.77   17.58
   5   0 -12  629.67   18.04
   5   0 -11  127.99    6.23
   5   0 -11  126.50    7.95
  -5   0  11  119.37    7.66
  -5   0  10    4.10    2.39
   5   0 -10    3.73    1.32
   5   0 -10    1.30    1.57
  -5   0   9    7.86    2.42
   5   0  -9   12.06    1.90
  -5   0   9   14.37    2.83
   5   0  -9   11.81    2.75
  -5   0   8 1077.23   19.72
  -5   0   8 1107.17   17.86
   5   0  -8 1077.86   14.94
  -5   0   8 1097.38   19.98
   5   0  -8 1089.40   21.37
   5   0  -7  887.37   17.31
  -5   0   7  889.17   17.20
  -5   0   7  931.78   15.52
  -5   0   7  881.08   17.73
   5   0  -7  892.48   12.87
   5   0  -7  870.55   18.55
   5   0  -6    2.28    1.59
  -5   0   6    5.05    1.55
   5   0  -6    2.48    0.95
  -5   0   6    6.03    2.15
   5   0  -5  744.47   14.76
   5   0  -5  718.33   10.77
  -5   0   5  732.32   15.89
  -5   0   5  763.06   12.76
   5   0  -4  377.84   10.31
   5   0  -4  339.65    7.40
   5   0  -4  338.86    8.61
  -5   0   4  359.47   11.04
  -5   0   4  358.83    8.43
   5   0  -3  178.35    6.97
  -5   0   3  168.14    7.59
   5   0  -3  177.98    6.14
  -5   0   3  186.89    5.94
  -5   0   2  358.14    8.25
   5   0  -2  360.96    9.62
   5   0  -2  336.02    8.35
  -5   0   2  357.32   10.89
  -5   0   2  357.72    8.11
   5   0  -1  573.75   12.15
  -5   0   1  545.50   10.50
   5   0  -1  573.68   11.00
  -5   0   1  555.10   13.55
  -5   0   1  555.61   10.14
   5   0   0 1162.18   17.34
  -5   0   0 1134.25   15.78
   5   0   0 1157.58   16.01
  -5   0   0 1126.60   19.15
  -5   0   0 1185.23   15.18
   5   0   1  583.24   12.42
  -5   0  -1  568.00   11.78
  -5   0  -1  594.35   13.85
   5   0   1  582.72   11.73
  -5   0  -1  592.17   11.16
   5   0   2  196.92    7.46
  -5   0  -2  211.11    7.63
  -5   0  -2  209.36    6.97
  -5   0  -2  216.22    8.44
   5   0   2  223.69    7.62
  -5   0  -3   20.61    2.76
   5   0   3   17.07    2.49
   5   0   3   19.25    2.69
  -5   0  -3   18.83    2.87
  -5   0  -4  605.18   14.27
   5   0   4  631.37   14.18
  -5   0  -4  636.18   14.51
   5   0   4  619.84   14.02
  -5   0  -5  721.87   16.39
   5   0   5  737.46   16.09
  -5   0  -5  724.67   15.54
   5   0   6   21.85    3.20
  -5   0  -6   14.12    2.69
  -5   0  -6   21.22    3.00
   5   0   7   61.87    5.23
  -5   0  -7   69.42    5.68
  -5   0  -7   70.70    5.07
   5   0   8   17.85    3.41
  -5   0  -8   16.26    3.07
  -5   0  -8   20.62    2.94
   5   0   9   55.41    5.38
  -5   0  -9   59.24    5.97
  -5   0  -9   66.14    4.95
   5   0  10  126.18    8.30
  -5   0 -10  130.37    8.94
  -5   0 -10  126.54    6.80
   5   0  11    1.65    1.96
  -5   0 -11    2.62    2.54
   5   0  12  123.02    8.81
  -5   0 -12  126.03    9.44
   5   0  13  162.23   10.44
  -5   0 -13  166.60   11.19
   5   0  14   30.88    4.85
  -5   0 -14   42.40    6.07
   5   0  15    2.44    2.39
  -5   0 -15    0.18    2.43
   5   0  16   18.50    4.67
  -5   0 -16   32.23    5.59
   5   0  17  182.06   12.79
  -5   0 -17  206.46   14.19
  -5   1  20   -0.47    2.53
   5   1 -20    6.09    2.52
  -5   1  19   92.31    9.27
   5   1 -19   83.05    8.37
   5   1 -18  146.52   10.74
  -5   1  18  142.11   10.76
   5   1 -17   78.59    7.78
  -5   1  17   93.84    8.58
  -5   1  16    6.24    3.11
   5   1 -16    3.44    2.82
   5   1 -15  184.00   11.07
  -5   1  15  189.06   11.05
  -5   1  14  300.90   13.38
   5   1 -14  319.60   14.09
   5   1 -13  235.54   11.87
  -5   1  13  245.76   11.51
  -5   1  12   41.55    4.88
   5   1 -12   46.24    5.25
  -5   1  11  305.92   11.82
   5   1 -11  330.42   13.21
  -5   1  10  347.25   11.81
  -5   1  10  337.41   11.95
   5   1 -10  370.36   13.47
  -5   1   9  393.81   12.35
  -5   1   9  396.65   12.02
   5   1  -9  392.56    8.15
   5   1  -9  409.10   13.90
  -5   1   8  217.55    8.77
  -5   1   8  183.61    7.99
   5   1  -8  191.63    5.14
   5   1  -8  187.88    9.26
  -5   1   7  254.78    9.06
  -5   1   7  243.11    8.79
   5   1  -7  251.63    5.30
   5   1  -7  263.75   10.54
  -5   1   6  647.66   13.80
   5   1  -6  640.39   13.63
  -5   1   6  634.33   13.42
  -5   1   6  648.53   15.77
   5   1  -6  654.42    7.74
   5   1  -6  655.26   16.24
   5   1  -5  985.43   16.30
  -5   1   5  995.79   16.32
   5   1  -5  996.29   17.03
   5   1  -5  959.72    9.02
  -5   1   5  995.21   18.98
   5   1  -5 1042.76   19.61
   5   1  -4  110.97    5.35
  -5   1   4  104.70    5.25
  -5   1   4  111.67    6.56
   5   1  -4  102.46    3.07
   5   1  -4   99.31    5.33
   5   1  -4  111.87    6.45
   5   1  -3  235.06    7.49
   5   1  -3  236.03    8.05
  -5   1   3  237.00    9.25
  -5   1   3  245.89    7.84
  -5   1   2  419.60   10.45
   5   1  -2  432.92    9.98
   5   1  -2  420.93   10.64
  -5   1   2  410.87   11.97
  -5   1   2  429.33   10.18
   5   1  -1 1102.89   15.78
  -5   1   1 1113.74   17.10
   5   1  -1 1092.89   17.22
  -5   1   1 1126.65   19.34
  -5   1   1 1106.29   16.40
   5   1   0  331.66    8.71
  -5   1   0  324.57    9.51
   5   1   0  333.82    9.65
  -5   1   0  341.64   10.69
  -5   1   0  331.09    9.18
   5   1   1  110.38    5.17
  -5   1  -1  101.10    5.62
  -5   1  -1  114.12    6.22
   5   1   1  105.80    5.68
  -5   1  -1  109.02    5.44
   5   1   2  427.60   10.38
  -5   1  -2  425.65   11.66
   5   1   2  444.73   11.77
  -5   1  -2  424.77   11.74
  -5   1  -2  428.68   10.98
  -5   1  -3  786.95   16.44
   5   1   3  801.27   14.64
   5   1   3  790.01   16.25
  -5   1  -3  798.41   16.03
  -5   1  -3  784.73   15.41
  -5   1  -4  192.11    8.51
   5   1   4  194.65    7.64
   5   1   4  187.97    8.30
  -5   1  -4  188.07    7.82
  -5   1  -4  177.75    7.68
  -5   1  -5  231.78    9.80
   5   1   5  237.74    8.80
   5   1   5  243.26    9.82
  -5   1  -5  243.39    8.86
   5   1   6  357.38   11.35
  -5   1  -6  371.73   12.87
   5   1   6  371.48   12.74
  -5   1  -6  390.12   11.19
   5   1   7  718.68   16.74
  -5   1  -7  735.81   18.89
  -5   1  -7  753.95   15.44
   5   1   8  198.22    9.27
  -5   1  -8  191.54   10.06
  -5   1  -8  211.67    8.23
   5   1   9   49.96    5.08
  -5   1  -9   59.52    6.13
   5   1  10  238.17   11.05
  -5   1 -10  238.72   12.11
   5   1  11  418.08   15.12
  -5   1 -11  434.22   16.92
   5   1  12   89.55    7.54
  -5   1 -12   90.59    8.17
   5   1  13   12.08    3.27
  -5   1 -13    8.37    3.28
  -5   1 -14   59.07    7.15
   5   1  14   62.81    6.91
   5   1  15  193.11   12.12
  -5   1 -15  205.73   13.45
   5   1  16   49.82    6.54
  -5   1 -16   42.31    6.63
   5   1  17    3.51    2.80
  -5   1 -17    7.73    3.70
   5   2 -20   93.80    9.42
  -5   2  19   60.41    7.54
   5   2 -19   54.40    7.19
  -5   2  18    5.70    2.83
   5   2 -18    0.76    1.90
  -5   2  17   70.27    7.64
   5   2 -17   65.95    7.58
   5   2 -16  204.67   12.50
  -5   2  16  218.90   12.28
  -5   2  15   55.08    6.16
   5   2 -15   55.37    6.55
  -5   2  14   10.87    3.32
  -5   2  14   14.26    3.33
   5   2 -14   18.42    3.89
  -5   2  13   91.86    7.53
  -5   2  13   88.61    7.09
   5   2 -13   90.42    7.77
  -5   2  12  262.93   11.94
  -5   2  12  283.50   11.86
   5   2 -12  263.46   12.78
  -5   2  11  306.86   12.34
  -5   2  11  323.22   12.10
   5   2 -11  321.23   13.59
  -5   2  10   22.02    3.66
  -5   2  10   25.53    3.54
   5   2 -10   23.14    3.92
  -5   2   9  345.54   12.11
  -5   2   9  356.93   11.65
   5   2  -9  340.23   13.30
  -5   2   8  310.31   11.01
  -5   2   8  311.64   10.37
   5   2  -8  319.69   12.51
  -5   2   7  300.68   10.48
  -5   2   7  285.52    9.42
   5   2  -7  277.05   11.27
  -5   2   6  149.12    6.57
  -5   2   6  156.31    7.42
   5   2  -6  152.42    7.61
   5   2  -6  164.34    8.60
  -5   2   5  163.95    6.62
  -5   2   5  164.07    7.51
   5   2  -5  166.58    7.96
   5   2  -5  168.07    8.38
   5   2  -4  608.43   11.83
  -5   2   4  607.83   13.76
   5   2  -4  601.28   14.54
   5   2  -4  629.70   15.43
   5   2  -3  520.08   10.52
  -5   2   3  511.70   12.52
   5   2  -3  502.63   13.09
   5   2  -3  506.34   13.44
  -5   2   2    7.66    2.12
   5   2  -2    6.84    1.31
  -5   2   2    7.71    2.11
   5   2  -2    8.58    2.19
   5   2  -2    8.68    2.15
  -5   2   1   62.53    4.69
   5   2  -1   67.30    3.71
  -5   2   1   60.30    4.50
  -5   2   1   65.32    5.04
   5   2  -1   60.64    4.75
   5   2  -1   67.83    4.74
   5   2   0  371.81    8.61
  -5   2   0  380.84   11.56
  -5   2   0  376.26   10.90
   5   2   0  397.11   11.71
  -5   2   0  389.97   11.91
   5   2   0  380.64   10.59
   5   2   1 1202.31   15.72
  -5   2  -1 1184.54   20.53
  -5   2  -1 1217.20   19.61
  -5   2  -1 1196.76   20.52
   5   2   1 1228.74   20.82
   5   2   1 1203.23   18.18
   5   2   2   67.68    3.96
  -5   2  -2   62.76    5.10
  -5   2  -2   61.65    4.78
  -5   2  -2   68.06    4.95
   5   2   2   58.32    4.78
   5   2   2   61.94    4.06
  -5   2  -3  175.03    8.42
   5   2   3  173.59    6.50
  -5   2  -3  174.81    7.94
  -5   2  -3  183.19    7.91
   5   2   3  178.21    8.42
   5   2   3  172.39    6.49
  -5   2  -4  290.09   11.09
   5   2   4  302.40    9.01
  -5   2  -4  297.84    9.94
   5   2   4  313.40   11.44
  -5   2  -4  288.80   10.56
  -5   2  -5  396.98   13.43
   5   2   5  391.78   10.79
  -5   2  -5  418.03   11.61
   5   2   5  374.07   12.97
   5   2   5  414.70    9.69
  -5   2  -5  405.00   12.73
   5   2   6  132.50    6.72
  -5   2  -6  121.50    7.78
   5   2   6  146.64    5.65
  -5   2  -6  139.59    6.74
   5   2   6  137.31    8.20
  -5   2  -7   14.73    3.36
   5   2   7   15.14    2.59
   5   2   7   11.99    3.31
  -5   2  -7   15.71    2.37
   5   2   8  328.22   11.48
  -5   2  -8  302.03   13.09
   5   2   8  312.70   13.25
   5   2   9  362.51   12.69
  -5   2  -9  331.27   14.09
   5   2   9  361.97   14.64
   5   2  10   10.33    2.76
  -5   2 -10    9.11    3.21
   5   2  11   16.54    3.34
  -5   2 -11   17.22    4.14
   5   2  12   83.03    7.12
  -5   2 -12  108.17    9.23
   5   2  13  127.75    9.09
  -5   2 -13  136.18   10.54
   5   2  14   97.75    8.29
  -5   2 -14  106.28    9.64
   5   2  15    5.07    2.85
  -5   2 -15    1.29    2.99
  -5   2 -16   71.13    8.42
   5   2  16   74.65    7.89
   5   2  17   67.30    7.71
  -5   3  19  138.07   11.12
   5   3 -19  145.75   12.00
  -5   3  18   89.22    9.26
  -5   3  18   93.64    8.93
   5   3 -18   99.96    9.66
  -5   3  17   80.37    8.63
   5   3 -17   60.74    7.53
  -5   3  17   70.54    7.53
  -5   3  16   13.62    4.21
  -5   3  16   10.59    3.68
   5   3 -16   11.64    3.88
  -5   3  15   61.08    7.11
  -5   3  15   57.97    6.39
   5   3 -15   45.54    6.35
  -5   3  14  215.66   12.23
   5   3 -14  230.58   13.24
  -5   3  14  224.96   11.54
  -5   3  13  260.57   12.88
   5   3 -13  265.03   13.80
  -5   3  13  274.53   12.23
  -5   3  12    2.09    2.68
  -5   3  12    1.49    1.99
   5   3 -12    1.28    2.36
  -5   3  11   97.74    7.61
  -5   3  11  103.87    7.05
   5   3 -11  103.75    8.30
  -5   3  10  187.53   10.03
  -5   3  10  175.81    8.62
   5   3 -10  189.58   10.87
  -5   3   9  296.53   12.05
   5   3  -9  318.52   13.47
  -5   3   9  304.30   10.73
  -5   3   8   62.14    5.78
  -5   3   8   56.82    4.54
   5   3  -8   53.55    5.67
  -5   3   7  259.64   10.59
  -5   3   7  258.46    8.94
   5   3  -7  260.93   11.54
  -5   3   6  482.36   11.49
  -5   3   6  457.88   13.83
   5   3  -6  477.95   14.54
   5   3  -6  466.97   14.96
  -5   3   5  445.99   10.53
  -5   3   5  442.73   13.17
   5   3  -5  417.10   13.47
   5   3  -5  411.31   13.57
  -5   3   4   61.98    3.84
  -5   3   4   59.89    5.24
   5   3  -4   58.64    5.21
   5   3  -4   66.87    5.53
  -5   3   3  207.16    6.56
  -5   3   3  202.94    8.87
   5   3  -3  207.19    9.33
   5   3  -3  214.29    9.32
   5   3  -2  486.63    9.06
  -5   3   2  476.80   13.43
   5   3  -2  500.38   14.24
   5   3  -2  468.70   13.20
  -5   3   1 1075.62   20.92
   5   3  -1 1046.63   12.97
  -5   3   1 1033.44   19.51
   5   3  -1 1033.49   20.62
   5   3  -1 1065.92   19.08
  -5   3   0  150.20    7.94
   5   3   0  147.23    4.94
  -5   3   0  136.40    7.29
   5   3   0  146.78    7.93
   5   3   0  146.71    6.85
  -5   3  -1  241.93   10.39
   5   3   1  264.48    6.74
  -5   3  -1  246.33    9.88
   5   3   1  254.93    9.68
   5   3   1  246.97   10.29
   5   3   1  248.38    8.55
   5   3   2  349.96    8.10
  -5   3  -2  342.93   12.33
  -5   3  -2  358.74   12.03
   5   3   2  343.60   11.12
   5   3   2  336.98   12.15
   5   3   2  345.49    9.57
   5   3   3  421.70    9.38
  -5   3  -3  426.87   14.21
  -5   3  -3  408.00   13.03
   5   3   3  425.47   12.16
   5   3   3  414.08   13.68
   5   3   3  425.05    9.98
  -5   3  -4  153.63    8.89
   5   3   4  162.41    6.23
   5   3   4  174.65    9.34
  -5   3  -4  162.43    8.62
   5   3   4  176.23    7.75
  -5   3  -4  166.83    6.32
  -5   3  -5   50.60    5.28
   5   3   5   51.57    3.79
   5   3   5   46.49    5.18
   5   3   5   55.98    4.47
  -5   3  -5   50.79    5.17
  -5   3  -6  353.12   13.82
   5   3   6  378.47   10.68
   5   3   6  349.72   13.71
   5   3   6  369.30   10.93
  -5   3  -6  347.96   13.27
   5   3   7  424.32   12.00
  -5   3  -7  451.02   16.18
   5   3   7  435.99   15.68
   5   3   8   93.44    6.06
  -5   3  -8   99.84    7.94
   5   3   8   99.29    7.85
  -5   3  -9    9.84    3.27
   5   3   9   12.88    3.55
   5   3   9    9.42    2.20
   5   3  10  118.40    7.55
  -5   3 -10  110.96    8.93
   5   3  10  108.18    8.84
   5   3  11  405.32   14.52
  -5   3 -11  362.41   16.49
   5   3  11  412.52   17.43
  -5   3 -12   21.93    4.67
   5   3  12   21.22    4.71
   5   3  12   22.86    3.79
  -5   3 -13   34.77    5.91
   5   3  13   43.20    6.56
   5   3  13   35.81    5.00
  -5   3 -14   18.38    4.45
   5   3  14   23.99    5.61
   5   3  14   16.10    3.53
   5   3  15  109.45    8.89
  -5   3 -15  115.10   10.58
   5   3  15   92.55    9.64
  -5   3 -16   40.85    6.88
   5   3  16   45.31    7.22
  -5   4  17   31.99    6.15
  -5   4  17   29.21    4.97
   5   4 -17   21.60    5.16
  -5   4  16   92.31    9.22
  -5   4  16   79.89    7.74
   5   4 -16   77.76    8.75
  -5   4  15   98.59    9.12
   5   4 -15  114.95   10.22
  -5   4  15  101.73    8.33
  -5   4  14    7.67    3.83
  -5   4  14   11.14    3.46
   5   4 -14    0.66    2.44
  -5   4  13  177.65   11.30
  -5   4  13  170.75    9.77
   5   4 -13  173.82   12.03
  -5   4  12  251.96   13.00
  -5   4  12  268.06   11.67
   5   4 -12  268.83   14.32
  -5   4  11   98.18    8.19
   5   4 -11   91.93    8.37
  -5   4  11   98.68    6.87
  -5   4  10    7.23    3.29
  -5   4  10    8.86    2.50
   5   4 -10   13.81    3.75
  -5   4   9   30.85    4.68
  -5   4   9   30.77    3.64
   5   4  -9   30.72    4.84
  -5   4   8  353.03   13.68
  -5   4   8  409.96   11.70
   5   4  -8  351.60   14.63
  -5   4   7  462.53   15.17
   5   4  -7  496.79   16.99
  -5   4   6   18.75    3.71
   5   4  -6   21.02    3.76
   5   4  -6   20.66    3.97
  -5   4   5   68.33    5.98
   5   4  -5   78.19    6.45
   5   4  -5   69.36    6.11
  -5   4   4  318.11   12.18
   5   4  -4  320.77   12.76
   5   4  -4  291.84   11.89
  -5   4   3  284.66   11.38
   5   4  -3  289.79   11.97
   5   4  -3  293.55   11.52
  -5   4   2   27.41    3.97
   5   4  -2   29.06    4.13
   5   4  -2   36.30    4.11
   5   4  -1  152.49    8.76
  -5   4   1  140.43    8.17
   5   4  -1  147.46    8.59
   5   4  -1  158.27    7.98
  -5   4   0  481.72   15.43
  -5   4   0  454.74   14.27
   5   4   0  473.85   15.02
   5   4   0  495.92   15.57
   5   4   0  481.33   13.11
  -5   4  -1   75.13    6.58
  -5   4  -1   60.96    5.67
   5   4   1   64.68    5.65
   5   4   1   68.71    6.10
   5   4   1   66.18    4.70
  -5   4  -2    6.28    2.58
  -5   4  -2    8.48    3.00
   5   4   2    8.13    2.42
   5   4   2    2.50    1.81
   5   4   2    6.01    1.65
  -5   4  -3   24.99    4.27
   5   4   3   31.63    4.54
  -5   4  -3   37.63    3.83
   5   4   3   40.26    4.48
  -5   4  -3   34.78    4.59
  -5   4  -4  171.50    9.82
   5   4   4  169.03    9.74
  -5   4  -4  183.51    9.88
   5   4   4  168.72    8.75
  -5   4  -4  176.65    7.78
  -5   4  -5  249.51   12.02
   5   4   5  276.40   12.50
  -5   4  -5  291.01   12.59
   5   4   5  286.24   11.27
  -5   4  -6   46.53    5.69
   5   4   6   46.01    5.54
   5   4   6   53.42    4.97
  -5   4  -6   50.28    5.92
  -5   4  -7   48.12    5.92
   5   4   7   44.88    5.60
  -5   4  -7   44.09    5.73
   5   4   7   50.45    4.79
  -5   4  -8   88.20    7.87
   5   4   8   77.99    7.44
  -5   4  -9  155.79   10.71
   5   4   9  181.80   11.45
  -5   4 -10   82.20    8.07
   5   4  10   99.36    8.89
  -5   4 -11   16.39    4.21
   5   4  11   15.72    3.94
  -5   4 -12   95.48    9.21
   5   4  12  104.43    9.58
  -5   4 -13   60.02    7.66
   5   4  13   65.94    7.85
  -5   4 -14    5.25    2.93
   5   4  14   11.06    3.91
  -5   4 -15   14.21    4.29
   5   4  15   20.14    4.98
  -5   5  16    3.83    3.88
   5   5 -16    0.38    2.87
  -5   5  15   76.83    8.69
   5   5 -15   83.27    9.27
  -5   5  14   83.95    8.86
   5   5 -14   70.07    8.37
  -5   5  13   46.45    6.49
   5   5 -13   46.67    6.79
  -5   5  12   52.73    6.77
   5   5 -12   35.50    6.01
  -5   5  11   68.29    7.44
   5   5 -11   55.84    7.20
  -5   5  10  194.90   11.64
   5   5 -10  182.75   11.94
  -5   5   9   66.46    6.98
   5   5  -9   58.12    6.72
  -5   5   8    7.83    3.32
   5   5  -8    4.32    2.38
  -5   5   7   43.72    5.48
   5   5  -7   34.64    5.11
  -5   5   6  173.43   10.13
   5   5  -6  159.62    9.95
   5   5  -6  169.08   10.38
  -5   5   5  271.48   12.29
   5   5  -5  254.24   12.37
   5   5  -5  268.94   12.68
  -5   5   4   33.07    4.76
   5   5  -4   31.73    4.69
   5   5  -4   38.02    4.74
   5   5  -3  180.42   10.76
  -5   5   3  174.19    9.76
   5   5  -3  170.65    9.99
   5   5  -3  178.73    9.72
   5   5  -2  162.84   10.03
  -5   5   2  153.19    9.14
   5   5  -2  158.95    9.60
   5   5  -2  167.94    9.19
  -5   5   1  176.90    9.80
   5   5  -1  187.68   10.64
   5   5  -1  179.71   10.20
   5   5  -1  176.93    9.02
  -5   5   0   99.48    7.41
   5   5   0   98.49    7.72
   5   5   0  101.75    7.71
   5   5   0  104.48    6.64
   5   5   1   -0.69    2.25
  -5   5  -1    1.55    2.73
   5   5   1    0.84    1.97
  -5   5  -2  264.17   12.75
   5   5   2  279.86   12.85
  -5   5  -2  251.99   12.00
   5   5   2  255.23   12.15
  -5   5  -2  261.70   11.41
  -5   5  -3  403.37   15.99
   5   5   3  428.80   16.12
  -5   5  -3  426.95   15.63
   5   5   3  450.34   15.95
  -5   5  -3  442.07   14.40
  -5   5  -4   13.35    3.50
   5   5   4   23.46    4.05
  -5   5  -4   13.95    3.63
   5   5   4   18.08    3.45
  -5   5  -5   18.08    4.15
   5   5   5   23.42    4.26
   5   5   5   26.33    4.26
  -5   5  -5   15.28    3.91
  -5   5  -6   87.28    7.97
   5   5   6   89.34    7.91
   5   5   6   92.09    7.31
  -5   5  -6   99.64    8.36
  -5   5  -7  184.59   11.63
   5   5   7  196.15   11.88
   5   5   7  191.07   10.51
  -5   5  -7  201.23   11.73
  -5   5  -8   73.06    7.63
   5   5   8   81.09    7.99
  -5   5  -9   27.23    5.32
   5   5   9   30.26    5.20
  -5   5 -10   89.10    8.66
   5   5  10  102.89    9.46
  -5   5 -11   44.60    6.54
   5   5  11   43.82    6.47
  -5   5 -12   64.66    8.05
   5   5  12   54.80    7.39
  -5   5 -13   -0.62    2.74
   5   5  13    6.64    3.61
  -5   6  14    8.44    4.44
  -5   6  13   33.22    5.96
   5   6 -13   28.60    5.64
  -5   6  12  119.45   10.39
   5   6 -12   99.27    9.98
  -5   6  11   51.90    6.78
   5   6 -11   52.99    7.35
  -5   6  10    3.98    2.93
   5   6 -10    1.49    2.05
  -5   6   9   31.51    5.49
   5   6  -9   27.14    5.03
  -5   6   8  104.88    8.92
   5   6  -8   95.18    8.85
  -5   6   7   91.11    8.10
   5   6  -7   91.47    8.36
  -5   6   6   23.11    4.82
   5   6  -6   30.18    4.92
  -5   6   5   22.37    4.54
   5   6  -5   19.13    4.12
   5   6  -5   19.82    4.05
  -5   6   4  239.56   12.32
   5   6  -4  229.48   12.47
   5   6  -4  238.29   12.48
   5   6  -3   79.15    7.97
  -5   6   3   76.83    7.24
   5   6  -3   79.95    7.41
   5   6  -3   76.94    6.88
   5   6  -2   16.62    4.22
  -5   6   2   12.54    3.51
   5   6  -2   11.89    3.28
   5   6  -2   16.08    3.31
   5   6  -1   36.34    5.21
  -5   6   1   37.46    5.39
   5   6  -1   37.59    5.47
   5   6   0  101.93    8.44
   5   6   0  105.85    8.89
  -5   6   0  101.34    8.34
   5   6   1   98.91    8.24
  -5   6  -1  103.66    8.43
   5   6   1   94.78    8.34
  -5   6  -1  107.12    8.36
   5   6   2   72.42    7.28
   5   6   2   77.87    7.62
  -5   6  -2   64.88    6.44
  -5   6  -2   69.41    6.98
   5   6   3   29.15    4.75
  -5   6  -3   26.17    5.04
   5   6   3   29.66    5.02
  -5   6  -3   27.78    4.34
  -5   6  -4  143.31   10.36
   5   6   4  132.56    9.84
  -5   6  -4  141.40    9.90
   5   6   4  137.54    9.89
  -5   6  -5  102.69    8.99
   5   6   5  108.34    9.08
  -5   6  -5  104.78    8.88
   5   6   5   97.73    8.38
  -5   6  -6   58.87    7.00
   5   6   6   58.20    6.87
  -5   6  -6   61.68    7.00
   5   6   6   60.58    6.60
  -5   6  -7   20.13    4.42
   5   6   7   29.93    5.26
   5   6   7   22.01    4.21
  -5   6  -8  118.41   10.12
   5   6   8  124.79   10.28
  -5   6  -9   88.05    8.95
   5   6   9   81.11    8.54
  -5   6 -10   13.21    3.85
   5   6  10   12.73    3.80
  -5   6 -11    2.64    2.93
   5   6  11   -3.30    2.55
  -5   7  11   22.98    5.62
   5   7 -11   12.41    3.99
  -5   7  10   88.16    8.98
   5   7 -10   72.07    8.52
  -5   7   9   95.50    9.15
   5   7  -9   76.78    8.65
  -5   7   8   14.07    4.66
   5   7  -8   13.19    3.86
  -5   7   7   55.81    7.03
   5   7  -7   37.69    6.11
  -5   7   6  142.27   10.62
   5   7  -6  116.90    9.86
  -5   7   5   29.62    5.48
   5   7  -5   20.75    4.23
   5   7  -4    2.17    2.21
   5   7  -4    2.45    2.38
  -5   7   4    7.82    3.36
   5   7  -3   -1.43    2.43
  -5   7   3    3.50    3.27
   5   7  -3   -2.10    2.99
   5   7  -2  113.35    9.52
   5   7  -2  107.90    9.75
  -5   7   2  124.27    9.71
  -5   7   2  114.86    9.99
   5   7  -1   95.76    8.71
  -5   7   1   92.22    8.55
   5   7  -1   96.13    9.37
  -5   7   1   93.84    8.89
   5   7   0    8.96    3.33
  -5   7   0    8.62    3.18
   5   7   0    7.36    3.11
  -5   7   0   14.61    3.79
   5   7   1   30.47    5.08
  -5   7  -1   23.98    4.85
   5   7   1   33.19    5.60
  -5   7  -1   27.78    4.98
   5   7   2   87.77    8.38
   5   7   2   92.73    8.99
  -5   7  -2   80.91    7.95
  -5   7  -2   72.50    7.87
   5   7   3   42.73    6.22
  -5   7  -3   46.22    6.31
   5   7   3   41.36    6.11
   5   7   4   37.89    5.65
  -5   7  -4   52.77    6.91
   5   7   4   47.26    6.69
   5   7   5   20.30    4.43
  -5   7  -5   19.94    4.81
   5   7   5   21.10    4.63
  -5   7  -6   64.62    7.99
   5   7   6   76.14    8.26
  -5   7  -6   77.20    8.24
   5   7   6   61.58    7.39
  -5   7  -7   27.99    5.45
   5   7   7   21.35    4.76
   5   7   7   27.33    5.00
  -5   7  -7   31.50    6.03
  -5   7  -8   19.93    4.99
   5   7   8    9.46    3.34
  -5   7  -9   -0.78    2.64
   5   7   9    1.94    2.34
   5   8  -8   40.89    6.58
   5   8  -7    9.66    3.37
  -5   8   6   -0.01    3.29
  -5   8   5    6.55    3.57
  -5   8   5    3.91    3.52
  -5   8   4   60.61    7.50
  -5   8   4   47.94    7.43
  -5   8   3   43.66    6.48
   5   8  -3   48.30    7.17
  -5   8   3   39.94    6.77
   5   8  -3   39.87    6.22
  -5   8   2    8.53    3.90
   5   8  -2    4.98    3.01
  -5   8   2    9.63    3.69
   5   8  -2   17.12    4.29
  -5   8   1    3.72    3.10
   5   8  -1    6.43    3.69
  -5   8   1    4.81    3.43
   5   8  -1   -1.59    2.90
  -5   8   0   46.44    6.63
  -5   8   0   61.38    7.65
   5   8   0   48.47    6.70
   5   8   1   54.83    7.66
  -5   8  -1   51.98    7.05
  -5   8  -1   52.63    6.86
   5   8   1   56.84    7.27
  -5   8  -2    4.34    3.50
   5   8   2    8.37    3.51
   5   8   2    0.81    2.12
  -5   8  -3   23.74    5.08
   5   8   3   27.06    5.57
  -5   8  -4   35.18    6.20
   5   8   4   52.95    7.51
   5   8   4   34.22    5.93
  -6  -8   3   12.13    3.65
  -6  -8   2    8.00    2.95
  -6  -7   9   28.62    5.66
   6  -7  -8    8.92    3.61
  -6  -7   8   15.87    4.36
   6  -7  -7  110.18    9.88
  -6  -7   7   94.82    9.08
   6  -7  -6   19.90    4.27
  -6  -7   6   19.99    4.45
   6  -7  -5   12.61    3.55
  -6  -7   5   13.99    3.86
  -6  -7   5   13.19    3.72
   6  -7  -4    5.63    2.51
  -6  -7   4    2.34    2.04
   6  -7  -3   94.98    8.91
  -6  -7   3   91.03    8.77
   6  -7  -2   90.16    8.70
  -6  -7   2   81.38    8.50
   6  -7  -1   11.23    3.74
  -6  -7   1    5.73    2.68
   6  -7   0    2.70    2.53
  -6  -7   0   13.40    3.77
   6  -7   1   26.37    5.04
  -6  -7  -1   21.67    4.56
   6  -7   2   49.76    6.52
  -6  -7  -2   48.00    6.92
   6  -7   3   96.59    8.92
  -6  -7  -3   93.46    9.42
  -6  -7  -4    2.92    2.77
  -6  -7  -5   90.26    9.44
   6  -6 -13   88.06    9.03
  -6  -6  13   90.95    9.34
   6  -6 -12  100.88    9.51
  -6  -6  12   93.97    9.36
   6  -6 -11   12.43    3.87
  -6  -6  11   10.49    3.68
   6  -6 -10   24.35    4.67
  -6  -6  10   32.55    5.53
   6  -6  -9   58.49    7.19
  -6  -6   9   63.55    7.27
   6  -6  -8   75.29    7.77
  -6  -6   8   70.20    7.47
   6  -6  -7   75.75    6.95
   6  -6  -7   81.21    7.83
  -6  -6   7   80.68    7.51
  -6  -6   7   67.08    7.19
   6  -6  -6   12.68    3.24
   6  -6  -6   15.02    3.74
  -6  -6   6    7.44    2.95
  -6  -6   6    8.01    2.78
   6  -6  -5  151.53    9.45
  -6  -6   5  165.74   10.72
   6  -6  -5  133.35    9.76
  -6  -6   5  138.55    9.82
   6  -6  -4  116.33    8.28
  -6  -6   4  113.91    9.01
   6  -6  -4  113.72    8.96
   6  -6  -3   72.83    6.50
   6  -6  -3   69.00    7.10
  -6  -6   3   62.75    7.03
   6  -6  -2    7.01    2.44
   6  -6  -2    8.89    2.94
  -6  -6   2    8.54    3.02
   6  -6  -1  154.56    9.34
   6  -6  -1  146.09   10.00
  -6  -6   1  153.77   10.73
   6  -6   0  148.91    9.16
   6  -6   0  134.33    9.64
  -6  -6   0  153.75   10.82
   6  -6   1   50.00    5.52
  -6  -6  -1   44.16    6.20
   6  -6   2   10.14    2.92
  -6  -6  -2    5.20    2.78
   6  -6   3   80.30    7.06
  -6  -6  -3   80.57    8.24
   6  -6   4   69.92    6.76
  -6  -6  -4   74.07    8.00
   6  -6   5   47.44    5.73
  -6  -6  -5   42.93    6.39
   6  -6   6   16.14    3.45
  -6  -6  -6   17.58    4.26
   6  -6   7   54.85    6.34
   6  -6   7   48.69    6.77
  -6  -6  -7   43.00    6.41
   6  -6   8   81.89    8.66
   6  -6   8   90.51    8.25
  -6  -6  -8   74.48    8.18
   6  -6   9   49.33    6.37
   6  -6   9   46.53    6.65
  -6  -6  -9   54.77    7.49
   6  -6  10    3.29    2.30
   6  -6  10   -0.03    2.43
  -6  -6 -10    1.36    2.37
   6  -6  11    9.47    3.42
  -6  -5  16   21.14    4.64
  -6  -5  15   47.49    6.39
   6  -5 -15   59.89    7.55
  -6  -5  14   50.49    6.31
   6  -5 -14   53.06    6.73
  -6  -5  13   58.37    6.58
   6  -5 -13   59.35    7.07
   6  -5 -12    6.66    2.95
  -6  -5  12   11.04    3.69
  -6  -5  11  248.84   12.56
   6  -5 -11  233.48   13.01
  -6  -5  11  239.53   13.40
  -6  -5  10   87.34    7.38
   6  -5 -10   84.68    7.87
  -6  -5  10   81.25    7.72
  -6  -5   9   20.26    3.83
   6  -5  -9   13.47    3.43
  -6  -5   9   10.45    3.22
  -6  -5   8    3.06    2.38
   6  -5  -8    5.82    2.59
   6  -5  -8    3.57    2.43
  -6  -5   8    1.29    1.95
  -6  -5   8    4.68    2.14
   6  -5  -7  146.58    9.20
   6  -5  -7  140.08    9.43
  -6  -5   7  149.51    9.42
  -6  -5   7  143.62    9.46
   6  -5  -6  205.08   10.67
   6  -5  -6  224.34   11.67
  -6  -5   6  217.31   11.38
  -6  -5   6  214.09   11.20
   6  -5  -5   60.94    5.84
   6  -5  -5   51.41    5.68
  -6  -5   5   57.77    6.15
  -6  -5   5   54.82    5.71
   6  -5  -4   41.29    4.81
   6  -5  -4   37.13    4.99
  -6  -5   4   25.65    4.48
   6  -5  -3  158.30    9.08
   6  -5  -3  167.33    9.89
  -6  -5   3  160.10   10.03
   6  -5  -2   72.97    6.18
  -6  -5   2   68.24    6.73
   6  -5  -2   69.70    6.50
   6  -5  -1   87.19    6.73
   6  -5  -1   83.61    7.14
  -6  -5   1   80.73    7.50
   6  -5   0    2.40    1.73
  -6  -5   0    2.58    2.11
   6  -5   1  177.25    9.74
  -6  -5  -1  171.34   10.75
   6  -5   2  123.27    8.16
  -6  -5  -2  121.30    9.17
   6  -5   3   57.56    5.76
  -6  -5  -3   54.01    6.45
   6  -5   4    9.49    2.82
  -6  -5  -4    7.19    2.71
   6  -5   5   58.07    5.99
  -6  -5  -5   54.31    6.37
   6  -5   6  212.41   11.58
  -6  -5  -6  185.71   11.84
   6  -5   6  180.51   11.41
   6  -5   7   97.88    8.21
   6  -5   7   94.14    8.38
  -6  -5  -7   85.95    8.47
   6  -5   8   27.04    4.58
   6  -5   8   24.59    4.58
  -6  -5  -8   20.19    4.59
   6  -5   9   82.49    8.09
   6  -5   9   82.96    7.93
  -6  -5  -9   62.86    7.20
   6  -5  10   38.74    5.80
   6  -5  10   40.71    5.86
  -6  -5 -10   40.77    6.04
   6  -5  11   25.21    4.71
   6  -5  11   30.64    5.33
  -6  -5 -11   19.84    4.57
   6  -5  12   26.04    5.10
   6  -5  12   34.20    5.79
  -6  -5 -12   24.63    4.88
   6  -5  13   30.45    5.44
  -6  -5 -13   31.65    5.51
   6  -4 -18   31.95    5.63
  -6  -4  17   31.26    5.79
  -6  -4  17   22.03    4.46
   6  -4 -17   28.99    5.39
   6  -4 -16  105.04    9.38
  -6  -4  16  127.07   10.23
  -6  -4  15   47.21    6.15
   6  -4 -15   41.63    5.92
  -6  -4  14   59.66    6.67
   6  -4 -14   54.31    6.51
   6  -4 -13  126.50    9.48
  -6  -4  13  135.02    9.55
  -6  -4  12  101.82    8.22
   6  -4 -12  104.26    8.34
  -6  -4  11   35.75    4.83
   6  -4 -11   32.34    4.73
  -6  -4  11   26.81    4.50
  -6  -4  10   39.32    4.98
   6  -4 -10   43.01    5.26
  -6  -4  10   43.10    5.53
  -6  -4   9  251.42   11.70
   6  -4  -9  252.38   11.99
  -6  -4   9  245.76   11.14
  -6  -4   9  258.00   12.21
  -6  -4   8  267.17   11.76
   6  -4  -8  256.67   11.81
  -6  -4   8  250.93   11.31
   6  -4  -8  217.87   10.93
  -6  -4   8  242.90   11.57
   6  -4  -7   20.62    3.57
   6  -4  -7   17.24    3.53
  -6  -4   7   18.91    3.57
  -6  -4   7   20.23    3.52
   6  -4  -6   34.02    4.47
   6  -4  -6   41.47    4.89
  -6  -4   6   37.39    4.57
  -6  -4   6   45.31    5.06
   6  -4  -5   79.81    6.43
   6  -4  -5   82.70    6.57
  -6  -4   5   91.54    7.15
  -6  -4   5   79.68    6.24
   6  -4  -4  456.28   14.84
   6  -4  -4  450.62   14.83
  -6  -4   4  500.44   16.32
  -6  -4   4  474.54   14.60
   6  -4  -3  215.39   10.11
  -6  -4   3  199.26   10.54
   6  -4  -3  204.10   10.05
   6  -4  -2   48.62    4.91
  -6  -4   2   59.27    6.01
   6  -4  -1  200.92    9.71
  -6  -4   1  215.85   11.12
   6  -4   0  457.42   14.57
  -6  -4   0  429.62   15.64
   6  -4   1  153.15    8.60
  -6  -4  -1  147.97    9.38
   6  -4   2   22.00    3.65
  -6  -4  -2   12.55    3.38
   6  -4   3  197.83   10.11
  -6  -4  -3  198.81   11.01
   6  -4   4  426.11   15.03
  -6  -4  -4  433.08   16.27
   6  -4   5   63.62    6.07
  -6  -4  -5   58.19    6.29
   6  -4   6    0.53    1.76
   6  -4   6   -0.33    1.75
   6  -4   7   45.87    5.49
   6  -4   7   43.39    5.41
  -6  -4  -7   43.40    4.84
  -6  -4  -7   34.03    4.98
   6  -4   8  145.66    9.72
  -6  -4  -8  141.64    9.01
  -6  -4  -8  150.50   10.15
   6  -4   8  150.53    9.76
   6  -4   9  166.27   10.65
  -6  -4  -9  154.23    9.86
   6  -4   9  149.90    9.93
  -6  -4  -9  172.39   10.93
   6  -4  10   -1.23    2.16
   6  -4  10    3.08    2.38
  -6  -4 -10    2.35    2.49
  -6  -4 -10    3.93    2.75
   6  -4  11   96.36    8.71
  -6  -4 -11   97.90    8.53
  -6  -4 -11   86.66    8.06
   6  -4  11   88.44    7.97
   6  -4  12  108.94    9.54
  -6  -4 -12  122.19    9.98
   6  -4  12  109.80    8.96
  -6  -4 -12   89.32    8.34
   6  -4  13   28.73    5.27
  -6  -4 -13   38.71    6.04
  -6  -4 -13   35.51    5.39
  -6  -4 -14   33.60    5.73
   6  -4  14   36.85    6.17
  -6  -3  18   28.67    5.51
   6  -3 -18   26.35    4.89
  -6  -3  17   17.80    4.33
   6  -3 -17    4.68    2.64
  -6  -3  16   33.11    5.57
   6  -3 -16   26.86    4.74
   6  -3 -15  144.94    9.93
  -6  -3  15  162.62   11.08
   6  -3 -14  173.85   10.46
   6  -3 -14  181.07   10.49
  -6  -3  14  183.99   11.35
  -6  -3  13   10.21    2.83
   6  -3 -13    9.89    3.00
   6  -3 -13   16.49    3.67
  -6  -3  12   55.18    6.14
   6  -3 -12   54.03    5.69
  -6  -3  11  147.70    9.35
   6  -3 -11  152.42    9.05
  -6  -3  10  467.41   15.73
   6  -3 -10  406.78   14.25
  -6  -3  10  442.25   14.26
  -6  -3   9   91.93    7.05
   6  -3  -9   93.67    7.13
   6  -3  -9   82.13    6.34
  -6  -3   9   98.24    6.85
  -6  -3   9   81.86    6.56
   6  -3  -8   65.75    5.81
  -6  -3   8   81.19    6.36
   6  -3  -8   64.93    5.58
  -6  -3   8   71.57    5.92
   6  -3  -7  242.43   10.82
   6  -3  -7  212.77    9.71
  -6  -3   7  236.05   10.53
  -6  -3   7  222.97    9.91
   6  -3  -6  330.23   12.41
   6  -3  -6  298.91   11.25
  -6  -3   6  344.41   12.77
  -6  -3   6  327.53   11.50
   6  -3  -5   23.79    3.48
   6  -3  -5   25.51    3.34
  -6  -3   5   35.08    3.93
  -6  -3   5   32.21    4.30
   6  -3  -4   12.73    3.02
   6  -3  -4   10.56    2.33
  -6  -3   4    9.75    2.22
  -6  -3   4   14.53    3.20
   6  -3  -3  223.17    9.89
  -6  -3   3  243.85   10.94
  -6  -3   3  232.87    8.94
   6  -3  -2  316.71   11.63
  -6  -3   2  297.46   12.12
   6  -3  -1   83.94    6.14
  -6  -3   1   80.00    6.57
   6  -3   0   25.05    3.60
  -6  -3   0   27.74    4.16
   6  -3   1  299.95   11.40
  -6  -3  -1  266.93   11.78
   6  -3   2  383.50   13.04
  -6  -3  -2  399.31   14.51
   6  -3   3  125.28    7.75
  -6  -3  -3  130.11    6.35
  -6  -3  -3  128.36    8.36
   6  -3   4    2.77    2.34
  -6  -3  -4    5.62    1.89
  -6  -3  -4    5.48    2.42
   6  -3   5  216.48   10.50
  -6  -3  -5  201.81    9.04
  -6  -3  -5  207.12   10.74
   6  -3   6  222.15   10.94
  -6  -3  -6  236.30   10.33
  -6  -3  -6  212.53   11.09
   6  -3   6  218.66   10.37
   6  -3   7   77.00    6.87
  -6  -3  -7   98.16    7.09
   6  -3   7   92.94    6.92
  -6  -3  -7   75.23    6.75
   6  -3   8    6.91    2.43
   6  -3   8   10.93    3.33
  -6  -3  -8   12.27    2.98
  -6  -3  -8    2.08    1.98
   6  -3   9   51.84    5.94
   6  -3   9   54.03    5.52
  -6  -3  -9   54.95    6.02
  -6  -3  -9   42.60    5.42
   6  -3  10  280.34   13.78
  -6  -3 -10  286.44   13.61
  -6  -3 -10  297.64   13.67
   6  -3  10  282.95   12.55
  -6  -3 -11  122.56    9.38
   6  -3  11  105.88    8.85
   6  -3  11  117.61    8.28
  -6  -3 -11  126.18    9.13
   6  -3  12    4.80    3.04
  -6  -3 -12    3.83    2.60
  -6  -3 -12   -1.95    2.42
   6  -3  13   20.53    4.64
  -6  -3 -13   25.10    4.83
   6  -3  14   54.93    7.24
  -6  -3 -14   68.00    7.92
  -6  -3 -15   48.91    6.98
  -6  -2  19   35.16    6.15
  -6  -2  18   62.45    7.92
  -6  -2  17  181.95   12.19
   6  -2 -16  113.10    8.52
  -6  -2  16  118.88    9.60
  -6  -2  15   16.97    3.88
   6  -2 -15   21.01    3.73
   6  -2 -15   25.97    4.44
  -6  -2  14    5.15    2.77
   6  -2 -14    4.61    2.08
   6  -2 -14    9.83    2.86
  -6  -2  13  145.97    9.60
   6  -2 -13  136.51    8.41
   6  -2 -13  147.33    9.34
  -6  -2  12  430.41   15.88
  -6  -2  12  470.24   14.44
   6  -2 -12  460.30   14.71
   6  -2 -12  468.48   16.13
  -6  -2  11   49.51    5.47
   6  -2 -11   53.05    5.06
  -6  -2  11   59.91    5.37
   6  -2 -11   56.77    5.73
  -6  -2  10  148.29    8.80
   6  -2 -10  151.64    7.99
  -6  -2  10  147.58    8.08
  -6  -2   9  160.93    8.89
   6  -2  -9  156.58    8.88
   6  -2  -9  147.65    7.65
  -6  -2   9  170.39    8.67
   6  -2  -8  467.86   14.91
   6  -2  -8  459.89   13.15
  -6  -2   8  444.62   13.89
   6  -2  -7  421.42   13.68
   6  -2  -7  427.91   12.36
  -6  -2   7  425.03   13.61
  -6  -2   7  430.63   12.64
   6  -2  -6   72.14    5.80
  -6  -2   6   87.24    6.35
   6  -2  -6   76.85    5.26
  -6  -2   6   82.12    5.48
   6  -2  -5  809.64   18.30
  -6  -2   5  790.10   18.60
   6  -2  -5  824.89   16.60
  -6  -2   5  822.96   15.85
   6  -2  -4  683.40   16.44
  -6  -2   4  677.64   17.13
   6  -2  -4  680.63   15.11
  -6  -2   4  678.91   13.75
   6  -2  -3   50.70    4.59
  -6  -2   3   49.01    5.06
  -6  -2   3   49.00    3.69
   6  -2  -2   13.33    2.60
  -6  -2   2   15.93    2.10
  -6  -2   2   16.53    3.27
  -6  -2   1   95.01    3.64
   6  -2  -1   85.11    5.97
   6  -2  -1   89.54    3.28
  -6  -2   1   86.39    6.62
   6  -2   0 1317.66   22.64
  -6  -2   0 1223.49   14.80
   6  -2   0 1240.39   13.41
  -6  -2   0 1315.53   24.43
   6  -2   1  367.33   12.04
  -6  -2  -1  348.99    8.81
   6  -2   1  361.24    7.97
  -6  -2  -1  362.10   12.87
   6  -2   2  235.42    9.89
  -6  -2  -2  233.09    7.87
   6  -2   2  233.87    7.06
  -6  -2  -2  242.50   10.76
   6  -2   3  247.78   10.28
  -6  -2  -3  249.38    8.75
   6  -2   3  243.53    7.78
  -6  -2  -3  242.50   10.78
   6  -2   4  502.37   14.86
  -6  -2  -4  489.65   13.11
  -6  -2  -4  509.55   15.78
   6  -2   5  222.24   10.30
  -6  -2  -5  225.81    9.45
  -6  -2  -5  236.45   10.91
   6  -2   6    2.68    2.08
  -6  -2  -6    2.98    1.67
  -6  -2  -6    2.87    2.32
   6  -2   7  198.84   10.37
  -6  -2  -7  214.34   10.29
  -6  -2  -7  203.45   10.30
   6  -2   7  211.80    9.24
  -6  -2  -8  501.84   16.37
   6  -2   8  441.64   15.80
   6  -2   8  449.88   13.64
  -6  -2  -8  458.56   15.55
   6  -2   9   34.21    4.73
   6  -2   9   30.81    3.80
  -6  -2  -9   28.15    4.35
  -6  -2  -9   26.93    4.03
   6  -2  10    8.05    2.77
  -6  -2 -10    5.21    2.27
  -6  -2 -10    6.70    2.73
   6  -2  11   20.12    4.11
  -6  -2 -11   30.16    4.92
  -6  -2 -11   23.53    3.96
   6  -2  12  262.87   13.93
  -6  -2 -12  265.88   14.17
   6  -2  13   63.42    7.24
  -6  -2 -13   65.90    7.44
   6  -2  14   -1.97    2.48
  -6  -2 -14   -0.61    2.24
   6  -2  15   27.53    5.16
  -6  -2 -15   32.67    5.86
  -6  -2 -16   56.96    7.63
  -6  -1  19   89.75    9.35
  -6  -1  18  134.33   10.80
  -6  -1  17    5.26    3.29
   6  -1 -17    6.57    2.90
  -6  -1  16   43.75    5.94
   6  -1 -16   50.47    5.98
  -6  -1  15  183.59   11.36
   6  -1 -15  178.69   10.76
  -6  -1  14  242.01   12.57
   6  -1 -14  249.19   12.39
   6  -1 -13   66.48    5.39
   6  -1 -13   55.57    5.95
  -6  -1  13   74.04    7.05
  -6  -1  12   89.28    7.36
   6  -1 -12   96.16    6.29
   6  -1 -12   85.18    7.02
  -6  -1  11  464.52   15.59
  -6  -1  11  467.35   14.54
   6  -1 -11  458.61   12.91
   6  -1 -11  465.97   15.76
  -6  -1  10  199.94    9.95
  -6  -1  10  182.75    7.73
   6  -1 -10  184.73    7.94
  -6  -1  10  194.67    9.29
   6  -1 -10  184.28    9.85
  -6  -1   9   97.80    7.03
  -6  -1   9  100.07    5.42
  -6  -1   9  106.09    6.87
   6  -1  -9   98.06    5.65
   6  -1  -8   24.84    3.65
  -6  -1   8   24.79    3.94
  -6  -1   8   25.42    2.73
   6  -1  -8   24.03    2.80
  -6  -1   8   24.45    3.52
   6  -1  -7  403.86   13.10
   6  -1  -7  396.61   10.57
  -6  -1   7  411.28   13.19
  -6  -1   7  400.29    9.58
   6  -1  -6  628.42   15.77
   6  -1  -6  636.03   13.08
  -6  -1   6  635.30   16.34
  -6  -1   6  641.72   11.47
   6  -1  -5  106.07    6.51
   6  -1  -5  105.29    5.34
  -6  -1   5  109.13    6.95
  -6  -1   5  102.09    4.39
   6  -1  -4  226.94    9.23
  -6  -1   4  208.54    5.97
  -6  -1   4  202.92    9.31
   6  -1  -3  431.56   12.50
  -6  -1   3  457.98    8.58
  -6  -1   3  440.62   13.64
   6  -1  -3  439.84    9.03
  -6  -1   3  446.12    9.18
  -6  -1   2  673.44   10.68
   6  -1  -2  710.54   15.89
  -6  -1   2  702.82   10.61
  -6  -1   2  719.33   17.32
   6  -1  -2  679.08   11.28
  -6  -1   2  698.93   10.67
   6  -1  -1  235.70    9.21
  -6  -1   1  218.09    6.50
  -6  -1   1  226.32    6.18
   6  -1  -1  222.49    6.63
  -6  -1   1  218.77    9.67
  -6  -1   1  223.74    5.66
   6  -1   0   46.02    4.22
  -6  -1   0   46.00    3.26
  -6  -1   0   45.64    2.99
   6  -1   0   46.97    3.23
  -6  -1   0   36.16    4.27
   6  -1   1  393.06   11.97
  -6  -1  -1  400.72   10.05
   6  -1   1  388.98    9.51
  -6  -1  -1  406.77   13.11
   6  -1   2  592.70   14.83
  -6  -1  -2  579.15   12.87
   6  -1   2  600.83   12.45
  -6  -1  -2  564.00   15.54
   6  -1   3   94.03    6.19
  -6  -1  -3  106.15    5.95
   6  -1   3  100.66    5.45
  -6  -1  -3  101.69    6.74
   6  -1   4   98.96    6.65
  -6  -1  -4  106.58    6.33
   6  -1   4  107.33    5.93
  -6  -1  -4  115.30    7.28
   6  -1   5  102.26    6.81
  -6  -1  -5  119.94    7.04
  -6  -1  -5  120.37    7.51
  -6  -1  -6  304.53   11.61
   6  -1   6  303.62   11.94
  -6  -1  -6  300.76   11.69
  -6  -1  -7  123.15    7.85
   6  -1   7  128.66    8.07
  -6  -1  -7  123.73    7.66
   6  -1   8   33.38    4.35
  -6  -1  -8   38.34    5.02
  -6  -1  -8   42.80    4.65
   6  -1   9  142.77    9.18
  -6  -1  -9  139.52    9.14
  -6  -1  -9  137.69    8.26
  -6  -1 -10  215.40   11.69
   6  -1  10  191.54   10.84
  -6  -1 -10  209.89   10.27
   6  -1  11   85.80    7.66
  -6  -1 -11   92.20    8.20
   6  -1  12    7.20    2.81
  -6  -1 -12    7.59    3.07
   6  -1  13   50.67    6.44
  -6  -1 -13   62.15    7.26
   6  -1  14  116.34    9.74
  -6  -1 -14  129.41   10.61
   6  -1  15   36.03    5.81
  -6  -1 -15   39.29    6.31
   6  -1  16   12.89    3.72
  -6  -1 -16   25.78    5.42
  -6   0  19    0.56    2.76
   6   0 -19   -3.18    2.31
  -6   0  18   72.98    8.09
   6   0 -18   79.59    8.03
  -6   0  17  112.82    9.43
   6   0 -17  119.03    9.48
  -6   0  16  190.96   11.80
   6   0 -16  192.91   11.70
   6   0 -15   84.02    7.57
  -6   0  15   75.06    7.33
  -6   0  14  152.26    9.94
   6   0 -14  151.83    9.87
   6   0 -13  198.58   11.05
  -6   0  13  193.72   10.71
  -6   0  12  278.62   11.14
  -6   0  12  279.09   12.37
   6   0 -12  284.37   12.98
  -6   0  11   54.00    4.87
  -6   0  11   53.05    5.46
   6   0 -11   52.61    5.65
  -6   0  10   57.13    5.71
  -6   0  10   62.36    5.13
   6   0 -10   62.71    4.24
   6   0 -10   70.02    6.36
  -6   0   9  190.53    9.22
  -6   0   9  204.38    8.32
  -6   0   9  195.57    9.53
   6   0  -9  202.58    6.98
   6   0  -9  192.56    9.97
  -6   0   8  976.32   20.04
   6   0  -8  934.97   19.49
  -6   0   8  958.91   17.11
   6   0  -8  987.93   14.64
  -6   0   8  974.40   20.62
   6   0  -8  943.10   21.43
   6   0  -7  125.08    7.15
  -6   0   7  135.91    6.28
   6   0  -7  128.14    5.20
  -6   0   7  137.24    7.87
   6   0  -7  131.82    8.17
   6   0  -6   15.32    2.62
  -6   0   6   24.66    2.76
   6   0  -6   20.15    2.08
  -6   0   6   21.52    3.62
   6   0  -5  216.32    8.70
   6   0  -5  197.83    7.31
  -6   0   5  212.74    9.50
   6   0  -5  209.61    6.37
  -6   0   5  220.01    7.33
   6   0  -4 1092.09   19.07
   6   0  -4 1050.12   16.44
  -6   0   4 1027.95   20.74
  -6   0   4 1125.84   16.15
   6   0  -3  379.89   11.05
  -6   0   3  369.25    9.11
   6   0  -3  367.45    9.69
  -6   0   3  356.66   12.25
   6   0  -2   34.13    3.55
  -6   0   2   34.83    3.02
  -6   0   2   32.48    2.83
   6   0  -2   32.97    2.98
  -6   0   2   38.73    4.49
   6   0  -1  551.23   13.21
  -6   0   1  529.28   11.55
   6   0  -1  543.25   11.86
  -6   0   1  536.26   14.75
  -6   0   1  548.37   11.19
   6   0   0  292.98    9.70
  -6   0   0  286.27    8.85
   6   0   0  283.22    8.77
  -6   0   0  298.60   11.02
  -6   0   0  278.27    8.16
   6   0   1  113.33    6.25
  -6   0  -1  117.68    5.96
  -6   0  -1  120.46    5.58
   6   0   1  127.00    6.11
  -6   0  -1  111.24    6.88
  -6   0  -2    2.86    1.49
   6   0   2    2.29    1.70
  -6   0  -2    4.71    1.72
   6   0   2    4.39    1.80
  -6   0  -2    3.31    2.02
   6   0   3  449.85   12.74
  -6   0  -3  437.05   12.49
  -6   0  -3  430.27   13.22
   6   0   3  459.00   12.40
   6   0   4 1140.74   20.78
  -6   0  -4 1137.02   21.05
   6   0   4 1198.97   20.80
  -6   0  -4 1113.74   21.36
  -6   0  -5  264.56   10.64
   6   0   5  273.28   10.58
  -6   0  -5  259.96   10.40
   6   0   5  290.54   10.86
  -6   0  -6    2.66    1.83
   6   0   6    2.42    1.82
   6   0   6    3.90    2.28
  -6   0  -6    8.39    2.43
  -6   0  -7  181.00    9.68
   6   0   7  170.41    8.94
  -6   0  -7  167.23    8.48
   6   0   8  719.37   19.00
  -6   0  -8  748.02   20.25
  -6   0  -8  729.57   17.62
   6   0   9  271.09   12.21
  -6   0  -9  318.80   13.83
  -6   0  -9  308.95   11.51
   6   0  10    4.30    2.26
  -6   0 -10    1.86    2.05
   6   0  11  144.82    9.53
  -6   0 -11  155.86   10.47
   6   0  12  125.68    9.39
  -6   0 -12  136.80   10.15
   6   0  13   35.82    5.42
  -6   0 -13   38.04    5.89
   6   0  14   12.64    3.80
  -6   0 -14    5.33    2.60
   6   0  15   15.55    4.15
  -6   0 -15   15.78    4.26
   6   0  16  153.92   11.69
  -6   0 -16  163.57   12.69
   6   1 -20   21.41    4.74
  -6   1  19   76.24    8.43
   6   1 -19   77.20    8.32
   6   1 -18  142.42   11.03
  -6   1  18  142.07   11.03
  -6   1  17   10.70    3.91
   6   1 -17    7.27    2.69
  -6   1  16   53.36    6.37
  -6   1  16   60.48    6.84
   6   1 -16   58.27    6.85
  -6   1  15  151.47    9.88
  -6   1  15  158.56   10.37
   6   1 -15  166.41   11.03
  -6   1  14  235.82   11.76
   6   1 -14  268.26   13.51
  -6   1  14  232.10   12.01
  -6   1  13   68.10    6.30
  -6   1  13   67.64    6.44
   6   1 -13   69.57    6.90
  -6   1  12  100.92    7.25
  -6   1  12   97.41    7.41
   6   1 -12  108.33    8.36
  -6   1  11  440.86   14.17
  -6   1  11  448.07   14.87
   6   1 -11  456.42   16.37
  -6   1  10  191.33    9.04
  -6   1  10  186.18    9.26
   6   1 -10  186.19   10.37
  -6   1   9   71.95    5.55
  -6   1   9   66.33    5.44
   6   1  -9   74.87    6.46
  -6   1   8   18.61    3.02
  -6   1   8   16.70    3.00
   6   1  -8   17.46    3.64
  -6   1   7  350.93   11.44
   6   1  -7  356.56   11.45
  -6   1   7  357.43   11.07
  -6   1   7  356.71   12.76
   6   1  -7  353.68   13.05
   6   1  -6  680.65   15.20
  -6   1   6  662.25   14.57
   6   1  -6  691.61   15.49
  -6   1   6  682.53   17.42
   6   1  -6  656.15   17.28
   6   1  -5  113.10    6.17
  -6   1   5   96.69    5.57
   6   1  -5   99.94    5.86
   6   1  -5   95.42    3.31
  -6   1   5  106.73    7.05
   6   1  -5   99.38    6.84
   6   1  -4  205.68    7.98
  -6   1   4  214.20    8.03
   6   1  -4  223.39    8.60
  -6   1   4  206.95    9.63
   6   1  -4  216.99    9.68
   6   1  -3  450.32   11.56
   6   1  -3  466.36   12.23
  -6   1   3  468.44   14.32
  -6   1   3  470.75   11.65
  -6   1   2  715.55   14.79
   6   1  -2  710.78   14.26
   6   1  -2  684.58   14.86
  -6   1   2  693.42   17.09
  -6   1   2  682.32   14.04
   6   1  -1  232.69    8.22
  -6   1   1  222.98    8.47
  -6   1   1  235.38    8.33
   6   1  -1  233.69    8.76
  -6   1   1  224.95    9.80
   6   1   0   41.06    3.57
  -6   1   0   41.11    3.83
  -6   1   0   34.03    3.33
   6   1   0   40.83    3.87
  -6   1   0   37.31    4.25
   6   1   1  422.02   11.19
  -6   1  -1  434.81   12.32
   6   1   1  421.94   12.10
  -6   1  -1  417.14   13.04
  -6   1  -1  417.23   11.38
   6   1   2  571.30   13.31
  -6   1  -2  573.03   14.61
   6   1   2  587.21   14.67
  -6   1  -2  598.20   15.49
  -6   1  -2  567.65   13.61
   6   1   3   78.88    5.16
  -6   1  -3   85.70    6.02
   6   1   3   93.20    6.14
  -6   1  -3   89.06    6.17
  -6   1  -3   88.99    5.73
  -6   1  -4  104.30    6.87
   6   1   4  105.68    6.14
   6   1   4  107.47    6.79
  -6   1  -4   96.38    6.27
  -6   1  -4  100.82    6.27
  -6   1  -5   92.27    6.80
   6   1   5   96.06    6.14
   6   1   5  101.67    6.88
  -6   1  -5   92.26    6.20
  -6   1  -6  353.50   13.35
   6   1   6  338.38   11.82
   6   1   6  352.06   13.02
  -6   1  -6  341.77   11.72
  -6   1  -7  131.74    8.58
   6   1   7  133.01    7.76
   6   1   7  130.49    8.41
  -6   1  -7  150.15    7.83
  -6   1  -8   34.65    4.89
   6   1   8   46.23    5.31
  -6   1  -8   42.80    4.32
   6   1   8   35.53    4.34
   6   1   9  138.49    8.52
  -6   1  -9  155.35    9.98
   6   1  10  197.66   10.53
  -6   1 -10  198.91   11.75
   6   1  11   84.42    7.32
  -6   1 -11   79.30    7.78
   6   1  12   11.16    3.12
  -6   1 -12    9.30    3.51
  -6   1 -13   66.39    7.59
   6   1  13   63.23    6.94
   6   1  14  124.72    9.78
  -6   1 -14  128.54   10.65
   6   1  15   31.74    5.39
  -6   1 -15   36.13    6.19
   6   1  16   11.07    3.89
  -6   1 -16    9.48    3.37
  -6   2  19   22.16    5.04
  -6   2  19   29.35    5.54
   6   2 -19   35.84    5.99
  -6   2  18   73.45    8.31
  -6   2  18   60.66    7.43
   6   2 -18   56.53    7.36
  -6   2  17  158.11   11.34
   6   2 -17  169.83   12.26
  -6   2  17  160.57   11.21
  -6   2  16  115.45    9.42
  -6   2  16  122.19    9.49
   6   2 -16  118.31   10.02
  -6   2  15   21.76    4.47
  -6   2  15   17.00    3.74
   6   2 -15   14.88    3.92
  -6   2  14    2.39    2.53
  -6   2  14   10.73    3.24
   6   2 -14    9.68    3.49
  -6   2  13  135.44    9.12
   6   2 -13  149.15   10.34
  -6   2  13  142.87    9.10
  -6   2  12  445.75   15.62
  -6   2  12  469.82   15.65
   6   2 -12  473.20   17.77
  -6   2  11   50.71    5.44
   6   2 -11   56.82    6.29
  -6   2  11   51.96    5.27
  -6   2  10  129.03    7.96
  -6   2  10  148.92    8.23
   6   2 -10  137.05    9.19
  -6   2   9  152.17    8.37
  -6   2   9  155.31    8.09
   6   2  -9  163.83    9.77
  -6   2   8  423.92   13.40
  -6   2   8  446.54   13.02
   6   2  -8  450.65   15.66
  -6   2   7  414.89   12.90
  -6   2   7  421.34   12.22
   6   2  -7  423.94   14.75
  -6   2   6   70.58    5.07
  -6   2   6   62.85    5.21
   6   2  -6   70.11    5.58
   6   2  -6   73.93    6.25
   6   2  -5  790.25   15.27
  -6   2   5  782.66   16.88
   6   2  -5  785.80   17.79
   6   2  -5  800.86   19.26
   6   2  -4  707.07   14.03
  -6   2   4  706.84   15.89
   6   2  -4  717.40   16.77
   6   2  -4  711.70   17.73
   6   2  -3   55.39    3.86
  -6   2   3   49.88    4.38
   6   2  -3   64.15    5.14
   6   2  -3   48.46    4.83
  -6   2   2   16.39    2.87
   6   2  -2   19.10    2.38
  -6   2   2   19.10    2.89
   6   2  -2   18.72    3.02
  -6   2   2   25.29    3.82
   6   2  -2   18.35    2.99
  -6   2   1   74.97    5.54
   6   2  -1   89.52    4.86
  -6   2   1   81.49    5.54
   6   2  -1   80.57    5.81
  -6   2   1   81.58    6.15
   6   2  -1   83.44    5.73
   6   2   0 1343.26   18.53
  -6   2   0 1303.33   22.79
  -6   2   0 1289.13   21.62
   6   2   0 1313.18   22.97
  -6   2   0 1299.47   23.79
   6   2   0 1302.44   21.63
   6   2   1  346.73    9.61
  -6   2  -1  332.19   11.78
  -6   2  -1  331.17   11.17
   6   2   1  326.97   11.69
  -6   2  -1  324.72   11.78
   6   2   1  317.95   10.48
   6   2   2  251.10    8.42
  -6   2  -2  235.42   10.20
  -6   2  -2  237.85    9.57
   6   2   2  245.54   10.30
  -6   2  -2  238.30   10.09
   6   2   2  251.38    9.11
   6   2   3  223.40    8.17
  -6   2  -3  238.85   10.48
   6   2   3  238.55   10.43
  -6   2  -3  233.90    9.89
  -6   2  -3  233.87    9.79
  -6   2  -4  503.16   15.56
   6   2   4  510.83   12.77
   6   2   4  513.48   15.53
  -6   2  -4  486.73   14.11
  -6   2  -4  496.83   14.56
  -6   2  -5  242.09   11.31
   6   2   5  218.64    8.78
  -6   2  -5  211.30    9.80
   6   2   5  236.72   10.95
  -6   2  -5  243.96    9.98
  -6   2  -6    0.84    1.80
   6   2   6    4.83    1.85
   6   2   6    5.14    2.69
  -6   2  -6    4.29    1.98
  -6   2  -7  212.94   11.35
   6   2   7  205.74    9.31
  -6   2  -7  213.15    9.13
   6   2   7  218.49   11.22
   6   2   8  483.34   14.74
  -6   2  -8  429.81   16.40
   6   2   8  491.29   17.35
  -6   2  -9   32.78    4.97
   6   2   9   27.32    4.85
   6   2   9   27.90    4.03
  -6   2 -10    6.95    3.11
   6   2  10    6.99    2.96
   6   2  10    6.13    2.29
  -6   2 -11   32.58    5.46
   6   2  11   22.86    4.87
   6   2  11   23.37    3.83
   6   2  12  269.32   13.02
  -6   2 -12  279.55   15.05
   6   2  12  260.58   14.49
  -6   2 -13   47.78    6.81
   6   2  13   59.68    6.56
   6   2  13   56.31    7.35
  -6   2 -14    4.47    3.51
   6   2  14    1.00    2.87
   6   2  14    3.49    2.62
  -6   2 -15   21.55    5.38
   6   2  15   28.98    5.77
   6   2  15   27.39    4.86
   6   2  16   62.13    7.44
  -6   3  19   85.40    8.91
  -6   3  18   42.03    6.56
  -6   3  18   28.00    5.21
   6   3 -18   39.49    6.84
  -6   3  17   13.45    3.98
  -6   3  17   19.58    4.44
   6   3 -17   14.61    4.38
  -6   3  16   28.30    5.60
  -6   3  16   28.62    5.08
   6   3 -16   28.45    5.37
  -6   3  15  179.89   11.75
   6   3 -15  170.76   12.09
  -6   3  15  158.32   10.42
  -6   3  14  176.36   11.28
  -6   3  14  187.35   10.93
   6   3 -14  174.77   11.93
  -6   3  13    9.87    3.53
  -6   3  13    7.32    2.74
   6   3 -13    8.23    3.15
  -6   3  12   54.22    6.31
   6   3 -12   45.45    6.12
  -6   3  12   56.52    5.68
  -6   3  11  130.43    8.92
  -6   3  11  134.38    8.11
   6   3 -11  132.00    9.70
  -6   3  10  431.93   15.37
  -6   3  10  452.75   14.18
   6   3 -10  446.77   17.10
  -6   3   9  102.80    7.57
   6   3  -9   89.06    7.66
  -6   3   9   95.81    6.47
  -6   3   8   74.37    6.31
  -6   3   8   82.59    5.70
   6   3  -8   85.69    7.24
  -6   3   7  236.61   10.59
  -6   3   7  247.04    9.20
   6   3  -7  230.47   11.45
  -6   3   6  329.72   10.20
  -6   3   6  298.87   11.60
   6   3  -6  300.30   12.38
   6   3  -6  316.03   13.04
  -6   3   5   23.36    2.77
  -6   3   5   20.77    3.48
   6   3  -5   18.93    3.48
   6   3  -5   23.98    3.73
  -6   3   4   16.84    2.39
  -6   3   4   16.03    3.38
   6   3  -4   12.83    2.89
   6   3  -4   13.57    2.64
   6   3  -3  259.57    7.85
  -6   3   3  254.52   10.47
   6   3  -3  234.77   10.62
   6   3  -3  256.42   10.86
   6   3  -2  341.24    8.76
  -6   3   2  344.21   12.15
   6   3  -2  348.66   12.76
   6   3  -2  344.54   12.11
  -6   3   1   67.57    5.88
   6   3  -1   71.62    4.04
  -6   3   1   73.56    5.83
   6   3  -1   71.59    5.90
   6   3  -1   79.91    5.78
  -6   3   0   29.22    4.20
   6   3   0   26.25    2.48
  -6   3   0   21.50    3.51
   6   3   0   27.65    3.86
   6   3   0   30.09    3.66
   6   3   1  268.27    7.85
  -6   3  -1  270.96   11.60
  -6   3  -1  262.52   10.76
   6   3   1  269.45   11.51
   6   3   1  270.95    9.77
   6   3   2  404.58    9.97
  -6   3  -2  379.63   13.94
  -6   3  -2  391.81   13.36
   6   3   2  400.87   14.11
   6   3   2  370.18   10.94
  -6   3  -3  140.14    8.70
   6   3   3  144.92    6.21
  -6   3  -3  136.99    8.20
   6   3   3  147.09    8.88
   6   3   3  135.03    6.35
  -6   3  -4    3.01    2.25
   6   3   4    3.32    1.78
   6   3   4    3.75    1.31
  -6   3  -4   -0.43    2.55
  -6   3  -5  198.10   10.71
   6   3   5  210.43    8.14
   6   3   5  185.48   10.34
  -6   3  -5  205.25   10.49
  -6   3  -6  216.19   11.61
   6   3   6  214.24    8.62
   6   3   6  213.17   11.48
  -6   3  -6  235.38   11.48
  -6   3  -7   71.62    7.05
   6   3   7   69.15    5.22
   6   3   7   74.62    7.04
  -6   3  -8    8.21    3.38
   6   3   8   10.88    3.42
   6   3   8    7.01    1.99
   6   3   9   50.19    4.95
  -6   3  -9   43.20    5.89
   6   3   9   46.71    6.19
   6   3  10  301.25   12.37
  -6   3 -10  290.48   15.05
   6   3  10  321.92   15.64
   6   3  11  117.57    8.14
  -6   3 -11  112.26    9.90
   6   3  11   91.48    8.70
  -6   3 -12    5.16    3.17
   6   3  12    2.34    2.96
  -6   3 -13   18.03    4.53
   6   3  13   21.22    5.12
  -6   3 -14   65.63    8.16
   6   3  14   57.74    7.84
  -6   4  17   28.36    5.77
   6   4 -17   29.45    5.67
  -6   4  16  117.91   10.51
   6   4 -16  117.32   10.85
  -6   4  15   50.58    6.88
   6   4 -15   32.72    5.66
  -6   4  14   52.80    6.73
   6   4 -14   57.86    7.54
  -6   4  13  129.69   10.06
   6   4 -13  117.72   10.10
  -6   4  12  113.73    9.24
   6   4 -12  108.02    9.57
  -6   4  11   27.25    4.84
   6   4 -11   30.03    5.03
  -6   4  10   39.92    5.44
   6   4 -10   41.53    5.80
  -6   4   9  200.84   11.07
   6   4  -9  223.79   12.57
  -6   4   8  239.84   11.80
   6   4  -8  231.13   12.37
  -6   4   7   18.86    3.89
   6   4  -7   21.88    4.14
  -6   4   6   38.39    4.99
   6   4  -6   47.01    5.44
   6   4  -6   45.11    5.52
  -6   4   5   78.52    6.77
   6   4  -5   89.62    7.26
   6   4  -5   79.97    6.89
  -6   4   4  471.96   15.57
   6   4  -4  471.13   16.09
   6   4  -4  477.35   15.94
  -6   4   3  184.51    9.72
   6   4  -3  190.78   10.27
   6   4  -3  208.82   10.26
  -6   4   2   46.00    5.15
   6   4  -2   46.73    5.44
   6   4  -2   47.01    4.99
  -6   4   1  186.16    9.75
   6   4  -1  205.83   10.67
   6   4  -1  208.05    9.62
  -6   4   0  451.32   16.01
  -6   4   0  443.42   14.98
   6   4   0  462.29   15.85
   6   4   0  474.79   13.94
  -6   4  -1  145.89    9.43
  -6   4  -1  132.88    8.42
   6   4   1  135.78    8.85
   6   4   1  141.48    7.32
  -6   4  -2   21.74    4.14
   6   4   2   21.83    3.96
  -6   4  -2   20.22    3.80
   6   4   2   25.34    3.79
  -6   4  -3  220.02   11.54
   6   4   3  203.39   11.05
  -6   4  -3  200.01   10.57
   6   4   3  206.44    9.98
  -6   4  -4  418.17   16.22
   6   4   4  415.24   16.06
  -6   4  -4  439.56   15.71
   6   4   4  437.76   14.31
  -6   4  -5   55.16    6.29
   6   4   5   60.19    6.49
   6   4   5   70.99    5.85
  -6   4  -5   57.63    6.18
  -6   4  -6    1.82    2.12
   6   4   6   -0.94    2.50
  -6   4  -6    1.87    2.69
  -6   4  -7   38.80    5.63
   6   4   7   40.99    5.75
  -6   4  -7   60.18    6.72
  -6   4  -8  146.59   10.69
   6   4   8  140.98   10.31
  -6   4  -9  164.18   11.47
   6   4   9  151.45   10.94
  -6   4 -10   -2.43    2.34
   6   4  10    6.63    3.37
  -6   4 -11   87.89    9.03
   6   4  11   85.63    8.81
  -6   4 -12  109.96   10.32
   6   4  12  127.53   11.02
  -6   4 -13   34.12    6.02
   6   4  13   31.30    5.91
  -6   5  15   62.27    7.96
   6   5 -15   59.47    7.87
  -6   5  14   36.94    6.16
   6   5 -14   56.33    7.79
  -6   5  13   81.23    8.44
   6   5 -13   65.41    7.97
  -6   5  12   12.89    4.37
   6   5 -12   19.45    4.94
  -6   5  11  267.41   14.05
   6   5 -11  258.54   14.96
  -6   5  10   84.06    7.97
   6   5 -10   85.51    8.63
  -6   5   9   15.29    3.94
   6   5  -9    8.47    3.03
  -6   5   8    3.59    3.48
   6   5  -8   -0.28    2.20
  -6   5   7  137.06    9.49
   6   5  -7  132.55    9.76
  -6   5   6  201.61   11.31
   6   5  -6  211.39   11.89
   6   5  -6  205.13   11.81
  -6   5   5   63.04    6.50
   6   5  -5   53.58    6.22
   6   5  -5   47.94    5.77
  -6   5   4   30.14    4.78
   6   5  -4   35.23    5.02
   6   5  -4   37.40    4.99
  -6   5   3  150.50    9.56
   6   5  -3  149.28    9.81
   6   5  -3  158.42    9.49
  -6   5   2   65.03    6.64
   6   5  -2   69.19    6.92
   6   5  -2   70.54    6.27
  -6   5   1   74.82    7.10
   6   5  -1   81.44    7.39
   6   5  -1   87.98    6.66
   6   5   0    3.23    2.22
  -6   5   0    3.74    2.95
   6   5   0   -0.36    2.07
  -6   5  -1  169.66   10.87
   6   5   1  166.35   10.42
  -6   5  -1  169.91   10.30
   6   5   1  172.12   10.34
  -6   5  -2  118.08    9.09
   6   5   2  119.91    8.99
  -6   5  -2  136.65    9.32
   6   5   2  142.00    9.27
  -6   5  -3   50.43    6.39
   6   5   3   50.93    6.20
  -6   5  -3   41.08    5.59
   6   5   3   56.73    6.10
  -6   5  -4    8.40    3.47
   6   5   4   13.10    3.70
  -6   5  -4    8.58    3.66
   6   5   4    5.76    2.20
  -6   5  -5   51.06    6.55
   6   5   5   50.70    6.17
   6   5   5   57.26    6.09
  -6   5  -5   55.64    6.58
  -6   5  -6  204.68   12.55
   6   5   6  194.43   12.14
  -6   5  -6  215.14   12.48
  -6   5  -7   81.29    8.26
   6   5   7   77.23    8.12
  -6   5  -7   88.03    8.36
  -6   5  -8   26.02    5.02
   6   5   8   20.65    4.76
  -6   5  -9   76.38    8.33
   6   5   9   72.92    8.25
  -6   5 -10   51.22    7.06
   6   5  10   37.84    6.03
  -6   5 -11   39.34    6.91
   6   5  11   37.83    6.23
  -6   5 -12   40.50    6.69
   6   5  12   35.80    6.49
   6   6 -13   80.09    9.38
  -6   6  12   96.25    9.59
   6   6 -12  104.96   10.46
  -6   6  11   18.80    4.96
   6   6 -11   12.05    4.26
  -6   6  10   22.89    4.79
   6   6 -10   20.14    4.72
  -6   6   9   83.91    8.56
   6   6  -9   61.53    7.51
  -6   6   8   78.54    8.16
   6   6  -8   88.91    8.90
  -6   6   7   65.22    7.32
   6   6  -7   68.63    7.51
  -6   6   6   10.70    3.92
   6   6  -6   18.27    4.38
   6   6  -6   15.06    3.98
  -6   6   5  138.39   10.00
   6   6  -5  126.74    9.85
   6   6  -5  126.03    9.72
  -6   6   4  115.62    9.21
   6   6  -4  115.28    9.37
   6   6  -4  115.96    8.93
  -6   6   3   89.39    8.17
   6   6  -3   72.83    7.49
   6   6  -3   70.94    6.89
   6   6  -2    7.52    3.54
  -6   6   2    8.31    3.06
   6   6  -1  140.11   10.27
  -6   6   1  155.70   10.51
   6   6  -1  150.46   10.75
   6   6   0  126.39    9.71
  -6   6   0  141.10   10.00
   6   6   0  146.05   10.46
   6   6   1   52.09    6.41
  -6   6  -1   46.18    6.02
   6   6   1   49.89    6.49
  -6   6  -1   52.15    5.92
   6   6   2    6.29    3.06
   6   6   2   14.77    3.73
  -6   6  -2    9.93    3.68
  -6   6  -3   59.48    7.32
   6   6   3   75.62    7.76
  -6   6  -3   71.20    7.54
   6   6   3   72.52    7.47
  -6   6  -4   98.31    9.24
   6   6   4   81.16    8.16
   6   6   4   82.85    7.81
  -6   6  -4   81.27    8.09
  -6   6  -5   56.13    7.22
   6   6   5   51.04    6.52
  -6   6  -5   61.43    7.19
   6   6   5   52.56    6.39
  -6   6  -6   28.01    5.47
   6   6   6   18.50    4.51
  -6   6  -6   18.18    4.57
  -6   6  -7   43.94    6.48
   6   6   7   34.31    5.60
  -6   6  -7   54.68    7.47
  -6   6  -8   69.96    8.43
   6   6   8   64.20    7.82
  -6   6  -9   48.01    7.15
   6   6   9   53.15    7.46
  -6   6 -10    8.62    3.90
   6   6  10   -1.11    2.44
   6   7 -10   47.27    7.07
  -6   7   9   11.23    4.00
   6   7  -9    8.16    3.32
  -6   7   8   21.34    5.07
   6   7  -8   11.89    3.91
  -6   7   7  110.55    9.85
   6   7  -7   85.44    8.86
  -6   7   6   21.62    4.94
   6   7  -6   22.16    4.84
   6   7  -5   12.68    3.70
  -6   7   5   11.56    3.94
   6   7  -4    0.58    2.17
  -6   7   4    3.68    3.47
   6   7  -3   95.45    9.16
  -6   7   3   95.28    8.98
   6   7  -2   93.23    8.92
  -6   7   2   92.40    8.86
   6   7  -1    8.51    3.69
  -6   7   1    7.30    3.25
   6   7  -1    7.71    3.16
  -6   7   1    3.75    2.53
   6   7   0    1.73    2.27
  -6   7   0    8.52    3.82
   6   7   0    7.60    3.32
  -6   7   0    5.93    2.98
   6   7   1   20.51    4.92
   6   7   1   18.79    4.54
  -6   7  -1   11.68    3.98
   6   7   2   43.85    6.48
  -6   7  -2   48.06    6.59
   6   7   2   51.40    6.97
   6   7   3   88.90    8.98
  -6   7  -3   82.75    8.68
   6   7   3   88.41    8.93
   6   7   4   -6.65    3.24
  -6   7  -4    0.92    2.84
   6   7   4    3.13    2.77
   6   7   5   77.20    8.59
   6   7   5   91.05    9.01
  -6   7  -5   91.35    9.21
  -6   7  -6   11.11    4.35
  -6   7  -6   21.12    5.18
   6   7   6    9.11    3.57
  -6   8   3   12.87    4.48
  -6   8   2    5.88    3.01
  -6   8   1   27.08    5.41
  -7  -7   7   21.44    4.76
  -7  -7   6   29.34    5.42
   7  -7  -5   -0.73    2.37
  -7  -7   5    2.36    2.40
  -7  -7   5   -0.52    1.93
   7  -7  -4   42.71    6.48
  -7  -7   4   33.21    5.45
  -7  -7   4   36.93    6.09
  -7  -7   3   96.66    9.46
   7  -7  -3  113.87   10.01
   7  -7  -2   29.97    5.45
  -7  -7   2   29.71    5.23
   7  -7  -1    2.87    2.31
  -7  -7   1    5.25    3.18
   7  -7   0   12.57    3.93
  -7  -7   0   15.30    4.72
   7  -7   1   58.19    7.22
  -7  -7  -1   64.25    8.20
   7  -7   2   71.18    8.10
  -7  -7  -2   76.10    8.77
  -7  -6  12   20.09    5.04
   7  -6 -11   16.49    4.16
  -7  -6  11   19.19    4.64
   7  -6 -10   50.28    6.75
  -7  -6  10   37.27    6.03
   7  -6  -9   58.51    7.29
  -7  -6   9   59.02    7.15
   7  -6  -8   50.95    6.15
   7  -6  -8   72.49    7.73
  -7  -6   8   53.64    6.69
   7  -6  -7    0.14    1.79
   7  -6  -7    1.52    2.18
  -7  -6   7    3.13    2.49
  -7  -6   7    0.31    2.08
   7  -6  -6  115.91    8.87
   7  -6  -6  121.73    9.75
  -7  -6   6  103.56    9.00
  -7  -6   6  109.33    9.08
   7  -6  -5   17.85    3.81
   7  -6  -5   10.60    3.32
  -7  -6   5   14.76    3.86
  -7  -6   5   12.08    3.53
   7  -6  -4   20.30    3.90
   7  -6  -4   27.92    4.90
  -7  -6   4   22.36    4.32
  -7  -6   4   24.84    5.04
   7  -6  -3   23.99    4.00
   7  -6  -3   24.31    4.60
  -7  -6   3   23.84    4.96
   7  -6  -2   42.01    5.34
   7  -6  -2   53.92    6.45
  -7  -6   2   60.29    7.20
   7  -6  -1   98.57    8.05
  -7  -6   1  113.10    9.72
   7  -6  -1   96.34    8.58
   7  -6   0   64.01    6.58
   7  -6   0   47.06    6.11
  -7  -6   0   58.63    7.32
   7  -6   1    4.92    2.52
  -7  -6  -1    1.56    2.64
   7  -6   2   41.57    5.43
  -7  -6  -2   41.67    6.37
   7  -6   3   75.27    7.34
  -7  -6  -3   64.14    7.78
   7  -6   4   82.09    7.73
  -7  -6  -4   97.34    9.43
   7  -6   5   -2.81    2.29
  -7  -6  -5   -0.60    3.24
   7  -6   6   32.83    5.25
  -7  -6  -6   34.63    5.81
   7  -6   7   35.65    5.64
  -7  -6  -7   23.66    5.11
   7  -6   8   56.60    6.94
   7  -6   9   10.23    3.26
  -7  -5  15   60.88    7.46
   7  -5 -15   65.35    7.82
  -7  -5  14   23.27    4.57
   7  -5 -14   36.05    5.91
  -7  -5  13   11.07    3.52
   7  -5 -13    3.06    2.30
  -7  -5  12  105.28    8.99
   7  -5 -12   86.69    8.43
  -7  -5  11   69.55    7.18
   7  -5 -11   61.18    7.00
  -7  -5  11   66.90    7.55
  -7  -5  10   26.91    4.56
   7  -5 -10   25.72    4.71
  -7  -5  10   28.46    5.17
   7  -5  -9   10.74    3.49
  -7  -5   9    5.77    2.59
  -7  -5   8   83.03    7.37
   7  -5  -8   89.46    7.90
   7  -5  -8   86.22    7.86
  -7  -5   8   77.25    7.25
  -7  -5   8   84.65    7.76
   7  -5  -7  269.83   13.20
   7  -5  -7  261.86   13.17
  -7  -5   7  285.06   13.78
  -7  -5   7  281.87   13.35
   7  -5  -6   69.21    6.66
   7  -5  -6   67.86    6.82
  -7  -5   6   70.40    7.09
  -7  -5   6   76.06    7.00
   7  -5  -5   12.28    3.08
   7  -5  -5    7.72    2.90
  -7  -5   5    8.30    2.80
  -7  -5   5   12.84    3.40
   7  -5  -4   62.80    6.22
   7  -5  -4   58.54    6.25
  -7  -5   4   65.06    6.93
  -7  -5   4   63.24    6.17
   7  -5  -3  154.51    9.67
   7  -5  -3  173.28   10.51
  -7  -5   3  163.45   10.79
   7  -5  -2  191.49   10.72
  -7  -5   2  198.64   11.98
   7  -5  -2  181.63   10.75
   7  -5  -1    5.50    1.85
  -7  -5   1    6.54    2.95
   7  -5   0  147.32    9.46
  -7  -5   0  132.08    9.96
   7  -5   1  132.43    9.04
  -7  -5  -1  119.76    9.61
   7  -5   2   82.80    7.41
  -7  -5  -2   86.46    8.30
   7  -5   3    5.06    2.44
  -7  -5  -3    5.82    2.55
   7  -5   4   13.02    3.21
  -7  -5  -4   13.61    4.15
   7  -5   5  101.01    8.50
  -7  -5  -5  104.08    9.35
   7  -5   6  142.05   10.03
  -7  -5  -6  120.69   10.15
   7  -5   7   13.71    3.76
  -7  -5  -7    9.46    3.35
   7  -5   8   31.03    5.21
  -7  -5  -8   26.60    5.19
   7  -5   9   79.73    8.19
  -7  -5  -9   86.87    8.98
   7  -5  10  109.92    9.74
   7  -5  10  104.77    9.50
  -7  -5 -10  101.10    9.69
   7  -5  11   -1.09    2.42
   7  -5  11    5.18    2.94
  -7  -5 -11    1.04    2.16
   7  -4 -17   58.39    7.27
  -7  -4  16   26.60    5.21
   7  -4 -16   25.71    4.82
  -7  -4  15   25.42    5.06
   7  -4 -15   19.53    4.31
   7  -4 -14   72.77    7.52
  -7  -4  14   69.57    7.55
  -7  -4  13   85.43    8.06
   7  -4 -13   73.25    7.47
  -7  -4  12   85.66    7.97
   7  -4 -12   85.25    7.75
  -7  -4  11    2.40    2.43
   7  -4 -11    3.67    2.46
  -7  -4  10  159.72   10.12
   7  -4 -10  132.51    9.13
  -7  -4  10  138.00    9.05
  -7  -4  10  152.18   10.01
  -7  -4   9  220.26   11.60
   7  -4  -9  234.88   12.27
   7  -4  -9  184.90   10.59
  -7  -4   9  214.93   11.35
  -7  -4   9  222.91   11.65
   7  -4  -8   26.69    4.31
   7  -4  -8   24.81    4.03
  -7  -4   8   28.29    4.34
  -7  -4   8   30.86    4.46
   7  -4  -7    0.47    2.06
  -7  -4   7    1.27    2.08
  -7  -4   7    0.60    1.87
   7  -4  -6   63.73    6.20
   7  -4  -6   54.52    5.70
  -7  -4   6   53.86    5.95
  -7  -4   6   65.88    6.01
   7  -4  -5  293.28   12.84
   7  -4  -5  280.21   12.40
  -7  -4   5  285.51   13.21
  -7  -4   5  281.26   11.67
   7  -4  -4  122.27    8.29
   7  -4  -4  127.84    8.45
  -7  -4   4  124.61    8.92
  -7  -4   4  126.76    7.77
   7  -4  -3   10.14    2.97
   7  -4  -3   12.75    3.04
  -7  -4   3    9.41    2.45
   7  -4  -2  131.70    8.45
  -7  -4   2  121.07    8.86
   7  -4  -1   99.41    7.49
  -7  -4   1   98.69    8.19
   7  -4   0  125.87    8.33
  -7  -4   0  132.01    9.53
   7  -4   1   12.16    3.07
  -7  -4  -1    6.95    3.09
   7  -4   2  135.98    8.85
  -7  -4  -2  140.90    9.83
   7  -4   3  281.81   12.84
  -7  -4  -3  266.69   13.65
   7  -4   4   50.19    5.65
  -7  -4  -4   44.78    5.84
   7  -4   5    5.21    2.36
  -7  -4  -5    0.65    2.30
   7  -4   6   41.92    5.41
  -7  -4  -6   44.92    6.14
   7  -4   7  164.84   10.67
  -7  -4  -7  167.05   11.25
   7  -4   8  140.72   10.26
  -7  -4  -8  138.85   10.38
   7  -4   9   18.95    4.50
  -7  -4  -9   12.99    3.80
   7  -4  10   37.72    5.77
   7  -4  10   41.81    5.71
  -7  -4 -10   34.05    5.35
   7  -4  11   29.67    5.44
  -7  -4 -11   31.14    5.46
   7  -4  12   37.31    6.15
  -7  -4 -12   22.27    4.72
  -7  -3  17    4.41    2.86
   7  -3 -16   63.76    6.90
  -7  -3  16   87.15    8.78
   7  -3 -15  154.80   10.35
  -7  -3  15  161.80   11.30
  -7  -3  14   61.02    7.09
   7  -3 -14   52.15    6.00
   7  -3 -14   63.55    6.77
  -7  -3  13   14.49    3.90
   7  -3 -13   17.56    3.44
   7  -3 -13   16.72    3.54
  -7  -3  12   86.70    7.78
   7  -3 -12   83.69    7.01
  -7  -3  11  323.12   14.33
   7  -3 -11  280.09   12.44
  -7  -3  11  297.82   12.80
  -7  -3  10  134.52    9.07
   7  -3 -10  153.45    9.12
  -7  -3  10  138.36    8.87
   7  -3  -9   38.30    5.04
  -7  -3   9   31.85    4.73
   7  -3  -9   37.47    4.57
  -7  -3   9   40.20    5.05
   7  -3  -8   95.35    7.42
   7  -3  -8   83.77    6.49
  -7  -3   8   98.19    7.50
  -7  -3   8   80.85    6.47
   7  -3  -7  372.56   14.32
  -7  -3   7  407.61   14.99
   7  -3  -7  395.97   13.71
  -7  -3   7  380.18   13.22
   7  -3  -6  386.33   14.41
  -7  -3   6  378.06   14.51
   7  -3  -6  390.33   13.49
  -7  -3   6  352.60   12.27
   7  -3  -5   31.95    4.28
   7  -3  -5   32.18    4.07
  -7  -3   5   29.38    3.75
  -7  -3   5   34.84    4.95
   7  -3  -4  264.36   11.57
   7  -3  -4  281.42   11.31
  -7  -3   4  276.11   12.56
  -7  -3   4  275.05   10.20
   7  -3  -3  674.52   18.40
  -7  -3   3  731.71   20.29
  -7  -3   3  709.21   15.96
   7  -3  -2  138.91    8.47
  -7  -3   2  130.47    8.81
   7  -3  -1    2.43    2.03
  -7  -3   1    7.21    2.72
   7  -3   0   41.97    4.71
  -7  -3   0   44.02    5.36
   7  -3   1  543.59   16.60
  -7  -3  -1  551.29   18.06
   7  -3   2  202.23   10.27
  -7  -3  -2  213.77   11.39
   7  -3   3   18.64    3.42
  -7  -3  -3   19.40    4.12
   7  -3   4   88.52    7.12
  -7  -3  -4   86.12    7.54
   7  -3   5  281.15   12.83
  -7  -3  -5  237.10   12.31
   7  -3   6  119.84    8.67
  -7  -3  -6   98.92    8.32
   7  -3   7   24.12    4.45
  -7  -3  -7   20.03    3.48
  -7  -3  -7   23.87    4.37
   7  -3   8   51.01    6.09
  -7  -3  -8   55.42    5.88
  -7  -3  -8   46.01    5.86
   7  -3   9  211.33   12.27
  -7  -3  -9  234.41   12.24
  -7  -3  -9  212.34   12.22
   7  -3  10   80.73    7.86
  -7  -3 -10   83.43    7.70
  -7  -3 -10   75.67    7.69
   7  -3  11    6.93    2.82
  -7  -3 -11   -0.96    2.20
  -7  -3 -11    6.20    3.01
   7  -3  12   25.06    5.03
  -7  -3 -12   21.12    4.59
  -7  -3 -12   18.92    4.18
  -7  -3 -13   76.65    8.25
   7  -3  13   78.25    8.41
  -7  -3 -14   72.48    8.26
  -7  -2  18  111.38   10.20
  -7  -2  17   80.54    8.56
  -7  -2  16   17.60    4.44
   7  -2 -16   14.81    3.57
  -7  -2  15    6.16    3.35
   7  -2 -15    2.72    2.30
   7  -2 -14  171.47    9.80
  -7  -2  14  177.13   11.37
   7  -2 -14  166.73   10.82
  -7  -2  13  363.63   15.66
   7  -2 -13  350.88   13.49
   7  -2 -13  360.29   15.46
  -7  -2  12   14.74    3.60
   7  -2 -12   14.51    3.08
  -7  -2  12   11.20    2.65
   7  -2 -12   10.02    2.93
  -7  -2  11   30.79    4.60
   7  -2 -11   39.83    4.39
  -7  -2  11   39.31    4.77
  -7  -2  10   80.79    6.97
   7  -2 -10  101.98    6.83
  -7  -2  10   95.17    7.16
   7  -2  -9  154.71    9.50
  -7  -2   9  159.01    9.36
   7  -2  -9  157.50    8.19
  -7  -2   9  157.48    9.17
   7  -2  -8  181.08    9.89
   7  -2  -8  198.47    8.99
  -7  -2   8  202.90   10.37
   7  -2  -7   10.27    2.72
   7  -2  -7   14.54    2.72
  -7  -2   7    9.74    2.84
   7  -2  -6  370.16   13.53
   7  -2  -6  360.66   11.70
  -7  -2   6  365.14   13.90
  -7  -2   6  350.24   11.19
   7  -2  -5  370.41   13.31
  -7  -2   5  385.28   14.18
   7  -2  -5  389.68   12.08
  -7  -2   5  386.19   11.19
   7  -2  -4   51.12    5.07
   7  -2  -4   46.42    4.25
  -7  -2   4   40.62    4.86
  -7  -2   4   57.05    4.20
   7  -2  -3    8.52    2.34
  -7  -2   3   12.92    2.19
  -7  -2   3   11.03    3.28
   7  -2  -2  116.48    7.37
  -7  -2   2  119.32    8.23
  -7  -2   2  127.33    5.70
   7  -2  -1  381.77   13.08
  -7  -2   1  361.06   13.95
  -7  -2   1  390.64    9.68
   7  -2   0  225.66   10.17
  -7  -2   0  230.73   11.25
   7  -2   1   11.02    2.64
  -7  -2  -1    9.77    3.11
   7  -2   2   62.36    5.67
  -7  -2  -2   64.36    4.45
  -7  -2  -2   58.35    6.07
   7  -2   3  129.58    8.23
  -7  -2  -3  129.71    6.75
  -7  -2  -3  122.47    8.36
   7  -2   4  266.86   11.73
  -7  -2  -4  298.30   10.77
  -7  -2  -4  268.43   12.35
  -7  -2  -5   59.80    5.31
   7  -2   5   45.49    5.31
   7  -2   5   45.02    4.16
  -7  -2  -5   49.87    5.61
   7  -2   6  143.98    9.15
  -7  -2  -6  164.99    8.95
  -7  -2  -6  143.51    9.37
   7  -2   7  226.82   11.68
  -7  -2  -7  260.04   11.81
  -7  -2  -7  246.28   12.11
   7  -2   8   98.16    7.93
  -7  -2  -8   91.60    7.39
  -7  -2  -8   97.51    7.77
   7  -2   9   38.85    5.35
  -7  -2  -9   48.97    5.81
  -7  -2  -9   38.46    5.21
   7  -2  10   10.14    3.60
  -7  -2 -10   11.20    2.98
  -7  -2 -10    8.50    2.88
  -7  -2 -11  193.25   12.06
   7  -2  11  201.90   12.42
  -7  -2 -11  193.79   11.27
  -7  -2 -12  109.13    9.41
   7  -2  12  106.60    9.37
   7  -2  13   13.36    3.65
  -7  -2 -13    4.14    2.32
   7  -2  14   14.40    4.02
  -7  -2 -14   17.68    4.28
  -7  -2 -15   50.81    7.04
  -7  -1  18   39.12    6.59
   7  -1 -18   38.89    5.88
  -7  -1  17   23.97    5.11
   7  -1 -17   24.07    4.55
  -7  -1  16   90.59    8.73
   7  -1 -16   77.49    7.80
  -7  -1  15  181.06   11.56
   7  -1 -15  178.35   11.44
  -7  -1  14  138.77    9.87
   7  -1 -14  122.99    9.42
  -7  -1  13    0.45    2.12
   7  -1 -13    3.15    2.19
  -7  -1  12  198.20   11.08
  -7  -1  12  201.43   10.48
   7  -1 -12  174.26   10.63
  -7  -1  11  589.50   18.34
  -7  -1  11  602.76   14.83
   7  -1 -11  604.86   15.04
  -7  -1  11  583.82   17.70
   7  -1 -11  592.24   18.96
  -7  -1  10  121.38    8.28
  -7  -1  10  126.96    6.54
   7  -1 -10  127.85    6.81
  -7  -1  10  125.61    8.28
   7  -1 -10  115.91    8.46
   7  -1  -9    6.74    2.36
  -7  -1   9    6.72    2.79
  -7  -1   9    7.72    1.85
   7  -1  -9    5.09    1.62
  -7  -1   9    9.19    2.60
   7  -1  -8  192.13    9.83
   7  -1  -8  183.59    7.75
  -7  -1   8  180.38    9.76
  -7  -1   8  192.92    7.32
   7  -1  -7  630.44   17.34
   7  -1  -7  691.40   14.71
  -7  -1   7  659.28   18.37
  -7  -1   7  681.70   12.99
   7  -1  -6  212.94    9.83
  -7  -1   6  218.92    7.08
   7  -1  -6  230.54    8.43
  -7  -1   6  207.78   10.38
   7  -1  -5   35.32    4.27
  -7  -1   5   33.30    2.72
   7  -1  -5   37.13    3.48
  -7  -1   5   40.01    4.93
   7  -1  -4  268.73   10.71
   7  -1  -4  252.78    7.60
  -7  -1   4  274.59   11.78
  -7  -1   4  271.37    7.43
   7  -1  -3  381.33   12.61
   7  -1  -3  376.34    9.23
  -7  -1   3  377.26   13.94
  -7  -1   3  382.28    8.71
  -7  -1   2  224.84    6.92
   7  -1  -2  225.38    9.68
  -7  -1   2  212.48    6.57
  -7  -1   2  224.58   10.78
   7  -1  -2  212.74    7.03
  -7  -1   1    4.14    1.28
   7  -1  -1   -0.07    1.83
  -7  -1   1    6.17    1.49
   7  -1  -1    2.79    1.14
  -7  -1   1    9.57    3.24
   7  -1   0  286.11   11.07
  -7  -1   0  288.19    8.77
  -7  -1   0  289.61   12.23
   7  -1   0  298.84    8.83
  -7  -1   0  292.06    8.14
   7  -1   1  859.62   19.21
  -7  -1  -1  866.56   16.07
  -7  -1  -1  846.37   20.64
   7  -1   1  880.64   15.71
   7  -1   2  557.77   15.77
  -7  -1  -2  549.70   13.58
  -7  -1  -2  533.24   16.50
   7  -1   2  536.40   12.83
  -7  -1  -3    1.30    1.21
   7  -1   3    3.62    2.26
   7  -1   3    0.11    1.12
  -7  -1  -3    2.43    2.08
   7  -1   4  196.38    9.73
  -7  -1  -4  200.26    9.12
  -7  -1  -4  198.11   10.22
   7  -1   4  198.75    8.63
   7  -1   5  432.75   14.67
  -7  -1  -5  481.72   14.82
  -7  -1  -5  468.54   15.74
   7  -1   5  443.58   13.50
   7  -1   6  172.90    9.61
  -7  -1  -6  194.18    9.85
  -7  -1  -6  182.79    9.99
   7  -1   6  185.31    9.25
  -7  -1  -7   43.31    5.06
   7  -1   7   35.97    4.85
   7  -1   7   44.72    4.93
  -7  -1  -7   36.82    4.62
  -7  -1  -8   47.06    5.37
  -7  -1  -8   54.96    5.83
   7  -1   8   51.62    5.77
   7  -1   9  202.96   11.35
  -7  -1  -9  227.68   11.33
  -7  -1 -10   97.82    8.23
   7  -1  10   85.91    7.71
  -7  -1 -10   96.40    7.52
   7  -1  11   28.81    4.95
  -7  -1 -11   34.41    5.17
   7  -1  12   23.98    4.77
  -7  -1 -12   32.67    5.48
  -7  -1 -13  143.70   11.10
   7  -1  13  122.34    9.98
   7  -1  14  108.10    9.75
  -7  -1 -14  110.71   10.17
  -7  -1 -15   17.93    4.45
  -7   0  19   -1.63    2.03
   7   0 -19   -6.43    2.90
  -7   0  18   77.74    7.63
   7   0 -18   63.38    7.46
  -7   0  18   94.24    9.39
  -7   0  17  201.61   11.90
  -7   0  17  206.70   13.14
   7   0 -17  206.45   13.03
  -7   0  16   28.14    4.60
  -7   0  16   18.70    4.68
   7   0 -16   23.08    4.50
  -7   0  15   19.17    3.73
  -7   0  15   18.83    4.25
   7   0 -15   18.25    3.81
  -7   0  14  107.07    7.75
  -7   0  14  104.20    8.53
   7   0 -14   97.57    8.41
  -7   0  13  108.50    7.49
  -7   0  13   95.29    7.89
   7   0 -13  107.08    8.67
  -7   0  12  181.90    9.18
  -7   0  12  174.63   10.20
   7   0 -12  176.20   10.80
  -7   0  11    3.08    1.67
  -7   0  11   -1.28    2.31
   7   0 -11   -0.62    2.01
  -7   0  10  405.93   14.48
  -7   0  10  415.92   12.71
  -7   0  10  402.14   14.78
   7   0 -10  419.16   15.90
  -7   0   9  277.31   11.71
  -7   0   9  273.87    9.93
  -7   0   9  297.51   12.69
   7   0  -9  276.20   12.71
  -7   0   8   31.09    3.49
   7   0  -8   27.74    3.80
  -7   0   8   27.81    4.08
  -7   0   8   27.74    4.24
   7   0  -8   31.88    4.63
   7   0  -7   10.10    2.55
  -7   0   7   14.88    2.39
   7   0  -7   12.65    1.85
  -7   0   7   14.31    3.48
   7   0  -6  152.45    8.15
   7   0  -6  157.53    6.03
  -7   0   6  156.33    9.14
  -7   0   6  168.78    7.10
   7   0  -5  708.99   16.91
   7   0  -5  732.40   15.09
   7   0  -5  764.69   13.16
  -7   0   5  719.06   19.12
  -7   0   5  779.29   14.78
   7   0  -4  403.73   12.64
  -7   0   4  418.08   10.62
   7   0  -4  399.95   11.02
  -7   0   4  400.17   14.22
   7   0  -3    9.17    2.25
  -7   0   3    9.82    1.81
   7   0  -3   12.17    2.16
  -7   0   3    9.57    2.86
  -7   0   2  268.39    8.76
   7   0  -2  263.88   10.09
   7   0  -2  269.57    9.07
  -7   0   2  252.02   11.22
  -7   0   2  273.80    8.56
   7   0  -1  331.89   11.28
  -7   0   1  328.87    9.99
   7   0  -1  338.88   10.29
  -7   0   1  318.58   12.60
  -7   0   1  340.15    9.63
  -7   0   0  242.63    8.90
   7   0   0  248.13    9.79
   7   0   0  240.33    8.86
  -7   0   0  235.88   10.90
  -7   0   0  247.33    8.41
   7   0   1  210.21    9.16
  -7   0  -1  187.14    8.17
   7   0   1  203.72    8.39
  -7   0  -1  204.07   10.20
  -7   0  -1  205.52    7.90
   7   0   2  303.20   11.13
  -7   0  -2  326.33   11.15
   7   0   2  315.22   10.70
  -7   0  -2  311.94   12.49
  -7   0  -2  309.53   10.00
   7   0   3  478.71   14.34
  -7   0  -3  447.78   13.55
   7   0   3  484.17   13.71
  -7   0  -3  481.87   15.37
  -7   0  -4    2.74    1.83
   7   0   4    2.21    1.51
   7   0   4    2.73    1.79
  -7   0  -4    5.11    2.24
  -7   0  -5    6.63    2.32
   7   0   5    3.68    2.02
   7   0   5    8.75    2.38
  -7   0  -5    4.51    2.12
  -7   0  -6   11.22    3.04
   7   0   6    9.92    2.86
   7   0   6   11.60    2.91
  -7   0  -6   11.96    2.96
  -7   0  -7  171.80    9.92
   7   0   7  170.58    9.49
  -7   0  -7  161.43    9.10
   7   0   7  162.59    9.44
  -7   0  -8  302.84   13.62
   7   0   8  321.87   13.43
   7   0   8  337.07   13.93
  -7   0  -8  359.70   13.61
  -7   0  -9   11.49    3.32
   7   0   9    9.82    2.76
   7   0   9   13.51    3.55
  -7   0  -9   13.56    3.13
  -7   0 -10  157.91   10.61
   7   0  10  144.72    9.67
   7   0  11   57.99    6.43
  -7   0 -11   49.46    6.29
   7   0  12   64.63    7.16
  -7   0 -12   73.95    8.00
   7   0  13   48.17    6.41
  -7   0 -13   40.64    6.24
   7   0  14   16.97    4.05
  -7   0 -14   38.80    6.46
   7   0  15   54.92    7.20
  -7   0 -15   61.11    8.00
  -7   1  19   97.85    9.40
   7   1 -19  116.47   10.53
  -7   1  18   35.74    5.82
  -7   1  18   39.67    6.19
   7   1 -18   34.42    5.87
  -7   1  17   23.13    4.82
  -7   1  17   19.62    4.50
   7   1 -17   19.60    4.56
  -7   1  16   66.14    7.06
  -7   1  16   67.08    7.43
   7   1 -16   60.42    7.33
  -7   1  15  173.47   10.59
  -7   1  15  168.99   10.95
   7   1 -15  175.05   11.77
  -7   1  14  114.34    8.40
  -7   1  14  139.18    9.75
   7   1 -14  133.46   10.07
  -7   1  13    1.52    2.13
  -7   1  13    0.32    1.94
   7   1 -13    0.09    1.86
  -7   1  12  174.37    9.50
  -7   1  12  206.52   10.93
   7   1 -12  190.46   11.50
  -7   1  11  554.56   16.21
  -7   1  11  593.79   17.86
   7   1 -11  606.06   19.87
  -7   1  10  126.02    7.64
  -7   1  10  137.76    8.44
   7   1 -10  111.29    8.51
  -7   1   9    6.51    2.25
  -7   1   9    5.85    2.40
   7   1  -9    3.67    2.47
  -7   1   8  171.56    8.32
  -7   1   8  186.81    9.20
   7   1  -8  168.43   10.01
   7   1  -7  680.88   16.80
  -7   1   7  682.03   15.97
  -7   1   7  699.26   19.42
   7   1  -7  683.39   19.32
   7   1  -6  211.93    9.18
  -7   1   6  209.54    8.71
   7   1  -6  216.07    9.28
  -7   1   6  223.15   10.93
   7   1  -6  219.77   10.86
   7   1  -5   32.28    3.77
  -7   1   5   32.72    3.54
   7   1  -5   36.28    3.99
  -7   1   5   39.74    4.71
   7   1  -5   31.41    4.40
   7   1  -4  242.10    9.39
  -7   1   4  238.20    9.02
   7   1  -4  240.19    9.51
  -7   1   4  230.66   11.08
   7   1  -4  247.56   11.15
   7   1  -3  391.68   11.76
   7   1  -3  387.17   12.08
  -7   1   3  385.21   14.09
  -7   1   3  382.29   11.27
  -7   1   2  217.76    8.94
   7   1  -2  228.44    8.94
  -7   1   2  226.49    8.71
   7   1  -2  237.18    9.45
  -7   1   2  215.22   10.46
  -7   1   1    7.77    2.18
   7   1  -1    7.12    1.87
  -7   1   1    8.08    1.85
   7   1  -1    3.85    1.55
  -7   1   1    9.54    3.26
   7   1   0  315.91   10.55
  -7   1   0  324.72   11.21
   7   1   0  306.49   10.97
  -7   1   0  328.92   12.85
  -7   1   0  308.43   10.39
   7   1   1  871.43   17.63
  -7   1  -1  902.70   19.11
   7   1   1  914.53   19.15
  -7   1  -1  877.38   20.68
  -7   1  -1  873.49   17.66
   7   1   2  520.31   13.87
  -7   1  -2  491.38   14.52
  -7   1  -2  499.77   13.76
   7   1   2  481.94   14.37
  -7   1  -2  507.18   15.68
  -7   1  -3    1.19    1.68
   7   1   3   -0.31    1.45
  -7   1  -3    3.18    2.04
   7   1   3    3.68    1.86
  -7   1  -3    2.90    2.09
   7   1   4  209.25    9.27
  -7   1  -4  198.62    9.99
   7   1   4  210.54   10.02
  -7   1  -4  187.44    9.58
  -7   1  -4  201.56    9.32
   7   1   5  457.80   14.02
  -7   1  -5  472.07   15.86
   7   1   5  468.20   15.39
  -7   1  -5  452.39   14.86
  -7   1  -6  185.74   10.37
   7   1   6  175.21    9.11
   7   1   6  176.31    9.86
  -7   1  -6  186.28    9.63
  -7   1  -7   42.09    5.31
   7   1   7   33.31    4.28
   7   1   7   35.74    4.80
  -7   1  -7   39.16    4.53
  -7   1  -8   49.79    6.01
   7   1   8   53.19    5.59
  -7   1  -8   57.45    5.50
   7   1   8   56.16    6.11
  -7   1  -9  217.75   12.31
   7   1   9  214.06   11.00
   7   1   9  213.08   12.02
  -7   1 -10   97.78    8.75
   7   1  10   92.64    7.55
   7   1  10  109.97    8.99
  -7   1 -11   34.97    5.75
   7   1  11   38.65    5.86
   7   1  11   36.91    5.16
  -7   1 -12   43.43    6.50
   7   1  12   42.98    6.18
   7   1  12   33.30    5.09
   7   1  13  129.77    9.91
  -7   1 -13  148.40   11.70
   7   1  13  129.89   10.91
   7   1  14   89.40    8.60
  -7   1 -14   88.15    9.26
   7   1  14   95.71    9.62
   7   1  15   13.76    4.12
   7   1  15   20.12    5.04
  -7   2  18  112.82   10.00
   7   2 -18  100.58   10.05
  -7   2  18  106.93    9.73
  -7   2  17   92.75    8.90
  -7   2  17   83.84    8.49
   7   2 -17   86.25    9.07
  -7   2  16   17.60    4.46
  -7   2  16   12.71    3.52
   7   2 -16   10.64    3.70
  -7   2  15    2.34    2.68
  -7   2  15    1.94    2.16
  -7   2  14  157.83   10.28
   7   2 -14  155.20   11.28
  -7   2  14  147.41    9.82
  -7   2  13  321.90   14.08
  -7   2  13  356.01   14.71
   7   2 -13  357.08   16.55
  -7   2  12   13.82    3.46
  -7   2  12   15.01    3.39
   7   2 -12   10.30    3.44
  -7   2  11   40.05    5.03
  -7   2  11   34.48    4.64
   7   2 -11   38.38    5.39
  -7   2  10  106.31    7.59
  -7   2  10  101.44    7.23
   7   2 -10  102.14    8.32
  -7   2   9  171.87    9.26
  -7   2   9  169.15    8.88
   7   2  -9  168.38   10.46
  -7   2   8  158.30    8.67
  -7   2   8  165.05    8.47
   7   2  -8  141.96    9.38
  -7   2   7   14.50    3.12
  -7   2   7   13.76    2.66
   7   2  -7   12.95    3.35
   7   2  -6  351.44   11.46
  -7   2   6  368.98   11.93
  -7   2   6  362.36   12.49
   7   2  -6  357.47   12.94
   7   2  -6  375.46   14.47
   7   2  -5  380.16   11.62
  -7   2   5  393.23   12.83
   7   2  -5  380.08   13.18
   7   2  -5  376.04   14.12
   7   2  -4   55.82    4.43
  -7   2   4   46.59    4.48
   7   2  -4   50.59    5.02
   7   2  -4   57.16    5.61
   7   2  -3    9.53    1.96
  -7   2   3   10.85    2.59
   7   2  -3   17.11    3.06
  -7   2   3   17.84    3.64
   7   2  -3   11.49    2.91
  -7   2   2  109.03    7.13
   7   2  -2  119.33    6.21
  -7   2   2  113.54    6.88
   7   2  -2  120.24    7.47
  -7   2   2  110.02    7.84
   7   2  -2  111.20    7.28
  -7   2   1  377.04   13.08
   7   2  -1  366.97   10.75
  -7   2   1  385.12   12.52
   7   2  -1  382.95   13.09
  -7   2   1  380.60   14.16
   7   2  -1  381.96   13.13
   7   2   0  273.61    9.38
  -7   2   0  264.56   11.08
  -7   2   0  269.81   10.57
   7   2   0  253.50   10.92
  -7   2   0  254.09   11.53
   7   2   0  248.65   10.39
  -7   2  -1   12.14    3.09
   7   2   1   12.27    2.24
  -7   2  -1    8.51    2.42
   7   2   1    9.74    2.48
  -7   2  -1    9.54    2.82
   7   2   1   10.50    2.45
   7   2   2   58.98    4.62
  -7   2  -2   64.36    5.96
  -7   2  -2   56.71    5.27
   7   2   2   66.27    5.90
  -7   2  -2   53.31    5.49
   7   2   2   62.63    5.17
   7   2   3  136.24    7.06
  -7   2  -3  129.12    8.36
   7   2   3  141.14    8.59
  -7   2  -3  133.22    8.28
  -7   2  -3  124.98    7.69
   7   2   4  262.06   10.04
  -7   2  -4  276.06   12.32
  -7   2  -4  265.11   11.39
   7   2   4  269.09   12.10
  -7   2  -4  282.75   11.85
  -7   2  -5   45.58    5.42
   7   2   5   47.89    4.65
  -7   2  -5   46.12    5.26
   7   2   5   43.70    5.29
  -7   2  -5   45.00    4.88
  -7   2  -6  138.94    9.44
   7   2   6  141.58    7.90
   7   2   6  162.50    9.97
  -7   2  -6  151.67    8.66
  -7   2  -7  236.42   12.56
   7   2   7  246.83   10.84
   7   2   7  281.42   13.37
  -7   2  -8  104.79    8.67
   7   2   8   90.28    6.85
   7   2   8   85.04    7.69
  -7   2  -9   50.85    6.33
   7   2   9   52.24    5.45
   7   2   9   53.83    6.60
  -7   2 -10    9.24    3.50
   7   2  10    4.56    3.14
   7   2  10    8.62    2.60
  -7   2 -11  183.76   12.46
   7   2  11  181.77   10.78
   7   2  11  202.86   12.88
   7   2  12  101.57    8.44
  -7   2 -12  103.68    9.76
   7   2  12  109.08    9.97
  -7   2 -13   15.60    4.50
   7   2  13   16.37    4.41
   7   2  13   10.21    3.12
  -7   2 -14   11.65    3.94
   7   2  14   19.76    4.39
   7   2  15   48.19    6.54
  -7   3  18   55.37    7.26
  -7   3  17    6.22    3.19
  -7   3  17   -0.14    2.51
   7   3 -17   -0.15    2.68
  -7   3  16   88.73    8.85
   7   3 -16   83.09    9.07
  -7   3  16   70.33    7.53
  -7   3  15  178.45   11.87
  -7   3  15  166.75   10.93
   7   3 -15  175.09   12.63
  -7   3  14   50.07    6.51
  -7   3  14   53.14    6.26
   7   3 -14   56.69    7.21
  -7   3  13   18.12    4.43
  -7   3  13   15.82    3.40
   7   3 -13   11.78    3.62
  -7   3  12   68.83    7.13
   7   3 -12   60.36    7.24
  -7   3  12   76.49    6.63
  -7   3  11  281.08   13.17
  -7   3  11  297.37   12.38
   7   3 -11  287.57   14.76
  -7   3  10  144.00    9.32
  -7   3  10  141.26    8.36
   7   3 -10  148.54   10.41
  -7   3   9   36.48    4.99
  -7   3   9   41.91    4.53
   7   3  -9   42.17    5.78
  -7   3   8   60.51    5.95
  -7   3   8   72.70    5.63
   7   3  -8   80.77    7.56
  -7   3   7  365.98   11.90
  -7   3   7  354.03   13.50
   7   3  -7  350.87   14.14
   7   3  -7  344.50   14.69
  -7   3   6  361.02   11.47
  -7   3   6  374.51   13.77
   7   3  -6  364.16   14.07
   7   3  -6  364.18   14.75
  -7   3   5   32.96    3.63
  -7   3   5   22.54    3.82
   7   3  -5   27.99    4.21
   7   3  -5   32.71    4.69
   7   3  -4  282.59    9.33
  -7   3   4  273.48   11.51
   7   3  -4  262.23   11.84
   7   3  -4  270.99   12.19
   7   3  -3  729.74   14.56
  -7   3   3  688.69   18.00
   7   3  -3  702.56   19.12
   7   3  -3  683.79   18.76
   7   3  -2  111.65    5.68
  -7   3   2  108.20    7.37
   7   3  -2  114.16    7.85
   7   3  -2  111.67    7.49
  -7   3   1    3.49    2.15
   7   3  -1    5.95    1.34
  -7   3   1    3.79    2.17
   7   3  -1    3.77    2.00
   7   3  -1    4.02    1.97
  -7   3   0   47.03    5.33
  -7   3   0   48.23    5.05
   7   3   0   48.46    5.39
   7   3   0   49.58    4.84
  -7   3  -1  589.23   17.99
  -7   3  -1  546.74   16.43
   7   3   1  562.57   17.54
   7   3   1  583.36   15.59
  -7   3  -2  204.42   10.85
  -7   3  -2  220.48   10.78
   7   3   2  197.21   10.60
   7   3   2  200.52    8.90
  -7   3  -3   13.65    3.42
   7   3   3   18.33    3.90
  -7   3  -3   17.30    3.85
  -7   3  -4   82.02    7.32
   7   3   4   93.56    7.75
  -7   3  -4  103.81    7.78
  -7   3  -5  260.43   13.11
   7   3   5  247.70   12.60
  -7   3  -5  241.62   11.92
  -7   3  -6  110.67    8.77
   7   3   6  110.18    8.72
  -7   3  -6  116.47    8.62
  -7   3  -7   24.71    4.66
   7   3   7   24.76    4.62
  -7   3  -8   55.38    6.98
   7   3   8   52.37    6.50
  -7   3  -9  199.78   12.78
   7   3   9  233.39   13.60
  -7   3 -10   60.34    7.37
   7   3  10   79.61    8.26
  -7   3 -11    8.67    3.55
   7   3  11    3.97    3.14
  -7   3 -12   19.58    4.64
   7   3  12   31.32    6.04
  -7   3 -13   73.22    8.76
   7   3  13   76.20    8.88
  -7   4  16   34.48    6.38
   7   4 -16   24.35    5.54
  -7   4  15   12.70    3.87
   7   4 -15   27.17    5.85
  -7   4  14   75.63    8.10
   7   4 -14   90.44    9.48
  -7   4  13   77.76    8.04
   7   4 -13   92.11    9.27
  -7   4  12   79.16    7.94
   7   4 -12   79.89    8.74
  -7   4  11    1.75    2.85
   7   4 -11    6.36    3.05
  -7   4  10  140.29    9.86
   7   4 -10  120.70    9.90
  -7   4   9  209.57   11.78
   7   4  -9  178.87   11.73
  -7   4   8   28.11    4.65
   7   4  -8   27.39    4.69
  -7   4   7   -0.87    2.99
   7   4  -7    2.81    1.88
   7   4  -7    3.58    2.31
  -7   4   6   68.45    6.68
   7   4  -6   66.84    6.79
   7   4  -6   66.63    6.89
  -7   4   5  287.40   12.90
   7   4  -5  297.54   13.62
   7   4  -5  312.17   13.98
  -7   4   4  121.52    8.46
   7   4  -4  116.26    8.60
   7   4  -4  126.34    8.75
  -7   4   3   13.35    3.32
   7   4  -3   16.79    3.72
   7   4  -3   18.72    3.55
  -7   4   2  109.02    7.94
   7   4  -2  121.70    8.71
   7   4  -2  118.03    8.01
  -7   4   1  116.46    8.36
   7   4  -1  109.09    8.20
   7   4  -1  114.49    7.66
  -7   4   0  115.25    8.77
  -7   4   0  121.74    8.51
   7   4   0  130.26    9.17
   7   4   0  112.13    7.30
  -7   4  -1    7.16    3.13
   7   4   1   13.32    3.08
  -7   4  -1    7.83    3.51
  -7   4  -2  133.44    9.40
   7   4   2  139.08    9.51
  -7   4  -2  139.89    9.36
  -7   4  -3  291.34   14.12
   7   4   3  279.06   13.74
  -7   4  -3  272.92   12.86
  -7   4  -4   45.92    6.04
   7   4   4   45.37    5.92
  -7   4  -4   42.04    5.70
  -7   4  -5    8.28    3.26
   7   4   5    0.92    2.03
  -7   4  -5   11.18    3.95
  -7   4  -6   56.86    6.88
   7   4   6   55.87    6.79
  -7   4  -6   51.84    6.37
  -7   4  -7  172.73   11.80
   7   4   7  175.65   11.69
  -7   4  -8  123.09   10.36
   7   4   8  116.92    9.87
  -7   4  -9   10.05    3.68
   7   4   9   12.89    3.73
  -7   4 -10   43.51    6.65
   7   4  10   32.56    5.95
  -7   4 -11   26.84    5.76
   7   4  11   27.35    5.50
  -7   4 -12   29.27    5.91
   7   4  12   43.25    7.04
  -7   5  14   34.74    6.17
   7   5 -14   19.40    4.80
  -7   5  13    8.31    3.92
   7   5 -13    2.29    2.80
  -7   5  12  106.64    9.64
   7   5 -12   97.13    9.77
  -7   5  11   73.08    8.09
   7   5 -11   56.59    7.41
  -7   5  10   27.61    5.28
   7   5 -10   18.19    4.47
  -7   5   9   12.01    3.82
   7   5  -9   12.06    4.02
  -7   5   8   87.10    8.19
   7   5  -8   68.58    7.66
  -7   5   7  308.45   14.56
   7   5  -7  277.75   14.63
  -7   5   6   79.91    7.61
   7   5  -6   70.22    7.32
   7   5  -6   81.32    7.83
  -7   5   5   10.71    3.55
   7   5  -5    9.15    3.11
   7   5  -5    9.59    2.99
  -7   5   4   68.76    7.17
   7   5  -4   62.15    6.78
   7   5  -4   62.14    6.57
  -7   5   3  166.17   10.59
   7   5  -3  135.96    9.87
   7   5  -3  148.10    9.73
  -7   5   2  180.20   11.11
   7   5  -2  176.02   11.23
   7   5  -2  184.60   10.40
   7   5  -1    3.66    2.16
  -7   5   1    2.52    3.04
   7   5   0  155.95   10.54
  -7   5   0  140.14    9.86
   7   5   1  112.19    9.13
  -7   5  -1  132.00    9.57
  -7   5  -2   69.15    7.74
   7   5   2   65.38    6.96
  -7   5  -2   74.90    7.45
  -7   5  -3   12.31    3.97
   7   5   3    4.17    2.58
  -7   5  -3   18.62    4.64
  -7   5  -4    8.24    3.58
   7   5   4   12.05    3.56
  -7   5  -4    7.55    3.71
  -7   5  -5  113.97    9.87
   7   5   5  113.44    9.67
  -7   5  -5  108.79    9.27
  -7   5  -6  128.27   10.54
   7   5   6  137.13   10.76
  -7   5  -6  130.03   10.21
  -7   5  -7    6.23    3.58
   7   5   7    6.96    2.94
  -7   5  -7   10.60    3.88
  -7   5  -8   31.72    5.64
   7   5   8   29.68    5.41
  -7   5  -9   73.03    8.66
   7   5   9   79.89    8.97
  -7   5 -10   97.61   10.04
   7   5  10   97.87   10.03
  -7   6  11   20.78    5.27
   7   6 -11   18.85    4.86
  -7   6  10   56.29    7.30
   7   6 -10   59.19    7.82
  -7   6   9   77.77    8.51
   7   6  -9   57.12    7.47
  -7   6   8   78.95    8.28
   7   6  -8   60.51    7.61
  -7   6   7   -3.09    3.32
   7   6  -7    5.61    2.88
  -7   6   6  101.06    9.02
   7   6  -6   85.78    8.56
   7   6  -6   93.42    8.82
  -7   6   5   15.23    4.39
   7   6  -5   19.13    4.60
   7   6  -5   23.29    4.37
   7   6  -4   24.68    4.92
  -7   6   4   19.12    4.29
   7   6  -3   16.03    4.03
  -7   6   3   17.86    4.22
   7   6  -2   47.48    6.41
  -7   6   2   50.15    6.50
   7   6  -1   96.19    9.03
  -7   6   1   87.01    8.50
   7   6   0   59.70    7.20
  -7   6   0   57.94    6.86
   7   6   1    7.75    3.39
  -7   6  -1    5.93    3.55
   7   6   2   47.73    6.58
  -7   6  -2   39.19    5.88
   7   6   3   66.26    7.65
  -7   6  -3   88.52    8.74
   7   6   3   73.35    7.62
  -7   6  -4   85.07    9.15
   7   6   4   85.86    8.84
  -7   6  -4   81.21    8.45
  -7   6  -5    6.00    3.17
   7   6   5    6.44    3.32
  -7   6  -5    0.88    3.54
  -7   6  -6   38.36    6.32
   7   6   6   22.28    4.97
  -7   6  -6   29.63    5.65
  -7   6  -7   50.37    7.39
  -7   6  -7   45.35    6.87
   7   6   7   28.72    5.47
   7   7  -9    8.60    3.85
   7   7  -8   19.84    4.76
   7   7  -7   31.62    5.59
  -7   7   6   45.29    7.00
  -7   7   5   -2.54    3.97
   7   7  -5    0.10    2.24
  -7   7   4   37.61    6.33
   7   7  -4   40.14    6.32
  -7   7   3   99.08    9.51
   7   7  -3  102.01    9.67
  -7   7   2   29.68    5.72
   7   7  -2   26.68    5.30
  -7   7   1    0.88    2.77
   7   7  -1   -3.19    3.34
  -7   7   0   13.96    4.47
   7   7   0   12.18    3.33
  -7   7  -1   72.05    8.27
   7   7   1   63.57    7.66
  -7   7  -2   75.08    8.26
   7   7   2   63.57    7.93
   7   7   3    0.58    2.46
   7   7   3   -0.90    2.03
  -8  -7   5   23.89    4.84
  -8  -7   5   36.75    6.30
  -8  -7   4   35.74    5.66
  -8  -7   4   34.03    6.03
  -8  -7   3   27.88    5.16
  -8  -6  10   44.41    6.57
   8  -6  -9   85.30    8.76
  -8  -6   9   78.53    8.24
   8  -6  -8    7.09    2.81
   8  -6  -8    5.48    3.11
  -8  -6   8    3.78    2.58
   8  -6  -7   51.21    6.42
   8  -6  -7   49.17    6.67
  -8  -6   7   54.07    6.68
  -8  -6   7   52.90    6.90
   8  -6  -6   91.39    8.47
   8  -6  -6  107.94    9.54
  -8  -6   6   93.13    9.08
  -8  -6   6   90.67    8.46
   8  -6  -5   45.04    6.05
   8  -6  -5   48.20    6.59
  -8  -6   5   41.54    5.79
  -8  -6   5   45.80    6.47
   8  -6  -4   15.23    3.90
   8  -6  -4   16.08    4.06
  -8  -6   4   17.54    4.05
  -8  -6   4   19.41    4.41
   8  -6  -3   32.05    5.11
   8  -6  -3   27.07    4.84
  -8  -6   3   32.17    5.07
  -8  -6   3   38.57    6.14
   8  -6  -2  127.22    9.66
   8  -6  -2  120.15    9.83
  -8  -6   2  114.48   10.34
   8  -6  -1   41.56    5.61
   8  -6  -1   54.23    6.93
  -8  -6   1   42.40    6.53
   8  -6   0    6.52    2.78
   8  -6   0   -0.95    2.30
  -8  -6   0   10.21    4.28
   8  -6   1   10.82    3.22
  -8  -6  -1    6.32    3.07
   8  -6   2   54.58    6.62
  -8  -6  -2   65.83    8.16
   8  -6   3  132.49   10.24
  -8  -6  -3  125.40   11.29
   8  -6   4   18.82    4.25
  -8  -6  -4   13.99    4.11
   8  -6   5   28.08    5.32
   8  -6   6   49.86    6.69
  -8  -5  14    4.72    2.59
  -8  -5  13   48.25    6.65
   8  -5 -13   39.67    6.12
  -8  -5  12   66.40    7.60
   8  -5 -12   57.48    6.92
  -8  -5  11   19.79    4.34
   8  -5 -11   22.55    4.72
  -8  -5  11   21.53    4.70
  -8  -5  10   22.20    4.73
   8  -5 -10   17.12    4.05
  -8  -5  10   24.53    4.64
   8  -5  -9   36.69    5.57
  -8  -5   9   23.83    4.54
   8  -5  -9   36.27    5.69
  -8  -5   9   31.04    5.12
   8  -5  -8  132.34    9.90
  -8  -5   8  136.05   10.25
   8  -5  -8  128.59    9.74
  -8  -5   8  145.14   10.16
   8  -5  -7   61.77    6.83
  -8  -5   7   73.51    7.64
   8  -5  -7   49.47    6.19
  -8  -5   7   65.17    6.88
   8  -5  -6    7.45    2.85
   8  -5  -6    3.62    2.56
  -8  -5   6    4.43    2.72
  -8  -5   6   11.44    3.59
   8  -5  -5   39.05    5.45
   8  -5  -5   34.79    5.26
  -8  -5   5   50.19    5.82
  -8  -5   5   45.48    6.31
   8  -5  -4   59.35    6.58
   8  -5  -4   55.24    6.34
  -8  -5   4   69.82    7.63
  -8  -5   4   59.58    6.14
   8  -5  -3  135.67    9.64
   8  -5  -3  131.90    9.62
  -8  -5   3  139.48   10.57
  -8  -5   3  132.17    8.91
   8  -5  -2   15.72    3.75
   8  -5  -2   10.84    3.06
  -8  -5   2   19.59    4.55
   8  -5  -1  101.61    8.46
  -8  -5   1  104.28    9.41
   8  -5   0   95.16    8.17
  -8  -5   0   88.46    8.93
   8  -5   1   85.16    7.83
  -8  -5  -1   87.31    8.66
   8  -5   2   40.37    5.69
  -8  -5  -2   41.71    5.97
   8  -5   3   47.88    6.18
  -8  -5  -3   55.61    7.27
   8  -5   4  135.06   10.09
  -8  -5  -4  143.95   11.35
   8  -5   5   58.91    6.92
  -8  -5  -5   61.61    7.81
   8  -5   6    2.59    2.02
  -8  -5  -6    8.20    3.92
   8  -5   7    3.28    2.62
  -8  -5  -7   12.18    4.14
   8  -5   8    6.08    3.07
  -8  -5  -8    7.59    3.66
  -8  -4  15   48.88    6.79
   8  -4 -15   33.61    5.47
  -8  -4  14   67.69    7.81
   8  -4 -14   66.95    7.51
  -8  -4  13  103.84    9.28
   8  -4 -13  105.26    8.99
  -8  -4  12    1.44    2.48
   8  -4 -12    2.57    2.48
  -8  -4  11  125.28    9.68
   8  -4 -11  107.88    8.72
  -8  -4  10  193.68   11.84
   8  -4 -10  171.98   10.77
  -8  -4  10  199.63   11.77
  -8  -4   9   81.29    7.67
   8  -4  -9   69.16    7.17
   8  -4  -9   66.80    6.74
  -8  -4   9   78.65    7.58
  -8  -4   9   80.74    7.33
   8  -4  -8    3.34    1.97
   8  -4  -8    4.89    2.66
  -8  -4   8    5.97    2.59
  -8  -4   8    4.83    2.46
   8  -4  -7   29.81    4.80
   8  -4  -7   33.72    4.85
  -8  -4   7   35.54    5.40
  -8  -4   7   33.77    4.63
   8  -4  -6  328.22   14.59
  -8  -4   6  324.26   15.07
   8  -4  -6  293.12   13.25
  -8  -4   6  310.78   12.94
   8  -4  -5  236.18   12.30
  -8  -4   5  202.84   12.01
   8  -4  -5  206.46   11.17
  -8  -4   5  194.51   10.06
   8  -4  -4    6.34    2.12
   8  -4  -4    7.95    2.80
  -8  -4   4    5.21    2.30
  -8  -4   4    5.76    2.84
   8  -4  -3   43.15    5.35
   8  -4  -3   36.23    4.86
  -8  -4   3   30.02    4.11
  -8  -4   3   36.05    5.43
   8  -4  -2  117.88    8.65
  -8  -4   2  123.04    9.61
   8  -4  -1  190.55   10.90
  -8  -4   1  165.37   11.10
   8  -4   0  103.88    8.19
  -8  -4   0   95.01    8.60
   8  -4   1   26.20    4.60
  -8  -4  -1   34.50    5.56
   8  -4   2  190.91   11.24
  -8  -4  -2  165.92   11.42
   8  -4   3   78.34    7.26
  -8  -4  -3   90.51    8.60
   8  -4   4    6.52    2.76
  -8  -4  -4    9.33    3.50
   8  -4   5    0.74    2.01
  -8  -4  -5    8.74    3.46
   8  -4   6  110.41    9.16
  -8  -4  -6   98.26    9.08
   8  -4   7  126.43    9.97
  -8  -4  -7  122.11   10.16
   8  -4   8    3.82    2.14
  -8  -4  -8    8.18    3.38
   8  -4   9    6.51    2.99
  -8  -4  -9    5.28    3.02
   8  -4  10   62.05    7.60
  -8  -4 -10   66.00    7.71
  -8  -4 -11   62.00    7.59
  -8  -4 -12   20.36    4.71
  -8  -3  16   93.69    9.45
  -8  -3  15   42.27    6.41
   8  -3 -15   38.35    5.71
  -8  -3  14    9.23    3.74
   8  -3 -14    0.79    2.00
  -8  -3  13   60.03    7.01
   8  -3 -13   61.17    6.48
   8  -3 -13   62.60    7.23
  -8  -3  12  201.55   12.26
   8  -3 -12  188.36   10.77
  -8  -3  11  114.65    9.11
   8  -3 -11  105.30    8.02
  -8  -3  11  104.78    8.44
  -8  -3  10   14.46    3.75
   8  -3 -10   12.50    3.56
   8  -3 -10    9.44    2.69
  -8  -3  10   14.25    3.40
   8  -3  -9  127.12    9.22
   8  -3  -9  139.29    8.78
  -8  -3   9  140.13    9.71
   8  -3  -8   68.12    6.82
   8  -3  -8   69.90    6.22
  -8  -3   8   63.42    6.64
   8  -3  -7  104.56    8.18
   8  -3  -7   72.33    6.28
  -8  -3   7   89.96    7.98
  -8  -3   7   81.08    6.36
   8  -3  -6   80.22    7.16
  -8  -3   6   67.34    6.79
   8  -3  -6   76.25    6.38
  -8  -3   6   77.10    5.98
   8  -3  -5   82.86    7.15
  -8  -3   5   75.02    7.26
   8  -3  -5   73.34    6.19
  -8  -3   5   71.92    5.59
   8  -3  -4  182.91   10.34
  -8  -3   4  199.50   11.50
   8  -3  -4  197.53   10.04
   8  -3  -3  102.43    7.74
  -8  -3   3  130.24    9.51
   8  -3  -2   13.65    3.13
  -8  -3   2   13.12    3.60
   8  -3  -1   16.14    3.34
  -8  -3   1   21.93    4.47
   8  -3   0  237.19   11.79
  -8  -3   0  213.63   12.08
   8  -3   1  252.24   12.19
  -8  -3  -1  246.17   13.04
   8  -3   2   16.66    3.53
  -8  -3  -2   12.58    3.50
   8  -3   3   55.63    6.17
  -8  -3  -3   53.93    6.35
   8  -3   4  151.55    9.91
  -8  -3  -4  154.79   10.57
   8  -3   5  146.95    9.98
  -8  -3  -5  142.22   10.23
   8  -3   6   81.58    7.67
  -8  -3  -6   83.71    8.07
   8  -3   7    5.34    2.67
  -8  -3  -7   12.65    3.64
   8  -3   8  107.08    9.13
  -8  -3  -8  119.74    9.64
   8  -3   9  103.46    9.14
  -8  -3  -9   88.04    8.42
   8  -3  10   45.38    6.35
  -8  -3 -10   40.29    6.02
   8  -3  11    6.97    3.45
  -8  -3 -11    2.97    2.39
  -8  -2  17   53.94    7.28
   8  -2 -17   40.45    6.09
  -8  -2  16    8.69    3.58
   8  -2 -16    9.27    3.39
  -8  -2  15   51.70    6.74
   8  -2 -15   49.56    6.57
  -8  -2  14  300.40   15.23
   8  -2 -14  320.62   15.74
  -8  -2  13  102.02    8.87
   8  -2 -13  103.69    9.02
  -8  -2  12    1.26    2.11
  -8  -2  12    0.56    2.24
   8  -2 -12    3.89    2.63
  -8  -2  11   36.46    5.15
   8  -2 -11   38.83    4.43
  -8  -2  11   44.82    5.65
  -8  -2  10  403.78   16.01
   8  -2 -10  384.68   15.75
   8  -2 -10  421.91   14.08
  -8  -2  10  436.01   16.53
   8  -2  -9  266.53   12.90
   8  -2  -9  272.21   11.19
  -8  -2   9  303.75   13.80
   8  -2  -8   -1.53    2.48
   8  -2  -8    1.28    1.60
  -8  -2   8    0.94    2.31
   8  -2  -7  114.79    8.20
   8  -2  -7  116.39    7.20
  -8  -2   7  121.05    8.82
   8  -2  -6  258.66   12.05
   8  -2  -6  276.17   10.90
  -8  -2   6  269.86   12.93
   8  -2  -5  207.44   10.68
   8  -2  -5  212.26    9.52
  -8  -2   5  195.79   11.14
   8  -2  -4  108.12    7.68
  -8  -2   4  116.82    8.61
   8  -2  -3  135.55    8.53
  -8  -2   3  126.37    9.01
   8  -2  -2  691.25   19.08
  -8  -2   2  700.47   20.76
   8  -2  -1  241.50   11.35
  -8  -2   1  217.40   11.86
   8  -2   0    3.78    2.12
  -8  -2   0    5.51    2.69
   8  -2   1   38.83    4.81
  -8  -2  -1   44.15    5.90
   8  -2   2  270.01   12.27
  -8  -2  -2  236.61   12.39
   8  -2   3  275.53   12.65
  -8  -2  -3  302.83   14.02
   8  -2   4   20.74    3.60
  -8  -2  -4   23.60    4.30
   8  -2   5   93.42    7.69
  -8  -2  -5   86.64    7.63
   8  -2   6  116.60    8.85
  -8  -2  -6  116.65    7.94
  -8  -2  -6  123.97    9.22
   8  -2   7   73.07    7.22
  -8  -2  -7   66.11    6.25
  -8  -2  -7   70.00    7.20
   8  -2   8   64.13    7.02
  -8  -2  -8   62.83    6.51
  -8  -2  -8   56.70    6.48
   8  -2   9   10.15    3.26
  -8  -2  -9   11.52    3.39
  -8  -2  -9   11.91    3.62
   8  -2  10  195.89   12.38
  -8  -2 -10  185.76   11.76
  -8  -2 -10  206.86   12.26
   8  -2  11  112.19    9.73
  -8  -2 -11  117.21    9.68
   8  -2  12   -0.51    2.14
  -8  -2 -12    1.30    1.84
  -8  -2 -13    6.91    2.97
   8  -1 -18   -1.21    2.02
  -8  -1  17   90.95    9.24
   8  -1 -17   77.35    8.37
   8  -1 -16  106.88    9.60
  -8  -1  16  115.27   10.08
  -8  -1  15   45.84    6.38
   8  -1 -15   60.04    7.13
  -8  -1  14   23.26    4.42
   8  -1 -14   17.79    3.95
  -8  -1  13   85.52    8.09
   8  -1 -13   92.73    8.49
  -8  -1  12  159.90   10.51
  -8  -1  12  147.85    9.87
   8  -1 -12  155.10   10.75
  -8  -1  11   87.84    7.69
  -8  -1  11   82.88    7.34
   8  -1 -11   87.05    7.97
  -8  -1  10   16.88    3.95
  -8  -1  10   16.51    3.64
   8  -1 -10   12.74    3.73
  -8  -1   9  129.87    8.79
   8  -1  -9  122.23    8.58
  -8  -1   9  124.64    8.85
   8  -1  -8  334.29   13.65
   8  -1  -8  334.33   10.87
  -8  -1   8  333.26   14.31
   8  -1  -7  222.34   10.95
   8  -1  -7  217.86    8.76
  -8  -1   7  235.89   12.00
   8  -1  -6   28.17    4.17
   8  -1  -6   41.63    3.87
  -8  -1   6   46.52    5.49
   8  -1  -5  113.40    7.71
   8  -1  -5  111.30    6.28
  -8  -1   5  113.31    8.41
   8  -1  -4  399.88   14.10
  -8  -1   4  401.45   15.53
   8  -1  -3  251.85   11.13
  -8  -1   3  255.86   12.52
   8  -1  -2   32.03    4.22
  -8  -1   2   30.72    4.63
   8  -1  -1   64.08    5.76
  -8  -1   1   61.61    6.37
   8  -1   0  105.06    7.42
  -8  -1   0   97.45    7.84
   8  -1   1  233.14   10.83
  -8  -1  -1  222.91    8.84
  -8  -1  -1  211.99   11.33
   8  -1   1  241.86    8.97
   8  -1   2  137.95    8.57
  -8  -1  -2  145.88    7.61
  -8  -1  -2  129.48    9.04
   8  -1   2  157.85    7.57
   8  -1   3  130.70    8.40
  -8  -1  -3  133.56    7.67
  -8  -1  -3  134.29    9.19
   8  -1   3  127.20    7.09
   8  -1   4  221.47   11.19
  -8  -1  -4  236.20   10.55
  -8  -1  -4  208.09   11.38
   8  -1   4  242.16   10.12
   8  -1   5  193.40   10.67
  -8  -1  -5  190.50    9.93
  -8  -1  -5  192.19   10.92
   8  -1   5  213.32    9.96
   8  -1   6   66.31    6.50
  -8  -1  -6   71.44    6.40
  -8  -1  -6   67.85    6.72
   8  -1   6   68.40    6.02
  -8  -1  -7   27.85    4.36
   8  -1   7   28.35    4.38
   8  -1   7   37.06    4.69
  -8  -1  -7   41.91    5.44
   8  -1   8  121.67    9.10
  -8  -1  -8  113.04    8.71
  -8  -1  -8  127.61    9.15
   8  -1   8  116.75    8.41
   8  -1   9  164.91   10.72
  -8  -1  -9  158.01   10.49
  -8  -1  -9  174.46   10.72
   8  -1   9  149.06    9.86
  -8  -1 -10   21.34    4.36
   8  -1  10   27.77    4.74
   8  -1  10   27.27    4.87
  -8  -1 -11   33.03    5.40
   8  -1  11   35.83    5.44
   8  -1  11   37.98    5.84
   8  -1  12   49.67    6.58
  -8  -1 -12   46.77    6.53
   8  -1  13   54.04    7.06
  -8  -1 -13   59.97    7.56
   8   0 -18  209.45   14.02
   8   0 -17   86.23    8.95
  -8   0  17   98.33    9.48
  -8   0  16   14.89    4.32
   8   0 -16   11.65    3.63
  -8   0  15   79.81    8.03
   8   0 -15   90.53    8.84
  -8   0  14  183.26   10.11
  -8   0  14  187.42   11.72
   8   0 -14  182.25   12.17
  -8   0  13  187.82    9.84
  -8   0  13  193.73   11.61
   8   0 -13  215.31   13.00
  -8   0  12   12.60    2.77
  -8   0  12   12.00    3.60
   8   0 -12   12.28    3.62
  -8   0  11  196.99    9.37
  -8   0  11  206.64   11.29
   8   0 -11  226.67   12.71
  -8   0  10  281.76   12.86
  -8   0  10  292.58   11.02
  -8   0  10  296.26   13.66
   8   0 -10  298.52   14.36
  -8   0   9   77.37    6.79
   8   0  -9   82.85    6.93
  -8   0   9   79.26    5.65
  -8   0   9   83.68    7.35
   8   0  -9   87.52    7.85
   8   0  -8   61.49    5.83
  -8   0   8   58.17    4.73
  -8   0   8   62.16    6.54
   8   0  -8   50.28    5.99
  -8   0   7   34.48    3.60
   8   0  -7   28.02    4.06
  -8   0   7   32.22    4.83
   8   0  -6  386.21   13.70
  -8   0   6  402.96   15.61
  -8   0   6  407.05   11.64
   8   0  -5  395.00   13.67
  -8   0   5  400.86   11.32
   8   0  -5  401.41   11.96
  -8   0   5  383.01   15.08
   8   0  -4   10.10    2.60
  -8   0   4   11.46    2.06
   8   0  -4   14.00    2.44
  -8   0   4   12.46    3.67
   8   0  -3  241.89   10.47
   8   0  -3  259.81    9.60
  -8   0   3  239.51   12.00
  -8   0   3  247.64    8.79
  -8   0   2  194.17    8.13
   8   0  -2  206.39    9.76
   8   0  -2  188.16    8.27
  -8   0   2  177.49   10.35
  -8   0   2  202.61    8.01
   8   0  -1  283.98   11.33
  -8   0   1  285.47   10.15
   8   0  -1  290.07   10.32
  -8   0   1  299.09   13.29
  -8   0   1  284.99    9.55
   8   0   0   63.99    5.52
  -8   0   0   66.78    5.19
  -8   0   0   76.93    5.11
   8   0   0   82.70    5.69
  -8   0   0   67.74    6.56
  -8   0  -1   43.98    4.38
   8   0   1   43.39    4.74
  -8   0  -1   48.17    4.28
   8   0   1   57.40    4.91
  -8   0  -1   39.83    5.30
   8   0   2  624.64   17.18
  -8   0  -2  663.91   17.00
   8   0   2  684.61   16.95
  -8   0  -2  596.20   18.60
  -8   0  -2  636.72   15.32
   8   0   3  207.36   10.26
  -8   0  -3  214.83   10.15
   8   0   3  212.57    9.81
  -8   0  -3  198.80   10.91
  -8   0  -4    9.04    2.80
   8   0   4    5.92    2.35
   8   0   4    4.02    1.93
  -8   0  -4    5.36    2.51
  -8   0  -5    2.23    2.00
   8   0   5   -2.14    1.97
   8   0   5    1.99    2.43
  -8   0  -5   -0.80    2.20
   8   0   6  152.02    9.29
  -8   0  -6  173.32   10.17
   8   0   6  184.08   10.15
  -8   0  -6  152.04    9.69
   8   0   7  274.29   12.83
  -8   0  -7  285.40   13.47
   8   0   7  290.47   13.17
  -8   0  -7  254.01   12.43
   8   0   8   73.01    6.88
  -8   0  -8   72.59    7.21
   8   0   8   69.92    6.93
  -8   0  -8   75.50    6.96
  -8   0  -9   28.52    4.80
   8   0   9   40.02    5.49
   8   0   9   28.89    4.75
  -8   0 -10   64.54    7.22
   8   0  10   64.81    6.92
   8   0  10   79.10    7.86
  -8   0 -11  112.32    9.87
   8   0  11  107.34    9.04
   8   0  11  100.17    9.10
  -8   0 -12  114.88   10.21
   8   0  12  112.28    9.57
   8   0  12  109.60    9.70
  -8   0 -13    5.24    3.31
   8   0  13    1.41    2.42
   8   0  13    6.03    3.29
   8   0  14   57.66    7.57
  -8   1  18    4.22    2.71
  -8   1  18    3.26    2.88
   8   1 -18    0.17    2.59
  -8   1  17   79.33    8.08
  -8   1  17   72.06    8.03
   8   1 -17   79.84    8.84
  -8   1  16  112.61    9.09
   8   1 -16  117.78   10.43
  -8   1  16  123.25   10.12
  -8   1  15   56.55    6.45
  -8   1  15   56.02    6.77
   8   1 -15   48.54    7.04
  -8   1  14   18.90    3.89
  -8   1  14   21.29    4.59
   8   1 -14   26.54    4.96
  -8   1  13   97.15    7.64
   8   1 -13  105.00    9.19
  -8   1  13  110.49    8.75
  -8   1  12  135.74    8.68
  -8   1  12  125.55    9.00
   8   1 -12  115.99    9.52
  -8   1  11   83.68    6.66
  -8   1  11   82.84    7.14
   8   1 -11   83.73    7.99
  -8   1  10   19.34    3.47
  -8   1  10   17.77    3.56
   8   1 -10   18.63    4.02
  -8   1   9  115.86    7.36
  -8   1   9  117.79    7.97
   8   1  -9  117.10    9.16
  -8   1   8  333.44   13.01
   8   1  -8  323.81   12.69
  -8   1   8  325.82   11.87
  -8   1   8  347.41   14.84
   8   1  -8  347.62   15.13
   8   1  -7  217.80   10.28
  -8   1   7  224.61    9.68
  -8   1   7  229.16   12.08
   8   1  -7  237.10   12.27
   8   1  -6   35.26    4.21
  -8   1   6   33.66    3.85
   8   1  -6   36.14    4.21
  -8   1   6   28.56    4.67
   8   1  -6   32.95    4.85
   8   1  -5  123.78    7.43
  -8   1   5  107.34    6.54
   8   1  -5  119.93    7.34
  -8   1   5  112.61    8.66
   8   1  -5  118.32    8.45
   8   1  -4  378.40   12.77
  -8   1   4  385.09   12.12
   8   1  -4  387.91   13.02
  -8   1   4  382.73   15.29
   8   1  -4  368.76   14.51
   8   1  -3  259.59   10.49
  -8   1   3  276.84   10.29
   8   1  -3  271.50   10.83
  -8   1   3  278.36   12.92
  -8   1   2   28.19    3.67
   8   1  -2   24.80    3.53
  -8   1   2   29.13    3.64
   8   1  -2   32.62    4.09
  -8   1   2   35.98    5.07
  -8   1   1   57.39    5.13
   8   1  -1   59.99    5.14
  -8   1   1   56.59    4.89
   8   1  -1   51.63    4.87
  -8   1   1   59.98    6.31
   8   1   0   90.85    6.28
  -8   1   0   87.73    6.45
   8   1   0   81.34    6.15
  -8   1   0   87.63    7.44
  -8   1   0   92.29    6.11
   8   1   1  210.14    9.55
  -8   1  -1  216.15   10.10
   8   1   1  216.37   10.06
  -8   1  -1  209.33   11.10
  -8   1  -1  222.07    9.63
   8   1   2  141.14    7.95
  -8   1  -2  133.30    8.20
   8   1   2  147.84    8.53
  -8   1  -2  132.20    8.99
  -8   1  -2  144.90    8.07
   8   1   3  118.04    7.45
  -8   1  -3  117.80    7.93
   8   1   3  126.67    8.14
  -8   1  -3  121.79    8.56
  -8   1  -3  121.87    7.51
   8   1   4  235.04   10.64
  -8   1  -4  246.42   11.79
   8   1   4  250.04   11.64
  -8   1  -4  228.21   11.56
   8   1   5  179.70    9.57
  -8   1  -5  201.45   11.05
   8   1   5  194.17   10.57
  -8   1  -5  181.39   10.39
   8   1   6   64.32    5.97
  -8   1  -6   60.42    6.42
   8   1   6   58.94    6.28
  -8   1  -6   57.01    5.91
  -8   1  -7   31.94    4.90
   8   1   7   30.06    4.48
   8   1   7   21.20    3.98
  -8   1  -7   26.43    4.35
  -8   1  -8  106.72    8.92
   8   1   8  117.95    8.49
   8   1   8  118.10    9.08
  -8   1  -9  176.45   11.69
   8   1   9  170.28   10.46
   8   1   9  172.59   11.37
  -8   1 -10   27.06    4.84
   8   1  10   27.17    4.96
   8   1  10   31.07    4.88
  -8   1 -11   35.28    6.17
   8   1  11   26.76    5.14
   8   1  11   44.03    5.81
  -8   1 -12   68.94    8.22
   8   1  12   65.80    7.43
   8   1  12   57.52    7.52
  -8   1 -13   58.87    7.65
   8   1  13   46.87    6.38
   8   1  13   58.23    7.71
   8   1  14   24.21    4.91
  -8   2  17   51.02    6.92
  -8   2  17   55.65    7.22
   8   2 -17   63.97    8.29
  -8   2  16    6.98    3.45
  -8   2  16    4.09    2.72
   8   2 -16    3.21    2.81
  -8   2  15   42.57    5.93
  -8   2  15   64.01    7.03
   8   2 -15   45.34    6.38
  -8   2  14  277.79   13.79
  -8   2  14  278.47   13.96
   8   2 -14  310.43   16.44
  -8   2  13   94.68    8.03
  -8   2  13   84.75    7.63
   8   2 -13  100.96    9.36
  -8   2  12    2.68    2.76
  -8   2  12    3.52    2.66
   8   2 -12    4.34    2.71
  -8   2  11   25.10    4.33
  -8   2  11   32.42    4.70
   8   2 -11   28.61    5.02
  -8   2  10  393.54   14.73
  -8   2  10  405.66   14.87
   8   2 -10  384.82   16.89
  -8   2   9  280.13   12.13
  -8   2   9  286.10   12.09
   8   2  -9  268.55   14.00
  -8   2   8   -2.11    2.32
  -8   2   8    2.25    2.08
   8   2  -8   -0.78    2.22
  -8   2   7  102.18    7.04
  -8   2   7  100.44    7.15
   8   2  -7   95.83    7.27
   8   2  -7  103.15    8.37
   8   2  -6  294.98   11.30
  -8   2   6  275.61   11.45
   8   2  -6  285.97   12.31
   8   2  -6  291.25   13.56
   8   2  -5  216.45    9.50
  -8   2   5  207.55    9.89
   8   2  -5  216.00   10.56
   8   2  -5  208.76   11.33
   8   2  -4  126.43    7.17
  -8   2   4  101.79    7.00
   8   2  -4   90.39    6.90
   8   2  -4   99.35    7.79
   8   2  -3  139.49    7.45
  -8   2   3  138.07    8.02
   8   2  -3  132.48    8.32
  -8   2   3  131.34    9.37
   8   2  -3  126.56    8.55
  -8   2   2  719.85   18.85
   8   2  -2  734.79   16.79
  -8   2   2  694.90   17.70
   8   2  -2  750.50   19.47
  -8   2   2  731.35   21.30
   8   2  -2  711.66   19.66
  -8   2   1  252.73   11.50
   8   2  -1  222.32    9.28
  -8   2   1  217.09   10.05
   8   2  -1  238.56   11.10
  -8   2   1  207.01   11.32
   8   2  -1  221.31   10.86
  -8   2   0    6.63    2.38
   8   2   0    4.59    1.54
  -8   2   0    1.03    1.72
   8   2   0    2.09    1.72
  -8   2   0    4.04    2.24
   8   2   0    6.41    2.45
   8   2   1   51.85    4.66
  -8   2  -1   43.43    5.19
  -8   2  -1   39.66    4.66
   8   2   1   42.96    4.94
  -8   2  -1   46.59    5.58
   8   2   1   44.79    4.82
   8   2   2  260.54   10.38
  -8   2  -2  273.63   12.49
  -8   2  -2  241.97   11.13
   8   2   2  277.27   12.44
  -8   2  -2  267.02   12.64
   8   2   2  270.95   11.43
   8   2   3  328.43   11.87
  -8   2  -3  315.32   13.67
  -8   2  -3  300.37   12.57
   8   2   3  337.81   13.95
  -8   2  -3  324.38   13.87
   8   2   3  310.06   12.04
  -8   2  -4   34.53    4.94
   8   2   4   23.16    3.41
  -8   2  -4   27.92    4.29
   8   2   4   24.10    4.15
  -8   2  -4   28.44    4.43
   8   2   5   83.43    6.38
  -8   2  -5   97.39    8.18
   8   2   5   98.98    8.02
  -8   2  -5   95.17    7.54
  -8   2  -5   86.45    7.22
   8   2   6  123.73    7.95
  -8   2  -6  120.34    9.31
  -8   2  -6  120.91    8.40
   8   2   6  121.60    9.07
   8   2   7   81.28    6.68
  -8   2  -7   69.79    7.47
   8   2   7   82.46    7.80
  -8   2  -8   58.39    7.02
   8   2   8   63.44    6.12
   8   2   8   53.69    6.56
  -8   2  -9    8.64    3.45
   8   2   9    5.42    2.81
   8   2   9   14.01    3.25
  -8   2 -10  180.92   12.67
   8   2  10  177.81   10.73
   8   2  10  186.01   12.62
  -8   2 -11  107.40   10.15
   8   2  11   87.40    7.85
   8   2  11  122.57   10.70
  -8   2 -12    4.10    2.68
   8   2  12    4.18    3.10
   8   2  12    8.38    3.27
   8   2  13    0.46    2.91
   8   2  13    2.40    2.11
  -8   3  17   47.71    6.47
  -8   3  16   96.87    9.37
  -8   3  16   81.30    8.29
   8   3 -16   86.92    9.48
  -8   3  15   34.43    5.80
  -8   3  15   36.78    5.55
   8   3 -15   39.48    6.36
  -8   3  14    3.39    2.96
  -8   3  14    2.09    2.19
   8   3 -14    5.39    3.15
  -8   3  13   44.93    6.13
  -8   3  13   45.12    5.73
   8   3 -13   49.09    6.94
  -8   3  12  191.46   11.55
  -8   3  12  190.12   10.83
   8   3 -12  197.91   13.22
  -8   3  11   99.89    8.33
  -8   3  11  110.07    8.08
   8   3 -11   90.54    8.81
  -8   3  10   13.37    3.39
  -8   3  10    7.47    2.42
   8   3 -10   12.08    3.36
  -8   3   9  127.09    8.95
  -8   3   9  136.56    8.37
   8   3  -9  121.64    9.66
  -8   3   8   63.26    6.36
  -8   3   8   60.23    5.55
   8   3  -8   55.04    6.64
  -8   3   7   95.53    6.67
  -8   3   7   85.15    7.10
   8   3  -7   93.46    7.76
   8   3  -7   91.66    8.25
  -8   3   6   75.63    5.80
  -8   3   6   74.79    6.71
   8   3  -6   80.47    7.18
   8   3  -6   74.15    7.15
  -8   3   5   82.14    5.92
  -8   3   5   75.59    6.65
   8   3  -5   81.81    7.14
   8   3  -5   69.77    6.90
  -8   3   4  214.27   10.77
   8   3  -4  232.28   11.77
   8   3  -4  224.69   11.77
  -8   3   3   97.10    7.32
   8   3  -3  111.04    8.15
   8   3  -3  118.06    8.46
  -8   3   2   11.42    3.05
   8   3  -2   18.85    3.81
   8   3  -2   16.52    3.55
  -8   3   1   13.69    3.37
  -8   3   1   13.37    3.16
   8   3  -1   14.16    3.36
   8   3  -1   15.78    3.20
  -8   3   0  245.12   12.34
  -8   3   0  227.99   11.33
   8   3   0  230.77   11.89
   8   3   0  223.29   10.79
  -8   3  -1  253.05   12.68
  -8   3  -1  230.81   11.50
   8   3   1  245.49   12.27
   8   3   1  240.97   10.94
  -8   3  -2    9.80    3.45
   8   3   2   10.75    3.38
  -8   3  -2   15.34    3.51
  -8   3  -3   56.86    6.41
   8   3   3   62.39    6.75
  -8   3  -3   51.97    5.84
  -8   3  -4  132.68    9.78
   8   3   4  150.95   10.21
  -8   3  -4  133.74    9.34
  -8   3  -5  124.39    9.77
   8   3   5  134.02    9.91
  -8   3  -5  123.09    9.03
  -8   3  -6  117.83    9.61
   8   3   6   93.59    8.53
  -8   3  -7   16.88    4.44
   8   3   7   11.92    3.67
  -8   3  -8  136.98   11.01
   8   3   8  130.90   10.44
  -8   3  -9   94.71    9.48
   8   3   9   87.12    8.97
  -8   3 -10   29.74    5.77
   8   3  10   44.03    6.69
  -8   3 -11    6.24    3.77
   8   3  11    8.07    3.39
  -8   4  14   71.90    8.20
   8   4 -14   65.46    8.37
  -8   4  13  111.98    9.71
   8   4 -13   96.82   10.03
  -8   4  12    7.76    3.73
   8   4 -12    2.94    2.91
  -8   4  11  113.24    9.46
   8   4 -11  107.81   10.01
  -8   4  10  187.90   11.69
   8   4 -10  183.26   12.66
  -8   4   9   83.45    7.88
   8   4  -9   82.36    8.48
  -8   4   8    3.64    2.97
   8   4  -8    2.09    2.18
  -8   4   7   47.55    5.99
   8   4  -7   43.06    5.81
   8   4  -7   32.31    5.27
  -8   4   6  298.04   13.79
   8   4  -6  312.64   14.79
   8   4  -6  293.83   14.62
  -8   4   5  192.82   11.06
   8   4  -5  201.29   11.79
   8   4  -5  187.07   11.45
  -8   4   4    6.41    2.93
   8   4  -4    4.48    2.09
   8   4  -4    8.23    2.89
  -8   4   3   30.93    4.86
   8   4  -3   36.64    5.17
   8   4  -3   25.75    4.42
  -8   4   2  132.02    9.23
   8   4  -2  127.35    9.42
   8   4  -2  124.32    8.74
  -8   4   1  181.48   10.76
   8   4  -1  179.27   11.13
   8   4  -1  175.22   10.10
  -8   4   0   95.79    8.54
   8   4   0   96.18    8.31
  -8   4   0   98.92    8.13
  -8   4  -1   29.37    4.95
   8   4   1   17.52    3.86
  -8   4  -1   23.10    4.34
  -8   4  -2  185.25   11.77
   8   4   2  179.28   11.41
  -8   4  -2  178.73   11.00
  -8   4  -3   81.20    8.07
   8   4   3   87.87    8.26
  -8   4  -3   76.80    7.47
  -8   4  -4   15.29    4.10
   8   4   4    8.88    3.10
  -8   4  -4    7.96    3.36
  -8   4  -5   -0.52    2.73
   8   4   5    4.91    2.61
  -8   4  -5    5.75    3.50
  -8   4  -6   86.74    8.88
   8   4   6   97.66    9.18
  -8   4  -6   90.71    8.45
  -8   4  -7  101.37    9.54
   8   4   7  116.07   10.09
  -8   4  -8   10.18    3.86
   8   4   8    7.09    3.52
  -8   4  -9    9.86    4.07
   8   4   9    7.94    3.40
  -8   4 -10   66.39    8.42
   8   4  10   71.04    8.63
  -8   5  12   59.27    7.56
   8   5 -12   56.97    7.83
  -8   5  11   26.00    5.13
   8   5 -11   21.02    5.04
  -8   5  10   11.53    3.99
   8   5 -10   17.44    4.31
  -8   5   9   30.42    5.47
   8   5  -9   39.70    6.28
  -8   5   8  148.41   10.85
   8   5  -8  137.29   10.98
  -8   5   7   47.83    6.39
   8   5  -7   58.09    7.13
   8   5  -7   49.14    6.58
  -8   5   6    1.72    2.78
   8   5  -6    3.83    1.93
   8   5  -6    3.79    2.33
  -8   5   5   25.03    5.01
   8   5  -5   27.31    5.03
   8   5  -5   37.79    5.64
  -8   5   4   68.90    7.46
   8   5  -4   60.73    6.88
   8   5  -4   55.05    6.43
  -8   5   3  152.77   10.53
   8   5  -3  152.58   10.92
   8   5  -3  147.49   10.08
   8   5  -2   15.76    4.17
  -8   5   2   14.22    4.24
   8   5  -1  103.42    9.20
  -8   5   1  105.01    8.86
   8   5   0   80.50    8.13
  -8   5   0   80.13    7.95
   8   5   1   87.13    8.53
  -8   5  -1   80.31    8.14
  -8   5  -2   38.79    6.18
   8   5   2   37.59    5.83
  -8   5  -2   45.15    6.43
  -8   5  -3   46.13    6.82
   8   5   3   48.74    6.63
  -8   5  -3   56.44    6.92
  -8   5  -4  134.98   11.00
   8   5   4  141.14   11.07
  -8   5  -4  133.95   10.50
  -8   5  -5   52.09    7.18
   8   5   5   70.51    8.30
  -8   5  -5   69.27    7.86
  -8   5  -6    8.24    3.86
   8   5   6    5.39    3.31
  -8   5  -6    6.27    3.82
  -8   5  -7    6.51    3.45
   8   5   7   13.50    4.36
  -8   5  -8    4.63    2.69
   8   5   8    9.36    3.67
   8   6 -10   47.58    7.25
   8   6  -9   71.29    8.47
  -8   6   8    4.90    3.54
   8   6  -8    5.63    3.08
  -8   6   7   68.49    8.05
   8   6  -7   48.08    6.75
  -8   6   6  108.48    9.78
   8   6  -6  109.86   10.04
   8   6  -6   98.48    9.36
   8   6  -5   55.13    7.44
  -8   6   5   47.56    6.84
   8   6  -4   12.38    3.60
  -8   6   4    7.43    3.52
   8   6  -3   26.32    5.25
  -8   6   3   36.84    6.09
   8   6  -2  102.90    9.64
  -8   6   2  129.62   10.59
   8   6  -1   51.98    7.19
  -8   6   1   49.43    6.83
   8   6   0    6.11    2.88
  -8   6   0   -1.15    3.25
   8   6   1    8.68    3.58
  -8   6  -1    1.97    3.34
   8   6   2   56.64    7.64
  -8   6  -2   63.24    7.83
   8   6   3  112.60   10.38
  -8   6  -3  134.92   11.03
  -8   6  -4   24.40    5.43
   8   6   4   17.20    4.78
  -8   6  -4   15.45    4.54
  -9  -6   8   22.62    4.57
   9  -6  -7   12.85    3.83
  -9  -6   7   17.03    4.52
   9  -6  -6   34.94    5.63
  -9  -6   6   44.73    6.80
   9  -6  -5   25.89    4.99
  -9  -6   5   32.19    5.98
   9  -6  -4   17.58    4.20
   9  -6  -4   14.21    3.93
  -9  -6   4   16.74    4.83
   9  -6  -3   51.83    6.63
   9  -6  -3   57.58    7.39
  -9  -6   3   60.65    7.96
   9  -6  -2   30.95    5.22
   9  -6  -2   43.79    6.53
  -9  -6   2   42.86    6.66
   9  -6  -1    6.60    3.21
  -9  -6   1    1.95    2.62
   9  -6   0    8.43    2.88
   9  -6   1   15.73    4.06
   9  -6   2   62.28    7.46
   9  -5 -12   87.14    8.77
  -9  -5  11    7.61    3.45
   9  -5 -11   13.61    3.96
  -9  -5  10   29.90    5.44
   9  -5 -10   24.16    4.85
  -9  -5   9  125.10   10.26
   9  -5  -9  146.71   11.19
   9  -5  -9  116.68    9.79
   9  -5  -8   67.18    7.54
   9  -5  -8   59.10    7.05
  -9  -5   8   59.39    7.28
   9  -5  -7    9.38    3.05
   9  -5  -7   11.93    3.64
  -9  -5   7    7.63    3.32
   9  -5  -6    1.60    2.45
   9  -5  -6   -3.21    2.74
  -9  -5   6   -0.95    2.70
   9  -5  -5   91.42    8.50
   9  -5  -5   72.53    7.66
  -9  -5   5   80.29    8.64
   9  -5  -4  146.10   10.67
   9  -5  -4  155.47   10.84
  -9  -5   4  151.57   11.71
   9  -5  -3   10.98    3.25
   9  -5  -3   12.94    3.56
  -9  -5   3   21.37    5.01
   9  -5  -2   25.15    4.69
   9  -5  -2   23.10    4.62
  -9  -5   2   12.71    4.31
   9  -5  -1   36.86    5.61
   9  -5  -1   43.30    6.18
  -9  -5   1   41.85    6.34
   9  -5   0   63.36    7.28
  -9  -5   0   52.65    7.17
   9  -5   1   63.56    7.27
  -9  -5  -1   64.55    8.02
   9  -5   2   -0.90    1.87
  -9  -5  -2    1.45    2.77
   9  -5   3   93.58    8.91
  -9  -5  -3  100.64   10.09
   9  -5   4   78.06    8.33
  -9  -5  -4   81.30    9.15
   9  -5   5   17.44    4.44
  -9  -5  -5   22.78    5.19
   9  -5   6    1.21    2.26
  -9  -4  13   16.66    4.39
   9  -4 -13   17.13    4.04
  -9  -4  12   38.96    6.24
   9  -4 -12   29.74    4.89
  -9  -4  11   63.05    7.34
   9  -4 -11   43.71    5.89
   9  -4 -10   46.36    6.53
  -9  -4  10   41.88    6.04
   9  -4 -10   27.28    4.62
  -9  -4  10   46.16    6.25
  -9  -4   9   75.98    8.02
   9  -4  -9   63.93    7.36
  -9  -4   9   79.04    8.30
   9  -4  -9   58.90    6.63
   9  -4  -8   10.24    3.40
   9  -4  -8    5.86    2.60
  -9  -4   8    0.63    2.51
   9  -4  -7   91.47    8.41
  -9  -4   7   85.14    8.45
   9  -4  -7   82.55    7.64
   9  -4  -6  177.04   11.53
  -9  -4   6  182.14   12.21
   9  -4  -6  187.75   11.11
   9  -4  -5   20.09    4.19
   9  -4  -5   18.55    3.92
  -9  -4   5   14.81    3.94
   9  -4  -4   47.71    6.06
   9  -4  -4   47.98    5.82
  -9  -4   4   42.29    6.28
   9  -4  -3   62.91    6.81
   9  -4  -3   67.87    6.89
  -9  -4   3   64.45    7.50
   9  -4  -2  168.81   11.04
  -9  -4   2  173.28   12.07
   9  -4  -1   38.16    5.47
  -9  -4   1   24.30    4.74
   9  -4   0   29.84    4.89
  -9  -4   0   31.70    5.66
   9  -4   1   95.50    8.51
  -9  -4  -1   89.00    8.85
   9  -4   2  111.32    9.21
  -9  -4  -2  101.40    9.53
   9  -4   3   77.17    7.76
  -9  -4  -3   66.10    7.84
   9  -4   4   14.54    4.23
  -9  -4  -4   11.15    4.15
   9  -4   5   80.78    8.48
  -9  -4  -5   75.01    8.40
   9  -4   6  145.98   11.14
  -9  -4  -6  133.86   11.10
   9  -4   7   20.40    4.58
  -9  -4  -7   16.73    4.58
   9  -4   8   -1.05    1.97
  -9  -4  -8    1.69    2.31
  -9  -4  -9   30.98    5.93
   9  -3 -15   11.21    3.80
  -9  -3  14   11.58    3.92
   9  -3 -14   13.28    4.05
  -9  -3  13  129.88   10.53
   9  -3 -13  109.21    9.94
  -9  -3  12  133.88   10.59
  -9  -3  11   19.62    4.29
   9  -3 -11   18.04    3.62
  -9  -3  11   20.60    4.23
   9  -3 -10   13.04    3.95
  -9  -3  10   18.24    4.10
   9  -3 -10   18.15    3.67
  -9  -3  10   20.04    4.46
   9  -3  -9  171.28   11.29
   9  -3  -9  156.60    9.63
  -9  -3   9  170.07   11.44
   9  -3  -8  191.08   11.73
   9  -3  -8  196.36   10.71
  -9  -3   8  194.25   12.16
   9  -3  -7   65.45    7.04
   9  -3  -7   58.44    5.97
  -9  -3   7   67.75    7.54
   9  -3  -6   49.44    6.06
   9  -3  -6   47.02    5.37
  -9  -3   6   53.75    6.73
   9  -3  -5  258.32   13.11
  -9  -3   5  258.63   14.04
   9  -3  -5  262.14   12.13
   9  -3  -4  203.64   11.69
  -9  -3   4  196.27   12.27
   9  -3  -4  197.74   10.64
   9  -3  -3   34.76    5.12
  -9  -3   3   32.08    5.34
   9  -3  -2   11.50    3.37
  -9  -3   2   15.46    4.13
   9  -3  -1  135.06    9.56
  -9  -3   1  152.48   10.99
   9  -3   0  219.50   12.13
  -9  -3   0  218.75   13.07
   9  -3   1   36.71    5.22
  -9  -3  -1   29.59    5.14
   9  -3   2    7.85    2.70
  -9  -3  -2    6.45    2.89
   9  -3   3   79.00    7.72
  -9  -3  -3   78.08    8.21
   9  -3   4  183.61   11.55
  -9  -3  -4  165.67   11.72
   9  -3   5   15.44    3.93
  -9  -3  -5   20.02    4.56
   9  -3   6    7.26    3.05
  -9  -3  -6    3.78    2.86
   9  -3   7   94.45    8.96
  -9  -3  -7   82.85    8.62
   9  -3   8  112.98    9.88
  -9  -3  -8   78.54    8.38
   9  -3   9   37.96    6.06
  -9  -3  -9   24.22    4.99
  -9  -3 -10   14.79    3.85
   9  -2 -17   12.13    3.74
   9  -2 -16   46.67    6.90
  -9  -2  15  107.81   10.03
   9  -2 -15   82.16    8.72
  -9  -2  14   36.52    5.96
   9  -2 -14   47.53    6.67
  -9  -2  13    7.81    3.52
   9  -2 -13    8.18    2.98
  -9  -2  12   11.67    3.42
  -9  -2  12    5.90    2.83
  -9  -2  11  131.75    9.99
  -9  -2  11  144.26   10.42
   9  -2 -11  118.22    9.70
  -9  -2  10  286.32   14.36
   9  -2 -10  278.58   14.11
  -9  -2  10  265.43   14.08
   9  -2  -9    4.27    2.91
  -9  -2   9    4.44    3.04
   9  -2  -8   70.74    7.21
   9  -2  -8   72.04    5.97
  -9  -2   8   66.83    7.18
   9  -2  -7   55.40    6.33
   9  -2  -7   72.11    6.00
  -9  -2   7   68.21    7.38
   9  -2  -6  143.35    9.70
   9  -2  -6  142.57    8.32
  -9  -2   6  129.04    9.74
   9  -2  -5   85.39    7.47
   9  -2  -5   86.95    6.54
  -9  -2   5   69.34    7.32
   9  -2  -4   18.34    3.74
   9  -2  -4   18.16    3.13
  -9  -2   4   21.71    4.40
   9  -2  -3  220.10   11.61
  -9  -2   3  211.25   12.46
   9  -2  -2  101.03    7.96
  -9  -2   2   90.48    8.35
   9  -2  -1   13.11    2.96
  -9  -2   1   19.74    4.64
   9  -2   0    0.71    2.01
  -9  -2   0    1.97    2.43
   9  -2   1  111.81    8.49
  -9  -2  -1   96.24    8.53
   9  -2   2  366.09   15.23
  -9  -2  -2  362.34   16.36
   9  -2   3   78.04    7.38
  -9  -2  -3   82.61    8.03
   9  -2   4   39.61    5.38
  -9  -2  -4   29.98    5.23
   9  -2   5   67.38    7.15
  -9  -2  -5   72.07    7.65
   9  -2   6   32.12    5.18
  -9  -2  -6   38.92    5.74
   9  -2   7   72.97    7.61
  -9  -2  -7   92.33    8.58
   9  -2   8    8.77    3.05
  -9  -2  -8    8.88    3.52
   9  -2   9   98.57    9.15
  -9  -2  -9   82.74    8.35
   9  -2  10  123.92   10.45
   9  -1 -17  114.60   10.66
   9  -1 -16  134.58   11.24
  -9  -1  16  146.59   11.66
  -9  -1  15    5.33    2.69
   9  -1 -15   16.37    4.28
  -9  -1  14   24.52    5.04
   9  -1 -14   18.94    4.47
  -9  -1  13  213.79   12.84
   9  -1 -13  220.68   13.65
  -9  -1  12  167.49   11.27
  -9  -1  12  150.02   10.61
   9  -1 -12  169.83   11.95
  -9  -1  11   31.14    5.21
  -9  -1  11   31.23    5.26
   9  -1 -11   28.14    5.22
   9  -1 -10   23.37    4.57
  -9  -1  10   29.11    5.00
  -9  -1  10   29.64    5.09
   9  -1 -10   31.68    5.43
   9  -1  -9  195.18   11.28
  -9  -1   9  221.76   12.61
   9  -1  -8  208.99   11.48
  -9  -1   8  196.13   11.90
   9  -1  -7   23.76    4.00
  -9  -1   7   26.65    4.97
   9  -1  -6   53.30    5.86
  -9  -1   6   48.30    6.19
   9  -1  -5  229.91   11.64
   9  -1  -5  252.48    9.98
  -9  -1   5  256.07   13.44
   9  -1  -4  392.56   15.03
  -9  -1   4  388.06   16.46
   9  -1  -3   31.43    4.47
  -9  -1   3   45.03    6.03
   9  -1  -2   54.69    5.84
  -9  -1   2   56.91    6.56
   9  -1  -1  239.26   11.69
  -9  -1   1  261.30   13.56
   9  -1   0  155.20    9.50
  -9  -1   0  149.21   10.36
   9  -1   1   82.19    7.07
  -9  -1  -1   79.70    7.77
   9  -1   2   -1.35    2.03
  -9  -1  -2   -1.02    2.47
   9  -1   3  261.84   12.69
  -9  -1  -3  233.43   12.90
   9  -1   4  168.82   10.38
  -9  -1  -4  163.43   10.86
   9  -1   5   72.26    7.07
  -9  -1  -5   61.18    6.75
   9  -1   6    2.29    2.04
  -9  -1  -6   -0.98    2.02
  -9  -1  -6   -2.53    2.36
   9  -1   7   62.63    6.86
  -9  -1  -7   69.14    7.01
  -9  -1  -7   56.36    6.69
   9  -1   8  156.01   10.87
  -9  -1  -8  151.11   10.48
  -9  -1  -8  148.80   10.69
   9  -1   9  103.78    9.25
  -9  -1  -9   96.02    8.68
  -9  -1  -9  102.78    8.96
   9  -1  10    5.07    3.06
  -9  -1 -10    7.92    3.04
   9  -1  11   43.18    6.42
  -9  -1 -11   51.85    7.05
  -9  -1 -12   72.39    8.26
   9   0 -17   -3.48    2.95
  -9   0  16    2.33    2.70
   9   0 -16    1.58    2.35
  -9   0  15   22.96    4.87
   9   0 -15   19.75    4.71
  -9   0  14  183.48   12.20
   9   0 -14  158.08   11.99
  -9   0  13   30.62    5.12
   9   0 -13   29.02    5.28
  -9   0  12  165.17   10.94
   9   0 -12  160.29   11.62
  -9   0  11  171.42   10.82
   9   0 -11  187.05   12.20
  -9   0  10   63.74    6.75
  -9   0  10   71.54    7.53
   9   0 -10   76.25    7.82
  -9   0   9   79.20    7.35
   9   0  -9   73.05    6.83
  -9   0   9   83.45    7.97
   9   0  -9   79.78    7.91
   9   0  -8    9.87    3.11
  -9   0   8   12.78    3.77
   9   0  -8    9.65    3.18
   9   0  -7  257.33   12.24
  -9   0   7  274.57   14.01
   9   0  -7  260.62   13.73
   9   0  -6  223.03   11.28
  -9   0   6  214.40   12.40
   9   0  -5   64.61    6.18
  -9   0   5   62.50    6.80
   9   0  -4    0.65    1.90
  -9   0   4    9.55    3.65
   9   0  -3   80.88    6.62
   9   0  -3   93.65    6.23
  -9   0   3   89.76    8.22
   9   0  -2  333.50   13.23
   9   0  -2  350.89   12.10
  -9   0   2  324.55   14.92
   9   0  -1  129.28    8.40
   9   0  -1  139.99    7.75
  -9   0   1  131.28    9.62
   9   0   0   60.20    5.82
  -9   0   0   53.38    4.93
   9   0   0   75.71    5.85
  -9   0   0   62.94    6.89
   9   0   1  133.57    8.55
  -9   0  -1  130.52    7.92
   9   0   1  133.73    7.89
  -9   0  -1  127.24    9.39
   9   0   2  252.62   11.82
  -9   0  -2  257.52   11.37
   9   0   2  284.91   11.77
  -9   0  -2  266.33   13.58
   9   0   3   56.72    5.82
  -9   0  -3   75.55    6.55
   9   0   3   79.21    6.45
  -9   0  -3   86.49    7.94
  -9   0  -4   13.23    3.28
   9   0   4   15.19    3.43
   9   0   4   11.26    2.92
  -9   0  -4   12.39    3.68
   9   0   5  123.79    8.90
  -9   0  -5  127.07    9.01
   9   0   5  120.94    8.46
  -9   0  -5  135.07    9.76
   9   0   6  194.62   11.18
  -9   0  -6  194.83   11.40
   9   0   6  195.08   11.02
  -9   0  -6  190.61   11.67
  -9   0  -7    2.93    2.05
   9   0   7    1.30    2.00
   9   0   7    6.54    2.75
  -9   0  -7    2.39    2.41
  -9   0  -8   13.49    3.75
   9   0   8   10.62    3.08
   9   0   8   12.99    3.35
  -9   0  -8    8.71    3.01
  -9   0  -9   31.56    5.38
   9   0   9   33.04    5.34
   9   0   9   30.44    5.02
   9   0  10   70.18    7.56
  -9   0 -10   80.61    8.44
   9   0  10   86.74    8.45
  -9   0 -11   58.31    7.45
   9   0  11   65.64    7.74
   9   0  11   58.14    7.26
  -9   0 -12    6.24    3.30
   9   0  12    4.53    2.74
   9   0  12    4.75    2.82
  -9   1  16  119.71   10.21
   9   1 -16  130.64   11.54
  -9   1  15    8.62    3.06
  -9   1  15   11.28    3.56
   9   1 -15   11.46    3.95
  -9   1  14   25.66    4.33
  -9   1  14   25.27    4.93
   9   1 -14   18.64    4.41
  -9   1  13  211.47   11.40
  -9   1  13  220.93   12.76
   9   1 -13  211.55   13.71
  -9   1  12  147.21    9.28
  -9   1  12  149.19   10.22
   9   1 -12  164.57   11.89
  -9   1  11   37.38    4.75
  -9   1  11   31.40    4.85
   9   1 -11   36.36    5.98
  -9   1  10   21.95    3.62
  -9   1  10   22.14    4.05
   9   1 -10   19.25    4.47
  -9   1   9  206.95   10.14
  -9   1   9  229.80   11.75
   9   1  -9  215.18   12.81
  -9   1   8  193.54   10.72
   9   1  -8  190.92   10.40
  -9   1   8  179.49    9.24
  -9   1   8  199.51   12.19
   9   1  -8  183.32   11.66
  -9   1   7   17.05    3.14
   9   1  -7   14.36    3.26
  -9   1   7   10.66    3.61
   9   1  -7   16.05    3.86
   9   1  -6   43.09    5.06
  -9   1   6   39.25    4.37
   9   1  -6   49.92    5.12
  -9   1   6   45.22    6.09
   9   1  -6   40.86    5.76
   9   1  -5  260.81   11.55
  -9   1   5  244.23   10.39
   9   1  -5  238.87   10.88
  -9   1   5  264.79   13.72
   9   1  -5  236.41   12.75
   9   1  -4  440.62   14.78
  -9   1   4  414.20   13.41
   9   1  -4  436.51   14.66
  -9   1   4  421.53   17.27
   9   1  -4  427.72   16.85
   9   1  -3   40.20    4.63
  -9   1   3   34.56    4.09
   9   1  -3   37.07    4.39
  -9   1   3   33.94    5.29
  -9   1   2   68.53    5.85
   9   1  -2   62.54    5.59
  -9   1   2   55.04    5.09
   9   1  -2   72.22    6.15
  -9   1   2   57.23    6.51
  -9   1   1  237.70   10.89
   9   1  -1  241.16   10.91
   9   1  -1  266.00   11.57
  -9   1   1  249.44   13.26
  -9   1   1  248.58   10.52
   9   1   0  159.77    8.88
  -9   1   0  170.23    9.42
   9   1   0  175.77    9.62
  -9   1   0  174.31   11.01
  -9   1   0  150.37    8.36
   9   1   1   85.97    6.67
  -9   1  -1   88.46    6.96
  -9   1  -1   82.13    6.28
   9   1   1   92.58    7.16
  -9   1  -1   80.72    7.79
  -9   1  -2    0.27    1.82
  -9   1  -2    2.92    2.10
   9   1   2   -0.04    1.84
  -9   1  -2    1.12    2.37
   9   1   3  258.95   11.77
  -9   1  -3  252.56   12.42
   9   1   3  259.15   12.41
  -9   1  -3  247.10   13.08
  -9   1  -3  241.32   11.15
   9   1   4  183.17   10.11
  -9   1  -4  174.77   10.58
   9   1   4  172.47   10.32
  -9   1  -4  172.52   10.95
   9   1   5   59.65    6.17
  -9   1  -5   62.38    6.86
   9   1   5   77.57    7.20
  -9   1  -5   71.94    7.22
  -9   1  -6   -1.73    2.41
   9   1   6   -1.08    1.92
   9   1   6   -1.38    1.97
  -9   1  -6    2.05    2.30
  -9   1  -7   56.17    6.76
   9   1   7   63.89    6.61
   9   1   7   64.62    6.97
   9   1   8  162.52   10.50
  -9   1  -8  166.96   11.58
   9   1   8  163.38   11.28
   9   1   9  109.96    8.98
  -9   1  -9  106.80    9.71
   9   1   9   90.39    8.61
  -9   1 -10    3.91    2.85
   9   1  10    0.75    2.17
   9   1  10    3.25    2.50
  -9   1 -11   51.21    7.20
   9   1  11   46.28    6.79
   9   1  11   34.85    5.53
   9   1  12   59.51    7.74
   9   1  12   62.84    7.38
  -9   2  16   38.46    5.88
  -9   2  16   49.32    6.70
  -9   2  15   99.04    8.93
  -9   2  15   98.71    9.10
   9   2 -15  117.44   10.96
  -9   2  14   40.04    5.76
  -9   2  14   40.56    5.98
   9   2 -14   31.46    5.82
  -9   2  13    6.31    2.89
  -9   2  13    7.77    3.33
   9   2 -13    9.48    3.96
  -9   2  12   16.63    3.71
  -9   2  12    9.97    3.27
   9   2 -12   13.33    3.99
  -9   2  11  136.82    9.27
  -9   2  11  130.77    9.27
   9   2 -11  136.85   10.90
  -9   2  10  270.08   12.70
  -9   2  10  288.23   13.27
   9   2 -10  276.23   15.07
  -9   2   9    2.16    2.01
  -9   2   9    2.47    2.08
   9   2  -9    4.96    3.04
  -9   2   8   60.78    5.97
  -9   2   8   75.23    6.67
   9   2  -8   59.11    6.99
  -9   2   7   69.07    6.36
   9   2  -7   71.47    6.20
  -9   2   7   71.53    6.35
   9   2  -7   79.21    6.94
   9   2  -7   68.42    7.30
   9   2  -6  148.36    8.69
  -9   2   6  143.94    8.73
   9   2  -6  151.23    9.44
   9   2  -6  131.38    9.77
   9   2  -5   79.34    6.31
  -9   2   5   69.33    6.08
   9   2  -5   90.65    7.31
   9   2  -5   84.17    7.75
   9   2  -4   10.37    2.42
  -9   2   4   11.74    2.84
   9   2  -4   12.96    2.93
   9   2  -4   17.00    3.98
   9   2  -3  238.77   10.55
  -9   2   3  201.35   10.22
   9   2  -3  237.21   11.70
  -9   2   3  231.11   13.02
   9   2  -3  231.52   12.28
   9   2  -2  117.78    7.41
  -9   2   2  117.68    7.92
   9   2  -2  113.06    8.15
  -9   2   2  115.10    9.25
   9   2  -2  109.06    8.36
  -9   2   1   11.54    2.89
   9   2  -1   14.78    2.77
  -9   2   1   12.53    3.15
   9   2  -1   13.56    3.47
  -9   2   1   20.55    4.54
   9   2  -1   17.75    3.80
  -9   2   0    2.90    2.06
   9   2   0    3.77    1.98
  -9   2   0    2.50    2.18
   9   2   0    0.66    1.90
  -9   2   0   -0.02    2.09
   9   2   0    5.27    2.42
   9   2   1  123.52    7.67
  -9   2  -1  103.63    8.08
  -9   2  -1  119.23    8.18
   9   2   1  114.15    8.48
  -9   2  -1  117.03    9.20
   9   2   1  125.42    8.63
   9   2   2  352.41   13.05
  -9   2  -2  356.15   15.09
  -9   2  -2  326.02   13.53
   9   2   2  339.23   14.68
  -9   2  -2  337.40   15.33
   9   2   2  304.13   13.17
   9   2   3   85.62    6.64
  -9   2  -3   70.91    7.11
  -9   2  -3   78.12    6.99
   9   2   3   78.22    7.29
  -9   2  -3   76.91    7.48
  -9   2  -4   32.09    5.14
   9   2   4   33.73    4.31
  -9   2  -4   35.56    4.83
   9   2   4   28.07    4.68
  -9   2  -4   31.50    5.06
   9   2   5   75.33    6.58
  -9   2  -5   76.20    7.68
   9   2   5   70.25    7.26
  -9   2  -5   67.05    7.00
  -9   2  -6   41.23    6.00
   9   2   6   45.11    6.08
   9   2   6   35.29    4.76
   9   2   7   93.65    7.64
  -9   2  -7   95.60    8.94
   9   2   7   89.17    8.54
  -9   2  -8    9.26    4.03
   9   2   8   14.79    4.06
   9   2   8    7.32    2.63
   9   2   9   83.00    7.54
  -9   2  -9   76.69    8.62
   9   2   9   89.58    8.89
  -9   2 -10  134.85   11.46
   9   2  10  119.88   10.47
  -9   2 -11   13.33    4.27
   9   2  11    9.93    3.73
  -9   3  15    7.64    3.71
  -9   3  14   17.64    4.72
   9   3 -14   13.86    4.36
  -9   3  13  141.76   10.60
  -9   3  13  117.53    9.22
   9   3 -13  124.02   11.12
  -9   3  12  128.91    9.96
   9   3 -12  127.38   11.04
  -9   3  12  120.29    9.04
  -9   3  11   19.10    4.41
  -9   3  11   14.32    3.36
   9   3 -11   19.15    4.93
  -9   3  10   16.94    4.04
  -9   3  10   19.52    3.74
   9   3 -10   15.39    4.12
  -9   3   9  153.88   10.16
  -9   3   9  148.70    9.18
   9   3  -9  154.50   11.58
  -9   3   8  193.14   11.15
  -9   3   8  216.94   10.78
   9   3  -8  195.87   12.58
  -9   3   7   49.01    5.81
   9   3  -7   48.89    5.86
   9   3  -7   43.65    6.15
  -9   3   6   43.10    5.47
   9   3  -6   49.51    5.94
   9   3  -6   45.84    6.13
  -9   3   5  261.27   12.54
   9   3  -5  257.47   13.13
   9   3  -5  257.96   13.67
  -9   3   4  172.36   10.16
   9   3  -4  180.50   10.95
   9   3  -4  161.99   10.68
  -9   3   3   27.55    4.34
   9   3  -3   35.07    5.11
   9   3  -3   34.12    5.20
  -9   3   2    8.84    2.92
   9   3  -2    7.21    2.75
   9   3  -2   11.63    3.31
  -9   3   1  154.33    9.79
   9   3  -1  167.82   10.65
   9   3  -1  155.81    9.98
  -9   3   0  233.86   12.67
  -9   3   0  213.65   11.51
   9   3   0  227.70   12.44
   9   3   0  224.20   11.64
  -9   3  -1   34.34    5.21
   9   3   1   31.68    5.26
  -9   3  -1   33.50    5.08
  -9   3  -2   -0.69    1.78
   9   3   2    0.42    1.81
  -9   3  -2    1.55    2.34
  -9   3  -3   69.30    7.49
   9   3   3   65.81    7.22
  -9   3  -3   68.67    7.10
  -9   3  -4  167.21   11.48
   9   3   4  181.04   11.82
  -9   3  -4  153.73   10.42
  -9   3  -5   20.30    4.67
   9   3   5   23.39    4.81
  -9   3  -5   25.21    4.76
  -9   3  -6    5.25    2.82
   9   3   6    4.70    2.66
  -9   3  -7   90.18    9.22
   9   3   7   89.20    9.00
  -9   3  -8   97.95    9.66
   9   3   8  115.15   10.18
  -9   3  -9   43.07    6.86
   9   3   9   50.57    7.32
   9   3  10   14.19    4.41
  -9   4  13   18.82    4.71
   9   4 -13   16.80    4.68
  -9   4  12   36.14    5.97
   9   4 -12   25.93    5.65
  -9   4  11   40.38    6.04
   9   4 -11   52.14    7.23
  -9   4  10   37.07    5.83
   9   4 -10   38.64    6.08
  -9   4   9   64.73    7.28
   9   4  -9   65.23    7.83
  -9   4   8   12.44    3.95
   9   4  -8   13.95    4.19
  -9   4   7   99.80    8.71
   9   4  -7   97.28    8.81
   9   4  -7  103.25    9.40
  -9   4   6  171.41   10.99
   9   4  -6  182.24   11.91
   9   4  -6  200.58   12.69
  -9   4   5   25.93    4.70
   9   4  -5   20.28    4.47
   9   4  -5   23.84    4.74
  -9   4   4   32.01    5.28
   9   4  -4   35.98    5.48
   9   4  -4   35.61    5.24
  -9   4   3   70.07    7.24
   9   4  -3   62.84    7.11
   9   4  -3   69.44    7.21
  -9   4   2  187.52   11.49
   9   4  -2  183.87   11.89
   9   4  -2  149.27   10.06
   9   4  -1   36.59    5.60
  -9   4   1   37.16    5.67
   9   4   0   36.14    5.77
  -9   4   0   36.46    5.48
  -9   4  -1   92.16    8.81
   9   4   1   98.56    8.90
  -9   4  -1   86.68    8.05
  -9   4  -2  122.85   10.26
   9   4   2  114.76    9.64
  -9   4  -2  123.95    9.72
  -9   4  -3   67.32    7.80
   9   4   3   64.04    7.48
  -9   4  -3   60.38    7.20
  -9   4  -4    8.58    3.29
   9   4   4    9.64    3.49
  -9   4  -4   15.59    4.21
  -9   4  -5   86.17    9.18
   9   4   5   98.64    9.43
  -9   4  -5   77.40    8.16
  -9   4  -6  130.85   11.18
   9   4   6  141.08   11.47
  -9   4  -7   16.97    4.73
   9   4   7   18.35    4.62
  -9   4  -8    4.46    2.82
   9   4   8    3.91    3.24
   9   5 -11   15.83    4.47
  -9   5  10   33.20    6.03
   9   5 -10   26.29    5.56
  -9   5   9  136.53   11.06
   9   5  -9  124.43   11.17
  -9   5   8   65.57    7.73
   9   5  -8   55.27    7.34
  -9   5   7   -0.06    2.89
   9   5  -7    7.06    3.12
   9   5  -7    8.89    3.52
  -9   5   6    1.01    2.75
   9   5  -6    2.03    2.27
   9   5  -6    1.60    2.50
  -9   5   5   82.80    8.39
   9   5  -5   82.34    8.56
   9   5  -5   84.17    8.37
   9   5  -4  149.08   11.55
  -9   5   4  174.26   11.74
   9   5  -3   11.57    3.85
  -9   5   3   15.19    4.17
   9   5  -2   31.20    5.64
  -9   5   2   28.99    5.31
   9   5  -1   32.59    5.56
  -9   5   1   43.02    6.40
   9   5   0   40.39    6.37
  -9   5   0   41.12    6.22
   9   5   1   66.48    7.92
  -9   5  -1   68.12    7.67
  -9   5  -2   -0.31    2.71
   9   5   2    0.57    2.52
  -9   5  -2   -5.39    3.49
  -9   5  -3   78.84    8.93
   9   5   3   97.35    9.55
  -9   5  -3  101.19    9.49
  -9   5  -4   84.15    9.30
   9   5   4   76.57    8.67
  -9   5  -4   85.48    8.95
  -9   5  -5   14.73    4.46
  -9   5  -5   16.89    4.67
   9   5   5   27.77    5.46
   9   6  -8   22.80    5.14
   9   6  -7   18.90    4.67
  10  -5  -8    9.18    3.40
 -10  -5   8   17.50    4.89
  10  -5  -7   -3.06    2.55
 -10  -5   7    1.74    2.54
  10  -5  -6   23.63    4.99
  10  -5  -6   13.86    3.57
 -10  -5   6   20.78    5.03
  10  -5  -5  127.36   10.56
 -10  -5   5  108.41   10.53
  10  -5  -5  113.77    9.74
  10  -5  -4   27.41    4.96
  10  -5  -4   27.43    4.99
 -10  -5   4   16.12    4.66
  10  -5  -3    2.88    2.32
  10  -5  -3    0.89    2.04
  10  -5  -2   30.82    5.36
  10  -5  -2   25.83    4.91
 -10  -5   2   18.57    4.79
  10  -5  -1   69.27    7.92
  10  -5  -1   68.52    7.77
 -10  -5   1   77.29    9.31
  10  -5   0   65.68    7.75
  10  -5   1    1.09    2.34
  10  -4 -10   20.49    4.65
 -10  -4  10   24.97    5.20
  10  -4 -10   17.16    3.84
 -10  -4  10   14.80    4.04
  10  -4  -9    1.24    2.68
  10  -4  -9    0.09    2.13
 -10  -4   9    2.47    2.70
  10  -4  -8  120.35   10.15
  10  -4  -8  122.05    9.57
 -10  -4   8  102.70    9.84
  10  -4  -7   80.71    8.26
  10  -4  -7   81.46    7.89
 -10  -4   7   96.81    9.70
  10  -4  -6   16.56    4.39
  10  -4  -6   18.55    3.91
 -10  -4   6   20.64    4.70
  10  -4  -5    2.00    2.15
  10  -4  -5    8.29    3.12
 -10  -4   5    9.44    3.99
  10  -4  -4   27.32    4.92
  10  -4  -4   27.71    5.06
 -10  -4   4   30.52    5.68
  10  -4  -3  135.87   10.60
 -10  -4   3  130.49   11.16
  10  -4  -3  129.53    9.77
  10  -4  -2   78.87    8.24
  10  -4  -2   79.33    7.79
 -10  -4   2   66.28    8.17
  10  -4  -1    2.32    2.41
 -10  -4   1    2.33    2.74
  10  -4   0   51.12    6.76
 -10  -4   0   48.31    6.98
  10  -4   1   52.17    6.80
 -10  -4  -1   40.48    6.62
  10  -4   2   27.63    5.31
 -10  -4  -2   27.38    5.64
  10  -4   3    2.07    2.36
 -10  -4  -3   13.55    4.32
  10  -4   4   63.14    7.77
 -10  -4  -4   65.64    8.28
 -10  -4  -5   92.08    9.82
  10  -3 -13   93.77    9.72
 -10  -3  12   13.85    4.05
  10  -3 -12   31.04    5.69
 -10  -3  11   10.50    3.46
 -10  -3  11    6.37    3.41
 -10  -3  10   86.80    8.66
  10  -3 -10   77.94    8.34
 -10  -3  10   64.04    7.72
  10  -3  -9  126.35   10.42
 -10  -3   9  126.40   10.56
  10  -3  -8   47.16    6.38
  10  -3  -8   48.49    5.66
 -10  -3   8   47.86    6.86
  10  -3  -7   11.01    3.63
  10  -3  -7    5.05    2.27
 -10  -3   7    8.83    3.81
  10  -3  -6   82.79    8.15
  10  -3  -6   92.72    7.74
 -10  -3   6   74.00    8.39
  10  -3  -5  108.00    9.10
  10  -3  -5  104.02    8.23
 -10  -3   5  108.68    9.95
  10  -3  -4   44.36    6.01
  10  -3  -4   33.39    4.89
  10  -3  -3    7.87    2.89
  10  -3  -3   17.89    3.90
 -10  -3   3   10.47    3.98
  10  -3  -2  113.74    9.35
 -10  -3   2  127.94   10.82
  10  -3  -1  175.96   11.55
 -10  -3   1  193.29   13.15
  10  -3   0   60.35    7.08
 -10  -3   0   60.47    7.77
  10  -3   1    0.61    2.29
 -10  -3  -1    5.05    3.74
  10  -3   2   25.28    4.84
 -10  -3  -2   17.33    4.45
  10  -3   3  124.83   10.02
 -10  -3  -3  121.33   10.60
  10  -3   4  111.29    9.67
 -10  -3  -4   83.87    8.97
  10  -3   5   15.57    4.06
 -10  -3  -5   17.66    4.36
  10  -3   6   73.04    8.14
 -10  -3  -6   64.68    8.01
 -10  -3  -7   18.64    4.51
 -10  -3  -8   25.06    5.36
  10  -2 -14   17.68    4.56
 -10  -2  13    8.89    3.45
  10  -2 -13    4.98    3.09
 -10  -2  12  129.42   10.50
 -10  -2  12  110.92    9.97
  10  -2 -12  122.84   10.76
 -10  -2  11  213.22   13.35
 -10  -2  11  199.32   13.10
  10  -2 -11  207.10   13.82
  10  -2 -10    7.28    3.28
 -10  -2  10    6.12    3.42
 -10  -2  10    8.97    3.47
  10  -2  -9    8.11    3.17
 -10  -2   9    1.80    2.19
  10  -2  -8   56.09    6.91
 -10  -2   8   36.94    5.90
  10  -2  -7  200.15   12.20
 -10  -2   7  206.81   13.17
  10  -2  -6  149.09   10.56
 -10  -2   6  150.12   11.30
  10  -2  -5   -1.80    2.31
  10  -2  -5    2.36    2.01
 -10  -2   5    2.30    2.99
  10  -2  -4  216.59   12.35
  10  -2  -4  200.18   10.39
 -10  -2   4  208.91   13.26
  10  -2  -3  120.09    9.21
 -10  -2   3  123.96   10.24
  10  -2  -2   28.05    4.73
 -10  -2   2   19.05    4.73
  10  -2  -1   34.45    5.25
 -10  -2   1   33.21    5.82
  10  -2   0   91.12    8.17
 -10  -2   0   94.03    9.14
  10  -2   1  209.83   12.33
 -10  -2  -1  236.72   14.22
  10  -2   2   68.15    7.16
 -10  -2  -2   80.14    8.62
  10  -2   3   17.62    4.24
 -10  -2  -3   11.98    3.83
  10  -2   4   91.54    8.54
 -10  -2  -4   95.43    9.30
  10  -2   5  103.99    9.29
 -10  -2  -5  103.65    9.65
  10  -2   6   82.64    8.34
 -10  -2  -6   71.42    8.21
  10  -2   7   10.37    3.57
 -10  -2  -7   16.74    4.33
  10  -2   8   50.00    6.83
 -10  -2  -8   46.95    6.77
 -10  -2  -9   41.35    6.30
 -10  -1  14   74.48    8.46
  10  -1 -14   82.55    9.15
 -10  -1  13  133.54   10.84
  10  -1 -13  135.67   11.36
 -10  -1  12   37.22    5.77
 -10  -1  12   31.12    5.45
  10  -1 -12   48.42    7.06
 -10  -1  11    5.85    2.72
 -10  -1  11    6.23    3.05
  10  -1 -11    4.71    2.61
 -10  -1  10  131.58   10.05
  10  -1 -10  101.01    8.92
 -10  -1  10   95.53    9.24
  10  -1 -10  109.55    9.89
  10  -1  -9  135.86   10.03
 -10  -1   9  141.22   11.01
  10  -1  -9  148.54   11.41
  10  -1  -8   70.45    7.20
 -10  -1   8   77.37    8.42
  10  -1  -7   15.40    3.83
 -10  -1   7   16.78    4.72
  10  -1  -6   80.95    7.52
 -10  -1   6   93.00    8.90
  10  -1  -5  174.40   10.83
 -10  -1   5  164.52   11.69
  10  -1  -4  126.00    9.10
 -10  -1   4  121.57    9.97
  10  -1  -3    6.81    2.85
 -10  -1   3    3.00    2.98
  10  -1  -2  123.97    9.09
 -10  -1   2  130.81   10.37
  10  -1  -1  167.43   10.53
 -10  -1   1  186.32   12.35
  10  -1   0   72.66    7.00
 -10  -1   0   61.46    7.46
  10  -1   1   -0.31    2.40
 -10  -1  -1   -3.83    2.48
  10  -1   2   69.11    7.12
 -10  -1  -2   77.45    8.18
  10  -1   3  143.86   10.09
 -10  -1  -3  149.23   11.22
  10  -1   4   54.75    6.49
 -10  -1  -4   33.87    5.75
  10  -1   5    3.21    2.49
 -10  -1  -5   10.06    3.87
  10  -1   6   58.60    6.97
 -10  -1  -6   61.75    7.37
  10  -1   7   75.37    7.89
 -10  -1  -7   66.91    7.71
  10  -1   8   55.08    7.02
 -10  -1  -8   45.50    6.53
  10  -1   9   15.28    3.98
 -10   0  14   45.88    6.73
  10   0 -14   42.80    6.84
 -10   0  13   15.94    4.32
  10   0 -13   15.92    4.86
 -10   0  12  114.54    9.62
  10   0 -12  116.99   10.60
 -10   0  11   47.05    6.16
  10   0 -11   62.28    7.81
 -10   0  10   66.32    7.31
 -10   0  10   53.46    6.91
  10   0 -10   61.95    7.65
  10   0  -9   -0.52    1.90
 -10   0   9   -2.92    2.44
 -10   0   9    1.43    3.00
  10   0  -9    1.97    2.77
  10   0  -8  386.26   16.10
 -10   0   8  365.56   17.39
  10   0  -8  347.83   16.84
  10   0  -7  202.42   11.52
 -10   0   7  196.63   12.76
  10   0  -7  205.80   12.99
  10   0  -6   -0.35    1.91
 -10   0   6   -0.84    2.74
  10   0  -5   -0.59    1.78
 -10   0   5    3.47    2.51
  10   0  -4  112.05    8.39
 -10   0   4  112.95    9.63
  10   0  -3  250.11   12.32
 -10   0   3  249.69   14.18
  10   0  -2   80.61    7.09
 -10   0   2   84.55    8.49
  10   0  -1   11.72    3.12
 -10   0   1    7.05    3.11
  10   0   0  101.07    7.97
 -10   0   0   90.93    8.69
  10   0   1   25.13    4.26
 -10   0  -1   27.17    5.38
  10   0   2  156.80   10.05
 -10   0  -2  171.23   11.80
  10   0   3   41.94    5.40
 -10   0  -3   38.33    5.87
  10   0   4  115.81    9.00
 -10   0  -4  103.21    9.33
  10   0   5  190.33   11.57
 -10   0  -5  172.54   11.83
  10   0   6   93.86    8.40
 -10   0  -6   75.68    7.67
 -10   0  -6   86.60    8.48
  10   0   7   12.69    3.40
 -10   0  -7    6.78    2.89
 -10   0  -7    4.76    2.47
  10   0   8    5.17    2.61
 -10   0  -8    0.81    2.36
 -10   0  -9   63.98    7.70
  10   0   9   71.49    7.90
 -10   0 -10   75.72    8.52
  10   0  10   94.03    9.11
 -10   1  15    6.01    3.45
 -10   1  14   68.30    7.85
  10   1 -14   78.23    9.11
 -10   1  13  142.45   10.78
  10   1 -13  139.02   11.86
 -10   1  12   45.29    6.18
  10   1 -12   47.75    6.99
 -10   1  11    3.37    2.51
  10   1 -11    7.23    3.25
 -10   1  10  123.15    9.39
  10   1 -10  127.52   10.81
 -10   1   9  133.53    9.66
  10   1  -9  136.51   10.87
 -10   1   8   68.90    7.03
  10   1  -8   68.01    6.71
 -10   1   8   74.50    8.18
  10   1  -8   62.25    7.41
  10   1  -7   16.08    3.40
 -10   1   7   15.42    4.38
  10   1  -7   15.23    4.07
  10   1  -6   96.34    7.67
  10   1  -6   97.17    7.46
 -10   1   6   94.43    9.16
  10   1  -6   97.10    8.88
  10   1  -5  171.76   10.08
  10   1  -5  173.07    9.81
 -10   1   5  163.87   11.65
  10   1  -5  170.67   11.48
  10   1  -4  128.24    8.65
 -10   1   4  103.98    7.23
  10   1  -4  113.55    8.01
 -10   1   4  113.22    9.74
  10   1  -4  122.31    9.80
  10   1  -3    1.99    1.60
 -10   1   3    1.00    1.48
  10   1  -3    3.47    1.56
 -10   1   3    2.20    2.72
  10   1  -3    4.82    2.51
  10   1  -2  120.40    8.38
  10   1  -2  129.41    8.59
 -10   1   2  129.97   10.40
 -10   1   2  119.93    7.76
  10   1  -1  165.16    9.76
  10   1  -1  171.54    9.94
 -10   1   1  153.30   11.12
 -10   1   1  157.38    8.93
 -10   1   0   85.23    7.11
  10   1   0   84.59    7.16
 -10   1   0   89.80    6.85
  10   1   0   95.23    7.51
 -10   1   0   86.61    8.57
 -10   1  -1    0.12    1.89
  10   1   1    0.34    1.68
 -10   1  -1    1.92    1.84
  10   1   1    1.17    1.54
 -10   1  -1    0.08    2.23
  10   1   2   87.66    7.41
 -10   1  -2   83.51    7.49
  10   1   2   76.59    7.00
 -10   1  -2   76.01    8.12
 -10   1  -2   64.81    6.09
  10   1   3  162.27   10.06
 -10   1  -3  123.32    9.18
  10   1   3  137.39    9.60
 -10   1  -3  128.65   10.23
 -10   1  -4   42.09    5.82
  10   1   4   43.73    5.49
  10   1   4   44.05    5.71
 -10   1  -4   37.39    5.77
  10   1   5    1.19    1.72
  10   1   5    0.91    1.94
 -10   1  -5    4.82    2.69
 -10   1  -6   54.87    6.76
  10   1   6   59.59    6.64
  10   1   6   60.72    6.94
 -10   1  -6   47.95    6.35
  10   1   7   82.27    7.81
 -10   1  -7   80.67    8.44
  10   1   7   80.53    8.09
 -10   1  -8   44.46    6.49
  10   1   8   49.75    6.58
  10   1   8   46.90    6.19
 -10   1  -9    4.89    3.15
  10   1   9    3.12    2.15
  10   1   9   11.79    3.53
 -10   1 -10   37.02    6.55
  10   1  10   27.29    5.36
  10   1  10   36.68    5.61
 -10   2  15   43.45    6.38
 -10   2  14   13.30    3.88
 -10   2  14   21.70    4.73
 -10   2  13    3.30    2.49
 -10   2  13   -0.97    2.17
  10   2 -13    4.93    3.36
 -10   2  12   84.98    7.79
 -10   2  12   97.19    8.58
  10   2 -12  107.67   10.40
 -10   2  11  173.31   10.80
 -10   2  11  185.85   11.60
  10   2 -11  173.45   12.93
 -10   2  10    6.08    2.80
 -10   2  10    6.42    2.80
  10   2 -10    3.32    2.33
 -10   2   9    9.43    2.99
 -10   2   9    3.54    1.89
  10   2  -9    7.36    3.30
 -10   2   8   52.96    6.00
 -10   2   8   66.69    6.78
  10   2  -8   53.66    7.06
 -10   2   7  177.07   10.28
 -10   2   7  203.05   11.12
  10   2  -7  201.83   10.93
  10   2  -7  218.95   13.52
  10   2  -6  137.46    8.95
 -10   2   6  139.07    9.11
  10   2  -6  131.38    9.38
  10   2  -6  138.36   10.66
  10   2  -5    1.69    1.65
 -10   2   5   -3.11    2.48
  10   2  -5    4.12    2.59
  10   2  -5    2.21    1.94
  10   2  -4  211.07   10.72
 -10   2   4  185.40   10.31
  10   2  -4  202.08   11.49
  10   2  -4  187.98   12.03
  10   2  -3  120.97    8.10
 -10   2   3  115.31    8.29
  10   2  -3  128.14    9.17
 -10   2   3  119.25   10.02
  10   2  -3  116.90    9.44
  10   2  -2   26.41    3.87
 -10   2   2   28.59    4.32
  10   2  -2   31.90    4.70
 -10   2   2   46.09    6.68
  10   2  -2   30.19    5.01
 -10   2   1   28.08    4.62
  10   2  -1   29.44    4.13
 -10   2   1   26.89    4.29
  10   2  -1   32.96    4.95
 -10   2   1   32.07    5.52
  10   2  -1   27.45    4.66
 -10   2   0  103.18    8.64
  10   2   0   86.31    6.99
 -10   2   0   90.14    7.48
  10   2   0   85.13    7.61
 -10   2   0  108.90    9.61
  10   2   0   90.97    8.07
 -10   2  -1  210.80   12.20
  10   2   1  211.63   10.86
 -10   2  -1  208.64   11.31
  10   2   1  204.34   11.89
 -10   2  -1  207.85   13.06
  10   2   2   61.76    5.95
 -10   2  -2   61.89    6.82
 -10   2  -2   68.85    6.72
  10   2   2   71.43    7.31
 -10   2  -2   65.31    7.46
 -10   2  -3   16.27    3.95
 -10   2  -3    9.64    3.11
  10   2   3   16.63    4.07
 -10   2  -3   20.38    4.78
 -10   2  -4   91.71    8.67
  10   2   4   94.14    8.58
 -10   2  -4   93.70    8.78
 -10   2  -5  121.10   10.09
 -10   2  -5  100.18    9.02
  10   2   5  121.60    9.95
 -10   2  -6   75.74    8.22
  10   2   6   83.64    8.58
 -10   2  -7   15.37    4.19
  10   2   7   10.07    3.21
 -10   2  -8   50.10    7.03
  10   2   8   52.18    7.15
 -10   2  -9   33.53    6.12
  10   2   9   42.68    6.68
 -10   3  13   83.74    8.51
 -10   3  12   10.65    3.67
  10   3 -12   21.73    4.98
 -10   3  11   19.37    4.24
  10   3 -11    8.46    3.87
 -10   3  10   54.65    6.68
  10   3 -10   52.29    7.33
 -10   3   9  142.32   10.11
  10   3  -9  153.94   11.96
 -10   3   8   60.96    6.74
  10   3  -8   68.00    7.97
 -10   3   7    1.62    2.35
  10   3  -7    6.20    2.68
  10   3  -7    9.71    3.47
 -10   3   6   94.33    8.06
  10   3  -6   84.15    8.11
  10   3  -6   74.59    8.13
 -10   3   5  101.18    8.34
  10   3  -5   99.17    8.68
  10   3  -5  107.10    9.45
 -10   3   4   24.02    4.59
  10   3  -4   24.67    4.64
  10   3  -4   29.01    5.24
 -10   3   3   10.09    3.59
  10   3  -3   10.85    3.33
  10   3  -3   11.22    3.23
 -10   3   2  121.47    9.12
  10   3  -2  137.42   10.16
  10   3  -2  116.16    9.39
  10   3  -1  182.86   11.83
 -10   3   1  167.36   10.70
 -10   3   0   49.55    6.38
  10   3   0   56.94    6.79
 -10   3   0   43.67    5.76
 -10   3  -1    3.24    2.39
  10   3   1    6.26    3.11
 -10   3  -1    3.14    2.62
 -10   3  -2   15.84    3.88
  10   3   2   23.21    4.54
 -10   3  -2   23.88    4.58
 -10   3  -3  106.02    9.62
  10   3   3  130.13   10.50
 -10   3  -3  146.78   10.64
 -10   3  -4   99.86    9.56
  10   3   4  118.35   10.08
 -10   3  -4   99.02    8.95
 -10   3  -5   15.64    4.36
  10   3   5   11.76    3.79
 -10   3  -6   87.37    9.23
  10   3   6   70.44    8.13
 -10   3  -7   15.17    4.50
  10   3   7   14.52    4.29
 -10   4  11   71.37    8.07
 -10   4  10   14.80    3.97
  10   4 -10    6.23    3.26
 -10   4   9    1.28    2.73
  10   4  -9   -2.94    3.23
 -10   4   8  124.28   10.04
  10   4  -8  114.72   10.62
 -10   4   7   64.19    7.29
  10   4  -7   79.89    8.37
  10   4  -7   72.09    8.23
 -10   4   6   21.97    4.62
  10   4  -6   13.08    3.70
  10   4  -6    9.43    3.64
 -10   4   5    8.07    3.15
  10   4  -5   12.87    3.87
  10   4  -5   13.25    3.79
 -10   4   4   20.21    4.57
  10   4  -4   34.96    5.56
  10   4  -4   29.13    5.01
  10   4  -3  119.58   10.10
 -10   4   3  142.49   10.46
  10   4  -2   85.24    8.70
 -10   4   2   86.86    8.36
  10   4  -1   10.58    3.62
 -10   4   1   -0.02    2.79
  10   4   0   52.92    7.07
 -10   4   0   50.24    6.68
 -10   4  -1   42.34    6.54
  10   4   1   48.33    6.78
 -10   4  -1   50.52    6.80
 -10   4  -2   30.57    5.69
  10   4   2   23.38    4.85
 -10   4  -2   24.30    5.03
 -10   4  -3   10.67    4.06
  10   4   3   13.95    4.28
 -10   4  -3   13.73    4.35
 -10   4  -4   43.84    6.57
  10   4   4   59.39    7.70
 -10   4  -4   44.64    6.57
 -10   4  -5   77.30    8.89
 -10   4  -5   64.02    7.77
  10   4   5   67.98    8.20
  10   5  -8   13.23    4.44
  10   5  -7    0.72    2.55
 -10   5   6   23.06    5.30
  10   5  -6   20.20    4.70
  10   5  -6   11.53    3.97
 -10   5   5  112.47   10.03
  10   5  -5  122.82   10.93
 -10   5   4   17.24    4.88
  10   5  -4   24.65    5.04
 -10   5   3    2.85    3.04
  10   5  -3    0.01    2.10
 -10   5   2   28.92    5.66
  10   5  -2   38.06    6.13
 -10   5   1   76.83    8.44
  10   5  -1   71.46    8.36
 -10   5   0   65.81    7.86
  10   5   0   72.33    8.44
  11  -4  -7   11.83    3.51
  11  -4  -6    3.26    2.23
 -11  -4   6    0.95    2.43
  11  -4  -5   28.08    5.09
 -11  -4   5   28.85    6.13
  11  -4  -4  103.49    9.15
  11  -4  -3   44.63    6.15
  11  -4  -2    4.33    2.65
 -11  -3  11   46.60    7.05
 -11  -3  10  105.48   10.38
 -11  -3   9   26.78    5.52
  11  -3  -8   14.22    4.42
 -11  -3   8   19.02    5.24
  11  -3  -7   27.15    5.07
 -11  -3   7   41.69    7.00
  11  -3  -6   94.12    9.16
 -11  -3   6   97.39    9.99
  11  -3  -5   74.20    7.99
 -11  -3   5   73.48    8.86
  11  -3  -4   10.68    3.25
  11  -3  -4    8.75    2.92
 -11  -3   4   13.20    4.49
  11  -3  -3   66.00    7.65
  11  -3  -3   62.99    6.81
 -11  -3   3   59.16    7.97
  11  -3  -2  101.05    9.29
 -11  -3   2   79.35    9.25
  11  -3  -1   43.94    6.22
 -11  -3   1   37.07    6.47
  11  -3   0    9.21    3.54
 -11  -3   0   11.49    4.42
  11  -3   1   15.16    3.97
 -11  -3  -1    9.25    3.61
  11  -3   2   73.05    8.16
 -11  -3  -2   64.38    8.39
 -11  -3  -3  115.64   10.99
 -11  -2  12  112.20   10.53
 -11  -2  11   21.41    4.77
  11  -2 -11   25.94    5.06
  11  -2 -10    3.05    2.81
 -11  -2  10    9.01    3.53
 -11  -2  10    8.08    3.87
  11  -2  -9   20.83    4.69
 -11  -2   9   20.16    5.01
  11  -2  -8   79.60    8.45
 -11  -2   8   62.68    8.03
  11  -2  -7  148.20   11.26
 -11  -2   7  146.31   11.96
  11  -2  -6   -1.53    2.31
 -11  -2   6    5.57    3.50
  11  -2  -5  116.12    9.73
 -11  -2   5  125.58   11.14
  11  -2  -4   71.14    7.67
 -11  -2   4   84.84    9.11
  11  -2  -3   56.48    7.03
 -11  -2   3   61.00    7.92
  11  -2  -2   13.52    3.76
 -11  -2   2   15.36    4.48
  11  -2  -1   38.03    5.81
 -11  -2   1   37.80    6.45
  11  -2   0  120.80    9.95
 -11  -2   0  111.94   10.53
  11  -2   1   21.04    4.49
 -11  -2  -1   25.26    5.44
  11  -2   2    0.59    2.28
 -11  -2  -2    6.75    3.92
  11  -2   3    1.20    2.15
 -11  -2  -3    6.78    3.75
  11  -2   4   42.26    6.29
 -11  -2  -4   44.78    7.05
  11  -2   5  102.57    9.62
 -11  -2  -5   93.99    9.70
 -11  -2  -6    3.69    2.80
 -11  -1  12    3.00    2.89
 -11  -1  11  117.30   10.27
 -11  -1  11  128.62   11.16
  11  -1 -11  112.67   10.65
 -11  -1  10  109.81    9.84
  11  -1 -10  114.12    9.95
 -11  -1  10  108.61   10.40
  11  -1 -10  124.44   11.19
  11  -1  -9   57.20    7.14
 -11  -1   9   41.64    6.68
  11  -1  -9   54.76    7.60
  11  -1  -8   27.23    4.87
 -11  -1   8   19.48    4.80
  11  -1  -7   73.02    7.66
 -11  -1   7   78.83    8.87
  11  -1  -6  112.32    9.38
 -11  -1   6   93.12    9.49
  11  -1  -5   77.74    7.86
 -11  -1   5   96.23    9.62
  11  -1  -4   14.63    3.98
 -11  -1   4   12.48    4.09
  11  -1  -3   69.11    7.36
 -11  -1   3   76.97    8.73
  11  -1  -2   78.61    7.73
 -11  -1   2   73.56    8.51
  11  -1  -1  169.27   11.31
 -11  -1   1  162.90   12.36
  11  -1   0   21.71    4.48
 -11  -1   0   23.05    5.34
  11  -1   1   76.51    7.82
 -11  -1  -1   73.90    8.48
  11  -1   2  101.82    9.03
 -11  -1  -2   94.04    9.67
  11  -1   3  123.51   10.04
 -11  -1  -3  110.69   10.37
  11  -1   4   30.51    5.17
 -11  -1  -4   29.73    5.70
  11  -1   5   12.12    3.46
 -11  -1  -5   13.40    4.34
  11  -1   6   30.87    5.36
 -11  -1  -6   44.60    6.67
 -11  -1  -7   57.81    7.69
 -11   0  12   46.76    6.69
  11   0 -12   46.86    7.15
 -11   0  11   74.97    8.12
  11   0 -11   76.91    8.98
 -11   0  10    8.72    3.38
 -11   0  10    7.10    3.21
  11   0 -10    9.93    4.04
 -11   0   9   92.15    8.74
  11   0  -9   88.10    8.49
 -11   0   9  100.42   10.06
  11   0  -9  100.09    9.94
  11   0  -8   83.03    8.00
 -11   0   8   77.02    8.75
  11   0  -8   85.35    9.04
  11   0  -7   47.85    6.17
 -11   0   7   55.63    7.50
  11   0  -7   52.76    7.32
  11   0  -6   10.18    3.16
 -11   0   6   14.53    4.44
  11   0  -6   13.88    4.19
  11   0  -5   22.87    4.35
 -11   0   5   27.08    5.55
  11   0  -4  187.75   11.57
 -11   0   4  190.59   13.31
  11   0  -3  154.06   10.41
 -11   0   3  177.37   12.85
  11   0  -2    1.54    2.05
 -11   0   2    1.06    2.76
  11   0  -1   48.34    6.01
 -11   0   1   43.49    6.68
  11   0   0   30.65    4.91
 -11   0   0   39.47    6.47
  11   0   1  114.15    9.10
 -11   0  -1  126.28   10.91
  11   0   2    6.47    2.87
 -11   0  -2    4.37    3.35
  11   0   3  101.14    8.89
 -11   0  -3   94.24    9.44
  11   0   4   54.37    6.75
 -11   0  -4   63.62    7.98
  11   0   5   38.22    5.85
 -11   0  -5   32.72    5.90
  11   0   6   -2.12    2.64
 -11   0  -6    2.23    2.50
  11   0   7   11.17    3.61
 -11   1  13   68.13    8.08
 -11   1  12    2.29    2.58
 -11   1  11  110.21    9.75
  11   1 -11  118.23   11.04
 -11   1  10  101.86    9.01
  11   1 -10   75.83    8.84
 -11   1   9   45.78    6.28
  11   1  -9   49.03    7.15
  11   1  -8   25.67    4.73
 -11   1   8   27.01    4.81
  11   1  -8   35.87    6.11
  11   1  -7   70.71    7.27
 -11   1   7   62.99    8.12
  11   1  -7   73.26    8.32
  11   1  -6  117.77    9.17
 -11   1   6  123.41   10.87
  11   1  -6  111.93   10.09
  11   1  -5   81.85    7.60
 -11   1   5   73.43    8.48
  11   1  -5   74.76    8.18
  11   1  -4   12.44    3.03
 -11   1   4   10.82    4.04
  11   1  -4   14.90    3.81
  11   1  -3   58.58    6.39
 -11   1   3   60.48    7.64
  11   1  -3   71.67    8.04
  11   1  -2   81.49    7.51
  11   1  -2   85.02    8.63
 -11   1   2   78.95    8.80
  11   1  -1  178.27   10.97
 -11   1   1  167.77   12.48
  11   1   0   16.63    3.66
 -11   1   0   23.73    5.01
  11   1   1   81.35    7.56
 -11   1  -1   87.89    9.09
  11   1   2  105.70    8.66
 -11   1  -2  102.63    9.91
  11   1   3  129.58    9.64
 -11   1  -3  120.58   10.56
  11   1   4   33.91    5.26
 -11   1  -4   34.76    5.84
  11   1   5   13.69    3.51
 -11   1  -5    5.16    2.95
  11   1   6   37.97    5.67
  11   1   7   45.92    6.37
 -11   1  -7   50.05    7.06
  11   1   8   12.85    3.65
 -11   1  -8    4.88    2.97
 -11   2  13   55.95    7.25
 -11   2  12  140.49   10.81
 -11   2  11   16.76    3.93
  11   2 -11   36.77    6.53
 -11   2  10    4.05    2.27
  11   2 -10    9.20    3.78
 -11   2   9   11.31    3.39
  11   2  -9   27.67    5.61
 -11   2   8   61.13    6.85
  11   2  -8   72.40    8.54
 -11   2   7  148.06   10.26
  11   2  -7  135.98   11.33
  11   2  -6   -0.34    1.94
  11   2  -6    0.01    2.42
 -11   2   5   99.23    8.05
  11   2  -5  103.09    8.82
  11   2  -5   91.73    9.05
 -11   2   4   68.04    6.73
  11   2  -4   73.11    7.25
  11   2  -4   77.91    8.28
 -11   2   3   57.08    6.16
  11   2  -3   52.76    6.31
  11   2  -3   65.91    7.43
 -11   2   2   11.43    3.14
  11   2  -2   20.12    4.09
 -11   2   2   14.96    4.34
  11   2  -2   16.96    4.10
 -11   2   1   37.27    5.29
  11   2  -1   46.26    6.18
 -11   2   1   45.95    6.84
  11   2  -1   45.95    6.40
 -11   2   0  111.51    8.77
  11   2   0  121.67    9.64
 -11   2   0  109.38   10.22
 -11   2  -1   16.75    4.05
 -11   2  -1   17.81    3.91
  11   2   1   20.77    4.21
 -11   2  -1   12.39    3.91
 -11   2  -2    2.97    2.12
 -11   2  -2    4.61    2.73
  11   2   2    4.06    2.30
 -11   2  -2   -0.06    2.43
 -11   2  -3    2.61    1.82
  11   2   3    8.46    3.05
 -11   2  -3    2.81    2.22
 -11   2  -4   40.74    6.23
  11   2   4   37.55    5.95
 -11   2  -4   39.10    6.21
 -11   2  -5   76.44    8.43
  11   2   5   98.38    9.41
 -11   2  -6    2.25    2.52
  11   2   6    1.75    1.97
 -11   3  11   45.33    6.30
 -11   3  10  116.55    9.68
 -11   3   9   19.91    4.24
  11   3  -9   24.34    5.35
 -11   3   8   13.26    3.67
  11   3  -8   10.79    4.16
 -11   3   7   19.29    4.46
  11   3  -7   34.12    6.03
 -11   3   6   86.17    8.13
  11   3  -6   78.78    8.18
  11   3  -6   77.27    8.68
 -11   3   5   75.96    7.63
  11   3  -5   95.59    8.91
  11   3  -5   74.21    8.46
 -11   3   4    8.01    2.91
  11   3  -4   13.29    3.59
  11   3  -4    4.49    2.78
 -11   3   3   55.59    6.63
  11   3  -3   51.48    6.83
  11   3  -3   51.30    6.84
  11   3  -2   72.75    7.85
 -11   3   2   81.56    7.98
  11   3  -1   37.56    5.89
 -11   3   1   39.20    5.61
  11   3   0    8.31    3.00
 -11   3   0    5.05    2.75
 -11   3  -1   10.19    3.38
  11   3   1   11.96    3.61
 -11   3  -1   11.47    3.51
 -11   3  -2   44.88    6.66
  11   3   2   49.00    6.84
 -11   3  -2   46.85    6.46
 -11   3  -3  108.50   10.12
  11   3   3  119.13   10.45
 -11   3  -3  113.67    9.80
 -11   3  -4   19.14    4.90
  11   3   4   23.96    5.14
  11   4  -8   78.25    9.21
 -11   4   7   27.48    5.40
  11   4  -7   19.94    4.97
 -11   4   6    0.17    2.92
  11   4  -6    3.36    2.72
  11   4  -6    3.87    2.99
 -11   4   5   34.61    5.78
  11   4  -5   36.73    6.17
  11   4  -5   33.47    5.83
  11   4  -4   99.55    9.65
 -11   4   4  101.61    9.33
  11   4  -3   44.23    6.58
 -11   4   3   53.48    7.08
  11   4  -2    3.54    2.50
 -11   4   2    5.96    3.41
  11   4  -1   18.01    4.44
 -11   4   1   22.33    4.82
  11   4   0   48.90    7.02
 -11   4   0   41.34    6.28
 -11   4  -1   94.16    9.30
  12  -2  -3   74.15    8.20
  12  -1  -8   23.83    5.01
  12  -1  -7   56.32    7.18
 -12  -1   7   76.18    9.28
  12  -1  -6  104.86    9.62
 -12  -1   6  107.23   10.84
  12  -1  -5    7.36    3.29
 -12  -1   5    8.31    3.65
  12  -1  -4   16.41    4.08
 -12  -1   4   13.87    4.52
  12  -1  -3   38.70    5.95
 -12  -1   3   43.25    7.07
  12  -1  -2   50.90    6.79
 -12  -1   2   48.68    7.53
  12  -1  -1    8.58    3.33
 -12  -1   1    9.38    3.89
  12  -1   0   12.12    3.90
 -12  -1   0   11.74    4.46
  12  -1   1   51.06    7.01
 -12  -1  -1   37.25    6.84
  12   0  -9   50.54    6.80
 -12   0   9   55.08    7.39
  12   0  -8   28.34    5.25
  12   0  -7   37.93    5.78
 -12   0   7   22.10    5.41
  12   0  -7   42.35    6.93
  12   0  -6   14.41    3.92
 -12   0   6   10.71    4.22
  12   0  -6   14.71    4.37
  12   0  -5  143.36   10.81
 -12   0   5  156.86   13.12
  12   0  -5  162.61   12.65
  12   0  -4  147.77   10.91
 -12   0   4  133.21   11.97
  12   0  -3   -0.15    2.26
 -12   0   3   -0.62    3.03
  12   0  -2   21.12    4.47
 -12   0   2   24.31    6.00
  12   0  -1   11.94    3.59
 -12   0   1   19.50    5.26
  12   0   0  164.57   11.62
 -12   0   0  160.08   12.88
  12   0   1   66.96    7.59
 -12   0  -1   77.19    9.16
  12   0   2   15.32    3.93
 -12   0  -2   15.01    4.34
  12   0   3   35.82    5.71
 -12   0  -3   31.57    6.19
 -12   1   9   -1.25    2.30
  12   1  -8   18.64    3.99
 -12   1   8   28.45    5.22
  12   1  -7   77.48    7.92
  12   1  -7   89.73    9.69
  12   1  -6   96.06    8.77
 -12   1   6  105.86   10.80
  12   1  -6  101.24   10.23
  12   1  -5    5.45    2.44
 -12   1   5    4.64    2.61
  12   1  -5    8.25    3.77
  12   1  -4   11.81    3.39
 -12   1   4   20.83    5.13
  12   1  -4   16.08    4.11
  12   1  -3   33.34    5.20
 -12   1   3   34.07    6.59
  12   1  -3   41.39    6.56
  12   1  -2   31.08    4.94
 -12   1   2   43.04    7.35
  12   1  -2   50.61    7.10
  12   1  -1    2.40    1.80
 -12   1   1    4.22    3.47
  12   1  -1    1.88    2.58
  12   1   0   11.41    3.27
 -12   1   0   10.46    3.93
  12   1   0   14.51    3.99
  12   1   1   35.68    5.42
 -12   1  -1   27.82    5.82
  12   1   2   71.53    7.59
 -12   1  -2   60.40    8.09
  12   1   3   11.86    3.28
 -12   1  -3   16.14    4.43
  12   1   4   -0.72    1.88
 -12   1  -4    9.83    3.71
  12   2  -7    8.94    3.96
  12   2  -6   24.97    5.37
  12   2  -5   20.14    4.79
  12   2  -4   95.74    9.65
  12   2  -3   59.78    7.68
  12   2  -2   14.40    4.09
 -12   2   0  110.24   11.00
 -12   2  -1   23.67    5.32
 -12   2  -2   -5.34    2.59
 -12   2  -3   24.21    5.66
  12   3  -6   67.28    7.89
  12   3  -5    6.99    3.15
  12   3  -5   14.34    4.36
  12   3  -4   17.34    4.34
  12   3  -3   58.58    7.39
 -12   3   2   46.38    6.33
  12   3  -2   40.26    6.23
 -12   3   1    9.18    3.53
  12   3  -1    8.95    3.38
 -12   3   0    3.35    2.06
   0   0   0    0.00    0.00
;
_shelx_hkl_checksum              47333
loop_
_space_group_symop_operation_xyz
'x, y, z'
'-x, y+1/2, -z'
loop_
_atom_site_label
_atom_site_type_symbol
_atom_site_fract_x
_atom_site_fract_y
_atom_site_fract_z
_atom_site_U_iso_or_equiv
_atom_site_adp_type
_atom_site_occupancy
_atom_site_site_symmetry_order
_atom_site_calc_flag
_atom_site_refinement_flags_posn
_atom_site_refinement_flags_adp
_atom_site_refinement_flags_occupancy
_atom_site_disorder_assembly
_atom_site_disorder_group
I1 I 0.58737(2) 0.85001(3) 0.62175(2) 0.02248(5) Uani 1 1 d . . . . .
S1 S 0.82154(9) 0.57177(12) 0.78440(5) 0.02102(14) Uani 1 1 d . . . . .
C7 C 0.8309(4) 0.1859(5) 0.8811(3) 0.0300(7) Uani 1 1 d . . . . .
H7A H 0.848(3) 0.112(2) 0.8267(17) 0.045 Uiso 1 1 calc R U . . .
H7B H 0.721(3) 0.2016(6) 0.8807(18) 0.045 Uiso 1 1 calc R U . . .
H7C H 0.876(2) 0.105(3) 0.9338(15) 0.045 Uiso 1 1 calc R U . . .
C9 C 0.3023(3) 1.0472(4) 0.7287(2) 0.0180(5) Uani 1 1 d . . . . .
C13 C 0.0358(3) 1.1200(5) 0.6515(2) 0.0202(6) Uani 1 1 d . . . . .
H13 H -0.062(4) 1.0771(19) 0.6356(7) 0.024 Uiso 1 1 calc R U . . .
C3 C 0.4151(3) 0.9034(4) 0.7880(2) 0.0176(6) Uani 1 1 d . . . . .
C2 C 0.3920(3) 0.8600(11) 0.87897(17) 0.0214(5) Uani 1 1 d . . . . .
H2 H 0.303(3) 0.921(2) 0.9025(9) 0.026 Uiso 1 1 calc R U . . .
C12 C 0.0834(3) 1.3254(9) 0.62359(18) 0.0209(8) Uani 1 1 d . . . . .
N1 N 0.6257(3) 0.6391(4) 0.90709(18) 0.0220(5) Uani 1 1 d . . . . .
O1 O -0.0129(2) 1.4680(3) 0.57153(16) 0.0245(5) Uani 1 1 d . . . . .
C14 C 0.1452(3) 0.9855(5) 0.7044(2) 0.0194(5) Uani 1 1 d . . . . .
H14 H 0.1141(16) 0.857(6) 0.7232(9) 0.023 Uiso 1 1 calc R U . . .
C4 C 0.5471(3) 0.8095(4) 0.75918(19) 0.0175(6) Uani 1 1 d . . . . .
C10 C 0.3488(3) 1.2513(5) 0.7005(2) 0.0212(6) Uani 1 1 d . . . . .
H10 H 0.465(4) 1.3004(16) 0.7185(6) 0.025 Uiso 1 1 calc R U . . .
C6 C 0.9074(3) 0.4089(5) 0.8845(2) 0.0188(6) Uani 1 1 d . . . . .
H6 H 0.8885(8) 0.485(3) 0.942(2) 0.023 Uiso 1 1 calc R U . . .
C5 C 0.6503(3) 0.6792(4) 0.8207(2) 0.0175(5) Uani 1 1 d . . . . .
C1 C 0.4979(4) 0.7284(5) 0.9346(2) 0.0241(6) Uani 1 1 d . . . . .
H1 H 0.4792(9) 0.6993(14) 0.996(3) 0.029 Uiso 1 1 calc R U . . .
C15 C -0.1697(3) 1.3948(5) 0.5361(2) 0.0239(7) Uani 1 1 d . . . . .
H15A H -0.1642(3) 1.262(3) 0.5013(19) 0.036 Uiso 1 1 calc R U . . .
H15B H -0.2241(17) 1.505(3) 0.4960(16) 0.036 Uiso 1 1 calc R U . . .
H15C H -0.2264(15) 1.368(4) 0.5870(11) 0.036 Uiso 1 1 calc R U . . .
C11 C 0.2412(4) 1.3875(5) 0.6489(2) 0.0233(7) Uani 1 1 d . . . . .
H11 H 0.2753(14) 1.528(5) 0.6299(8) 0.028 Uiso 1 1 calc R U . . .
C8 C 1.0848(4) 0.3970(5) 0.8841(2) 0.0279(8) Uani 1 1 d . . . . .
H8A H 1.1313(12) 0.317(4) 0.9337(15) 0.042 Uiso 1 1 calc R U . . .
H8B H 1.1262(11) 0.534(3) 0.8879(18) 0.042 Uiso 1 1 calc R U . . .
H8C H 1.1034(6) 0.333(4) 0.8304(14) 0.042 Uiso 1 1 calc R U . . .
loop_
_atom_site_aniso_label
_atom_site_aniso_U_11
_atom_site_aniso_U_22
_atom_site_aniso_U_33
_atom_site_aniso_U_23
_atom_site_aniso_U_13
_atom_site_aniso_U_12
I1 0.02092(8) 0.02832(9) 0.01881(8) 0.00401(10) 0.00503(5) 0.00263(10)
S1 0.0190(3) 0.0243(3) 0.0204(4) 0.0041(3) 0.0053(3) 0.0050(3)
C7 0.0333(18) 0.0236(15) 0.0329(19) 0.0060(13) 0.0046(14) -0.0009(14)
C9 0.0183(13) 0.0175(12) 0.0180(14) -0.0010(10) 0.0018(10) 0.0014(10)
C13 0.0170(12) 0.0218(14) 0.0214(14) 0.0000(11) 0.0020(11) -0.0032(11)
C3 0.0150(11) 0.0158(13) 0.0214(14) -0.0013(9) 0.0012(10) -0.0009(8)
C2 0.0213(11) 0.0222(14) 0.0220(12) -0.0007(16) 0.0078(9) 0.0036(18)
C12 0.0210(11) 0.024(2) 0.0172(11) 0.0002(12) 0.0024(9) 0.0034(12)
N1 0.0238(12) 0.0236(12) 0.0190(12) 0.0019(10) 0.0048(10) 0.0036(10)
O1 0.0204(10) 0.0246(10) 0.0267(12) 0.0055(9) -0.0020(9) 0.0020(8)
C14 0.0195(14) 0.0178(12) 0.0217(15) -0.0001(11) 0.0058(11) -0.0017(10)
C4 0.0182(11) 0.0181(16) 0.0162(12) -0.0012(9) 0.0022(9) -0.0021(9)
C10 0.0176(13) 0.0194(13) 0.0255(16) 0.0011(11) 0.0005(11) -0.0024(11)
C6 0.0194(13) 0.0204(15) 0.0161(13) -0.0013(9) 0.0017(10) 0.0030(9)
C5 0.0164(12) 0.0163(12) 0.0199(14) 0.0005(10) 0.0030(10) -0.0004(10)
C1 0.0248(15) 0.0281(15) 0.0204(15) 0.0032(12) 0.0067(12) 0.0058(12)
C15 0.0185(12) 0.031(2) 0.0203(14) -0.0004(11) -0.0008(10) 0.0036(11)
C11 0.0228(13) 0.019(2) 0.0280(15) 0.0041(11) 0.0033(11) -0.0014(11)
C8 0.0209(13) 0.036(2) 0.0264(15) -0.0005(12) 0.0012(11) 0.0037(12)
loop_
_atom_type_symbol
_atom_type_description
_atom_type_scat_dispersion_real
_atom_type_scat_dispersion_imag
_atom_type_scat_source
C C 0.0033 0.0016 'International Tables Vol C Tables 4.2.6.8 and 6.1.1.4'
H H 0.0000 0.0000 'International Tables Vol C Tables 4.2.6.8 and 6.1.1.4'
N N 0.0061 0.0033 'International Tables Vol C Tables 4.2.6.8 and 6.1.1.4'
O O 0.0106 0.0060 'International Tables Vol C Tables 4.2.6.8 and 6.1.1.4'
I I -0.4742 1.8119 'International Tables Vol C Tables 4.2.6.8 and 6.1.1.4'
S S 0.1246 0.1234 'International Tables Vol C Tables 4.2.6.8 and 6.1.1.4'
loop_
_geom_angle_atom_site_label_1
_geom_angle_atom_site_label_2
_geom_angle_atom_site_label_3
_geom_angle
_geom_angle_site_symmetry_1
_geom_angle_site_symmetry_3
_geom_angle_publ_flag
C5 S1 C6 102.32(13) . . ?
C6 C7 H7A 109.5 . . ?
C6 C7 H7B 109.5 . . ?
H7A C7 H7B 109.5 . . ?
C6 C7 H7C 109.5 . . ?
H7A C7 H7C 109.5 . . ?
H7B C7 H7C 109.5 . . ?
C14 C9 C10 118.7(3) . . ?
C14 C9 C3 120.1(3) . . ?
C10 C9 C3 121.1(3) . . ?
C14 C13 C12 119.6(3) . . ?
C14 C13 H13 120.2 . . ?
C12 C13 H13 120.2 . . ?
C4 C3 C2 116.9(3) . . ?
C4 C3 C9 123.8(3) . . ?
C2 C3 C9 119.3(3) . . ?
C1 C2 C3 119.4(3) . . ?
C1 C2 H2 120.3 . . ?
C3 C2 H2 120.3 . . ?
O1 C12 C11 116.8(4) . . ?
O1 C12 C13 124.5(3) . . ?
C11 C12 C13 118.8(3) . . ?
C5 N1 C1 117.8(3) . . ?
C12 O1 C15 116.9(3) . . ?
C13 C14 C9 121.4(3) . . ?
C13 C14 H14 119.3 . . ?
C9 C14 H14 119.3 . . ?
C3 C4 C5 120.1(3) . . ?
C3 C4 I1 120.2(2) . . ?
C5 C4 I1 119.64(19) . . ?
C11 C10 C9 120.6(3) . . ?
C11 C10 H10 119.7 . . ?
C9 C10 H10 119.7 . . ?
C7 C6 C8 112.5(3) . . ?
C7 C6 S1 110.6(2) . . ?
C8 C6 S1 107.4(2) . . ?
C7 C6 H6 108.7 . . ?
C8 C6 H6 108.7 . . ?
S1 C6 H6 108.7 . . ?
N1 C5 C4 122.0(3) . . ?
N1 C5 S1 118.6(2) . . ?
C4 C5 S1 119.3(2) . . ?
N1 C1 C2 123.8(3) . . ?
N1 C1 H1 118.1 . . ?
C2 C1 H1 118.1 . . ?
O1 C15 H15A 109.5 . . ?
O1 C15 H15B 109.5 . . ?
H15A C15 H15B 109.5 . . ?
O1 C15 H15C 109.5 . . ?
H15A C15 H15C 109.5 . . ?
H15B C15 H15C 109.5 . . ?
C10 C11 C12 120.9(3) . . ?
C10 C11 H11 119.5 . . ?
C12 C11 H11 119.5 . . ?
C6 C8 H8A 109.5 . . ?
C6 C8 H8B 109.5 . . ?
H8A C8 H8B 109.5 . . ?
C6 C8 H8C 109.5 . . ?
H8A C8 H8C 109.5 . . ?
H8B C8 H8C 109.5 . . ?
loop_
_geom_bond_atom_site_label_1
_geom_bond_atom_site_label_2
_geom_bond_distance
_geom_bond_site_symmetry_2
_geom_bond_publ_flag
I1 C4 2.107(3) . ?
S1 C5 1.769(3) . ?
S1 C6 1.830(3) . ?
C7 C6 1.520(4) . ?
C7 H7A 0.95(2) . ?
C7 H7B 0.95(2) . ?
C7 H7C 0.95(2) . ?
C9 C14 1.393(4) . ?
C9 C10 1.400(4) . ?
C9 C3 1.486(4) . ?
C13 C14 1.391(4) . ?
C13 C12 1.409(6) . ?
C13 H13 0.88(4) . ?
C3 C4 1.395(4) . ?
C3 C2 1.401(4) . ?
C2 C1 1.382(5) . ?
C2 H2 0.96(4) . ?
C12 O1 1.354(5) . ?
C12 C11 1.401(4) . ?
N1 C5 1.336(4) . ?
N1 C1 1.344(4) . ?
O1 C15 1.437(3) . ?
C14 H14 0.89(4) . ?
C4 C5 1.409(4) . ?
C10 C11 1.380(4) . ?
C10 H10 1.03(3) . ?
C6 C8 1.526(4) . ?
C6 H6 1.00(4) . ?
C1 H1 0.95(4) . ?
C15 H15A 0.967(19) . ?
C15 H15B 0.967(19) . ?
C15 H15C 0.967(19) . ?
C11 H11 0.97(4) . ?
C8 H8A 0.92(2) . ?
C8 H8B 0.92(2) . ?
C8 H8C 0.92(2) . ?
loop_
_geom_torsion_atom_site_label_1
_geom_torsion_atom_site_label_2
_geom_torsion_atom_site_label_3
_geom_torsion_atom_site_label_4
_geom_torsion
_geom_torsion_site_symmetry_1
_geom_torsion_site_symmetry_2
_geom_torsion_site_symmetry_3
_geom_torsion_site_symmetry_4
_geom_torsion_publ_flag
C14 C9 C3 C4 117.4(3) . . . . ?
C10 C9 C3 C4 -66.2(4) . . . . ?
C14 C9 C3 C2 -63.8(4) . . . . ?
C10 C9 C3 C2 112.7(4) . . . . ?
C4 C3 C2 C1 -0.3(6) . . . . ?
C9 C3 C2 C1 -179.2(4) . . . . ?
C14 C13 C12 O1 179.5(3) . . . . ?
C14 C13 C12 C11 1.0(5) . . . . ?
C11 C12 O1 C15 172.7(3) . . . . ?
C13 C12 O1 C15 -5.8(4) . . . . ?
C12 C13 C14 C9 -1.6(5) . . . . ?
C10 C9 C14 C13 1.4(4) . . . . ?
C3 C9 C14 C13 177.9(3) . . . . ?
C2 C3 C4 C5 -0.4(4) . . . . ?
C9 C3 C4 C5 178.4(2) . . . . ?
C2 C3 C4 I1 176.8(3) . . . . ?
C9 C3 C4 I1 -4.3(3) . . . . ?
C14 C9 C10 C11 -0.6(5) . . . . ?
C3 C9 C10 C11 -177.1(3) . . . . ?
C5 S1 C6 C7 83.5(2) . . . . ?
C5 S1 C6 C8 -153.3(2) . . . . ?
C1 N1 C5 C4 -0.3(4) . . . . ?
C1 N1 C5 S1 177.7(2) . . . . ?
C3 C4 C5 N1 0.8(4) . . . . ?
I1 C4 C5 N1 -176.5(2) . . . . ?
C3 C4 C5 S1 -177.2(2) . . . . ?
I1 C4 C5 S1 5.5(3) . . . . ?
C6 S1 C5 N1 4.6(3) . . . . ?
C6 S1 C5 C4 -177.4(2) . . . . ?
C5 N1 C1 C2 -0.5(5) . . . . ?
C3 C2 C1 N1 0.8(7) . . . . ?
C9 C10 C11 C12 0.1(5) . . . . ?
O1 C12 C11 C10 -178.8(3) . . . . ?
C13 C12 C11 C10 -0.3(5) . . . . ?
