#------------------------------------------------------------------------------
#$Date: 2021-03-25 11:37:27 +0200 (Thu, 25 Mar 2021) $
#$Revision: 263315 $
#$URL: file:///home/coder/svn-repositories/cod/cif/1/56/12/1561251.cif $
#------------------------------------------------------------------------------
#
# This file is available in the Crystallography Open Database (COD),
# http://www.crystallography.net/
#
# All data on this site have been placed in the public domain by the
# contributors.
#
data_1561251
loop_
_publ_author_name
'Sen, Abhijit'
'Roy, Soumyabrata'
'Peter, Sebastian C.'
'Paul, Arpita'
'Waghmare, Umesh V.'
'Sundaresan, A.'
_publ_section_title
;
 Order-disorder structural phase transition and magnetocaloric effect in
 organic-inorganic halide hybrid (C2H5NH3)2CoCl4
;
_journal_name_full               'Journal of Solid State Chemistry'
_journal_page_first              431
_journal_page_last               440
_journal_paper_doi               10.1016/j.jssc.2017.10.036
_journal_volume                  258
_journal_year                    2018
_chemical_formula_moiety         '2(C2 N), Cl4 Co'
_chemical_formula_sum            'C4 Cl4 Co N2'
_chemical_formula_weight         276.79
_space_group_crystal_system      orthorhombic
_space_group_IT_number           62
_space_group_name_Hall           '-P 2ac 2n'
_space_group_name_H-M_alt        'P n m a'
_atom_sites_solution_hydrogens   .
_atom_sites_solution_primary     direct
_cell_angle_alpha                90
_cell_angle_beta                 90
_cell_angle_gamma                90
_cell_formula_units_Z            4
_cell_length_a                   10.0256(6)
_cell_length_b                   7.4030(4)
_cell_length_c                   17.6039(13)
_cell_measurement_reflns_used    2550
_cell_measurement_temperature    300
_cell_measurement_theta_max      23.99
_cell_measurement_theta_min      2.98
_cell_volume                     1306.55(14)
_computing_cell_refinement       'SAINT v8.34A (Bruker, 2013)'
_computing_data_reduction        'SAINT v8.34A (Bruker, 2013)'
_computing_molecular_graphics    'Olex2 (Dolomanov et al., 2009)'
_computing_publication_material  'Olex2 (Dolomanov et al., 2009)'
_computing_structure_refinement  'ShelXL (Sheldrick, 2015)'
_computing_structure_solution    'SIR2004 (Burla et al., 2007)'
_diffrn_ambient_temperature      301.51
_diffrn_measured_fraction_theta_full 0.996
_diffrn_measured_fraction_theta_max 0.996
_diffrn_measurement_device_type  'Bruker APEX-II CCD'
_diffrn_measurement_method       '\f and \w scans'
_diffrn_radiation_type           MoK\a
_diffrn_radiation_wavelength     0.71073
_diffrn_reflns_av_R_equivalents  0.0701
_diffrn_reflns_av_unetI/netI     0.0790
_diffrn_reflns_Laue_measured_fraction_full 0.996
_diffrn_reflns_Laue_measured_fraction_max 0.996
_diffrn_reflns_limit_h_max       11
_diffrn_reflns_limit_h_min       -12
_diffrn_reflns_limit_k_max       7
_diffrn_reflns_limit_k_min       -8
_diffrn_reflns_limit_l_max       21
_diffrn_reflns_limit_l_min       -21
_diffrn_reflns_number            4095
_diffrn_reflns_point_group_measured_fraction_full 0.996
_diffrn_reflns_point_group_measured_fraction_max 0.996
_diffrn_reflns_theta_full        25.242
_diffrn_reflns_theta_max         25.335
_diffrn_reflns_theta_min         2.338
_diffrn_standards_number         0
_exptl_absorpt_coefficient_mu    2.084
_exptl_absorpt_correction_T_max  0.7452
_exptl_absorpt_correction_T_min  0.3089
_exptl_absorpt_correction_type   multi-scan
_exptl_absorpt_process_details
'SADABS-2014/5 (Bruker,2014/5) was used for absorption correction. wR2(int) was 0.2173 before and 0.0505 after correction. The Ratio of minimum to maximum transmission is 0.4145. The \l/2 correction factor is Not present.'
_exptl_crystal_colour            'clear dark blue'
_exptl_crystal_colour_lustre     clear
_exptl_crystal_colour_modifier   dark
_exptl_crystal_colour_primary    blue
_exptl_crystal_density_diffrn    1.407
_exptl_crystal_description       plate
_exptl_crystal_F_000             532
_exptl_crystal_size_max          0.2
_exptl_crystal_size_mid          0.16
_exptl_crystal_size_min          0.06
_refine_diff_density_max         0.559
_refine_diff_density_min         -0.906
_refine_diff_density_rms         0.110
_refine_ls_extinction_coef       .
_refine_ls_extinction_method     none
_refine_ls_goodness_of_fit_ref   1.075
_refine_ls_hydrogen_treatment    undef
_refine_ls_matrix_type           full
_refine_ls_number_parameters     86
_refine_ls_number_reflns         1283
_refine_ls_number_restraints     24
_refine_ls_restrained_S_all      1.067
_refine_ls_R_factor_all          0.1080
_refine_ls_R_factor_gt           0.0751
_refine_ls_shift/su_max          0.000
_refine_ls_shift/su_mean         0.000
_refine_ls_structure_factor_coef Fsqd
_refine_ls_weighting_details
'w=1/[\s^2^(Fo^2^)+(0.1031P)^2^+1.9246P] where P=(Fo^2^+2Fc^2^)/3'
_refine_ls_weighting_scheme      calc
_refine_ls_wR_factor_gt          0.2055
_refine_ls_wR_factor_ref         0.2263
_reflns_Friedel_coverage         0.000
_reflns_Friedel_fraction_full    .
_reflns_Friedel_fraction_max     .
_reflns_number_gt                849
_reflns_number_total             1283
_reflns_threshold_expression     'I > 2\s(I)'
_cod_data_source_file            300K.cif
_cod_data_source_block           300K
_cod_database_code               1561251
_shelx_space_group_comment
;
The symmetry employed for this shelxl refinement is uniquely defined
by the following loop, which should always be used as a source of
symmetry information in preference to the above space-group names.
They are only intended as comments.
;
_olex2_refinement_description
;
1. Uiso/Uaniso restraints and constraints
Uanis(C1) \\sim Ueq, Uanis(C2) \\sim Ueq, Uanis(C2A) \\sim Ueq, Uanis(C3A)
\\sim Ueq: with sigma of 0.01 and sigma for terminal atoms of 0.02
2. Others
 Sof(C1)=Sof(C2)=0.5*(1-FVAR(2))
 Sof(C2A)=Sof(C3A)=0.5*FVAR(2)
 Fixed Sof: C3(0.5)
;
_shelx_res_file
;
    as1_pnma_a.res created by SHELXL-2014/7

TITL AS1_Pnma_a.res in Pnma
CELL 0.71073 10.0256 7.403 17.6039 90 90 90
ZERR 4 0.0006 0.0004 0.0013 0 0 0
LATT 1
SYMM 0.5-X,-Y,0.5+Z
SYMM -X,0.5+Y,-Z
SYMM 0.5+X,0.5-Y,0.5-Z
SFAC C Cl Co N
UNIT 16 16 4 8
ISOR 0.01 0.02 C1 C2 C2A C3A

L.S. 40
PLAN  50
TEMP 28.36
MORE -1
BOND $H
CONF
LIST 4
fmap 2
acta
MERG 2
REM <olex2.extras>
REM <HklSrc "%.\\AS1_Pnma_a.hkl">
REM </olex2.extras>

WGHT    0.103100    1.924600
FVAR       0.78741   0.21344
N1    4    1.062222    0.750000    0.885682    10.50000    0.08928    0.14800 =
         0.05453    0.00000   -0.00041    0.00000
PART 1
C2A   1    1.038075    0.750000    0.798499    20.50000    0.18073    0.18105 =
         0.17964    0.00000   -0.00009    0.00000
C3A   1    0.981332    0.750000    0.750161    20.50000    0.07053    0.06337 =
         0.03030    0.00000   -0.01721    0.00000
PART 0
PART 2
C1    1    1.069745    0.808400    0.801692   -20.50000    0.11491    0.11295 =
         0.09825    0.00569   -0.00623   -0.01184
C2    1    0.992132    0.848129    0.765762   -20.50000    0.13100    0.12509 =
         0.12582    0.00857   -0.00108    0.00122
PART 0
CO1   3    0.728223    0.250000    0.541040    10.50000    0.07588    0.07091 =
         0.07268    0.00000   -0.00148    0.00000
CL1   2    0.758395    0.250000    0.413941    10.50000    0.08221    0.28785 =
         0.07608    0.00000    0.01584    0.00000
CL2   2    0.511176    0.250000    0.569491    10.50000    0.07807    0.18901 =
         0.09214    0.00000    0.02173    0.00000
CL3   2    0.830565    0.497363    0.587632    11.00000    0.11452    0.07290 =
         0.14175   -0.01520   -0.02305   -0.00641
N2    4    0.871382    0.750000    0.429388    10.50000    0.12621    0.15732 =
         0.08539    0.00000    0.02001    0.00000
C3    1    0.838006    0.829555    0.363181    10.50000    0.16395    0.13630 =
         0.15870    0.05034   -0.03897   -0.04307
C4    1    0.809909    0.750000    0.297072    10.50000    0.30164    0.16695 =
         0.08790    0.00000   -0.01017    0.00000
HKLF 4

REM  AS1_Pnma_a.res in Pnma
REM R1 =  0.0751 for     849 Fo > 4sig(Fo)  and  0.1080 for all    1283 data
REM     86 parameters refined using     24 restraints

END

WGHT      0.1031      1.9246

REM Highest difference peak  0.559,  deepest hole -0.906,  1-sigma level  0.110
Q1    1   0.7380  0.1683  0.4153  11.00000  0.05    0.56
Q2    1   0.4939  0.1363  0.5406  11.00000  0.05    0.44
Q3    1   0.8351  0.2500  0.4473  10.50000  0.05    0.42
Q4    1   0.7399  0.1214  0.5788  11.00000  0.05    0.39
Q5    1   0.7297  0.1262  0.5034  11.00000  0.05    0.38
Q6    1   0.8172  0.7500  0.4043  10.50000  0.05    0.37
Q7    1   0.7593  0.4677  0.6176  11.00000  0.05    0.36
Q8    1   0.8146  0.4012  0.6297  11.00000  0.05    0.31
Q9    1   0.9022  0.8271  0.7636  11.00000  0.05    0.29
Q10   1   0.9146  0.8149  0.4525  11.00000  0.05    0.29
Q11   1   1.0526  0.9150  0.8087  11.00000  0.05    0.28
Q12   1   0.8995  0.7500  0.4785  10.50000  0.05    0.27
Q13   1   0.7693  0.8695  0.2933  11.00000  0.05    0.25
Q14   1   0.5886  0.2500  0.5416  10.50000  0.05    0.25
Q15   1   0.7439  0.0599  0.4627  11.00000  0.05    0.25
Q16   1   0.8931  0.8098  0.3305  11.00000  0.05    0.25
Q17   1   1.1240  0.7500  0.9100  10.50000  0.05    0.24
Q18   1   1.1322  0.9177  0.7928  11.00000  0.05    0.24
Q19   1   1.0350  0.8425  0.8660  11.00000  0.05    0.23
Q20   1   0.8604  0.6278  0.5300  11.00000  0.05    0.23
Q21   1   0.5966  0.2500  0.6145  10.50000  0.05    0.22
Q22   1   1.0815  0.8756  0.9225  11.00000  0.05    0.20
Q23   1   0.6227  0.2500  0.5908  10.50000  0.05    0.20
Q24   1   1.0796  0.8559  0.7483  11.00000  0.05    0.19
Q25   1   0.9722  0.7500  0.6996  10.50000  0.05    0.18
Q26   1   0.9799  0.6213  0.5727  11.00000  0.05    0.17
Q27   1   0.9826  0.9256  0.4232  11.00000  0.05    0.17
Q28   1   0.8450  0.3865  0.5406  11.00000  0.05    0.16
Q29   1   0.3788  0.0624  0.5611  11.00000  0.05    0.16
Q30   1   0.7995  0.6089  0.6388  11.00000  0.05    0.15
Q31   1   0.9149  0.2500  0.4014  10.50000  0.05    0.14
Q32   1   1.0085  0.9070  0.9738  11.00000  0.05    0.14
Q33   1   0.7777  0.0643  0.3614  11.00000  0.05    0.14
Q34   1   0.7046  0.9296  0.4332  11.00000  0.05    0.14
Q35   1   0.6255  0.0712  0.4501  11.00000  0.05    0.13
Q36   1   0.9665  0.3845  0.6173  11.00000  0.05    0.13
Q37   1   0.9866  0.8113  0.9171  11.00000  0.05    0.13
Q38   1   0.9551  0.8988  0.3589  11.00000  0.05    0.13
Q39   1   0.7726  0.6069  0.6656  11.00000  0.05    0.13
Q40   1   0.7956  0.7500  0.6733  10.50000  0.05    0.13
Q41   1   0.9819  0.8581  0.5118  11.00000  0.05    0.12
Q42   1   0.6357  0.2230  0.6569  11.00000  0.05    0.12
Q43   1   1.1531  0.8633  0.8918  11.00000  0.05    0.12
Q44   1   0.9623  0.7500  0.8978  10.50000  0.05    0.12
Q45   1   1.1470  1.0656  0.8032  11.00000  0.05    0.12
Q46   1   0.9478  0.2013  0.4734  11.00000  0.05    0.12
Q47   1   0.8339  0.1179  0.3135  11.00000  0.05    0.12
Q48   1   0.7808  0.9299  0.2241  11.00000  0.05    0.11
Q49   1   0.6074  0.0811  0.3898  11.00000  0.05    0.11
Q50   1   0.5360  0.0441  0.5025  11.00000  0.05    0.11
;
_shelx_res_checksum              83720
_shelx_hkl_file
;
   0  -1   0    2.30    1.50
   0  -3   0    0.30    3.70
   0  -4   0 9471.45  789.52
   0  -5   0    3.20    6.40
   0  -6   0    5.50    7.70
   0  -7   0    8.40    8.40
   0  -8   0  239.78   27.70
   1  -1   0    0.20    2.10
  -1  -1   0   -1.80    1.40
   1  -2   0   -4.10    3.30
   1  -3   0   -3.80    4.00
   1  -4   0   -6.40    4.90
  -1  -4   0    7.40    5.40
   1  -5   0   -2.00    6.30
  -1  -5   0   13.30    6.60
  -1  -6   0    5.80    7.30
   1  -6   0   -1.50    7.50
   1  -7   0   -6.70    8.30
  -1  -7   0   -9.90    7.70
   1  -8   0    3.30   10.10
  -1  -8   0   16.50   10.70
  -2  -1   0 1512.85  127.99
   2  -1   0 1471.05  128.29
   2   1   0 1617.24  127.79
   2  -2   0   43.10    6.40
  -2  -2   0   43.90    6.00
   2  -3   0  468.55   41.10
  -2  -3   0  472.05   40.60
   2  -4   0 2266.37  184.28
  -2  -4   0 2114.19  183.68
  -2  -5   0   43.50    8.30
   2  -5   0   23.40    7.70
   2  -6   0   19.60    8.80
  -2  -6   0   14.50    7.90
   2  -7   0   13.60    9.90
  -2  -7   0   12.10    8.80
  -2  -8   0   94.49   15.30
   2  -8   0   77.09   16.90
   3   0   0   -3.90    2.20
   3  -1   0    0.10    3.30
   3  -2   0   15.40    4.50
  -3  -2   0    2.60    3.00
   3  -3   0    6.00    5.10
  -3  -3   0   -7.30    3.80
   3  -4   0   -4.30    6.10
  -3  -4   0   -8.80    5.00
  -3  -5   0   -4.80    5.80
   3  -5   0   -0.20    6.90
  -3  -6   0   -6.30    7.10
   3  -6   0   -1.80    8.90
  -3  -7   0   13.10    9.00
   3  -7   0   -2.20    9.10
  -3  -8   0    1.90   10.10
   3  -8   0    0.20   11.60
   4   0   0 5595.84  466.05
   4  -1   0 1284.07  107.89
  -4  -2   0 6528.95  541.85
   4  -2   0 6484.65  542.55
  -4  -3   0  424.06   36.40
   4  -3   0  410.26   37.20
  -4  -4   0  330.87   31.40
   4  -4   0  370.46   32.60
  -4  -5   0   61.39    9.40
   4  -5   0   44.10   10.60
  -4  -6   0  249.88   25.50
   4  -6   0  245.48   27.00
  -4  -7   0   16.60    9.80
   4  -7   0   16.80   10.90
  -4  -8   0  -15.50    9.70
   4  -8   0   -0.80   11.90
   5   0   0   -2.10    3.60
   5  -1   0   -4.40    4.60
   5  -2   0    9.10    5.70
  -5  -3   0   -4.30    4.50
   5  -3   0   -4.70    5.50
  -5  -4   0   -5.70    5.80
   5  -4   0    2.00    7.30
   5  -5   0   -0.40    8.10
  -5  -5   0   -9.40    6.70
  -5  -6   0  -12.90    8.00
   5  -6   0   16.90    9.80
  -5  -7   0   10.80    9.30
   5  -7   0   -3.30   10.50
   5  -8   0   -2.30   11.90
  -5  -8   0    3.60   11.50
   6   0   0   34.60    6.10
   6  -1   0  297.77   27.20
   6  -2   0 1612.14  136.09
   6  -3   0  164.88   18.00
  -6  -4   0   10.80    6.20
   6  -4   0    5.50    8.20
   6  -5   0   96.69   15.40
  -6  -5   0  128.89   14.80
  -6  -6   0  181.98   22.20
   6  -6   0  196.28   23.90
  -6  -7   0   30.40   12.10
   6  -7   0   19.70   12.20
   7   0   0   -4.90    5.10
   7  -1   0   -7.20    5.50
   7  -2   0    8.30    6.20
   7  -3   0   -5.40    6.90
   7  -4   0  -13.60    8.10
   7  -5   0    0.20    8.90
  -7  -5   0  -11.10    9.60
   7  -6   0    5.00   11.00
  -7  -6   0    4.10    9.70
   7  -7   0   16.60   12.30
  -7  -7   0   -7.10   12.30
  -8   0   0  263.27   25.60
   8   0   0  256.87   30.50
   8  -1   0   63.09   10.80
   8  -2   0  500.35   45.10
   8  -3   0   26.80    9.50
   8  -4   0    5.20    9.30
   8  -5   0   41.40   12.60
   8  -6   0   18.30   12.70
  -9   0   0    0.00    5.80
   9  -1   0  -15.70    8.40
   9  -2   0    1.70    8.90
   9  -3   0    5.10    8.90
   9  -4   0   -8.40    9.80
   9  -5   0    1.80   10.80
 -10   0   0   23.70   10.90
 -10   0   0   41.10   18.70
  10  -1   0  120.49   15.30
  10  -2   0    9.40   11.10
  10  -3   0   60.79   14.40
  10  -4   0    3.50   12.50
 -11   0   0    9.30   17.50
 -11   0   0    3.90    6.50
 -11  -1   0    4.40   11.50
 -11   1   0   -4.70    7.30
 -11  -1   0    0.30    4.50
  11  -2   0   -8.30   12.50
  11  -3   0  -17.20   13.70
 -12   0   0   34.50    9.10
 -12   0   0   24.90   31.50
   0  -1  -1  102.49    9.80
   0  -2  -1   -4.60    4.20
   0  -2   1    5.10    2.70
   0  -3  -1  145.89   15.60
   0  -3   1  156.48   14.50
   0  -5   1  135.79   15.20
   0  -5  -1  138.29   16.60
   0  -6   1    2.70    6.90
   0  -6  -1   10.70    8.60
   0  -7  -1   36.20   10.50
   0  -7   1   13.90    8.70
   0  -8  -1   25.40   11.90
   0  -8   1   -7.10    9.20
   1   0  -1  139.39   12.80
  -1   0   1  139.99   12.30
  -1  -1  -1 7207.58  600.24
  -1  -2   1 4147.79  383.46
   1  -2   1 5147.79  383.76
  -1  -2  -1 4521.25  384.06
   1  -3  -1 2865.21  222.38
   1  -3   1 2445.86  221.68
   1  -4  -1    7.30    6.30
  -1  -4   1   11.30    5.20
   1  -4   1    4.40    4.90
   1  -5  -1  655.03   57.19
  -1  -5   1  623.44   55.99
  -1  -5  -1  649.93   56.79
   1  -5   1  657.73   56.39
   1  -6  -1  114.79   16.70
  -1  -6   1  156.78   16.40
   1  -6   1  112.19   16.40
  -1  -6  -1  154.98   18.00
  -1  -7   1   63.99   11.40
   1  -7  -1   41.10   12.10
   1  -7   1   52.49   11.50
  -1  -7  -1   67.09   12.60
  -1  -8   1    6.50    9.50
   1  -8  -1    6.60   11.40
   1  -8   1    7.90   10.20
  -1  -8  -1    9.50    9.90
   2   0  -1  769.72   64.79
  -2  -1   1  676.73   57.29
   2  -1  -1  709.83   58.39
   2  -1   1  715.13   57.69
  -2  -1  -1  647.24   57.89
   2  -2  -1 3805.42  322.07
  -2  -2   1 3763.02  321.17
   2  -2   1 3906.51  321.57
  -2  -2  -1 3946.91  321.77
  -2  -3   1   20.80    4.20
   2  -3  -1   21.60    6.50
  -2  -3  -1   26.30    6.20
   2  -3   1   20.30    4.80
   2  -4  -1   30.50    8.50
  -2  -4   1   48.00    7.20
  -2  -4  -1   35.70    7.90
   2  -4   1   51.39    8.00
   2  -5  -1   29.20    9.10
  -2  -5   1   34.50    7.10
  -2  -5  -1   15.60    7.40
   2  -5   1   17.40    6.90
   2  -6  -1   93.39   14.80
  -2  -6   1   74.09   11.80
   2  -6   1   87.89   12.90
  -2  -6  -1  103.09   13.90
  -2  -7   1   -2.00    7.40
   2  -7  -1   -8.70    9.30
  -2  -7  -1   18.40    9.50
   2  -7   1   18.50    9.10
   2  -8  -1    8.40   11.80
  -2  -8   1   17.60    9.70
   2  -8   1   18.20   11.70
  -2  -8  -1   26.50   11.50
   3   0  -1 9999.00  832.42
   3  -1  -1 8636.44  756.62
   3   1   1 9527.55  755.92
   3  -2  -1  704.83   62.19
  -3  -2   1  761.22   60.19
  -3  -2  -1  712.23   60.89
   3  -2   1  678.83   61.19
   3  -3  -1 2766.02  228.18
  -3  -3   1 2626.24  226.98
   3  -3   1 2801.92  227.58
  -3  -3  -1 2682.03  227.58
  -3  -4   1  626.34   53.79
   3  -4  -1  628.34   55.29
  -3  -4  -1  612.14   54.49
   3  -4   1  638.94   54.49
  -3  -5   1  386.16   34.30
   3  -5  -1  405.36   36.40
   3  -5   1  388.36   35.30
  -3  -5  -1  349.47   35.10
  -3  -6   1  296.57   29.20
   3  -6  -1  285.07   31.60
   3  -6   1  351.86   30.70
  -3  -6  -1  294.27   30.20
  -3  -7   1   74.99   12.30
   3  -7  -1   46.50   13.30
   3  -7   1   60.59   12.80
  -3  -7  -1   78.59   13.70
   3  -8  -1   -1.30   10.90
  -3  -8   1   14.40   10.40
  -3  -8  -1   11.00   10.90
   3  -8   1   -2.40   11.70
   4   0   1  602.04   52.19
   4   0  -1  646.24   53.09
   4  -1  -1   15.40    5.00
   4  -1   1    8.20    3.10
   4  -2  -1  475.15   43.40
  -4  -2   1  500.15   41.50
   4  -2   1  529.25   42.50
  -4  -2  -1  458.85   42.10
  -4  -3   1   49.60    6.40
   4  -3  -1   39.50    8.60
   4  -3   1   60.39    8.20
  -4  -3  -1   47.90    8.20
   4  -4  -1   91.49   14.00
  -4  -4   1  103.89   12.20
  -4  -4  -1  102.19   13.10
   4  -4   1  130.29   13.80
  -4  -5   1   20.00    6.80
   4  -5  -1   40.80   10.10
   4  -5   1   12.50    8.00
  -4  -5  -1   22.50    8.00
   4  -6  -1   40.60   12.20
  -4  -6   1   58.89   10.20
   4  -6   1   57.59   11.70
  -4  -6  -1   52.49   11.60
  -4  -7   1   -4.00    8.30
   4  -7  -1   31.80   12.10
   4  -7   1   31.20   10.90
  -4  -7  -1   28.90   11.10
   4  -8  -1    0.10   11.00
  -4  -8   1   14.20    9.90
   4  -8   1   -6.30   10.70
  -4  -8  -1   19.50   11.60
   5   0  -1  448.06   38.70
   5   0   1  446.06   37.90
   5  -1  -1 2671.43  220.08
   5  -1   1 2581.74  219.38
   5  -2  -1 2196.88  177.78
   5  -2   1 2031.20  177.08
  -5  -3   1 1012.50   85.29
   5  -3  -1 1084.29   87.19
   5  -3   1  994.90   86.29
  -5  -3  -1  971.30   85.79
  -5  -4   1   65.79    9.60
   5  -4  -1   73.69   12.20
   5  -4   1   51.59    9.70
   5  -5  -1  156.58   19.80
  -5  -5   1  126.19   15.70
  -5  -5  -1  139.59   16.60
   5  -5   1  124.69   17.00
   5  -6  -1  160.98   21.70
  -5  -6   1  138.49   18.70
   5  -6   1  182.68   20.80
  -5  -6  -1  157.88   20.40
  -5  -7   1   29.90   10.20
   5  -7  -1   26.90   13.90
  -5  -7  -1   33.80   11.50
   5  -7   1   29.60   11.80
  -5  -8   1   -4.60   10.40
   5  -8  -1    5.20   12.10
  -5  -8  -1   -5.40   12.10
   5  -8   1  -10.30   11.50
   6   0   1  129.79   12.70
   6   0  -1  136.49   13.80
   6  -1  -1  127.29   15.80
   6  -1   1  136.79   13.60
   6  -2  -1  125.99   16.50
   6  -2   1  133.39   14.40
   6  -3  -1    7.20    7.30
  -6  -3   1    2.00    3.70
   6  -3   1    7.00    5.80
  -6  -4   1   13.30    6.20
   6  -4  -1   16.00    9.00
  -6  -4  -1    9.60    7.10
   6  -4   1    9.20    7.40
   6  -5  -1    7.60    9.50
  -6  -5   1    5.20    7.00
   6  -5   1    5.20    8.40
  -6  -5  -1    9.40    8.30
  -6  -6   1   25.80    9.10
   6  -6  -1   -3.90   10.30
   6  -6   1   20.10    9.80
  -6  -6  -1    5.70    9.60
   6  -7  -1    8.80   12.50
  -6  -7   1   20.40   10.10
  -6  -7  -1   23.00   11.60
   6  -7   1   -4.30   10.00
   7   0   1  292.87   24.90
   7   0  -1  267.37   24.90
   7  -1  -1  299.07   29.10
   7  -1   1  304.27   27.50
   7  -2  -1   21.20    7.80
   7  -2   1   11.70    6.00
   7  -3  -1  114.29   14.70
   7  -3   1   82.89   12.30
  -7  -4   1  111.59   12.80
   7  -4  -1  143.19   18.30
   7  -4   1  134.99   17.00
   7  -5  -1    6.40    9.90
  -7  -5   1    2.50    9.80
   7  -5   1   14.10    9.30
  -7  -6   1    5.90    9.10
   7  -6  -1    8.10   11.30
   7  -6   1   20.20   11.10
  -7  -6  -1    7.50   10.30
   7  -7  -1   11.00   12.30
  -7  -7   1   12.60   12.10
   7  -7   1    0.60   11.10
  -7  -7  -1    9.40   13.40
   8   0   1   72.59    9.70
   8  -1  -1   18.10    9.20
   8  -1   1   10.90    7.00
   8  -2  -1    0.90    8.80
   8  -2   1   -1.20    6.60
   8  -3  -1   19.70    9.50
   8  -3   1   -2.00    7.60
   8  -4  -1   22.20   10.70
   8  -4   1   24.70    9.90
   8  -5  -1   -6.30   11.00
   8  -5   1    3.50   10.50
   8  -6  -1   23.90   13.70
   8  -6   1  -10.60   11.60
  -9   0  -1  426.76   39.20
  -9   0   1  438.76   40.10
  -9   0   1  398.76   47.90
   9   0   1  440.06   44.80
   9  -1  -1  146.69   17.80
   9  -1   1  144.19   17.80
   9  -2  -1   11.30   10.30
   9  -2   1   28.80    8.90
   9  -3  -1   73.19   13.60
   9  -3   1   42.60   11.20
   9  -4  -1  105.99   17.70
   9  -4   1  106.39   16.40
   9  -5  -1   13.50   12.20
   9  -5   1   -9.50   10.40
 -10   0   1   47.10   19.00
 -10   0   1   32.40    9.20
 -10   0  -1   35.10    9.20
 -10   0  -1   32.80   18.00
  10  -1  -1   31.50    9.80
  10  -1   1   31.50   10.00
  10  -2  -1    1.80   11.70
  10  -2   1    2.30    9.70
  10  -3  -1   16.20   13.40
  10  -3   1   24.80   11.50
  10  -4  -1   14.80   14.90
  10  -4   1   24.30   13.00
 -11   0  -1   38.00   19.30
 -11   0  -1   11.50    6.80
 -11   0   1   10.10   18.20
 -11   0   1   10.20    7.10
 -11   1  -1   -5.10    6.90
 -11  -1   1    0.60    5.20
 -11  -1   1   -2.80   11.70
 -11  -1  -1    9.60   10.90
 -11  -1  -1   -2.30    4.20
  11  -2  -1   25.90   12.80
  11  -2   1    0.90   11.60
  11  -3  -1   15.40   15.40
  11  -3   1    4.50   13.60
 -12   0   1   -0.10   20.70
 -12   0   1    4.10    7.90
 -12   0  -1    2.00    6.60
 -12   0  -1   14.80   20.30
   0  -1  -2   -3.20    4.10
   0  -2  -2 2112.69  172.58
   0  -2   2 1999.10  171.38
   0  -3   2    3.70    3.00
   0  -3  -2    1.10    6.10
   0  -4  -2 3465.75  292.67
   0  -4   2 3510.15  291.57
   0  -5   2   -2.10    4.80
   0  -5  -2    2.70    8.00
   0  -6  -2   45.40   11.60
   0  -6   2   70.79   10.60
   0  -7  -2    3.10    9.20
   0  -7   2    4.20    7.20
   0  -8   2   95.79   15.50
   0  -8  -2   92.09   17.10
  -1   0  -2 1901.91  176.58
   1   0  -2 2219.28  177.98
  -1   0   2 2229.08  177.78
   1  -1  -2  214.08   21.10
   1  -1   2  227.68   18.80
  -1  -1  -2  215.88   20.40
   1  -2  -2 4061.69  325.77
  -1  -2   2 3663.03  324.37
   1  -2   2 3706.83  324.57
  -1  -2  -2 4163.68  325.57
  -1  -3   2   44.70    6.30
   1  -3  -2   72.39   10.00
   1  -3   2   49.30    6.70
   1  -4  -2 1709.63  151.78
  -1  -4   2 1849.61  150.68
   1  -4   2 1730.23  150.78
  -1  -4  -2 1889.71  151.88
   1  -5  -2   -6.90    8.00
  -1  -5   2    0.00    4.80
  -1  -5  -2   10.30    8.30
   1  -5   2    1.90    5.00
  -1  -6   2   18.10    6.80
   1  -6  -2   10.40    9.70
  -1  -6  -2   -1.70    8.20
   1  -6   2    6.60    6.20
  -1  -7   2    6.60    7.60
   1  -7  -2   16.70    9.70
  -1  -7  -2   -3.20    9.40
   1  -7   2   25.20    8.50
   1  -8  -2  183.88   23.30
  -1  -8   2  155.78   19.60
   1  -8   2  106.89   17.70
  -1  -8  -2  131.49   20.50
  -2   0   2 5873.41  491.15
   2  -1  -2  504.15   44.70
   2  -1   2  517.35   43.00
  -2  -2   2  981.80   83.39
   2  -2  -2  942.21   84.99
  -2  -2  -2 1085.49   84.99
   2  -2   2  986.30   83.79
   2  -3  -2  170.88   19.40
  -2  -3   2  195.18   16.30
  -2  -3  -2  161.48   18.70
   2  -3   2  180.28   16.90
   2  -4  -2 1003.20   91.29
  -2  -4   2 1061.69   89.59
  -2  -4  -2 1025.00   90.89
   2  -4   2 1146.39   90.19
  -2  -5   2   39.40    6.90
   2  -5  -2   31.40   10.20
   2  -5   2   28.30    7.10
  -2  -5  -2   26.60    8.80
   2  -6  -2   57.49   12.90
  -2  -6   2   39.90    8.70
   2  -6   2   62.79   10.60
  -2  -6  -2   52.19   11.60
   2  -7  -2    6.20   10.30
  -2  -7   2   12.00    8.00
   2  -7   2    6.00    8.30
  -2  -7  -2   -3.70    9.20
  -2  -8   2   67.59   12.90
   2  -8  -2   58.59   16.80
   2  -8   2   46.50   13.40
  -2  -8  -2   56.99   14.60
   3   0  -2  302.07   26.70
   3  -1  -2  488.85   42.80
   3  -1   2  481.45   40.90
  -3  -2   2  143.69   11.90
  -3  -2  -2  128.89   14.50
   3  -2   2  124.79   13.30
  -3  -3   2    1.90    2.80
   3  -3  -2    2.00    7.20
   3  -3   2    4.50    4.10
  -3  -3  -2  -11.20    6.30
   3  -4  -2   86.09   13.10
  -3  -4   2   82.29    9.60
   3  -4   2   85.39   10.90
  -3  -4  -2   62.89   11.40
  -3  -5   2    4.80    4.90
   3  -5  -2   -1.10    8.80
  -3  -5  -2    3.80    7.60
   3  -5   2    6.60    5.90
  -3  -6   2   44.40    8.20
   3  -6  -2   23.00   10.70
   3  -6   2   30.40    8.70
  -3  -6  -2   34.80   11.10
  -3  -7   2    8.40    7.70
   3  -7  -2   12.40   10.60
   3  -7   2    7.40    9.00
  -3  -7  -2    9.70   10.30
   3  -8  -2   11.20   11.90
  -3  -8   2   25.40   10.50
  -3  -8  -2  -13.20   10.90
   3  -8   2   19.00   11.20
   4   0   2 2266.97  189.18
   4   0  -2 2276.07  190.08
  -4  -1   2   72.79   10.80
   4  -1  -2  114.59   13.70
   4  -1   2  111.79    9.50
  -4  -2   2 2995.70  252.17
   4  -2  -2 3048.50  254.07
   4  -2   2 3039.80  252.87
   4  -3  -2   77.89   12.10
  -4  -3   2   90.69    8.80
   4  -3   2   71.49   10.10
  -4  -3  -2   87.69   11.40
   4  -4  -2  355.66   33.80
  -4  -4   2  361.26   30.60
  -4  -4  -2  340.37   32.90
   4  -4   2  328.87   31.60
  -4  -5   2   45.90    7.90
   4  -5  -2   39.70   11.30
  -4  -5  -2   64.19   11.30
   4  -5   2   50.09    9.00
   4  -6  -2  167.08   21.90
  -4  -6   2  149.19   17.70
  -4  -6  -2  177.68   20.70
   4  -6   2  148.89   19.30
  -4  -7   2   20.10    8.60
   4  -7  -2   17.40   10.70
  -4  -7  -2    7.20   11.20
   4  -7   2   19.20    9.80
   4  -8  -2   -9.50   10.80
  -4  -8   2   12.50   10.20
   4  -8   2   -3.50   10.50
  -4  -8  -2   -9.00   11.50
   5   0  -2   47.10    6.90
   5   0   2   37.70    4.60
   5  -1  -2 1171.58  105.29
   5   1   2 1343.37  103.09
   5   1   2 1151.88  103.69
   5  -1   2 1268.47  103.79
  -5  -2   2 1496.75  119.89
   5  -2  -2 1378.66  122.19
   5  -2   2 1424.66  120.79
  -5  -3   2  419.36   36.20
   5  -3  -2  417.26   39.30
   5  -3   2  411.26   37.40
  -5  -3  -2  446.76   37.50
   5  -4  -2    9.00    9.10
  -5  -4  -2    0.80    8.30
   5  -4   2    3.30    6.20
   5  -5  -2   75.99   14.50
  -5  -5   2   75.69   10.10
   5  -5   2   58.49   11.10
  -5  -5  -2   73.09   12.20
  -5  -6   2  169.78   18.50
   5  -6  -2  172.98   22.70
   5  -6   2  168.68   20.30
  -5  -6  -2  135.49   19.40
  -5  -7   2    9.00    8.50
   5  -7  -2   20.50   12.50
  -5  -7  -2    4.40   10.20
   5  -7   2    1.50    9.60
   5  -8  -2   16.90   14.50
  -5  -8   2  -12.60    9.80
  -5  -8  -2   -9.50   12.20
   5  -8   2    5.70   11.40
   6   0   2   39.70    4.90
   6  -1  -2  277.67   28.20
   6  -1   2  292.17   25.40
   6  -2  -2  556.04   49.80
   6  -2   2  546.85   47.60
  -6  -3   2  137.29   12.70
   6  -3  -2  137.59   17.80
   6  -3   2  119.89   14.60
  -6  -4   2    9.60    5.30
   6  -4  -2    4.00    9.50
  -6  -4  -2   15.50    7.00
   6  -4   2    0.30    6.20
   6  -5  -2   52.99   13.20
  -6  -5   2   63.29    9.80
  -6  -5  -2   65.69   12.30
   6  -5   2   68.49   11.70
  -6  -6   2   79.09   11.90
   6  -6  -2   58.99   14.90
  -6  -6  -2   84.39   14.20
   6  -6   2   68.59   13.20
  -6  -7   2   27.00   10.10
   6  -7  -2    5.00   15.20
  -6  -7  -2    8.00   12.00
   6  -7   2    7.00   11.30
   7   0   2  545.75   46.40
   7  -1  -2    9.50    9.10
   7  -1   2   17.40    5.50
   7  -2  -2   42.40   11.10
   7  -2   2   51.89    7.90
   7  -3  -2    3.00    8.80
   7  -3   2   -3.60    5.70
  -7  -4   2   73.39    9.70
   7  -4  -2   86.19   15.70
   7  -4   2   69.39   12.00
   7  -5  -2   16.90   11.60
  -7  -5  -2   23.10    9.60
   7  -5   2    4.80    8.00
  -7  -6   2   43.60   10.60
   7  -6  -2   23.90   13.70
   7  -6   2   55.09   11.90
  -7  -6  -2   31.50   11.50
  -7  -7   2  -26.80   11.10
   7  -7  -2   -7.10   12.30
  -7  -7  -2   -8.20   14.10
   7  -7   2  -11.00   10.30
   8   0   2  174.68   16.50
   8  -1  -2   94.09   22.30
   8  -2  -2  170.78   23.30
   8  -2   2  200.58   19.50
   8  -3  -2   65.89   13.90
   8  -3   2   52.79    9.70
   8  -4  -2   25.40   12.40
   8  -4   2   11.30    8.50
   8  -5  -2   32.20   12.90
   8  -5   2   41.40   10.90
   8  -6  -2   23.60   14.20
   8  -6   2   19.40   11.50
  -9   0   2    6.40   14.80
  -9   0  -2    3.20    5.00
   9   0   2    5.80   10.10
  -9   0   2    7.00    7.30
  -9  -1   2  227.48   27.20
   9   1   2  198.28   26.50
  -9  -1   2  204.18   20.30
  -9   1  -2  198.78   21.80
  -9   1   2  216.88   24.30
  -9  -1  -2  168.98   18.30
   9  -1   2  177.98   26.20
  -9  -1  -2  194.38   24.90
   9  -2  -2    0.50   11.70
   9  -2   2   -2.80    7.20
   9  -3  -2   87.09   15.80
   9  -3   2   50.79   11.10
   9  -4  -2   -0.80   12.50
   9  -4   2    0.90    8.80
   9  -5  -2   24.80   14.60
   9  -5   2   14.40   11.20
 -10   0  -2    5.10    5.50
 -10   0   2    9.20    7.60
  10   0   2   11.70   11.70
 -10   0   2    9.00   16.50
  10  -1   2   44.20   12.90
  10  -2  -2    0.90   12.10
  10  -2   2   16.80    9.20
  10  -3  -2   10.60   15.00
  10  -3   2   47.50   12.10
  10  -4  -2  -18.00   14.60
  10  -4   2  -15.70   10.80
 -11   0  -2   -3.20    5.50
 -11   0  -2   -3.30   16.30
 -11   0   2    0.90    7.50
 -11  -1   2    1.70   12.70
 -11  -1   2    6.80    6.30
 -11   1  -2    2.00    7.00
 -11   1   2   13.10   21.10
 -11  -1  -2   10.30   10.30
 -11  -1  -2    5.80    4.40
  11  -2  -2   30.70   13.60
  11  -2   2   35.80   11.90
  11  -3  -2    0.10   16.30
  11  -3   2   -5.30   12.30
 -12   0   2    7.30    8.40
 -12   0  -2   25.50   20.00
 -12   0  -2   10.00    7.10
 -12   0   2  -10.60   18.90
   0   0   3   -0.90    2.20
   0   0  -3   -0.60    2.30
   0  -1  -3 5883.91  491.15
   0  -2   3   -0.50    1.60
   0  -2  -3    5.80    7.30
   0  -3  -3 1184.68  103.89
   0  -3   3 1243.98  102.09
   0  -4   3    4.50    4.00
   0  -4  -3  -17.10    8.20
   0  -5   3  491.45   42.80
   0  -5  -3  487.15   45.60
   0  -6  -3   18.90   10.40
   0  -6   3   -6.60    5.70
   0  -7   3   62.19   10.70
   0  -7  -3   52.29   12.90
   0  -8   3   -9.50    8.00
   0  -8  -3   -3.80   13.00
   1   0  -3   12.80    4.90
   1   0   3   15.90    3.30
  -1   0  -3   12.10    3.00
  -1   0   3    9.30    4.30
   1  -1  -3 5721.63  464.85
  -1  -1  -3 5409.46  464.25
   1  -2  -3    3.50    7.10
  -1  -2   3    6.40    1.90
  -1  -2  -3   14.90    7.60
   1  -2   3    7.00    2.30
  -1  -3   3 1677.33  144.59
   1  -3  -3 1882.41  146.79
   1  -3   3 1693.33  144.79
  -1  -3  -3 1679.23  146.49
  -1  -4   3   21.50    4.80
   1  -4   3   28.30    5.60
  -1  -5   3  250.97   24.10
   1  -5  -3  252.47   27.10
  -1  -5  -3  268.87   27.70
   1  -5   3  274.27   24.60
  -1  -6   3   -1.50    5.70
   1  -6  -3  -18.50    9.60
  -1  -6  -3   19.30   10.80
   1  -6   3   -3.00    6.10
   1  -7  -3   64.99   14.40
  -1  -7   3   73.89   11.80
  -1  -7  -3   61.39   14.10
   1  -7   3   78.79   12.30
  -1  -8   3    7.30    9.30
   1  -8  -3   -7.60   11.70
  -1  -8  -3   -3.20   12.10
   1  -8   3   14.70    9.70
  -2   0  -3  278.57   24.60
   2   0   3  276.77   24.60
  -2   0   3  295.67   27.40
   2  -1  -3 1312.87  111.59
  -2  -2  -3 9459.15  788.72
   2  -3  -3    2.10    7.60
  -2  -3  -3    6.80    7.70
   2  -3   3    8.50    3.50
   2  -4  -3  223.98   24.30
  -2  -4   3  217.78   20.00
   2  -4   3  227.78   20.80
  -2  -4  -3  207.68   24.00
  -2  -5   3  142.99   16.00
  -2  -5  -3  203.58   20.90
   2  -5   3  163.48   17.10
   2  -6  -3  338.77   35.10
  -2  -6   3  320.07   31.60
  -2  -6  -3  423.76   35.50
   2  -6   3  328.17   32.20
  -2  -7   3   80.19   11.60
   2  -7  -3   76.49   15.90
  -2  -7  -3   72.49   14.30
   2  -7   3   53.99   11.20
  -2  -8   3   32.10   10.10
  -2  -8  -3    1.70   12.70
   3   0   3  746.53   65.29
  -3   0  -3  719.13   64.89
  -3   0   3  846.42   68.49
   3  -1  -3  799.42   69.29
   3  -1   3  799.82   66.99
  -3  -2   3  105.89    9.30
   3  -2  -3  126.99   15.30
  -3  -2  -3   93.99   13.00
   3  -2   3  101.99   10.10
   3  -3  -3  436.16   44.70
  -3  -3   3  515.25   41.80
  -3  -3  -3  498.85   44.40
   3  -3   3  498.05   42.40
  -3  -4   3   85.09    9.20
   3  -4  -3   72.99   13.30
   3  -4   3   71.29   10.00
  -3  -4  -3   89.29   13.10
  -3  -5   3  150.28   16.30
   3  -5  -3  155.18   21.00
  -3  -5  -3  146.09   19.50
   3  -5   3  198.78   17.70
  -3  -6   3   13.00    6.00
   3  -6  -3   15.10   10.90
   3  -6   3   11.60    7.00
  -3  -6  -3   -0.80   10.40
  -3  -7   3   49.30    9.70
   3  -7  -3   35.50   13.50
   3  -7   3   49.60   11.10
  -3  -7  -3   48.00   13.50
   3  -8  -3   -0.20   11.00
  -3  -8   3   -6.50    8.10
   3  -8   3    4.10    8.90
  -3  -8  -3    4.30   12.40
  -4   0   3  968.80   83.89
   4   0   3  966.00   82.79
  -4   0   3 1064.89   86.29
  -4   0  -3  892.91   81.99
   4  -1  -3  561.54   48.80
   4  -1   3  535.35   46.00
  -4  -2   3 1912.41  160.38
   4  -2  -3 1906.41  163.08
   4  -2   3 1953.60  161.08
  -4  -3   3  435.66   35.20
   4  -3  -3  408.16   38.90
  -4  -3  -3  380.86   37.60
   4  -3   3  411.76   36.10
  -4  -4   3  218.88   21.50
   4  -4  -3  272.77   26.80
  -4  -4  -3  229.48   25.30
   4  -4   3  259.97   23.10
  -4  -5   3  126.89   13.60
   4  -5  -3  114.19   17.80
  -4  -5  -3  140.29   18.30
   4  -5   3  110.29   14.80
  -4  -6   3  167.98   18.80
   4  -6  -3  215.78   24.60
  -4  -6  -3  198.58   23.40
   4  -6   3  158.68   20.10
  -4  -7   3   58.49   10.80
   4  -7  -3   60.19   16.00
   4  -7   3   71.39   13.70
  -4  -7  -3   72.39   14.30
   4  -8  -3   21.80   13.60
  -4  -8   3   14.10    9.70
  -4  -8  -3   11.40   12.60
   4  -8   3   20.80   11.00
   5   0   3 1153.28   96.29
   5  -1  -3  682.63   59.09
   5  -1   3  655.23   56.19
  -5  -2   3  420.36   34.20
   5  -2  -3  391.06   38.80
   5  -2   3  396.96   35.20
  -5  -3   3  262.57   22.20
   5  -3  -3  242.48   27.20
   5  -3   3  249.97   23.60
  -5  -4   3  180.28   16.80
   5  -4  -3  152.08   22.10
  -5  -4  -3  191.48   21.00
   5  -4   3  178.48   18.40
   5  -5  -3   76.09   15.60
  -5  -5   3   86.09   11.50
   5  -5   3   98.19   13.40
  -5  -5  -3  103.49   14.80
   5  -6  -3   14.30   11.70
  -5  -6   3   28.20    7.50
   5  -6   3   31.20    8.90
  -5  -6  -3   18.60   11.60
   5  -7  -3   11.30   12.60
  -5  -7   3   20.00    8.60
   5  -7   3   -1.50    9.30
  -5  -7  -3   23.70   12.60
  -5  -8   3    2.40    9.90
   5  -8  -3   19.30   15.50
   5  -8   3   -5.70   10.50
  -5  -8  -3   36.70   14.60
   6   0   3  584.44   49.20
   6  -1  -3  291.87   30.90
   6   1   3  345.07   25.90
   6  -1   3  243.78   28.30
   6  -2  -3  507.25   46.20
   6  -2   3  486.55   42.70
   6  -3  -3    0.40    9.40
  -6  -3   3    8.20    3.20
   6  -3   3   10.80    5.70
  -6  -4   3  119.69   12.40
   6  -4  -3  110.39   17.40
   6  -4   3  117.49   14.60
  -6  -4  -3  120.19   15.80
   6  -5  -3   24.10   12.20
  -6  -5   3   11.00    6.30
  -6  -5  -3   25.70   10.40
   6  -5   3   11.00    7.80
   6  -6  -3    2.40   12.20
  -6  -6   3   53.29    9.60
  -6  -6  -3   43.70   12.70
   6  -6   3   43.90   10.20
  -6  -7   3    8.70    9.40
  -6  -7  -3    4.20   13.20
   7   0   3  134.59   12.60
   7  -1   3   36.10    6.10
   7  -2  -3   26.10   11.30
   7  -2   3   32.00    6.40
   7  -3  -3   33.90   12.20
   7  -3   3   16.40    6.40
   7  -4  -3   49.20   14.60
  -7  -4   3   54.39    7.30
   7  -4   3   46.70    9.90
  -7  -5   3   19.40    7.90
   7  -5  -3   32.90   13.70
   7  -5   3   18.70    8.40
   7  -6  -3  -11.20   13.10
  -7  -6   3   29.10    9.00
  -7  -6  -3    9.60   11.30
   7  -6   3   40.00   10.70
  -7  -7   3    5.00   11.20
   7  -7  -3   -3.20   14.10
   7  -7   3    6.50   11.20
  -7  -7  -3   23.00   14.30
   8   0   3  308.27   27.00
   8  -1  -3   72.39   13.90
   8  -1   3   69.99    9.30
   8  -2  -3   15.80   11.70
   8  -2   3    7.60    5.80
   8  -3  -3   41.80   13.60
   8  -3   3   38.10    8.40
   8  -4  -3  130.89   20.00
   8  -4   3  106.89   14.90
   8  -5  -3   39.50   14.50
   8  -5   3   23.00   10.00
   8  -6  -3    0.70   14.70
   8  -6   3    3.40   10.20
   9   0   3  104.69   11.50
   9  -1  -3  -24.50    9.40
   9  -1   3    3.80    6.40
   9  -2  -3   84.49   15.90
   9  -2   3   70.39   11.00
   9  -3  -3    9.10   13.10
   9  -3   3   -9.30    7.20
   9  -4  -3   51.19   15.90
   9  -4   3   30.70   10.60
   9  -5  -3  -12.80   14.50
   9  -5   3    0.80    9.90
 -10   0   3  230.98   24.60
 -10   0  -3  203.68   21.40
  10   0   3  187.98   28.20
 -10   0   3  225.38   36.00
  10  -1   3   42.30    9.90
  10  -2  -3   21.20   13.90
  10  -2   3   15.20    8.30
  10  -3  -3   17.00   16.00
  10  -3   3   24.80   10.00
  10  -4  -3   66.49   19.20
  10  -4   3   70.09   14.40
  11   0   3    6.80   12.60
 -11   0  -3    5.40    6.00
 -11   0  -3   -2.50   16.10
 -11   0   3    6.10   18.00
 -11   0   3   11.30    8.60
  11   1   3  -13.30   11.40
 -11   1  -3    6.50    6.80
 -11  -1   3  -10.90   12.50
 -11  -1  -3   -0.40    9.10
  11  -1   3  -11.60   12.20
 -11  -1  -3    3.20    4.50
 -11   1   3  -12.20   18.40
  11  -2  -3    8.40   12.70
  11  -2   3   10.00   10.90
  11  -3  -3   18.40   17.30
  11  -3   3    0.60   11.70
   0   0   4 3009.00  246.88
   0   0  -4 2877.61  246.98
   0  -1  -4    4.80    6.40
   0  -2  -4 1931.61  163.58
   0  -3  -4    2.50    8.80
   0  -3   4    0.30    2.80
   0  -4   4  127.39   12.40
   0  -4  -4  106.39   17.10
   0  -5  -4    8.10   10.30
   0  -6  -4  357.56   36.00
   0  -6   4  330.87   31.40
   0  -7  -4    7.60   12.00
   0  -7   4   -3.20    7.00
   0  -8  -4  -19.10   12.30
   0  -8   4    5.60    8.90
  -1   0   4 6298.47  523.45
   1   0  -4 6224.48  523.75
   1  -1  -4 2816.92  236.78
  -1  -2  -4  217.88   23.50
  -1  -3   4  396.46   34.10
   1  -3  -4  432.06   38.70
  -1  -3  -4  364.46   37.80
   1  -3   4  407.46   34.40
   1  -4  -4 2282.27  195.58
  -1  -4   4 2319.67  193.08
   1  -4   4 2371.96  193.38
  -1  -4  -4 2249.57  195.38
   1  -5  -4   29.80   11.80
  -1  -5   4   20.90    5.70
  -1  -5  -4   31.40   11.70
   1  -5   4   26.60    6.20
   1  -6  -4   18.00   12.70
  -1  -6   4   14.60    6.50
  -1  -6  -4    6.50   11.70
   1  -6   4    9.50    6.80
   1  -7  -4   16.50   12.90
  -1  -7   4    7.20    6.60
  -1  -7  -4   -3.20   11.30
   1  -7   4   -1.40    7.50
  -1  -8   4  189.88   21.40
   1  -8  -4  171.78   25.90
   1  -8   4  180.88   21.60
  -1  -8  -4  156.28   24.50
  -2   0  -4  148.99   14.90
   2   0  -4  180.98   19.30
   2   0   4  159.18   15.00
  -2   0   4  166.48   18.10
   2  -1  -4  156.38   19.20
   2  -2  -4 1675.33  141.39
   2  -2   4 1599.64  138.69
  -2  -2  -4 1712.13  140.69
  -2  -3   4   45.80    5.60
   2  -3  -4   43.60   11.90
   2  -3   4   50.69    6.50
  -2  -3  -4   53.89   11.50
   2  -4  -4   72.49   14.20
  -2  -4   4   60.69    7.70
  -2  -4  -4   48.80   12.30
   2  -4   4   68.99    8.60
  -2  -5   4   31.80    6.60
   2  -5  -4   90.89   14.30
  -2  -5  -4   56.99   12.90
   2  -5   4   44.30    8.00
  -2  -6   4  261.97   25.30
  -2  -6  -4  274.87   30.70
   2  -6   4  265.07   26.00
   2  -7  -4    6.90   12.10
  -2  -7   4    5.10    6.70
   2  -7   4   -1.50    7.00
  -2  -7  -4   10.80   12.40
  -2  -8   4   13.30    8.60
   2  -8  -4   10.00   19.90
   2  -8   4   17.20   15.70
  -2  -8  -4  -29.40   11.80
  -3   0   4  685.93   59.09
   3   0   4  661.83   55.69
  -3   0  -4  609.14   55.39
   3  -1  -4   81.19   12.90
   3  -2  -4  586.44   51.99
   3  -2   4  560.14   48.20
  -3  -3   4    7.60    3.00
   3  -3  -4    3.60    9.90
   3  -3   4    7.90    3.70
  -3  -3  -4    7.20    8.80
   3  -4  -4  389.46   39.00
  -3  -4   4  386.36   33.80
  -3  -4  -4  405.66   37.80
   3  -4   4  388.26   34.50
  -3  -5   4   19.10    5.30
   3  -5  -4   12.00   11.50
  -3  -5  -4   18.40   10.90
   3  -5   4   17.10    7.00
  -3  -6   4  133.39   15.40
   3  -6  -4  123.39   20.60
  -3  -6  -4  135.89   20.00
   3  -6   4  148.99   16.90
   3  -7  -4   10.20   13.70
  -3  -7   4    0.60    6.60
   3  -7   4   11.40    8.40
  -3  -7  -4   20.60   12.30
   3  -8  -4   16.60   14.40
  -3  -8   4   22.90    9.50
  -3  -8  -4   30.70   13.70
   3  -8   4    0.90    9.60
  -4   0  -4  390.66   35.50
  -4   0   4  423.66   40.40
   4   0   4  417.86   36.30
   4  -1  -4   33.90   11.10
   4  -1   4   39.70    4.70
   4  -2  -4    8.20   10.80
   4  -2   4    3.00    3.20
  -4  -3   4   30.00    4.20
   4  -3  -4   26.60   11.80
   4  -3   4   34.50    6.10
  -4  -3  -4   11.10   10.20
   4  -4  -4  178.78   22.40
  -4  -4   4  140.79   13.60
  -4  -4  -4  126.79   18.20
  -4  -5   4   51.29    7.20
   4  -5  -4   50.89   14.40
  -4  -5  -4   37.40   12.40
   4  -5   4   29.60    7.80
   4  -6  -4   -0.10   13.10
  -4  -6   4    9.30    6.30
  -4  -6  -4    3.80   11.10
   4  -6   4   14.90    7.00
   4  -7  -4   12.70   13.20
  -4  -7   4    1.20    6.70
  -4  -7  -4   -1.40   11.70
   4  -7   4   -8.50    7.80
   4  -8  -4   47.30   17.40
  -4  -8   4   11.70    9.20
  -4  -8  -4   20.90   14.80
   4  -8   4   21.10   10.70
  -5   0   4   23.60   10.80
  -5   0   4   11.60    6.20
  -5   0  -4   19.30    4.20
   5   0   4   23.00    5.80
  -5  -1   4 1758.32  162.18
   5   1   4 1850.81  161.28
  -5  -1   4 2196.38  164.28
  -5   1  -4 1917.21  161.68
   5  -1   4 1872.21  162.58
  -5  -1  -4 1817.12  160.38
  -5   1   4 2008.20  164.28
  -5  -2   4 1353.66  111.39
   5  -2  -4 1376.16  115.39
   5  -2   4 1283.37  112.09
   5  -3  -4  676.43   62.39
  -5  -3   4  704.53   57.69
   5  -3   4  668.43   58.69
   5  -4  -4    2.20   11.40
  -5  -4   4   12.10    4.20
  -5  -4  -4   23.60    9.50
   5  -4   4    9.40    5.90
   5  -5  -4  146.99   22.00
  -5  -5   4  146.09   14.90
   5  -5   4  136.69   16.90
  -5  -5  -4  135.99   19.10
  -5  -6   4  233.08   24.30
   5  -6  -4  251.07   31.50
  -5  -6  -4  245.98   29.50
   5  -6   4  286.17   26.50
  -5  -7   4   16.00    7.90
   5  -7  -4   16.80   15.80
   5  -7   4    3.20    9.20
  -5  -7  -4   -9.90   12.50
   6   0   4  244.58   21.10
   6  -1  -4  175.78   25.40
   6  -1   4  239.38   20.00
   6  -2  -4   65.29   14.60
  -6  -2   4   71.29    6.50
   6  -2   4   70.49    8.80
  -6  -3   4   88.39    9.10
   6  -3  -4  133.79   18.90
   6  -3   4   98.09   11.90
   6  -4  -4  135.09   19.60
   6  -4   4  112.69   14.50
   6  -5  -4   34.40   14.00
  -6  -5   4   17.40    6.00
   6  -5   4   21.70    8.10
  -6  -5  -4    8.80   10.10
   6  -6  -4   -2.60   13.00
  -6  -6   4   -6.00    6.50
  -6  -6  -4   -2.00   11.10
   6  -6   4   -3.90    7.30
  -6  -7   4   -1.40    8.90
   6  -7  -4   -1.60   26.30
   6  -7   4   14.60   11.60
  -6  -7  -4  -12.80   13.90
   7   0   4  202.48   18.00
   7  -1  -4  130.29   18.10
   7   1   4  134.69   11.40
   7  -1   4  120.39   12.90
   7  -2  -4   95.19   16.80
   7  -2   4   80.39   10.40
  -7  -3   4   66.69    7.50
   7  -3  -4   72.99   15.80
   7  -3   4   79.89   10.40
  -7  -4   4   14.00    5.20
   7  -4  -4   12.40   13.80
   7  -4   4   33.20    8.10
  -7  -5   4   56.19    9.20
   7  -5  -4   65.99   17.10
   7  -5   4   53.29   10.40
  -7  -6   4   58.79   10.20
   7  -6  -4   21.10   15.80
  -7  -6  -4   48.50   13.30
   7  -6   4   29.80   10.90
  -7  -7   4   -3.00   10.50
   7  -7  -4   -0.80   16.40
  -7  -7  -4   -4.00   14.80
   7  -7   4    8.40   11.10
   8   0   4   44.50    6.10
   8   1   4   95.39    8.90
   8  -1  -4   93.09   15.00
   8  -1   4   97.09   11.40
   8  -2  -4   16.50   12.80
   8  -2   4   20.30    6.10
   8  -3  -4   65.99   15.90
   8  -3   4   46.30    9.10
   8  -4  -4    3.70   13.30
   8  -4   4    9.30    7.60
   8  -5  -4   -5.80   13.50
  -8  -5   4   14.70    7.80
   8  -5   4  -12.30    8.20
  -8  -6   4    0.50   10.80
   8  -6  -4  -13.00   16.20
   8  -6   4   -3.50   10.30
   9   0   4    8.00    4.70
   9  -1   4  240.18   22.90
   9  -2  -4   10.20   12.80
   9  -2   4   -0.50    6.20
   9  -3  -4   96.39   20.70
   9  -3   4  129.99   15.40
   9  -4  -4   20.20   15.70
   9  -4   4    1.60    8.50
   9  -5  -4   17.50   16.20
   9  -5   4   14.90    9.90
 -10   0  -4    7.90    5.70
  10   0   4   -2.50   10.30
 -10   0   4    3.80   25.40
 -10   0   4   19.00    9.30
  10  -1   4   11.40    7.60
  10  -2  -4   16.20   13.90
  10  -2   4    3.80    7.50
  10  -3  -4    3.00   16.50
  10  -3   4    0.20    9.00
  10  -4  -4   -3.90   17.60
  10  -4   4    6.40    9.80
 -11   0   4    3.20    8.70
 -11   0   4    5.20   18.30
  11   0   4   -4.70   11.80
 -11  -1   4   12.50   14.60
  11   1   4   17.00   13.10
 -11   1  -4   10.20    7.30
 -11  -1   4    9.10    8.10
 -11  -1  -4    9.50    9.20
 -11   1   4   29.00   21.70
  11  -1   4    5.50   13.50
 -11   1   4    2.20   10.60
 -11  -1  -4    6.80    4.80
  11  -2  -4   19.00   14.10
  11  -2   4   37.50   11.10
  11  -3  -4   25.00   18.80
  11  -3   4    1.90   11.80
   0   0   5    0.10    3.90
   0   0  -5   -2.50    3.90
   0   1   5 4909.41  411.26
   0  -2  -5    4.00    9.40
   0  -3  -5 3516.25  292.27
   0  -3   5 3423.96  289.17
   0  -4  -5   -4.20   10.40
   0  -5   5  727.63   61.59
   0  -5  -5  701.03   65.79
   0  -6   5   -0.40    6.10
   0  -6  -5    3.30   11.80
   0  -7   5  152.08   18.50
   0  -7  -5  197.08   25.80
   0  -8   5   -5.10    7.50
   0  -8  -5   19.50   15.60
   1   0  -5  266.67   26.70
   1   0   5  290.57   24.80
  -1   0  -5  252.67   24.70
  -1   0   5  260.97   25.90
   1  -1  -5  319.37   30.80
   1  -2  -5 1747.43  149.29
  -1  -3   5    3.70    2.50
   1  -3  -5   -5.50   10.10
  -1  -3  -5   -1.30   10.50
   1  -3   5    1.40    3.00
  -1  -4   5   31.50    5.60
   1  -4  -5   35.80   13.00
  -1  -4  -5   40.90   12.70
   1  -4   5   42.40    6.20
   1  -5  -5    6.80   12.20
  -1  -5   5   10.60    4.90
   1  -5   5    6.50    5.30
  -1  -5  -5    6.70   11.60
   1  -6  -5   69.49   17.50
  -1  -6   5   70.89   10.40
   1  -6   5   91.39   11.70
  -1  -6  -5   56.69   16.00
   1  -7  -5   67.29   17.30
  -1  -7   5   30.00    8.20
   1  -7   5   13.10    8.20
  -1  -7  -5    2.70   12.50
  -1  -8   5   12.50    8.50
  -1  -8  -5    5.20   14.40
   2   0  -5    3.40    6.50
   2   0   5    3.80    2.90
  -2   0   5    3.30    5.90
  -2   0  -5    9.10    3.50
   2  -1  -5  276.17   28.10
   2  -2  -5 1315.67  108.29
  -2  -2  -5 1186.78  106.99
  -2  -3   5  477.75   40.60
   2  -3  -5  502.15   46.10
   2  -3   5  472.65   41.00
  -2  -3  -5  469.75   45.20
   2  -5  -5  307.37   31.30
  -2  -5   5  259.37   23.40
  -2  -5  -5  201.28   28.60
   2  -5   5  260.17   24.20
  -2  -6   5   89.39   12.40
   2  -6  -5  127.09   20.30
   2  -6   5   82.19   12.40
  -2  -6  -5  118.49   18.50
  -2  -7   5  102.29   14.20
   2  -7  -5  111.59   21.20
   2  -7   5  106.29   14.60
  -2  -7  -5   94.09   17.80
  -2  -8   5   12.90    8.70
   2  -8  -5    2.90   15.60
  -2  -8  -5   15.10   14.90
   2  -8   5    1.30    8.00
  -3   0  -5 4251.47  382.26
  -3   0   5 4910.21  385.56
  -3  -1   5  211.18   20.30
   3   1   5  209.18   17.60
  -3   1  -5  161.28   17.40
   3   1  -5  198.78   22.10
   3  -1   5  166.48   17.90
  -3  -1  -5  183.18   17.40
   3  -2  -5  240.18   29.10
   3  -2   5  263.97   22.60
   3  -3  -5   20.70   11.50
  -3  -3   5   11.20    2.70
   3  -3   5    6.10    4.00
  -3  -3  -5   11.80   10.30
  -3  -4   5 1016.60   86.89
   3  -4  -5 1007.90   91.49
   3  -4   5 1032.60   87.59
  -3  -4  -5 1074.69   90.39
   3  -5  -5   21.90   13.70
   3  -5   5   12.00    6.40
  -3  -5  -5   20.80   12.10
   3  -6  -5   84.09   17.80
  -3  -6   5   92.79   11.20
  -3  -6  -5   87.69   16.80
   3  -6   5   56.69   10.70
   3  -7  -5   10.60   14.10
  -3  -7   5   10.00    6.90
  -3  -7  -5   15.30   12.90
   3  -7   5    1.20    6.90
   3  -8  -5   42.50   18.30
  -3  -8   5   20.30    9.90
   3  -8   5   37.50   11.40
  -3  -8  -5   51.09   16.50
  -4   0   5  200.08   23.20
  -4   0  -5  170.78   17.30
   4   0   5  193.98   18.20
   4  -1  -5 1528.65  130.79
   4  -2  -5  932.31   83.89
   4  -2   5  954.50   79.59
   4  -3  -5  706.93   69.79
  -4  -3   5  775.42   64.89
   4  -3   5  786.92   65.69
  -4  -3  -5  799.72   67.89
  -4  -4   5   35.10    5.60
   4  -4  -5   54.89   14.70
  -4  -4  -5   52.89   12.50
   4  -5  -5  198.68   27.20
  -4  -5   5  212.78   19.60
  -4  -5  -5  227.78   26.40
   4  -5   5  194.28   21.00
   4  -6  -5   55.39   17.80
  -4  -6   5   92.69   11.80
  -4  -6  -5   95.09   17.30
   4  -6   5   68.39   11.50
   4  -7  -5   23.40   17.30
  -4  -7   5   43.40    9.20
  -4  -7  -5   56.49   15.30
   4  -7   5   41.30   10.40
   4  -8  -5   -6.60   16.80
  -4  -8   5   10.40    8.50
   4  -8   5   -5.70    9.20
  -4  -8  -5   -3.90   14.40
  -5   0   5  257.17   28.90
   5   0   5  247.38   23.00
  -5   0  -5  216.98   21.60
   5  -1  -5  134.09   20.00
   5  -1   5  168.78   14.70
   5  -2  -5  195.78   24.90
   5  -2   5  197.18   18.00
  -5  -3   5   25.90    4.10
   5  -3  -5   22.20   13.50
   5  -3   5   49.10    6.70
  -5  -4   5   86.79   10.00
   5  -4  -5   73.39   16.70
   5  -4   5  103.19   12.40
  -5  -4  -5  110.39   15.30
   5  -5  -5   17.80   14.60
  -5  -5   5   15.50    5.30
  -5  -5  -5   15.40   10.90
   5  -5   5    7.60    7.80
  -5  -6   5   17.70    6.70
   5  -6   5    8.90    7.80
  -5  -6  -5    1.10   12.60
  -5  -7   5   10.50    7.60
   5  -7  -5    0.80   15.70
  -5  -7  -5   40.20   14.70
   5  -7   5    3.50    9.90
   6   0   5  655.43   55.19
   6  -1  -5   75.89   13.60
   6  -1   5   50.69    6.70
   6  -2  -5  279.97   32.00
   6  -2   5  287.17   25.50
  -6  -3   5   45.30    5.70
   6  -3  -5   37.90   14.80
   6  -3   5   45.10    7.60
  -6  -4   5  169.68   15.60
   6  -4  -5  156.58   23.40
   6  -4   5  154.98   18.00
   6  -5  -5   35.00   15.60
  -6  -5   5   45.70    7.50
  -6  -5  -5   44.30   12.00
   6  -5   5   39.30    9.00
   6  -6  -5   41.90   16.60
  -6  -6   5   27.20    7.40
   6  -6   5   11.20    8.30
  -6  -6  -5   20.10   12.50
  -6  -7   5    0.80    8.30
   6  -7  -5   -3.00   16.40
   6  -7   5    5.50    9.20
  -6  -7  -5   38.90   14.80
   7   0   5   23.10    4.00
   7  -1  -5   -2.90   10.00
   7  -1   5    2.20    3.60
   7  -2  -5  149.39   21.30
  -7  -2   5  137.09   12.40
   7  -2   5  152.98   14.70
   7  -3  -5   -1.50   13.40
  -7  -3   5    2.10    3.00
   7  -3   5   -3.00    5.50
   7  -4  -5    9.20   13.80
  -7  -4   5    0.10    4.50
   7  -4   5   -5.20    6.20
  -7  -5   5   11.50    6.10
   7  -5  -5   20.90   15.40
   7  -5   5   11.70    7.90
  -7  -6   5   20.20    7.80
   7  -6  -5   -2.00   14.80
   7  -6   5    6.30    9.30
   8   0   5  346.77   30.10
   8   1   5   86.59    8.20
   8  -1   5   77.49   10.20
   8  -2  -5   81.99   16.70
   8   2   5   65.19    6.10
   8  -2   5   63.99    9.20
   8  -3  -5   57.79   17.40
   8  -3   5   34.20    7.90
  -8  -4   5   77.09    9.60
   8  -4  -5   63.39   18.40
   8  -4   5   84.09   12.20
   8  -5  -5  -13.60   15.00
  -8  -5   5    5.10    7.50
   8  -5   5   38.40    9.80
   8  -6  -5   -9.70   15.90
  -8  -6   5    1.60    9.40
   8  -6   5    8.20   10.80
   9   0   5   15.90    5.00
   9  -1   5   37.40    7.20
   9  -2  -5   66.89   17.20
   9  -2   5   74.89   10.50
   9  -3  -5   23.40   16.30
   9  -3   5    2.60    7.60
   9  -4  -5   19.90   17.10
   9  -4   5    0.20    7.90
   9  -5  -5   -9.40   17.00
   9  -5   5   12.30   10.10
  10   0   5  127.39   13.90
  10  -1   5    7.40    6.90
  10  -2  -5   59.79   15.90
  10  -2   5   67.29   11.00
  10  -3  -5  -26.20   16.90
  10  -3   5   18.70    9.10
  10  -4  -5   56.79   20.40
  10  -4   5   32.70   11.30
 -11   0   5    7.50   18.80
 -11   0   5   -2.60    9.50
  11   0   5    0.80   11.20
  11  -1   5    9.00    8.90
  11  -2   5   -2.40    9.70
  11   3   5   -6.10   12.70
  11  -3   5   15.30   16.00
   0   1  -6   11.00    4.50
   0  -1   6    3.20    3.60
   0   1   6   -2.60    4.90
   0  -2  -6   66.39   14.40
   0  -3  -6   19.30   12.50
   0  -3   6    7.30    2.90
   0  -4   6 1856.81  153.78
   0  -4  -6 1805.92  157.68
   0  -5  -6    4.00   13.20
   0  -5   6   -1.00    4.70
   0  -6  -6  134.59   22.00
   0  -6   6  162.18   16.70
   0  -7  -6   -0.40   13.40
   0  -7   6   -3.50    6.20
   0  -8   6   32.30   11.00
   0  -8  -6   44.90   20.50
   1   0   6 1790.42  143.39
  -1   0   6 1692.13  144.39
   1   0  -6 1673.13  144.99
  -1   0  -6 1613.04  143.39
  -1   1  -6  382.96   37.70
   1   1   6  428.56   38.70
  -1  -1   6  479.65   38.80
   1   1  -6  441.06   39.50
  -1  -1  -6  405.36   38.70
   1  -1   6  440.36   37.90
  -1   1   6  407.06   40.20
   1  -2  -6 2838.62  241.78
  -1  -2  -6 2874.31  241.18
   1  -3  -6  151.18   22.40
  -1  -3   6  150.88   13.70
   1  -3   6  154.98   13.90
  -1  -3  -6  121.39   20.30
   1  -4  -6  488.45   46.70
  -1  -4   6  478.65   40.40
  -1  -4  -6  418.86   45.80
   1  -4   6  476.25   40.60
   1  -5  -6   27.20   14.60
  -1  -5   6   30.40    6.40
  -1  -5  -6   42.80   13.90
   1  -5   6   42.20    7.20
  -1  -6   6  222.38   21.90
   1  -6  -6  214.48   29.20
   1  -6   6  232.68   22.40
  -1  -6  -6  204.78   29.30
   1  -7  -6   25.70   16.10
  -1  -7   6    3.30    6.20
   1  -7   6   -2.90    6.40
  -1  -7  -6   -4.20   12.70
  -1  -8   6   36.30    9.70
   1  -8  -6   42.90   17.50
  -1  -8  -6   -1.80   14.90
   1  -8   6   27.40   11.20
   2   0   6  462.85   37.80
   2   0  -6  433.46   41.50
  -2   0  -6  384.36   37.50
  -2   0   6  416.66   40.10
   2  -1  -6   26.90    9.50
   2  -2  -6  734.23   66.89
  -2  -3   6   17.20    3.50
   2  -3  -6    5.60   12.00
  -2  -3  -6   31.90   12.30
   2  -3   6   21.20    4.30
  -2  -4   6   89.39    9.40
   2  -4  -6  120.19   19.00
  -2  -4  -6   64.09   15.60
   2  -4   6   81.19   10.20
   2  -5  -6   17.20   13.00
  -2  -5   6   -3.00    4.20
  -2  -5  -6    0.00   11.60
   2  -5   6    0.10    5.20
  -2  -6   6  101.99   13.00
   2  -6  -6   99.99   19.00
  -2  -6  -6   90.79   18.90
   2  -6   6  104.59   13.50
   2  -7  -6   36.30   15.80
  -2  -7   6    1.10    6.50
  -2  -7  -6   12.20   14.40
   2  -7   6    3.50    6.60
   2  -8  -6    3.70   16.50
  -2  -8   6    1.50    8.10
  -2  -8  -6    8.00   15.00
   2  -8   6   -3.30    8.00
   3   0   6 2228.68  178.08
  -3   0  -6 1924.01  177.68
  -3   0   6 2193.38  181.08
   3  -1  -6   31.60   11.20
   3  -2  -6 2434.66  207.28
   3  -3  -6   25.80   13.70
  -3  -3   6    1.40    2.60
   3  -3   6   -0.90    3.40
  -3  -3  -6   10.00   10.60
   3  -4  -6  564.74   55.59
  -3  -4   6  610.04   49.80
   3  -4   6  568.74   50.49
  -3  -4  -6  576.24   54.39
  -3  -5   6   38.80    6.40
   3  -5  -6   41.20   16.20
   3  -5   6   31.70    7.70
  -3  -5  -6   43.70   14.50
   3  -6  -6  178.28   25.50
  -3  -6   6  145.69   16.90
   3  -6   6  168.28   18.30
  -3  -6  -6  174.98   24.40
   3  -7  -6  -10.80   14.60
  -3  -7   6    2.30    6.70
  -3  -7  -6  -27.60   11.80
   3  -7   6   -2.20    7.50
   3  -8  -6   21.60   17.40
  -3  -8   6   11.90    8.50
   3  -8   6   11.30   10.20
  -3  -8  -6   25.20   15.90
  -4   0  -6  438.46   41.20
   4   0   6  491.85   41.80
  -4   0   6  485.65   46.00
   4  -1  -6  116.19   17.60
   4  -2  -6 1425.66  125.89
   4  -2   6 1464.15  121.39
   4  -3  -6   25.20   14.60
   4  -3   6   19.50    4.80
  -4  -4   6   -0.90    3.30
   4  -4  -6   -2.40   14.60
  -4  -4  -6   13.10   10.80
   4  -4   6    2.90    5.40
  -4  -5   6    0.90    4.60
   4  -5  -6   16.30   14.70
   4  -5   6    1.00    6.20
  -4  -5  -6   -0.40   12.20
  -4  -6   6   17.30    6.50
   4  -6  -6    8.80   14.60
   4  -6   6    9.80    8.20
  -4  -6  -6   15.50   13.20
   4  -7  -6   24.60   16.10
  -4  -7   6   -0.30    6.60
   4  -7   6  -11.20    7.50
  -4  -7  -6   14.00   14.40
  -4  -8   6    1.40    9.30
   4  -8  -6    2.10   17.50
   4  -8   6   22.30   10.80
  -4  -8  -6   25.00   17.00
   5   0   6  646.54   55.59
  -5   0  -6  594.14   54.49
  -5   0   6  659.03   60.19
   5  -1  -6 1000.50   87.79
   5  -2  -6  470.95   47.50
   5  -2   6  472.85   40.60
   5  -3  -6  321.17   37.60
  -5  -3   6  340.57   29.00
   5  -3   6  340.97   30.20
   5  -4  -6  188.58   27.80
  -5  -4   6  219.18   19.80
   5  -4   6  232.28   21.60
  -5  -5   6   87.09   11.00
   5  -5  -6  112.79   21.10
  -5  -5  -6   99.29   16.60
   5  -5   6   94.29   13.00
   5  -6  -6   31.30   17.60
  -5  -6   6   47.90    8.80
  -5  -6  -6   55.09   15.40
   5  -6   6   48.50   10.40
  -5  -7   6   10.40    7.60
  -5  -7  -6   13.50   14.30
   6   0   6  321.57   29.80
  -6   0   6  317.67   35.30
  -6   0  -6  288.07   27.80
  -6   0   6  300.67   31.50
   6  -1   6    3.80    3.30
   6  -2  -6  265.17   31.10
   6  -2   6  242.68   22.30
   6  -3  -6  -10.10   13.90
   6  -3   6    2.90    5.20
  -6  -4   6  164.78   16.40
   6  -4  -6  214.58   27.90
   6  -4   6  181.38   18.60
  -6  -5   6   10.10    5.00
   6  -5  -6   -1.50   14.60
   6  -5   6    0.30    7.20
   6  -6  -6   25.10   17.40
  -6  -6   6   26.30    7.70
   6  -6   6   13.60    9.40
  -6  -6  -6   25.20   13.40
   6  -7  -6   -6.10   17.50
  -6  -7   6    3.10    8.70
   6  -7   6   -2.10    9.20
  -6  -7  -6  -35.70   13.30
   7   0   6  213.88   19.00
   7  -1   6  161.18   15.20
   7  -2  -6   54.59   16.70
   7  -2   6   74.49    9.20
   7  -3  -6  139.39   22.20
  -7  -3   6  128.69   11.70
   7  -3   6  110.59   14.10
   7  -4  -6   73.89   18.90
  -7  -4   6   63.39    8.80
   7  -4   6   62.09   10.50
   7  -5  -6   41.70   17.50
  -7  -5   6   40.20    7.80
   7  -5   6   52.49   10.70
   7  -6  -6   -4.60   17.50
  -7  -6   6   20.20    8.10
   7  -6   6    1.70    8.80
   8   0   6   71.29    8.50
   8   1   6   55.09    6.70
   8  -1   6   53.09    7.60
  -8  -2   6  177.98   15.00
   8  -2  -6  185.48   25.00
   8  -2   6  157.48   17.40
   8  -3  -6   31.30   16.60
  -8  -3   6   25.80    4.00
   8  -3   6   12.60    6.80
  -8  -4   6    5.20    4.70
   8  -4  -6   45.30   18.20
   8  -4   6  -14.00    6.60
  -8  -5   6   13.50    7.00
   8  -5  -6  -12.60   15.50
   8  -5   6   -2.70    8.50
  -8  -6   6    0.80    8.80
   9   0   6   42.10    6.80
   9   1   6  120.39   11.00
   9  -1   6   90.49   12.90
   9  -2  -6    5.60   13.90
   9  -2   6   16.60    7.00
   9  -3  -6   24.20   18.80
   9  -3   6   64.79   10.80
   9  -4  -6   36.70   18.30
   9  -4   6    9.80    8.00
   9  -5  -6   58.89   20.60
   9  -5   6   22.50   11.20
  10   0   6   12.10    8.10
  10  -1   6    1.30    6.60
  10  -2   6   -0.30    7.40
  10  -3  -6   44.50   19.20
  10  -3   6   27.80    9.50
  10  -4  -6    5.10   19.20
  10  -4   6    3.60    9.50
 -11   0  -6    6.50    8.40
  11   0   6    4.80   11.80
 -11   0   6   11.20   18.70
  11  -1   6   16.00    8.50
  11  -2   6   -2.90    9.30
   0   0  -7   -1.30    5.60
   0   0   7   -3.60    4.70
   0  -1   7 7561.74  578.94
   0   1  -7 6809.92  579.14
   0  -1  -7 6525.45  579.84
   0   1   7 6793.32  579.64
   0  -2  -7   -3.50   11.60
   0  -3  -7 3162.08  268.27
   0  -4  -7    9.60   13.60
   0  -4   7    2.10    3.70
   0  -5  -7  402.96   42.70
   0  -5   7  395.86   35.30
   0  -6  -7   12.20   14.20
   0  -6   7   -7.40    5.20
   0  -7  -7   89.49   21.40
   0  -7   7  103.79   14.10
   0  -8   7   -5.80   12.90
   0  -8  -7    6.00   17.30
   1   0   7  117.99   13.00
   1   0  -7   94.29   15.40
  -1   0   7   93.19   14.30
  -1   0  -7  104.29   13.30
  -1   1  -7  537.15   52.39
   1   1   7  602.84   53.49
  -1  -1   7  632.84   53.39
   1  -1   7  675.63   52.89
   1   1  -7  600.44   54.29
  -1  -1  -7  585.94   53.69
  -1   1   7  551.64   54.49
   1  -2  -7 1037.70   92.09
   1  -3  -7  216.18   29.00
  -1  -3  -7  201.38   29.40
   1  -3   7  236.58   20.40
  -1  -4   7   31.80    5.20
   1  -4  -7    7.60   15.00
   1  -4   7   27.10    5.00
  -1  -4  -7   14.30   15.60
   1  -5  -7   -2.50   13.60
  -1  -5   7    4.20    4.70
   1  -5   7   -3.70    4.70
  -1  -5  -7    3.30   14.00
   1  -6  -7   44.70   16.40
  -1  -6   7   34.00    7.40
   1  -6   7   26.30    7.30
  -1  -6  -7   29.10   15.80
   1  -7  -7   14.30   17.10
  -1  -7   7   10.10    7.20
   1  -7   7   -3.00    6.80
  -1  -7  -7  -18.60   12.90
  -1  -8   7    0.40    8.90
   1  -8  -7   19.00   16.70
   1  -8   7    3.30    7.80
  -1  -8  -7   13.60   22.20
  -2   0  -7 1035.50   95.59
   2   0   7 1207.68   95.79
  -2   0   7 1120.89   97.89
   2   0  -7 1102.49   99.09
  -2  -1   7 2148.19  172.68
   2   1   7 2122.69  171.58
   2  -1   7 1991.90  171.28
  -2  -1  -7 1910.51  171.48
  -2   1   7 1850.91  173.78
   2   1  -7 2147.99  174.28
   2  -2  -7  139.39   21.80
   2  -3  -7 1270.27  114.39
   2  -3   7 1295.47  109.39
  -2  -3  -7 1342.27  113.59
  -2  -4   7  300.97   27.00
   2  -4  -7  314.97   35.60
  -2  -4  -7  273.47   34.70
   2  -4   7  323.57   27.60
   2  -5  -7  305.67   35.60
  -2  -5   7  272.87   24.90
  -2  -5  -7  258.27   32.70
   2  -5   7  267.17   25.60
   2  -6  -7   20.00   15.80
  -2  -6   7   10.40    5.80
  -2  -6  -7   13.40   14.90
   2  -6   7    5.90    6.70
   2  -7  -7   66.69   19.00
  -2  -7   7   58.79    9.80
   2  -7   7   55.79   10.60
  -2  -7  -7   14.90   16.50
  -2  -8   7    7.00    8.60
   2  -8  -7   15.10   17.90
   2  -8   7   15.60    9.00
  -2  -8  -7    5.50   16.10
  -3   0  -7 2469.85  232.48
  -3   0   7 2897.81  235.98
   3   0   7 2944.91  232.98
  -3   1  -7  497.05   51.79
   3   1   7  656.43   52.39
  -3  -1   7  676.03   54.99
   3   1  -7  674.73   57.49
   3  -1   7  584.34   52.49
  -3  -1  -7  567.24   52.19
  -3   1   7  532.35   56.09
   3  -2  -7    7.80   13.60
   3  -3  -7  174.58   26.50
   3  -3   7  172.68   16.30
   3  -4  -7  476.45   49.00
  -3  -4   7  472.95   41.50
   3  -4   7  493.45   42.40
  -3  -4  -7  500.85   47.50
  -3  -5   7    2.40    4.50
   3  -5  -7    2.00   15.10
  -3  -5  -7   16.30   14.40
   3  -5   7    0.20    5.80
   3  -6  -7   39.20   16.70
  -3  -6   7   46.10    8.10
  -3  -6  -7   45.60   17.20
   3  -6   7   49.60    9.30
   3  -7  -7  -23.50   16.60
  -3  -7   7   -2.30    6.40
  -3  -7  -7  -11.60   14.00
   3  -7   7    9.00    7.30
   3  -8  -7   36.80   19.00
  -3  -8   7   17.80    9.00
   3  -8   7    7.60    8.60
  -3  -8  -7   12.80   16.80
  -4   0  -7 1323.67  125.29
  -4   0   7 1572.54  129.89
   4   0   7 1554.34  125.99
  -4  -1   7 2229.28  168.98
  -4   1  -7 1688.33  165.38
   4   1   7 2083.79  165.78
  -4  -1  -7 1859.51  165.38
   4   1  -7 2202.38  171.98
   4  -1   7 1920.51  166.38
  -4   1   7 1777.12  169.98
   4  -2  -7   30.50   15.80
   4  -2   7   14.60    4.20
   4  -3  -7  720.93   67.99
   4  -3   7  712.33   60.99
  -4  -4   7  506.45   44.80
   4  -4  -7  522.85   53.49
   4  -4   7  494.05   45.70
  -4  -4  -7  622.34   50.49
  -4  -5   7  170.78   17.20
   4  -5  -7  177.78   26.90
   4  -5   7  169.68   18.60
  -4  -5  -7  203.28   26.30
  -4  -6   7    2.50    5.70
   4  -6  -7    8.70   15.90
   4  -6   7    6.60    7.10
  -4  -6  -7    0.60   13.90
   4  -7  -7    8.70   21.10
  -4  -7   7   29.90    8.50
  -4  -7  -7   28.70   15.90
   4  -7   7   17.20   10.60
  -5   0  -7  108.09   12.20
  -5   0   7   93.89   19.70
   5   0   7  102.69   13.10
  -5   1  -7  405.56   40.60
  -5  -1   7  520.25   45.20
   5   1   7  483.65   41.00
   5  -1   7  454.05   42.10
  -5   1   7  423.56   47.60
  -5  -1  -7  455.75   40.30
   5  -2  -7  345.37   40.40
   5  -2   7  382.36   32.60
  -5  -3   7  172.68   16.10
   5  -3  -7  225.78   28.60
   5  -3   7  179.88   17.40
  -5  -4   7   -1.00    3.60
   5  -4  -7   28.90   17.70
   5  -4   7   -4.80    5.60
  -5  -5   7   18.70    5.90
   5  -5  -7   15.30   16.80
  -5  -5  -7   31.40   13.30
   5  -5   7   23.90    7.70
   5  -6  -7   31.30   18.80
  -5  -6   7   17.00    6.60
  -5  -6  -7    4.10   13.80
   5  -6   7   10.00    8.40
  -5  -7   7    7.70    7.60
   5  -7  -7   -5.90   17.40
  -5  -7  -7    6.40   14.30
   5  -7   7    3.60    9.00
   6   0   7  248.68   24.30
  -6   0   7  244.78   30.30
  -6   0  -7  214.48   22.20
   6  -1   7  594.34   50.59
   6  -2  -7   74.49   17.50
   6  -2   7   84.59    9.60
  -6  -3   7  195.58   17.40
   6  -3  -7  172.28   27.30
   6  -3   7  198.98   19.10
   6  -4  -7   66.19   20.60
  -6  -4   7   92.49    9.90
   6  -4   7   86.39   12.20
  -6  -5   7   74.29    9.10
   6  -5  -7   70.19   20.30
   6  -5   7   48.90   10.30
   6  -6  -7    2.50   18.00
  -6  -6   7   23.20    7.20
   6  -6   7    7.10    8.80
   6  -7  -7   11.90   20.10
  -6  -7   7   12.40    8.50
   6  -7   7    2.40    9.60
  -6  -7  -7   19.00   16.00
  -7   0   7    9.10   12.70
   7   0   7    2.60    6.40
  -7   0  -7    5.80    4.30
   7  -1   7   10.60    4.00
   7  -2  -7  106.69   19.90
   7  -2   7  109.39   12.30
   7  -3  -7   -1.80   15.90
  -7  -3   7    4.50    3.50
   7  -3   7    7.60    5.70
   7  -4  -7    9.60   16.90
  -7  -4   7    7.70    4.70
   7  -4   7    8.00    7.30
  -7  -5   7    9.70    5.60
   7  -5  -7   16.70   17.00
   7  -5   7  -15.10    6.90
  -7  -6   7   16.60    7.40
   7  -6  -7    0.60   17.20
   7  -6   7   -3.20    9.00
   8   0   7   88.79    9.70
   8  -1   7  130.09   13.50
   8  -2  -7  205.48   25.90
   8  -2   7  173.38   18.50
  -8  -3   7   50.49    5.80
   8  -3  -7   21.90   17.90
   8  -3   7   34.30    8.60
   8  -4  -7   22.00   18.80
   8  -4   7   34.30    9.40
  -8  -5   7    9.00    6.90
   8  -5  -7   26.40   19.60
   8  -5   7   10.60    9.00
   9   0   7   81.39    9.60
   9   1   7   47.80    6.20
   9  -1   7   43.00    7.70
   9   2   7    2.40    3.10
   9  -2   7   -4.00    6.40
   9  -3  -7   22.90   18.10
   9  -3   7   -2.40    7.40
   9  -4  -7   59.19   21.40
   9  -4   7   43.60   10.70
   9  -5  -7    3.00   20.50
   9  -5   7   -4.30    9.10
  10   0   7    8.30    6.20
  10  -1   7    1.70    6.70
  10  -2   7   60.89   10.80
  10  -3  -7   21.60   18.60
  10  -3   7    5.60    8.90
  10  -4  -7  -17.30   19.60
  10  -4   7  -17.50    9.30
 -11   0   7   10.10   11.60
 -11   0   7   -5.30   18.40
 -11   0  -7    3.10    7.40
  11   0   7   -1.90   13.10
  11  -1   7   21.50    8.50
  11  -2   7  -13.10    9.40
   0   0   8 5022.90  406.56
   0   0  -8 4656.43  406.86
   0  -1   8    0.00    4.90
   0  -1  -8    1.00    6.70
   0   1   8   -5.20    5.90
   0   1  -8   -2.00    5.40
   0   2   8 1115.59  105.39
   0   2  -8 1131.99  103.89
   0  -2   8 1378.86  104.09
   0  -3  -8   -0.50   14.30
   0  -4   8  806.22   66.89
   0  -4  -8  752.32   73.19
   0  -5  -8   -2.50   16.40
   0  -5   8    2.00    4.60
   0  -6   8   26.50    7.20
   0  -6  -8    7.60   17.20
   0  -7   8    0.50    7.30
   0  -7  -8   17.70   17.80
   0  -8  -8   -0.20   17.10
   0  -8   8    1.90    8.40
   1   0   8 1112.19   90.99
  -1   0   8 1062.39   92.09
   1   0  -8 1028.20   92.99
  -1   0  -8  993.00   91.09
  -1  -1   8  137.99   15.70
   1   1   8  128.99   15.90
  -1   1  -8  102.19   14.50
  -1  -1  -8  114.59   16.40
   1  -1   8  133.29   14.60
   1   1  -8  121.79   16.80
  -1   1   8  123.19   17.60
   1  -2  -8 7172.88  601.54
   1  -3  -8   16.80   16.60
  -1  -3  -8   -7.70   13.80
  -1  -4   8   87.19    9.20
   1  -4  -8   85.29   21.40
   1  -4   8   79.59    9.30
  -1  -4  -8   53.79   18.90
  -1  -5   8    2.70    4.60
   1  -5  -8   -8.20   16.30
   1  -5   8    3.60    5.20
  -1  -5  -8   11.90   14.90
  -1  -6   8  397.96   34.50
   1  -6  -8  410.66   44.30
  -1  -6  -8  348.87   42.70
   1  -6   8  361.36   34.70
   1  -7  -8  -15.30   16.00
  -1  -7   8    6.60    7.00
   1  -7   8    3.70    7.20
  -1  -7  -8   -3.20   15.90
  -1  -8   8   -4.20    8.50
   1  -8  -8   27.00   18.80
  -1  -8  -8    8.10   18.40
   1  -8   8   -1.20    8.40
  -2   0   8  388.96   38.50
  -2   0  -8  349.67   36.00
   2   0  -8  415.56   41.00
   2   0   8  412.96   36.10
   2   1   8  252.37   23.10
  -2   1  -8  184.58   22.00
  -2  -1   8  248.38   24.50
  -2   1   8  191.08   26.00
  -2  -1  -8  215.38   23.20
   2   1  -8  239.88   26.80
   2  -1   8  251.07   22.70
   2  -2  -8  157.48   24.20
   2  -3  -8   70.89   20.50
  -2  -3  -8  113.19   19.50
   2  -3   8   95.19   10.20
   2  -4  -8  124.59   23.60
  -2  -4   8  118.69   12.20
  -2  -4  -8  113.59   20.40
   2  -4   8  128.59   13.00
   2  -5  -8   63.29   20.40
  -2  -5   8   59.59    7.80
  -2  -5  -8   28.90   16.20
   2  -5   8   36.10    7.70
   2  -6  -8   20.50   16.80
  -2  -6   8   15.60    6.40
  -2  -6  -8   17.30   16.40
   2  -6   8   29.90    8.10
  -2  -7   8    3.10    6.80
   2  -7  -8    8.30   17.70
  -2  -7  -8   10.50   15.20
   2  -7   8    0.60    8.00
   2  -8  -8    7.80   18.10
  -2  -8   8   -4.10   13.90
   2  -8   8    4.10    8.80
  -3   0   8 3340.17  277.17
  -3   0  -8 2823.12  273.77
   3   0  -8 3423.26  279.27
   3   0   8 3467.35  274.37
   3   1   8  319.77   28.60
  -3  -1   8  286.57   30.90
   3   1  -8  288.77   33.90
   3  -1   8  289.67   28.50
  -3   1   8  302.57   33.50
  -3  -1  -8  302.37   28.80
   3  -2  -8 2646.84  225.98
   3  -3  -8  162.08   26.10
   3  -3   8  148.39   14.50
  -3  -4   8  462.65   39.50
   3  -4  -8  484.95   50.09
   3  -4   8  454.75   40.10
  -3  -4  -8  437.56   46.40
  -3  -5   8   78.99   10.60
   3  -5  -8   85.79   22.60
  -3  -5  -8   83.79   19.20
   3  -5   8   93.49   11.90
  -3  -6   8  104.09   12.20
   3  -6  -8  101.59   22.00
   3  -6   8   63.49   11.50
  -3  -6  -8   80.59   19.50
   3  -7  -8    0.40   17.30
  -3  -7   8   13.70    7.00
  -3  -7  -8   13.60   17.00
   3  -7   8   -5.20    8.20
   4   0   8  544.55   45.50
  -4   0   8  543.85   50.19
  -4   0  -8  435.56   44.60
   4   1   8   -1.90    4.00
  -4   1  -8   -1.10    3.80
  -4  -1  -8   -1.40    4.60
  -4   1   8   -0.10   11.30
   4  -1   8    0.00    4.90
   4  -2  -8  911.41   83.39
   4  -3  -8   18.30   17.50
   4  -3   8    3.10    4.40
   4  -4  -8   68.49   21.20
  -4  -4   8   56.79    6.90
   4  -4   8   37.00    7.70
   4  -5  -8   14.30   18.40
  -4  -5   8   17.60    5.50
  -4  -5  -8   28.80   15.10
   4  -5   8   18.80    7.40
  -4  -6   8   37.00    7.50
   4  -6  -8   54.39   19.50
   4  -6   8   18.30    8.60
  -4  -6  -8   37.90   15.50
   4  -7  -8   15.20   18.30
  -4  -7   8   -4.70    6.70
   4  -7   8    4.20    9.40
  -4  -7  -8  -31.70   14.40
  -5   0   8 1491.85  128.59
   5   0   8 1571.24  124.49
  -5   0  -8 1298.67  123.19
  -5  -1   8   89.99   16.50
   5   1   8   81.79   10.90
  -5   1  -8   70.59   10.60
  -5  -1  -8   73.19   10.60
  -5   1   8   68.99   18.60
   5  -1   8   78.09   12.40
   5  -2  -8  100.19   20.10
   5  -2   8   63.59    8.60
   5  -3  -8   54.69   19.90
   5  -3   8   56.49    7.90
  -5  -4   8  355.76   30.50
   5  -4  -8  352.46   42.70
   5  -4   8  339.37   31.90
  -5  -5   8   24.80    5.90
   5  -5  -8   17.30   19.20
   5  -5   8   19.60    8.00
  -5  -6   8   -0.40    5.90
   5  -6  -8   31.40   19.40
   5  -6   8    5.90    7.80
  -5  -6  -8   -0.20   13.80
   5  -7  -8   20.50   18.80
  -5  -7   8    5.50    8.00
  -5  -7  -8    1.00   15.50
   5  -7   8   16.10    9.80
  -6   0   8   13.30   12.30
   6   0   8   18.20    6.80
  -6   0  -8   16.40    5.80
  -6   1  -8   45.60    9.60
  -6  -1   8   60.89   14.10
   6   1   8   59.19   10.60
   6  -1   8   59.49   12.50
  -6  -1  -8   48.90    9.10
  -6   1   8   58.69   19.00
   6  -2  -8   37.60   17.00
   6  -2   8   36.20    6.60
   6  -3  -8   27.20   19.30
   6  -3   8   33.50    6.80
  -6  -4   8   13.70    4.40
   6  -4  -8   -3.20   17.30
   6  -4   8    4.80    7.00
  -6  -5   8   29.20    6.40
   6  -5  -8    8.90   19.30
   6  -5   8   14.50    8.20
  -6  -6   8    5.50    6.80
   6  -6  -8   16.70   18.10
   6  -6   8    4.90    8.60
  -7   0   8  790.62   72.19
  -7   0  -8  658.73   64.09
  -7   0   8  732.43   68.49
   7   0   8  782.42   66.69
   7  -1   8  161.58   15.80
   7  -2  -8   47.90   17.70
   7  -2   8   72.39    9.80
  -7  -3   8  106.99   10.70
   7  -3  -8  102.49   24.30
   7  -3   8  103.19   13.70
   7  -4  -8  174.58   28.90
  -7  -4   8  161.98   16.00
   7  -4   8  173.18   19.40
   7  -5  -8   38.50   19.90
  -7  -5   8   29.90    6.90
   7  -5   8   14.70    8.90
  -7  -6   8   10.90    8.00
   8   0   8  164.48   15.90
   8  -1   8    5.90    4.60
   8  -2   8   87.79   12.00
   8  -3  -8   13.60   18.20
  -8  -3   8    6.90    4.60
   8  -3   8    4.50    6.90
   8  -4  -8   17.30   20.80
  -8  -4   8   21.50    5.50
   8  -4   8    7.10    8.30
   8  -5  -8    6.00   20.00
  -8  -5   8    8.80    6.90
   8  -5   8    7.50    9.40
   9   0   8   38.50    6.50
   9   1   8   28.20    5.50
   9  -1   8   26.80    6.70
  -9  -2   8   12.20    3.60
   9  -2   8   27.60    7.50
   9  -3  -8   17.70   20.20
   9  -3   8   10.80    8.30
   9  -4  -8   42.30   21.40
   9  -4   8   11.80    9.50
  10   0   8    8.90    6.10
  10  -1   8   21.40    7.60
  10  -2   8    6.30    8.20
  10  -3  -8   14.30   19.60
  10  -3   8   18.50    9.60
 -11   0   8    2.00   19.60
  11   0   8   -2.50   13.10
 -11   0   8   -3.30   12.70
 -11   0  -8   12.80    8.10
  11  -1   8   31.50    9.50
   0   0  -9    2.90    7.10
   0   0   9    0.30    5.60
   0   1   9  931.71   83.79
   0  -1   9 1064.49   83.19
   0  -1  -9  862.81   84.19
   0   1  -9  921.31   83.49
   0  -2   9   -3.10    4.70
   0   2   9   12.00    8.20
   0   2  -9   -4.30    6.00
   0  -3  -9  346.47   40.90
   0  -4  -9   -9.50   16.00
   0  -4   9   -2.80    3.70
   0  -5   9   67.19    9.30
   0  -5  -9   73.79   22.00
   0  -6   9    5.90    5.90
   0  -6  -9  -18.80   16.50
   0  -7   9   11.30    7.40
   0  -7  -9   27.70   19.10
   0  -8  -9   21.00   19.60
   0  -8   9   -5.70    8.20
  -1   0   9   24.30    9.30
   1   0  -9   36.70   12.00
   1   0   9   48.30    9.90
  -1   1  -9  674.33   65.39
  -1  -1   9  792.12   66.29
   1   1   9  747.63   66.09
   1  -1   9  786.92   65.49
   1   1  -9  752.22   67.59
  -1   1   9  708.23   67.29
  -1  -1  -9  707.43   66.49
   1   2   9    3.90    6.70
  -1   2  -9    3.40    5.60
  -1  -2   9    1.30    5.40
  -1   2   9   -1.40    8.60
   1  -2   9    5.40    5.10
   1   2  -9   -1.80    6.90
   1  -3  -9  604.04   58.59
  -1  -3  -9  559.54   57.09
  -1  -4   9   22.90    4.70
   1  -4  -9    0.50   17.60
   1  -4   9   13.40    4.60
  -1  -4  -9    9.80   16.50
  -1  -5   9   84.39   10.70
   1  -5  -9   60.29   21.00
  -1  -5  -9   79.49   21.50
   1  -5   9   90.39   11.20
   1  -6  -9  -18.80   16.30
  -1  -6   9   11.70    6.40
   1  -6   9   -0.60    6.00
  -1  -6  -9  -24.00   15.70
  -1  -7   9   64.19   10.70
   1  -7  -9   38.10   22.00
  -1  -7  -9   62.29   20.00
   1  -7   9   39.70   10.20
   1  -8  -9   -6.30   18.40
  -1  -8   9   -3.30    7.70
  -1  -8  -9   20.80   18.50
   1  -8   9   -7.00    8.30
   2   0   9  380.06   34.10
  -2   0  -9  316.87   34.00
  -2   0   9  366.86   36.60
   2   0  -9  374.16   39.40
   2   1   9 3210.38  260.47
  -2   1  -9 2628.74  259.67
  -2  -1   9 3377.26  261.77
   2   1  -9 3313.57  263.77
  -2  -1  -9 2906.51  260.47
  -2   1   9 2850.31  262.47
   2  -1   9 3324.77  260.37
   2   2   9  507.65   46.70
  -2   2  -9  445.26   45.80
  -2  -2   9  579.84   47.00
  -2   2   9  451.75   50.19
   2  -2   9  530.05   46.40
   2   2  -9  534.95   49.50
   2  -3  -9 1197.08  108.19
   2  -4  -9  197.68   29.80
  -2  -4   9  205.98   18.20
   2  -4   9  192.58   18.80
  -2  -4  -9  173.68   26.60
   2  -5  -9  146.39   27.80
  -2  -5   9  191.18   18.20
  -2  -5  -9  174.08   28.30
   2  -5   9  195.08   18.90
  -2  -6   9   65.09    9.50
   2  -6  -9   31.90   19.20
  -2  -6  -9   51.19   19.10
   2  -6   9   36.20    9.20
   2  -7  -9   -0.40   19.20
  -2  -7   9   16.40    7.80
  -2  -7  -9   19.10   18.20
   2  -7   9   10.40    8.00
  -3   0  -9   34.40    8.40
   3   0   9   33.30    7.90
  -3   0   9   23.60   10.70
   3   0  -9   21.10   12.80
   3   1   9  270.17   24.50
  -3  -1   9  266.47   27.40
  -3   1  -9  203.08   23.70
  -3  -1  -9  216.28   24.30
   3  -1   9  260.97   24.60
  -3   1   9  216.48   29.20
   3   1  -9  257.67   31.00
  -3   2  -9   29.50    7.60
   3   2   9   40.20    9.40
  -3  -2   9   33.80    8.70
   3   2  -9   24.90   12.50
   3  -2   9   31.00    8.30
   3  -3  -9  171.18   27.70
   3  -3   9  177.58   16.80
   3  -4  -9   46.40   21.30
  -3  -4   9   18.60    4.60
   3  -4   9   18.80    5.90
  -3  -5   9   69.69    8.80
   3  -5  -9   39.30   19.60
  -3  -5  -9   58.59   18.70
   3  -5   9   53.09    9.70
  -3  -6   9   -6.80    5.50
   3  -6  -9  -10.20   16.80
   3  -6   9   -5.30    6.70
  -3  -6  -9   10.40   15.00
   3  -7  -9   58.89   33.10
  -3  -7   9   21.60    7.90
   3  -7   9   22.20   15.60
  -3  -7  -9   31.60   17.00
  -4   0  -9  796.52   77.89
  -4   0   9  932.61   82.79
   4   0   9  979.00   78.79
   4   1   9  530.75   44.40
  -4   1  -9  421.86   43.90
  -4  -1  -9  437.06   44.00
  -4   1   9  447.06   49.60
   4   1  -9  600.34   53.39
   4  -1   9  528.65   45.20
   4  -2  -9    8.70   15.80
   4  -3  -9  235.68   33.60
   4  -3   9  227.58   21.40
  -4  -4   9  240.78   22.00
   4  -4  -9  270.07   36.20
   4  -4   9  243.58   23.00
   4  -5  -9   52.79   20.80
  -4  -5   9   51.59    8.10
   4  -5   9   54.69    9.90
  -4  -6   9   16.30    6.60
   4  -6  -9   -4.90   19.40
   4  -6   9    5.40    7.70
  -4  -6  -9    9.20   15.20
   4  -7  -9   24.40   21.50
  -4  -7   9   -0.50    7.40
  -4  -7  -9   15.30   17.20
   4  -7   9   -4.10    8.30
   5   0   9  735.43   60.39
  -5   0   9  711.93   65.29
  -5   0  -9  584.14   58.99
  -5  -1   9  270.57   29.10
   5   1   9  266.97   24.10
  -5   1  -9  214.88   23.60
   5  -1   9  231.38   24.80
  -5  -1  -9  211.68   23.20
   5  -2  -9  216.48   29.90
   5  -3  -9  154.48   27.20
   5  -3   9  136.69   15.00
  -5  -4   9  146.59   15.30
   5  -4  -9  180.28   28.80
   5  -4   9  181.08   17.50
  -5  -5   9   69.49    9.30
   5  -5  -9   43.70   22.00
   5  -5   9   74.19   12.00
  -5  -6   9    6.60    6.30
   5  -6  -9  -35.60   17.20
   5  -6   9   17.60    8.90
   5  -7  -9   -5.80   19.80
  -5  -7   9    6.80    7.70
  -5  -7  -9   17.50   17.10
   5  -7   9   -0.80    9.80
  -6   0   9    4.90   12.70
   6   0   9   14.10    7.40
  -6   0  -9   12.00    5.60
  -6   1  -9  495.65   49.50
  -6  -1   9  627.84   55.19
   6   1   9  610.94   50.59
  -6   1   9  531.15   57.49
   6  -1   9  580.94   51.89
  -6  -1  -9  494.95   48.90
   6  -2   9   14.10    5.40
   6  -3  -9  228.28   33.00
   6  -3   9  239.48   22.80
   6  -4  -9   18.80   19.90
  -6  -4   9   16.60    4.70
   6  -4   9   15.60    7.70
  -6  -5   9   48.00    7.90
   6  -5  -9   16.40   20.60
   6  -5   9   39.60    9.60
  -6  -6   9    0.30    6.80
   6  -6  -9   -1.00   20.50
   6  -6   9   13.40   10.90
  -7   0   9    4.30   13.60
  -7   0  -9    2.30    4.90
   7   0   9    7.20    7.50
   7  -1   9    8.50    4.90
   7  -2   9    3.10    4.80
   7  -3  -9   32.70   18.70
   7  -3   9    6.50    6.20
   7  -4  -9  -11.70   18.60
  -7  -4   9   13.70    5.10
   7  -4   9   18.30    8.20
   7  -5  -9   49.20   22.10
  -7  -5   9   11.10    6.50
   7  -5   9    2.70    8.50
  -7  -6   9    1.20    7.70
   7  -6  -9   11.60   20.30
   7  -6   9    4.90   10.30
   8   0   9   15.50    5.10
   8  -1   9   20.50    5.90
   8  -2   9  140.89   15.80
   8  -3  -9   24.00   18.40
  -8  -3   9   17.40    4.80
   8  -3   9   26.10    7.90
   8  -4  -9   25.00   20.80
  -8  -4   9    7.40    5.40
   8  -4   9   -0.40    8.00
   8  -5  -9  -13.80   21.50
  -8  -5   9  -13.40    6.70
   8  -5   9   -1.20    9.40
   9   0   9   76.79   10.30
   9   1   9   -3.30    4.70
   9  -1   9   -8.90    5.50
   9  -2   9   62.09   10.40
   9  -3  -9    0.40   19.40
   9  -3   9   15.10    8.00
   9  -4  -9   30.60   21.00
   9  -4   9   21.10   10.00
  10   0   9  -12.70    6.00
  10   1   9   22.70    6.30
  10  -1   9   30.20    8.20
  10  -2   9    8.30    8.80
  10  -3   9   -4.20    9.40
   0   0  10    8.20    6.90
   0  -1 -10   -0.30    8.50
   0   1  10    0.20    7.30
   0  -1  10   -1.90    5.40
   0   1 -10    2.30    7.80
   0   2  10 1088.69  101.49
   0  -2  10 1294.37  100.19
   0   2 -10 1065.69  100.39
   0  -3  10   -0.90    4.90
   0   3  10    1.20    9.10
   0   3 -10    0.00    6.20
   0  -4 -10   17.20   17.80
   0  -4  10    8.90    4.40
   0  -5  10    2.20    4.90
   0  -5 -10    1.00   18.60
   0  -6  10  206.48   21.40
   0  -6 -10  226.38   33.00
   0  -7 -10   -6.70   19.70
   0  -7  10    6.80    7.00
   1   0  10  531.35   46.40
  -1   0  10  510.65   47.80
  -1   0 -10  458.15   46.70
   1   0 -10  490.55   49.30
  -1   1 -10  272.27   30.90
   1   1  10  318.27   31.40
  -1  -1  10  323.37   31.40
  -1  -1 -10  281.17   32.10
  -1   1  10  288.57   32.90
   1  -1  10  337.97   30.60
   1   1 -10  320.77   33.70
  -1  -2  10 1860.01  140.29
  -1   2 -10 1439.76  139.39
   1   2  10 1587.84  140.59
   1   2 -10 1598.84  141.29
  -1   2  10 1446.36  141.59
   1  -2  10 1847.92  140.09
   1  -3 -10   18.20   19.70
   1  -4 -10   26.90   20.10
  -1  -4  10   41.90    6.30
  -1  -4 -10   31.20   17.70
   1  -4  10   30.50    6.40
   1  -5 -10    7.70   20.30
  -1  -5  10    8.70    5.30
  -1  -5 -10    1.20   16.40
   1  -5  10   14.60    5.50
  -1  -6  10  118.89   14.00
   1  -6 -10   97.89   26.00
   1  -6  10  103.19   14.50
  -1  -6 -10  109.99   25.40
   1  -7 -10  -20.70   22.50
  -1  -7  10  -10.00    6.60
   1  -7  10    7.40    8.30
  -1  -7 -10    1.00   18.30
  -2   0  10    4.20    8.40
   2   0  10    3.40    5.50
  -2   0 -10   -1.20    6.40
   2   0 -10    2.00   11.10
   2   1  10  224.28   23.20
  -2  -1  10  236.28   24.80
  -2   1 -10  184.88   22.60
  -2  -1 -10  188.88   23.70
   2   1 -10  222.38   28.30
   2  -1  10  227.68   22.90
  -2   1  10  204.68   26.60
  -2  -2  10  491.95   42.50
   2   2  10  434.96   42.30
   2  -2  10  474.55   42.00
  -2   2  10  369.46   45.00
   2   2 -10  460.25   45.40
   2  -3 -10   52.89   20.90
   2  -4 -10   55.59   24.00
  -2  -4  10   60.29    7.90
   2  -4  10   56.49    8.20
   2  -5 -10   -2.00   18.70
  -2  -5  10   33.70    6.80
  -2  -5 -10   20.50   17.90
   2  -5  10   30.70    7.10
  -2  -6  10  143.79   15.50
   2  -6 -10  118.89   27.80
   2  -6  10  116.49   16.40
  -2  -6 -10  174.68   27.70
  -2  -7  10    6.60    7.30
   2  -7 -10   29.80   23.00
   2  -7  10   11.80   13.70
  -2  -7 -10  -20.80   17.10
  -3   0 -10  520.05   54.09
  -3   0  10  602.74   57.99
   3   0  10  677.63   54.79
   3   0 -10  618.24   61.29
  -3   1 -10  273.57   30.80
  -3  -1  10  346.57   34.00
   3   1  10  351.96   31.50
   3   1 -10  347.67   38.20
  -3  -1 -10  276.07   31.40
   3  -1  10  369.96   31.90
  -3   1  10  292.77   35.80
  -3   2 -10  237.58   27.70
   3   2  10  280.17   28.00
  -3  -2  10  337.67   29.80
   3  -2  10  301.27   28.90
   3   2 -10  291.17   34.20
  -3   2  10  251.37   33.90
   3  -3 -10  178.28   29.40
   3  -4 -10  122.59   27.20
  -3  -4  10  122.39   12.60
   3  -4  10  118.19   13.60
  -3  -5  10   27.70    6.10
   3  -5 -10   51.19   21.70
  -3  -5 -10   13.80   16.20
   3  -5  10    5.50    6.40
   3  -6 -10    0.10   20.10
  -3  -6  10   14.50    6.80
   3  -6  10   15.70    8.30
  -3  -6 -10   13.10   16.90
  -3  -7  10   10.70    7.50
   3  -7 -10   19.70   21.40
  -3  -7 -10   22.10   19.80
   3  -7  10    1.90    8.20
  -4   0 -10  276.07   30.80
   4   0  10  334.97   31.50
  -4   0  10  369.36   37.20
  -4  -1  10   67.59   14.40
  -4   1 -10   35.70    8.60
   4   1  10   46.40    9.80
  -4   1  10   37.40   14.40
   4  -1  10   50.69   11.10
  -4  -1 -10   38.10    9.30
   4   1 -10   41.70   16.70
   4   2  10  114.59   14.10
  -4  -2  10  115.69   16.40
  -4   2 -10   94.99   14.50
   4   2 -10  116.09   23.80
  -4   2  10  102.79   23.40
   4  -2  10  116.89   16.10
   4  -3 -10   23.10   20.80
   4  -3  10   30.00    6.20
  -4  -4  10  147.39   14.50
   4  -4 -10  134.89   27.90
   4  -4  10  145.09   16.00
   4  -5 -10   34.60   20.10
  -4  -5  10   25.50    6.10
   4  -5  10   16.10    8.00
   4  -6 -10   33.50   23.30
  -4  -6  10   37.30    8.20
  -4  -6 -10   31.40   17.00
   4  -6  10   39.10   10.20
  -4  -7  10   13.70    8.10
   4  -7 -10   10.10   22.10
   4  -7  10    5.70    9.20
  -4  -7 -10   37.90   19.10
  -5   0 -10  475.55   48.60
  -5   0  10  551.04   54.79
   5   0  10  603.04   49.99
  -5   1 -10   31.40    8.60
   5   1  10   47.90    9.40
  -5  -1  10   37.90   13.10
  -5   1  10   54.29   16.20
  -5  -1 -10   27.50    8.00
   5  -1  10   47.10   10.50
  -5   2 -10    8.90    6.50
  -5  -2  10   15.60    8.70
   5   2  10    7.70    5.50
   5   2 -10    4.90   14.60
  -5   2  10    8.10   15.90
   5  -2  10   18.20   12.00
   5  -3 -10   25.30   19.50
   5  -3  10    4.80    5.30
  -5  -4  10  118.19   12.80
   5  -4 -10  116.79   27.70
   5  -4  10  125.39   14.80
  -5  -5  10   -3.30    4.90
   5  -5 -10   13.30   21.10
   5  -5  10    7.40    7.70
   5  -6 -10  -25.50   21.90
  -5  -6  10    0.50    6.30
   5  -6  10    4.40    9.20
  -6   0  10   12.50   13.60
   6   0  10    9.70    7.50
  -6   0 -10    8.20    6.00
  -6   1 -10  103.29   15.20
   6   1  10  119.89   15.80
  -6  -1  10  123.09   21.80
   6  -1  10  113.29   18.50
  -6  -1 -10  102.09   14.30
  -6   1  10  111.49   25.80
   6  -2  10   37.40    7.20
   6  -3 -10   80.49   23.70
   6  -3  10   90.89   11.70
   6  -4 -10   77.99   23.30
  -6  -4  10   54.89    7.40
   6  -4  10   37.10    9.10
   6  -5 -10   32.40   22.40
  -6  -5  10   26.30    6.80
   6  -5  10    9.80    9.20
  -6  -6  10   13.80    7.40
   6  -6 -10   -7.30   21.10
   6  -6  10   -3.60    9.10
  -7   0  10  304.27   37.20
  -7   0 -10  224.58   25.90
   7   0  10  286.87   29.20
  -7   1 -10   25.30    8.30
  -7  -1  10   35.50   14.20
   7   1  10   38.60   10.00
  -7   1  10   39.90   17.70
  -7  -1 -10   33.40    7.90
   7  -1  10   39.00   11.30
   7  -2  10   46.60    8.20
   7  -3 -10  -16.00   17.90
   7  -3  10   17.70    7.00
  -7  -4  10   59.19    7.90
   7  -4 -10   63.89   23.80
   7  -4  10   44.00   10.10
   7  -5 -10    5.60   22.50
  -7  -5  10   -0.60    6.10
   7  -5  10   -6.10    9.00
  -8   0  10   56.69   19.50
  -8   0  10   44.70   14.90
   8   0  10   42.10   12.40
  -8   0 -10   33.90    9.00
   8  -1  10   73.19   10.00
   8  -2  10    0.50    6.10
  -8  -3  10   65.29    8.20
   8  -3  10   51.89   10.50
  -8  -4  10   15.20    6.40
   8  -4 -10   32.80   21.50
   8  -4  10   14.20    9.20
  -8  -5  10   30.40    8.00
   8  -5 -10   28.20   24.30
   8  -5  10   20.20   11.50
   9   0  10    3.10    5.50
   9  -1  10    1.50    5.80
   9  -2  10   -6.40    6.60
  -9  -3  10    6.30    5.00
   9  -3  10   -5.40    7.80
   9  -4 -10  -17.90   22.40
   9  -4  10  -19.10    9.40
  10   0  10   27.90    7.50
  10   1  10   11.50    5.50
  10  -1  10    9.00    8.40
  10   2  10    4.00    5.90
  10  -2  10    4.80    9.00
   0   0 -11   -4.90    8.00
   0   0  11    2.80    6.90
   0  -1 -11   36.80   12.80
   0   1 -11   35.30   11.50
   0  -1  11   43.20   10.80
   0   1  11   46.70   12.10
   0   2 -11   -1.70    7.20
   0  -2  11   -3.50    5.60
   0   2  11    7.70    9.20
   0  -3  11   23.00    7.80
   0   3  11   17.00   10.60
   0  -4 -11  -12.70   18.10
   0  -5  11    4.60    5.50
   0  -5 -11   -0.70   19.90
   0  -6 -11  -11.80   19.30
   0  -6  11    1.00    6.60
   0   7 -11   -0.30    9.40
   0  -7  11   -4.50    8.10
   1   0 -11  156.98   24.50
   1   0  11  188.48   20.60
  -1   0  11  171.38   21.90
  -1   0 -11  143.99   21.50
  -1  -1  11  206.18   23.20
   1   1  11  194.58   22.80
  -1   1 -11  186.98   23.20
   1   1 -11  176.28   25.40
   1  -1  11  202.88   22.00
  -1  -1 -11  181.58   24.20
  -1   1  11  194.78   25.10
   1   2  11   32.70   10.50
  -1   2 -11   19.20    8.10
  -1  -2  11   33.50    9.30
   1   2 -11   23.10   10.30
  -1   2  11   18.10   11.50
   1  -2  11   27.30    8.40
  -1  -3  11  253.87   24.40
  -1   3 -11  191.28   24.60
   1   3  11  212.58   26.50
   1  -3  11  262.77   25.10
  -1   3  11  214.68   28.90
   1  -4 -11   47.90   21.70
   1  -4  11   47.60    7.40
  -1  -5  11  156.28   17.10
   1  -5 -11  181.98   31.50
  -1  -5 -11  166.08   27.80
   1  -5  11  180.58   17.60
  -1  -6  11   -1.30    6.30
   1  -6 -11   20.80   21.30
  -1  -6 -11   13.30   19.30
   1  -6  11   12.20    6.70
   1  -7 -11   20.20   23.00
  -1  -7  11   55.39   10.60
  -1  -7 -11   62.59   25.00
   1  -7  11   40.30   10.60
   2   0 -11   46.40   15.60
  -2   0  11   43.50   12.80
  -2   0 -11   51.29   11.50
   2   0  11   50.59   11.40
  -2  -1  11 1058.49   85.89
   2   1  11  988.10   84.29
  -2   1 -11  873.01   84.19
  -2  -1 -11  872.41   84.59
  -2   1  11  873.51   86.59
   2  -1  11 1059.69   84.49
   2   1 -11  956.40   88.29
   2   2  11    6.50    7.10
  -2   2 -11    1.30    5.90
  -2  -2  11   12.60    7.40
   2  -2  11    4.90    6.30
  -2   2  11    4.10   10.70
   2   2 -11    1.70    9.90
  -2   3 -11  257.47   28.30
  -2  -3  11  295.77   28.00
   2   3  11  256.07   29.00
   2   3 -11  226.58   39.20
   2  -3  11  318.47   29.50
  -2   3  11  271.67   34.10
   2  -4 -11   20.30   22.20
   2  -4  11   18.40    5.80
  -2  -5  11   66.99    9.30
   2  -5 -11   49.00   23.60
  -2  -5 -11   47.10   21.60
   2  -5  11   67.39    9.50
   2  -6 -11   -2.70   21.30
  -2  -6  11   -5.00    6.20
   2  -6  11   -2.20    7.20
  -2  -6 -11    4.40   17.50
  -2  -7  11    9.30    7.70
   2  -7 -11   44.00   23.10
   2  -7  11   -9.60    8.00
  -2  -7 -11    1.50   19.30
   3   0  11  657.03   55.49
  -3   0  11  621.14   58.89
   3   0 -11  630.24   62.59
  -3   0 -11  529.75   55.09
  -3   1 -11  119.39   16.60
   3   1  11  131.29   16.50
  -3  -1  11  122.39   19.50
  -3  -1 -11  115.49   17.20
   3  -1  11  153.18   17.10
   3   1 -11  124.69   25.50
  -3   1  11  128.79   22.60
   3   2  11   10.80    6.50
  -3  -2  11   10.60    7.90
  -3   2 -11    9.20    7.00
   3   2 -11   14.80   12.30
  -3   2  11   -2.40   11.40
   3  -2  11   11.10    6.90
   3  -3 -11  155.58   28.10
   3  -4 -11  336.57   45.10
   3  -4  11  313.57   29.00
   3  -5 -11  115.29   27.10
  -3  -5  11  129.79   14.10
   3  -5  11  129.79   15.50
   3  -6 -11   -1.90   22.60
  -3  -6  11  -11.20    5.70
  -3  -6 -11   -1.00   17.40
   3  -6  11    8.20    8.10
  -3  -7  11   13.50    8.40
   3  -7 -11   28.60   24.70
  -3  -7 -11   25.50   20.00
   3  -7  11   28.70    9.90
  -4   0  11   10.30   12.00
  -4   0 -11    2.50    6.00
   4   0  11    1.00    5.80
  -4  -1  11   19.20   10.70
   4   1  11   13.90    6.70
   4  -1  11   13.90    7.30
  -4  -1 -11    8.00    7.20
   4   1 -11   23.70   16.30
  -4   1  11   12.60   13.40
  -4   2 -11    3.70    6.30
   4   2  11    6.80    5.70
  -4  -2  11    2.30    7.20
   4   2 -11    6.20   13.20
   4  -2  11    0.80   10.10
  -4   2  11    0.50   13.80
   4  -3 -11    2.90   20.80
   4  -4 -11   43.20   22.10
   4  -5 -11   15.20   23.10
  -4  -5  11    0.60    4.90
   4  -5  11   -3.40    6.80
  -4  -6  11    2.80    6.20
   4  -6 -11    5.70   22.30
   4  -6  11    5.00    8.30
  -4  -7  11    0.40    7.70
   4  -7 -11   -5.00   23.80
   4  -7  11    1.70    9.10
  -5   0  11  351.26   40.50
   5   0  11  398.06   34.90
  -5   0 -11  304.27   33.70
  -5  -1  11   13.50   11.20
   5   1  11   10.90    6.70
  -5   1 -11   11.70    7.30
   5  -1  11   14.10    9.70
  -5  -1 -11   11.20    7.10
  -5   1  11   24.50   14.30
   5   1 -11   20.50   16.70
   5   2  11   35.70    8.50
  -5   2 -11   43.00   10.40
  -5  -2  11   42.00   11.70
   5  -2  11   35.10   11.30
   5   2 -11   44.90   19.20
  -5   2  11   47.70   18.00
   5  -3 -11   -7.40   18.20
   5  -3  11    8.90    5.80
  -5  -4  11  109.49   13.10
   5  -4 -11  134.69   30.00
   5  -4  11  139.19   15.10
   5  -5 -11   23.40   22.40
  -5  -5  11   31.80    6.90
   5  -5  11   17.20    8.50
   5  -6 -11  -27.80   22.60
  -5  -6  11    9.60    7.00
   5  -6  11   -1.40    8.50
  -6   0 -11   -4.00    5.90
  -6   0  11    0.00   13.40
  -6  -1  11   72.09   17.50
   6   1  11   70.99   13.10
  -6   1 -11   43.90   11.70
  -6  -1 -11   53.89   11.80
  -6   1  11   67.39   20.00
   6  -1  11   62.99   14.80
  -6  -2  11   22.60   10.90
  -6   2 -11   26.70    8.90
   6   2  11   26.90    7.90
  -6   2  11    9.00   15.40
   6  -2  11   23.30   10.30
   6   2 -11    8.90   17.30
   6  -3  11   45.80    8.80
   6  -4 -11   46.40   21.80
  -6  -4  11    2.30    4.90
   6  -4  11    1.00    6.70
  -6  -5  11    1.60    6.00
   6  -5 -11   -7.20   21.50
   6  -5  11    2.00    8.40
   6  -6 -11   33.70   23.50
  -6  -6  11   19.50    8.10
   6  -6  11    1.30    9.20
  -7   0  11   56.79   19.20
   7   0  11   60.99   14.50
  -7   0 -11   50.79   12.10
  -7   1 -11    2.20    6.80
  -7  -1  11   12.00   13.30
   7   1  11    1.60    7.70
  -7   1  11   18.20   16.20
   7  -1  11    7.60    9.30
  -7  -1 -11    6.80    6.40
   7  -2  11  142.29   15.90
   7  -3  11    5.10    6.80
  -7  -4  11   31.70    6.70
   7  -4 -11   33.00   23.30
   7  -4  11   16.70    8.80
   7  -5 -11    0.90   22.40
  -7  -5  11    9.70    7.00
   7  -5  11    6.50    9.90
  -8   0 -11    3.20    6.60
   8   0  11    7.10   10.00
  -8   0  11   -0.80   15.70
   8  -1  11    1.60    6.00
   8  -2  11   29.70    7.80
   8  -3  11   -9.60    6.90
  -8  -4  11   -4.00    5.90
   8  -4 -11    4.60   22.00
   8  -4  11   -8.30    9.10
   9   0  11   38.40    8.10
   9  -1  11   13.70    6.80
   9  -2  11   89.19   12.70
  -9  -3  11  -12.90    5.10
   9  -3  11    8.00    9.40
  10   0  11   10.00    7.20
  10   1  11   -1.10    6.60
  10  -1  11    0.00    8.20
   0   0 -12   -2.40    9.00
   0   0  12   14.60    8.40
   0  -1  12    1.40    6.50
   0   1 -12   -2.50    9.10
   0   1  12    4.50    8.40
   0  -1 -12   -1.00    9.50
   0   2  12  553.64   58.59
   0  -2  12  686.23   57.49
   0  -3  12   -2.60    6.40
   0   3 -12   -2.10    7.40
   0   3  12    5.60    9.60
   0   4  12   11.60   11.50
   0   4 -12    4.50    8.00
   0  -4  12    3.20    6.80
   0  -5 -12   -9.10   20.90
   0  -5  12    3.30    5.10
   0  -6 -12  217.48   35.00
   0  -6  12  190.78   20.70
   0  -7 -12   18.70   20.60
   0  -7  12    5.40    8.20
   1   0  12   57.69   13.50
   1   0 -12   79.49   18.80
  -1   0 -12   58.99   13.60
  -1   0  12   62.99   14.30
   1   1  12  125.89   18.20
  -1   1 -12  115.59   19.10
  -1  -1  12  137.49   18.60
  -1  -1 -12  105.09   19.70
   1  -1  12  137.19   17.50
  -1   1  12  113.69   20.40
   1   1 -12  103.59   21.60
  -1  -2  12    2.60    6.70
   1   2  12   -0.40    7.80
   1  -2  12    4.80    7.00
  -1   2  12    4.30   10.00
   1   2 -12    2.50   17.20
   1   3  12   34.20   11.70
  -1  -3  12   41.80    9.70
  -1   3 -12   35.20   10.50
  -1   3  12   34.40   13.80
   1  -3  12   37.60    9.80
   1   3 -12   23.60   11.10
   1  -4 -12    6.40   19.90
   1  -5 -12  -18.60   19.60
  -1  -5  12    7.00    5.30
  -1  -5 -12   16.80   20.10
   1  -5  12    6.70    5.30
  -1  -6  12   -4.00    5.90
   1  -6 -12  -12.50   22.50
  -1  -6 -12  -14.50   21.20
   1  -6  12    3.90    7.20
  -1  -7  12   -5.50    7.70
   1  -7 -12   25.60   23.30
   1  -7  12   -3.20    8.30
  -1  -7 -12  -18.00   19.70
   2   0 -12  108.79   24.20
  -2   0  12   97.89   18.80
  -2   0 -12   79.79   16.10
   2   0  12  103.89   15.30
   2   1  12    3.20    6.70
  -2  -1  12    6.40    8.70
  -2   1 -12    5.10    8.10
   2  -1  12    5.10    7.10
  -2  -1 -12   10.10    9.10
  -2   1  12   14.50   10.90
   2   1 -12    8.00   11.80
   2   2  12  428.76   44.00
  -2  -2  12  531.55   45.20
  -2   2 -12  395.86   43.80
   2  -2  12  520.25   44.70
   2   2 -12  471.15   48.60
  -2   2  12  430.26   47.80
   2   3  12    9.80    8.30
  -2   3 -12    6.10    7.50
  -2  -3  12   11.20    7.40
   2   3 -12    4.40   10.40
  -2   3  12    4.20   12.10
   2  -3  12    3.10    9.00
   2  -4 -12   88.69   27.00
   2  -4  12   93.79   12.10
  -2  -5  12    7.20    5.40
   2  -5 -12   -6.20   20.70
   2  -5  12   -1.00    6.10
   2  -6 -12  125.29   30.10
  -2  -6  12  123.69   15.70
  -2  -6 -12  111.49   28.10
   2  -6  12  139.99   17.10
   2  -7 -12    4.30   23.90
   2  -7  12   -8.50    8.60
  -2  -7 -12   22.60   31.50
   3   0 -12   15.40   19.70
  -3   0 -12   16.40    8.50
   3   0  12   28.20    8.90
  -3   0  12   25.60   12.10
  -3  -1  12  104.49   18.40
  -3   1 -12   70.39   15.40
   3   1  12   97.19   14.20
  -3   1  12   92.19   21.10
   3   1 -12   85.69   21.20
  -3  -1 -12   71.99   15.40
   3  -1  12   99.99   15.00
   3   2  12   41.30    9.90
  -3   2 -12   32.20    9.40
   3   2 -12   56.09   17.50
  -3   2  12   29.30   14.70
  -3   3 -12   52.09   11.90
   3   3  12   53.99   12.70
  -3  -3  12   55.09   12.50
   3  -3  12   52.19   12.10
  -3   3  12   59.39   18.20
   3   3 -12   37.20   15.80
   3  -4 -12   -5.30   21.10
   3  -4  12    3.30    5.80
   3  -5 -12   13.00   24.10
  -3  -5  12   -0.10    5.20
   3  -5  12    7.40    6.40
  -3  -6  12    1.40    6.40
   3  -6 -12  -14.70   27.50
   3  -6  12   -2.20    9.00
   3  -7 -12   -7.20   23.70
  -4   0  12   77.59   17.60
   4   0  12   68.19   13.20
  -4   0 -12   61.39   13.00
  -4   1 -12  264.17   31.80
  -4  -1  12  346.47   36.00
   4   1  12  347.67   32.30
   4   1 -12  358.26   43.40
   4  -1  12  385.76   34.60
  -4   1  12  260.17   42.30
  -4  -1 -12  283.27   32.10
  -4  -2  12    3.80    8.10
  -4   2 -12    9.10    7.70
   4   2  12   -3.00    5.40
   4   2 -12   -0.30   13.50
  -4   2  12    1.80   12.20
   4  -2  12    5.80    7.70
  -4  -3  12  175.18   20.90
  -4   3 -12  150.88   21.10
   4   3  12  160.48   19.90
  -4   3  12  168.88   31.10
   4   3 -12  199.28   30.60
   4  -3  12  192.48   23.70
   4  -4 -12  123.59   30.00
   4  -4  12  128.09   15.40
   4  -5 -12   43.20   25.20
  -4  -5  12   16.50    6.40
   4  -5  12   29.10    8.90
  -4  -6  12   13.30    7.60
   4  -6 -12   -0.10   23.30
   4  -6  12    8.40    8.90
  -5   0 -12   -0.60    6.70
   5   0  12   -2.00    6.70
  -5   0  12    5.20   13.40
  -5   1 -12   38.70   10.50
   5   1  12   57.49   12.10
  -5  -1 -12   45.60   10.50
   5  -1  12   54.19   12.70
  -5   1  12   61.19   18.80
  -5  -2  12   -4.20    8.20
  -5   2 -12   -1.90    6.70
   5   2  12   -0.10    5.60
  -5   2  12    2.90   13.10
   5   2 -12  -14.70   14.20
   5  -2  12    2.40    8.50
   5  -3  12   21.10    6.90
   5  -4 -12   38.40   23.50
   5  -5 -12    8.90   23.40
  -5  -5  12    6.30    5.60
   5  -5  12  -15.20    6.90
  -5  -6  12   -7.70    7.00
   5  -6 -12   31.30   24.80
   5  -6  12    0.00    9.20
  -6   0  12  155.58   28.00
   6   0  12  168.98   20.90
  -6   0 -12  127.99   19.00
  -6   1 -12   55.99   13.00
   6   1  12   73.39   17.10
  -6  -1  12   56.59   16.90
  -6   1  12   55.09   18.00
   6  -1  12   71.19   15.50
  -6  -1 -12   49.20   12.50
  -6   2 -12   -1.20    6.80
   6   2  12   -3.30    5.90
   6   2 -12  -15.10   16.60
  -6   2  12   16.60   15.50
   6  -2  12   -2.10    9.10
   6  -3  12   61.29   10.00
   6  -4 -12  143.99   31.10
  -6  -4  12  139.19   14.90
   6  -4  12  123.89   16.40
   6  -5 -12   23.70   23.50
  -6  -5  12   19.10    7.40
   6  -5  12   21.60   10.30
  -7   0  12    1.40   13.60
   7   0  12    1.70    8.20
  -7   0 -12    1.80    7.10
  -7   1 -12    6.40    7.40
  -7  -1  12    7.30   13.30
   7   1  12    3.40    8.20
   7  -1  12    8.30   10.60
  -7   1  12    0.10   16.20
  -7  -1 -12    1.30    6.70
   7  -2  12   -4.10    6.10
   7  -3  12   15.00    7.50
   7  -4 -12   13.90   22.10
  -7  -4  12   -0.70    5.80
   7  -4  12  -11.10    8.20
  -7  -5  12    1.20    7.50
   7  -5 -12    7.50   26.60
   7  -5  12   -1.00   10.20
   8   0  12    4.00   10.00
  -8   0  12   -0.90   15.20
  -8   0 -12    0.10    7.70
   8  -1  12  166.18   18.20
   8  -2  12   26.40    8.30
   8  -3  12   81.19   12.70
  -8  -4  12   18.30    7.10
   8  -4  12   17.00   10.50
   9   0  12   18.50    7.80
   9  -1  12   19.30    8.40
   9  -2  12   -9.20    7.50
  -9  -3  12    2.30    6.50
   9  -3  12    4.50    9.40
   0   0  13   -0.80    8.20
   0   0 -13    4.60   10.50
   0   1  13  497.35   48.50
   0  -1  13  531.75   47.50
   0  -1 -13  432.16   49.70
   0   2  13    7.80    9.80
   0  -2  13    2.40    7.20
   0   2 -13   -5.90    8.50
   0   3  13  130.09   23.20
   0   3 -13  136.39   21.40
   0  -3  13  165.78   23.20
   0  -4  13   -0.60    7.00
   0   4 -13   -0.90    8.70
   0   4  13   -4.70   11.10
   0  -5  13    1.50    5.70
   0  -6 -13  -23.40   22.00
   0  -6  13  -10.50    6.60
   0  -7 -13  -26.80   22.20
   0  -7  13   -2.90    8.20
   1   0  13   36.30   10.90
   1   0 -13   37.10   15.50
  -1   0 -13   33.20   12.10
   1   1  13  126.19   19.00
  -1   1 -13   92.79   25.90
  -1  -1  13  132.09   19.70
   1  -1  13  136.29   18.30
  -1  -1 -13  106.69   21.20
  -1   1  13  129.09   21.30
   1   1 -13  111.29   23.20
  -1  -2  13    8.00    8.20
   1   2  13    2.70    9.00
  -1   2 -13    3.30    8.40
   1   2 -13   -3.30    9.80
  -1   2  13   -2.50   10.30
   1  -2  13    2.90    9.50
  -1   3 -13   85.59   17.30
  -1  -3  13  119.19   25.00
   1   3  13   98.09   19.60
   1   3 -13  128.29   20.50
   1  -3  13  100.49   17.10
  -1   3  13   93.29   22.30
   1   4  13   19.30   11.90
  -1   4 -13    9.50    9.00
  -1  -4  13   13.80    8.10
   1  -4  13   21.20    9.30
   1   4 -13    7.10   10.40
  -1   4  13   16.50   13.50
   1  -5 -13   70.89   29.10
  -1  -5  13  102.39   13.00
   1  -5  13  117.79   13.70
  -1  -6  13    2.10    7.20
   1  -6 -13    0.00   24.10
   1  -6  13   -3.10    7.30
  -1  -6 -13   54.59   23.50
   1  -7 -13   39.70   25.30
  -1  -7 -13   28.00   23.70
  -2   0 -13  114.29   20.30
  -2   0  13  117.19   21.10
   2   0  13  136.89   18.20
   2   0 -13  125.69   26.10
  -2  -1  13   26.90   11.00
   2   1  13   24.10    9.60
   2   1 -13   24.60   14.30
  -2  -1 -13   18.00   10.30
   2  -1  13   26.90    9.80
  -2   1  13   25.90   12.50
   2   2  13    7.60    8.10
  -2  -2  13   11.10    8.50
  -2   2 -13    4.20    8.70
   2  -2  13    6.30    7.70
   2   2 -13   -1.90   10.90
  -2   2  13    0.00   13.70
  -2  -3  13   17.30    8.50
   2   3  13   12.50    9.60
  -2   3  13   10.70   13.30
   2  -3  13    9.20    8.90
   2   3 -13    6.50   11.40
   2   4  13   29.10   11.40
  -2   4  13   34.80   16.50
   2  -4  13   29.90   10.80
   2   4 -13   19.20   12.20
  -2  -5  13   10.80    5.70
   2  -5 -13   14.70   23.90
   2  -5  13   10.90    6.60
   2  -6 -13   33.60   39.70
   3   0  13  519.55   44.20
   3   0 -13  432.06   51.89
  -3   0 -13  403.76   44.20
   3   1  13  198.88   22.30
  -3  -1  13  200.28   28.20
  -3   1 -13  147.69   24.40
   3  -1  13  185.68   30.30
  -3  -1 -13  159.58   23.20
  -3   1  13  170.08   27.60
   3   1 -13  240.58   33.40
  -3  -2  13   60.09   14.00
  -3   2 -13   41.60   11.50
   3   2  13   46.60   11.10
   3  -2  13   49.70   12.10
  -3   2  13   44.90   16.60
   3   2 -13   67.49   19.40
   3   3  13  105.49   17.70
  -3  -3  13  147.09   18.90
  -3   3 -13  106.29   18.00
  -3   3  13  102.99   25.60
   3   3 -13  138.89   25.90
   3  -3  13  137.99   20.10
   3  -4  13  154.18   16.80
   3  -5 -13   85.89   27.00
  -3  -5  13   90.89   11.10
   3  -5  13   60.99   11.20
  -3  -6  13    4.40    6.80
   3  -6 -13   25.20   25.10
   3  -6  13    7.00    8.60
   4   0  13   63.39   19.70
  -4   0  13   73.69   18.70
  -4   0 -13   63.09   13.70
  -4   1 -13  138.19   21.30
  -4  -1  13  159.08   25.00
   4   1  13  171.08   20.30
   4  -1  13  204.58   22.20
  -4   1  13  173.78   28.10
   4   1 -13  170.08   32.30
  -4  -1 -13  140.29   21.00
  -4  -2  13    8.10   12.30
  -4   2 -13    7.90    8.30
   4   2  13    7.50    7.10
   4   2 -13    7.80   15.10
   4  -2  13   11.20    9.70
  -4   2  13    6.60   13.90
  -4   3 -13   41.30   12.20
  -4  -3  13   51.09   18.40
   4   3  13   43.80   10.70
   4   3 -13   59.49   20.20
  -4   3  13   43.00   17.70
   4  -3  13   55.49   13.60
   4  -4  13   38.50    8.60
  -4  -5  13   -0.30    5.70
   4  -5 -13   13.60   25.50
   4  -5  13   13.60    8.20
   4  -6 -13   48.80   27.30
  -5   0 -13   11.10    8.90
   5   0  13   25.00    9.20
  -5   0  13   24.00   14.60
  -5  -1  13    0.70   10.90
  -5   1 -13    2.30    7.70
  -5  -1 -13   -0.80    7.20
  -5   1  13    4.10   13.70
   5  -1  13    7.40    8.80
  -5  -2  13    8.70    9.80
  -5   2 -13   12.40    8.40
   5   2  13    9.40    7.20
   5  -2  13    3.50    9.20
   5   2 -13   13.90   19.10
  -5   2  13    6.80   14.00
   5  -3  13   15.40    6.90
   5  -4  13   10.20    7.60
   5  -5 -13   39.70   25.80
  -5  -5  13   26.50    7.10
   5  -5  13    9.80    8.80
   6   0  13   15.90    9.60
  -6   0  13    0.00   14.20
  -6   0 -13   14.70    8.70
  -6  -1  13    7.80   12.20
  -6   1 -13    7.60    8.00
   6   1  13    2.60    7.50
  -6  -1 -13    4.90    7.50
  -6   1  13   11.90   15.70
   6  -1  13    1.80    8.60
  -6   2 -13   -6.50    7.60
  -6  -2  13    0.00   10.30
  -6   2  13   -0.10   15.10
   6   2 -13   -8.90   17.70
   6  -2  13    3.90   10.10
   6  -3  13    1.70    7.20
   6  -4  13   14.60    8.50
  -6  -5  13   11.00    6.80
   6  -5 -13   47.00   26.10
   6  -5  13    0.60    9.40
  -7   0  13  114.39   26.90
  -7   0 -13   80.09   16.90
   7   0  13  106.99   19.00
  -7   1 -13   18.00    9.10
  -7  -1  13   27.30   15.60
   7   1  13   33.30   11.10
  -7   1  13   19.50   18.40
   7  -1  13   28.70   12.20
  -7  -1 -13   16.30    8.80
   7  -2  13  218.18   22.70
   7  -3  13   23.30    8.80
  -7  -4  13   25.00    7.90
   7  -4  13   43.10   10.70
  -8   0  13    6.20   16.80
   8   0  13    3.70   10.70
   8   1  13   47.20   13.10
  -8   1 -13   21.60   10.00
  -8  -1  13   14.90   15.40
  -8  -1 -13   25.50    9.30
  -8   1  13   14.50   19.50
   8  -1  13   43.10   14.40
   8  -2  13   14.00    8.20
   8  -3  13   12.40    9.20
  -9   0  13    5.00   15.00
  -9   0  13    2.00   18.20
   9   0  13    4.90   12.10
   9  -1  13   12.10    8.10
   9  -2  13   35.00   10.20
   0   0 -14   10.20   12.90
   0   0  14   20.80   14.50
   0   1  14    5.10   10.00
   0  -1 -14    2.10   12.00
   0  -1  14    1.30    8.90
   0   1 -14    0.00   10.50
   0  -2  14   75.99   15.90
   0   2 -14   70.49   17.30
   0   2  14   66.29   17.10
   0  -3  14    2.40    7.80
   0   4  14   30.30   14.60
   0   4 -14   24.50   11.60
   0  -4  14   33.00   11.10
   0  -5  14    9.90    6.30
   0   6  14   37.90   18.20
   0  -6  14   36.30   12.60
   0   6 -14   33.80   14.30
  -1   0 -14   69.79   20.60
  -1   0  14   68.19   19.70
   1   0  14   90.49   18.70
   1   0 -14   89.29   21.20
  -1  -1  14   -1.50    8.50
  -1   1 -14   -9.00    9.10
   1   1  14    3.10    8.60
   1   1 -14    0.40   12.50
  -1   1  14   -1.10   17.00
   1  -1  14   -1.30    7.10
  -1  -1 -14    3.30   10.80
  -1  -2  14  429.66   39.10
  -1   2 -14  326.47   39.20
   1   2  14  349.87   39.30
  -1   2  14  339.07   41.60
   1  -2  14  435.66   39.10
   1   2 -14  350.56   41.50
   1   3  14   -0.40    9.60
  -1  -3  14    1.30    7.60
  -1   3  14   -8.60   11.40
   1   3 -14   -2.70    9.90
   1  -3  14   -4.50    7.70
  -1  -4  14    3.60    8.00
   1   4  14    0.30   17.00
  -1   4  14    2.40   13.20
   1   4 -14    7.00   11.90
   1  -4  14    2.30    8.20
  -1  -5  14    4.60    6.30
   1  -5  14    5.80    6.20
   1  -6 -14   -1.60   23.80
  -1  -6  14    8.90    9.80
   1  -6  14   29.00    8.90
  -2   0  14  250.87   29.80
  -2   0 -14  195.48   27.90
   2   0 -14  220.68   34.30
  -2  -1  14   -7.60    9.50
   2   1  14    4.40    8.30
  -2   1 -14    3.20   10.10
  -2  -1 -14    6.20   10.60
  -2   1  14    6.00   11.50
   2  -1  14    3.80    8.30
   2   1 -14   -9.50   12.60
  -2   2 -14  158.28   24.50
  -2  -2  14  206.48   25.10
   2   2  14  176.88   23.80
   2   2 -14  210.58   30.60
  -2   2  14  175.18   29.60
   2  -2  14  232.28   24.80
   2   3  14    3.20    8.90
  -2  -3  14    6.90    8.60
  -2   3  14   -6.80   12.30
   2   3 -14    0.20   12.30
   2  -3  14    2.00    8.20
  -2  -4  14  110.99   17.90
   2   4  14  103.79   20.10
   2   4 -14  110.49   23.80
   2  -4  14  133.09   20.60
  -2   4  14  112.39   26.90
  -2  -5  14    7.70    6.10
   2  -5  14   -1.30    6.80
   2  -6 -14    1.10   23.60
  -2  -6  14   13.10    7.80
   2  -6  14   21.50    8.20
   3   0  14  112.09   17.60
   3   0 -14  105.79   24.80
  -3   0 -14  107.59   19.60
  -3   0  14  103.39   23.00
   3   1  14   -1.80    7.90
  -3   1 -14    6.80    9.60
  -3  -1  14   -3.50   10.50
   3  -1  14   -2.90    7.30
  -3   1  14    5.60   12.60
  -3  -1 -14    2.80    9.80
   3   2  14   79.29   15.30
  -3   2 -14   66.59   14.70
  -3  -2  14   78.59   17.60
   3  -2  14   87.29   16.90
  -3   2  14   60.99   18.80
   3   2 -14   69.39   19.60
   3   3  14    3.10    7.90
  -3   3 -14    1.20    9.60
  -3  -3  14   -2.10    7.60
   3  -3  14   -0.50    9.10
   3   3 -14    5.60   14.10
  -3   3  14   -1.70   13.40
   3  -4  14   30.80    8.30
  -3  -5  14    3.70    6.10
   3  -5  14   12.30    7.70
  -3  -6  14    2.50    7.50
   3  -6 -14   -7.60   25.50
   3  -6  14    4.40    8.30
   4   0  14   69.79   14.90
  -4   0 -14   52.19   13.10
  -4   0  14   64.29   18.10
   4   1  14   80.39   15.10
  -4  -1  14   92.89   20.90
  -4   1 -14   78.19   16.90
  -4  -1 -14   63.59   14.50
  -4   1  14   59.89   18.40
  -4   2 -14   23.60    9.80
  -4  -2  14   16.70   10.60
   4   2  14   10.50    8.00
   4  -2  14   23.20   11.30
   4   2 -14   20.70   17.30
  -4   2  14    8.50   15.20
   4   3  14   57.09   14.10
  -4  -3  14   68.09   15.70
   4   3 -14   70.69   22.20
  -4   3  14   64.19   21.10
   4  -3  14   65.19   15.10
   4  -4  14   70.79   11.40
  -4  -5  14   14.70    6.60
   4  -6 -14   -9.30   24.80
   5   0  14  220.18   25.70
  -5   0 -14  181.38   28.50
  -5   0  14  230.18   32.10
  -5  -1  14   28.30   13.90
  -5   1 -14   15.50    9.90
   5   1  14   17.00    8.60
  -5  -1 -14   15.10    9.30
  -5   1  14   -3.00   14.30
   5  -1  14   29.10   11.40
   5   2  14   17.90    8.70
  -5   2 -14   11.50    9.30
  -5  -2  14   22.90   11.80
   5   2 -14   22.90   19.70
  -5   2  14   28.50   17.10
   5  -2  14   22.60   12.20
  -5  -3  14   14.90    9.50
  -5   3 -14   -0.40    8.40
   5   3  14   13.40   12.10
   5   3 -14    7.40   18.50
  -5   3  14    8.50   16.90
   5  -3  14   16.00   13.00
   5  -4  14   35.20    9.80
   5  -5 -14   -7.50   22.80
  -5  -5  14    3.10    6.30
   5  -5  14   -0.20    8.80
   6   0  14  142.29   20.50
  -6   0  14  122.09   28.20
   6   1  14   26.30   10.30
  -6   1 -14   24.00   10.40
  -6  -1  14   28.80   15.20
  -6   1  14   19.00   17.50
  -6  -1 -14   30.70   10.20
   6  -1  14   40.00   13.20
  -6  -2  14   48.10   14.50
   6   2  14   51.59   11.80
   6  -2  14   54.59   15.60
  -6   2  14   49.20   20.90
   6   2 -14   28.60   22.40
   6  -3  14   46.30   10.20
   6  -4  14   59.59   11.90
  -6  -5  14   10.90    7.60
   6  -5  14   10.40   10.30
  -7   0 -14   57.39   14.70
  -7   0  14   66.09   21.30
   7   0  14   91.19   19.40
  -7   1 -14    4.30    8.80
  -7  -1  14   -0.90   13.70
   7   1  14  -10.10    8.50
  -7  -1 -14    4.10    8.50
   7  -1  14   -0.60   10.80
  -7   1  14    2.10   17.30
  -7   2 -14    2.50    9.50
   7   2  14    5.80    9.00
  -7  -2  14   18.90   13.20
   7  -2  14   11.70   13.10
  -7   2  14   11.10   18.50
   7  -3  14   11.20    8.80
  -7  -4  14   17.90    7.70
   8   0  14   -2.50   10.60
  -8   0 -14   -0.10    9.50
  -8   0  14   -1.50   17.50
  -8  -1  14   56.39   20.30
  -8   1 -14   41.90   12.20
   8   1  14   49.10   14.00
   8  -1  14   66.89   18.20
  -8   1  14   56.59   22.90
  -8  -1 -14   38.00   11.00
   8  -2  14   10.70    8.70
   8  -3  14    4.40    9.60
   9   0  14   12.70   14.10
  -9   0  14   -2.70   17.70
  -9   0 -14   11.40   11.20
  -9   0  14    7.60   19.50
   0   0 -15   -7.60   12.10
   0   0  15   -3.50    9.80
   0  -1 -15   74.09   20.30
   0   1 -15   99.59   22.90
   0   1  15   92.39   20.40
   0  -1  15  106.89   18.80
   0   2  15   -3.90   10.80
   0  -2  15   -5.40    8.80
   0  -3  15   43.40   12.40
   0   3  15   26.50   14.40
   0  -4  15    0.60    8.40
   0   4 -15   -3.40    9.10
   0   4  15    4.10   12.30
   0  -5  15   -2.60    6.40
   0  -6  15   -2.00    7.20
   1   0 -15    6.60   13.60
  -1   0  15   12.70   11.90
   1   0  15    6.50    9.60
  -1   0 -15    6.90   12.00
   1   1  15  250.17   30.70
  -1  -1  15  293.57   31.90
  -1   1 -15  239.98   32.40
  -1  -1 -15  224.98   33.30
   1  -1  15  294.37   30.40
   1   1 -15  237.48   35.00
  -1   1  15  258.07   32.60
   1   2  15   10.90   10.50
  -1  -2  15    1.80    8.60
  -1   2 -15    2.30   10.90
   1  -2  15    5.20    8.70
  -1   2  15   28.40   14.20
   1   3  15  102.59   21.20
  -1  -3  15  127.29   19.30
  -1   3  15   84.09   21.10
   1  -3  15  115.19   19.70
  -1  -4  15    5.20    8.70
   1   4  15    7.50   11.80
   1  -4  15    3.70    9.40
  -1   4  15   -5.00   12.70
   1   4 -15    1.80   12.20
  -1  -5  15   39.90    8.70
   1  -5  15   48.50    9.00
  -1  -6  15    3.50    7.40
   1  -6  15    4.60    7.30
  -2   0  15   31.10   13.90
   2   0 -15   41.20   19.50
  -2   0 -15   24.00   13.20
   2   0  15   39.10   12.10
   2   1  15  334.87   36.20
  -2   1 -15  307.27   37.20
  -2  -1  15  373.86   38.30
  -2  -1 -15  281.87   37.80
  -2   1  15  331.47   39.70
   2   1 -15  337.67   46.70
   2  -1  15  386.66   36.70
  -2  -2  15   12.90   10.80
  -2   2 -15   14.30   10.20
   2   2  15   15.40    9.90
  -2   2  15    9.70   13.70
   2  -2  15   10.60    9.70
  -2  -3  15  146.89   21.10
   2   3  15  106.19   21.00
  -2   3  15  121.79   25.40
   2  -3  15  154.88   21.90
  -2  -4  15   21.90   10.00
   2   4  15   25.80   11.50
   2   4 -15    9.20   13.90
   2  -4  15   23.60   11.70
  -2   4  15    9.40   15.20
  -2  -5  15   35.70    8.50
  -2  -6  15    8.20    7.30
   2  -6  15    1.90    8.00
  -3   0 -15   82.09   20.10
  -3   0  15  100.49   22.70
   3   0  15  104.49   17.80
  -3  -1  15   97.69   21.60
  -3   1 -15   67.29   16.10
   3   1  15  105.49   17.50
  -3   1  15   84.29   20.70
  -3  -1 -15   85.29   20.30
   3  -1  15  104.59   18.50
  -3  -2  15  127.39   20.70
   3   2  15  115.39   18.90
  -3   2 -15   88.99   19.80
   3  -2  15  130.99   20.20
  -3   2  15   97.79   23.20
  -3  -3  15   66.99   16.10
   3   3  15   56.89   13.60
  -3   3  15   56.49   19.00
   3   3 -15   61.99   21.90
   3  -3  15   73.59   17.90
  -3  -4  15   15.80    9.60
   3   4  15   16.80   10.60
  -3   4 -15   26.50   15.40
   3  -4  15   17.10   11.90
  -3   4  15   37.00   17.90
   3   4 -15    7.00   16.20
  -3  -5  15   23.60    7.30
   3  -5  15   14.10    8.30
  -4   0 -15   20.30   11.20
  -4   0  15   23.60   15.20
   4   0  15   24.50   10.20
  -4   1 -15   87.39   19.40
   4   1  15  103.79   16.80
  -4  -1  15  119.59   22.80
  -4  -1 -15   80.49   19.60
   4  -1  15  131.89   19.50
  -4   1  15   80.69   21.00
   4   2  15    0.70    7.60
  -4  -2  15    1.30    9.90
  -4   2 -15    6.70   10.50
  -4   2  15   -8.40   13.80
   4   2 -15   14.60   15.60
   4  -2  15    5.50   10.40
   4   3  15   39.40   11.20
  -4   3 -15   34.60   13.00
  -4  -3  15   41.20   12.40
   4  -3  15   50.19   14.40
  -4   3  15   54.79   19.80
   4   3 -15   38.40   19.00
   4  -4  15   33.90    9.50
  -4  -5  15    0.50    7.00
   4  -5  15    0.70    8.40
  -5   0 -15   -0.70    9.50
   5   0  15   -1.10    8.20
  -5   0  15    1.80   14.40
  -5   1 -15   28.90   11.40
   5   1  15   43.70   11.50
  -5  -1  15   34.50   15.90
  -5  -1 -15   32.60   12.00
  -5   1  15   25.70   17.00
   5  -1  15   44.70   13.00
  -5  -2  15    5.50   11.50
   5   2  15    9.00    8.10
   5   2 -15    7.60   21.60
  -5   2  15   16.10   18.30
   5  -2  15   -1.40   10.60
  -5  -3  15   29.40   11.50
  -5   3 -15   17.10   11.10
   5   3  15   20.10    8.90
  -5   3  15   28.00   19.00
   5   3 -15   36.30   21.80
   5  -3  15   24.20   14.40
   5  -4  15   -0.80    8.80
  -5  -5  15   -0.10    7.40
   5  -5  15    0.80    9.10
  -6   0  15    0.70   14.80
  -6   0 -15   -3.50    9.40
   6   0  15    1.10    9.30
   6   1  15   46.70   12.40
  -6   1 -15   29.30   11.60
  -6  -1  15   50.89   16.90
   6  -1  15   39.90   13.40
  -6   1  15   49.20   19.50
  -6  -1 -15   32.30   11.60
   6   2  15    1.80    8.00
  -6   2 -15   -3.30    9.10
  -6  -2  15   12.70   12.50
   6  -2  15    1.80   12.30
  -6   2  15   -6.00   15.90
   6   2 -15   18.50   22.60
   6  -3  15   34.70   10.00
   6  -4  15   17.30    9.90
   7   0  15   33.20   12.80
  -7   0  15   19.80   17.60
  -7   0 -15   22.70   11.10
  -7   1 -15   23.40   11.70
  -7  -1  15   28.50   16.90
   7   1  15   29.40   11.60
  -7  -1 -15   11.50   10.10
   7  -1  15   20.40   13.30
  -7   1  15   28.90   19.40
  -7  -2  15   34.80   14.60
  -7   2 -15   30.20   12.80
   7   2  15   50.49   12.70
  -7   2  15   25.20   21.50
   7  -2  15   34.40   16.30
   7  -3  15   43.20   11.40
   8   0  15    0.70   12.00
  -8   0  15  -14.90   17.90
  -8   0 -15    3.20   10.40
  -8  -1  15   13.90   17.00
   8   1  15    7.80   11.90
   8  -1  15   30.20   15.20
  -8  -1 -15   19.60   10.60
  -8   1  15   28.10   20.40
   8  -2  15   39.40   11.80
   0   0 -16   59.19   18.50
   0   0  16   47.50   15.00
   0  -1  16   -3.70    9.50
   0   1 -16    2.90   13.10
   0   1  16   -2.10   10.00
   0   2  16    9.90   12.70
   0  -2  16   -2.40    9.70
   0   3  16   -1.70   11.90
   0  -3  16    2.30    9.40
   0  -4  16   41.70   12.70
   0   4 -16   22.40   13.60
   0   4  16   43.90   16.10
   0  -5  16    8.30   12.00
   1   0 -16  165.18   31.40
  -1   0 -16  154.98   27.90
  -1   0  16  176.68   26.80
   1   0  16  195.48   25.10
  -1   1 -16    6.60   12.70
  -1  -1  16    1.80   10.20
   1   1  16   11.20   10.90
  -1   1  16    2.20   11.60
  -1  -1 -16   -5.70   12.20
   1   1 -16   -1.10   13.40
   1  -1  16    2.60    8.70
  -1  -2  16  260.17   30.00
   1   2  16  214.78   29.80
  -1   2  16  219.58   32.50
   1  -2  16  272.47   30.00
  -1  -3  16  -10.40    8.00
   1   3  16   -5.10   10.90
   1  -3  16   -0.30   10.20
  -1   3  16   14.00   13.10
  -1  -4  16   36.30   12.70
   1   4  16   36.60   14.70
   1  -4  16   34.10   12.30
  -1   4  16   37.40   17.60
   1   4 -16   30.30   15.50
   1  -5  16    2.50    7.20
   2   0  16  370.86   37.10
  -2   0  16  356.16   39.60
   2   0 -16  327.27   45.10
  -2   0 -16  300.87   38.60
  -2   1 -16    1.70   12.10
   2   1  16    2.00    9.40
  -2  -1  16    6.50   12.10
   2  -1  16    6.10   10.10
  -2  -1 -16   -1.00   12.10
  -2   1  16   27.00   14.70
   2   2  16  132.29   22.20
  -2  -2  16  156.68   23.60
   2  -2  16  166.78   23.10
  -2   2  16  126.69   27.50
  -2   3 -16    3.50   11.10
  -2  -3  16   -2.00    9.50
   2   3  16   -1.60    9.40
   2   3 -16    5.20   12.30
  -2   3  16   -4.40   13.10
   2  -3  16    6.80   10.60
   2   4  16   50.89   15.40
  -2   4 -16   56.59   15.20
  -2  -4  16   69.79   17.10
  -2   4  16   67.09   20.70
   2  -4  16   95.89   20.80
   2   4 -16   64.69   19.70
  -2  -5  16   -3.40    7.40
   2  -5  16    4.80    7.60
  -3   0 -16  146.89   25.00
  -3   0  16  163.18   27.00
   3   0  16  157.18   22.20
  -3  -1  16   42.30   15.00
  -3   1 -16   37.40   14.00
   3   1  16   40.60   11.70
   3  -1  16   60.29   14.00
  -3   1  16   51.79   17.70
  -3  -1 -16   32.00   14.30
  -3  -2  16   95.99   20.00
   3   2  16   92.19   17.60
  -3   2  16   70.89   20.40
   3  -2  16   83.29   19.00
  -3  -3  16   30.40   12.20
  -3   3 -16   34.30   13.70
   3   3  16   39.00   12.00
   3   3 -16   39.70   18.80
  -3   3  16   29.90   17.40
   3  -3  16   50.29   15.00
  -3  -4  16   40.40   11.50
   3   4  16   30.80   12.20
  -3   4 -16   25.30   12.80
   3   4 -16   22.60   17.60
   3  -4  16   43.10   15.40
  -3   4  16   27.70   18.90
  -3  -5  16   -3.90    6.90
   3  -5  16    2.70    7.80
  -4   0  16   16.40   14.70
   4   0  16   16.90    9.80
  -4   0 -16   13.70   11.60
  -4  -1  16   -1.90   12.10
  -4   1 -16    5.40   10.90
   4   1  16    4.80    8.20
  -4  -1 -16    4.40   11.10
   4  -1  16    8.60    9.60
  -4   1  16   -2.40   14.20
   4   2  16   17.30    9.20
  -4  -2  16   22.60   12.70
   4   2 -16   -6.20   15.50
  -4   2  16   20.00   17.40
   4  -2  16   32.10   13.30
  -4   3 -16    4.80   10.80
  -4  -3  16   10.20   10.90
   4   3  16    1.70    8.60
   4  -3  16   -2.20   12.00
   4   3 -16    7.80   18.80
  -4   3  16   -0.60   17.10
   4  -4  16    7.00   10.10
  -4  -5  16    0.80    7.70
   4  -5  16   -2.50    8.40
   5   0  16   63.59   15.10
  -5   0 -16   52.69   14.20
  -5   0  16   46.30   19.60
  -5   1 -16   -3.70   10.00
  -5  -1  16    9.10   13.90
   5   1  16    0.70    8.20
   5  -1  16   15.60   11.50
  -5  -1 -16    4.90   10.80
  -5   1  16    3.00   15.30
  -5  -2  16   -2.00   12.10
  -5   2 -16   -1.90   10.00
   5   2  16    5.50    8.30
   5  -2  16    1.50   12.10
   5   2 -16  -14.50   21.20
  -5   2  16   15.60   17.60
   5   3  16    7.50    8.20
  -5  -3  16    0.50   10.30
  -5   3 -16   -0.40   11.70
   5  -3  16    8.70   12.50
   5   3 -16    9.50   21.10
  -5   3  16   -7.70   17.60
   5  -4  16   13.80    9.50
   6   0  16   50.79   14.20
  -6   0  16   44.80   19.30
  -6   0 -16   42.80   13.30
   6   1  16   12.70    9.50
  -6  -1  16    3.90   15.00
  -6   1 -16    9.90   13.30
  -6  -1 -16   13.10   11.50
   6  -1  16   24.50   13.00
  -6   1  16   13.60   18.30
  -6   2 -16   41.10   15.10
   6   2  16   65.99   16.00
  -6  -2  16   50.19   16.20
  -6   2  16   56.59   23.00
   6  -2  16   62.49   17.10
  -6  -3  16    9.80   11.60
  -6   3 -16    5.80   12.10
   6   3  16    4.80    8.60
  -6   3  16    2.10   19.20
   6   3 -16   -3.30   25.30
   6  -3  16   12.60   16.10
   7   0  16   26.40   13.80
  -7   0 -16   28.30   12.50
  -7   0  16   35.10   19.70
  -7  -1  16    7.30   16.30
   7   1  16   13.20   11.80
  -7   1  16    0.00   18.40
   7  -1  16   12.30   13.20
  -7  -1 -16    0.80   10.90
  -7  -2  16    7.10   14.00
  -7   2 -16   17.10   13.10
   7   2  16   10.40   10.90
  -7   2  16   20.30   22.30
   7  -2  16   19.00   16.10
   0   0 -17    9.60   15.60
   0   0  17    4.50   11.20
   0   1  17   33.90   14.50
   0  -1  17   49.50   14.90
   0  -2  17    3.20   10.40
   0   2  17    6.80   11.40
   0   2 -17    2.60   12.20
   0  -3  17   18.30   11.70
   0   3  17   16.50   14.60
   0   4  17   -5.30   12.60
   0  -4  17    5.90   11.50
   0   4 -17   10.70   15.00
   0  -5  17    3.20    7.30
  -1   0  17   39.90   14.50
  -1   0 -17   23.70   15.00
   1   0 -17   16.10   17.20
   1   0  17   24.70   12.80
   1   1  17   69.09   16.10
  -1  -1  17   73.79   17.10
   1  -1  17   74.79   18.30
  -1  -1 -17   43.50   17.20
  -1   1  17   44.00   15.60
  -1   2 -17    7.00   11.90
  -1  -2  17    7.80   10.80
   1   2  17   -0.40   10.30
  -1   2  17    1.80   13.30
   1  -2  17   11.40   11.30
  -1   3 -17   20.20   15.00
   1   3  17   25.70   13.60
  -1  -3  17   30.50   12.60
  -1   3  17   32.30   15.80
   1  -3  17   31.80   13.20
  -1  -4  17   -8.20    9.60
   1   4  17    0.40   12.30
  -1   4 -17   -0.10   13.50
   1   4 -17    6.00   16.20
   1  -4  17    7.30   11.40
  -1   4  17   16.40   15.40
  -1  -5  17    8.10    7.40
   1  -5  17   -3.00    7.00
  -2   0  17    5.00   12.20
   2   0  17   -2.30    9.20
  -2   0 -17    4.70   12.50
  -2  -1  17  115.09   23.00
  -2   1 -17   94.69   24.90
   2   1  17  115.59   20.30
   2   1 -17   83.39   26.70
  -2  -1 -17   83.69   20.20
  -2   1  17   94.59   22.40
   2  -1  17  126.59   21.40
   2   2  17    2.50    9.50
  -2   2 -17    8.00   12.30
  -2  -2  17    1.10   10.30
  -2   2  17   -6.60   13.30
   2  -2  17   -3.60   10.20
  -2  -3  17   78.19   19.10
  -2   3 -17   65.19   17.30
   2   3  17   47.00   14.60
   2   3 -17   48.60   17.90
   2  -3  17   80.99   18.50
  -2   3  17   63.79   20.50
  -2   4 -17    2.10   14.40
  -2  -4  17   14.80   11.20
   2   4  17    8.70   11.80
  -2   4  17   -5.60   16.00
   2  -4  17   11.80   13.20
   2   4 -17   13.90   17.20
  -2  -5  17   48.70   10.20
   2  -5  17   37.90   10.00
  -3   0 -17   -1.80   11.50
   3   0  17   -7.10    8.30
  -3   0  17   -3.10   11.60
   3   1  17   34.80   11.50
  -3  -1  17   39.80   15.30
  -3  -1 -17   26.20   13.80
   3  -1  17   31.70   12.50
  -3   1  17   42.90   17.70
  -3   2 -17   19.80   13.70
  -3  -2  17   24.20   13.70
   3   2  17   16.80   10.70
  -3   2  17   33.00   17.70
   3  -2  17   27.00   12.30
  -3   3 -17   16.40   12.70
   3   3  17   18.50   10.30
  -3  -3  17   14.80   11.40
  -3   3  17   13.00   17.60
   3   3 -17    3.90   17.30
   3  -3  17   14.40   12.40
  -3  -4  17    0.80    9.90
  -3   4 -17   -3.60   13.70
   3   4  17    2.30   10.20
   3  -4  17   -5.00   12.50
   3   4 -17    9.40   19.30
  -3   4  17   -4.20   17.10
   4   0  17    3.60    9.80
  -4   0 -17    6.40   11.60
  -4   0  17   21.00   15.30
   4   1  17   20.40   10.70
  -4  -1  17   13.20   14.60
   4   1 -17   31.80   36.20
  -4   1  17   32.00   18.60
   4  -1  17   17.20   11.30
  -4  -1 -17   17.80   14.70
   4   2  17   13.50    9.20
  -4   2 -17    7.80   12.40
  -4  -2  17    7.40   12.30
  -4   2  17   10.70   16.30
   4  -2  17   16.60   13.10
   4   2 -17    1.30   19.50
   4   3  17    9.40    9.50
  -4   3 -17   18.20   14.10
  -4  -3  17   15.80   12.00
  -4   3  17   17.90   19.40
   4  -3  17   14.50   14.30
   4   3 -17   14.00   21.70
   4  -4  17    5.40    8.80
  -5   0 -17    4.30   11.20
  -5   0  17   -3.60   15.90
   5   0  17   10.50   11.00
   5   1  17   37.90   12.30
  -5  -1  17   31.50   16.40
  -5  -1 -17   36.10   15.30
  -5   1  17   42.90   19.70
   5  -1  17   48.30   15.00
   5   2  17   -2.70    8.50
  -5   2 -17    2.40   11.20
  -5  -2  17    3.40   12.70
   5   2 -17    3.80   24.20
  -5   2  17   11.80   17.00
   5  -2  17   -2.80   12.20
   5   3  17   13.50    9.70
  -5   3 -17   16.00   14.40
  -5  -3  17   30.60   13.30
   5   3 -17   25.90   26.90
   5  -3  17   10.70   14.60
  -5   3  17   12.40   19.00
  -6   0  17    7.80   16.90
   6   0  17   -3.00   10.70
  -6   0 -17   -0.60   11.40
  -6  -1  17   23.40   17.80
   6   1  17   19.80   11.80
   6  -1  17   31.00   13.80
  -6  -1 -17   22.20   13.20
  -6   1  17   43.40   20.70
  -6   2 -17   15.90   13.10
   6   2  17   12.70   10.30
  -6  -2  17   18.10   14.90
  -6   2  17    5.40   19.70
   6  -2  17   15.80   14.70
   7   0  17    4.60   12.60
  -7   0  17    7.00   17.40
  -7   0 -17   -4.20   11.60
  -7   1 -17   18.10   12.80
  -7  -1  17   -1.40   17.20
   7   1  17   23.20   12.40
   7  -1  17   32.30   15.00
  -7  -1 -17    3.70   12.60
  -7   1  17   15.20   20.50
   0   0  18   56.19   15.80
   0  -1  18    4.50   10.80
   0   1  18    0.30   11.90
   0   1 -18   -7.10   12.60
   0   2  18   13.90   13.30
   0   2 -18  -10.40   14.30
   0  -2  18    9.60   12.40
   0   3  18   14.80   13.80
   0  -3  18    4.60   10.50
   0   3 -18    6.20   15.50
   0   4 -18   19.30   21.50
   0   4  18    6.20   15.20
   0  -4  18   15.40   13.00
   1   0  18   48.70   14.50
  -1   0  18   37.40   14.80
  -1   1 -18   -3.90   14.90
   1   1  18    5.80   11.40
  -1  -1  18    7.90   12.10
   1   1 -18   16.00   18.10
  -1   1  18   -8.60   11.50
   1  -1  18  -12.10    8.80
  -1   2 -18   22.20   15.20
  -1  -2  18   23.10   12.50
   1   2  18   27.80   13.10
   1  -2  18   36.70   14.20
   1   2 -18   14.70   17.10
  -1   2  18   22.20   15.20
  -1   3 -18   -8.90   14.90
  -1  -3  18    0.10   11.30
   1   3  18    8.90   12.10
  -1   3  18   -7.30   13.40
   1   3 -18    4.20   16.50
   1  -3  18    3.90   12.10
   1   4  18   23.80   14.90
  -1  -4  18   22.10   12.80
  -1   4  18   17.60   17.20
   1  -4  18   34.90   15.00
   1   4 -18   31.50   30.80
   2   0 -18   19.30   20.30
  -2   0  18   54.19   16.80
   2   0  18   46.30   13.80
  -2   0 -18   31.70   16.50
  -2  -1  18   10.20   13.20
   2   1  18    0.10    9.60
  -2   1 -18    8.10   17.90
  -2   1  18    0.40   13.30
   2   1 -18    6.40   18.60
  -2  -1 -18    4.40   13.10
   2  -1  18    7.50   11.00
  -2   2 -18   -2.40   14.00
   2   2  18   11.10   11.50
  -2  -2  18   13.80   12.40
  -2   2  18   15.80   15.00
   2   2 -18    7.90   16.80
   2  -2  18   11.20   11.10
  -2   3 -18   -5.30   13.60
   2   3  18   -0.60   10.30
  -2  -3  18    2.50   11.00
   2  -3  18    3.00   12.50
  -2   3  18    8.50   15.40
   2   3 -18    8.10   18.70
  -2  -4  18    3.20   11.70
   2   4  18   -0.40   11.40
   2  -4  18    7.50   13.50
  -2   4  18   10.20   17.00
   3   0  18   29.00   12.20
  -3   0 -18   29.80   14.40
  -3   0  18   33.20   16.70
  -3   1 -18   18.90   14.70
  -3  -1  18   14.50   14.40
   3   1  18   11.50   10.20
   3  -1  18   13.90   11.30
  -3   1  18   25.20   16.00
   3   1 -18   25.40   23.00
  -3  -1 -18    6.20   13.50
  -3  -2  18   22.80   14.10
  -3   2 -18   25.30   14.80
   3   2  18   14.50   10.40
  -3   2  18   22.50   16.70
   3   2 -18   14.70   21.00
   3  -2  18   16.40   12.90
   3   3  18   22.10   11.90
  -3   3 -18    9.20   14.90
  -3  -3  18   27.60   14.40
   3  -3  18   13.30   14.50
  -3   3  18   38.40   19.40
   3   3 -18   26.90   22.30
  -3  -4  18   16.10   12.70
   3   4  18   21.90   12.20
   3  -4  18   38.90   16.90
  -3   4  18   22.40   19.50
  -4   0  18   11.10   15.40
  -4   0 -18    4.90   12.00
   4   0  18    6.70   10.30
  -4   1 -18   -0.20   12.90
   4   1  18   12.60   10.40
  -4  -1  18   -1.50   13.80
  -4  -1 -18    1.70   12.70
  -4   1  18    2.50   15.50
   4   1 -18    7.60   22.10
   4  -1  18   -2.70   10.60
   4   2  18   10.10    9.50
  -4   2 -18   18.60   14.30
  -4  -2  18   14.80   13.80
  -4   2  18   22.40   18.60
   4  -2  18   21.40   14.30
   4   2 -18   33.70   25.00
  -4   3 -18   -3.60   14.80
   4   3  18   -2.30    8.90
  -4  -3  18   10.10   12.20
  -4   3  18   10.30   18.30
   4  -3  18    7.20   14.30
  -5   0 -18   13.20   13.50
   5   0  18    6.50   11.20
  -5   0  18   -2.00   15.40
  -5  -1  18    5.10   15.40
   5   1  18    7.50    9.60
  -5   1 -18    7.00   12.70
   5  -1  18   -8.80   11.70
  -5  -1 -18    5.40   13.10
  -5   1  18   -1.90   16.60
  -5   2 -18    5.10   13.20
  -5  -2  18   -6.00   13.00
   5   2  18    5.80   10.00
   5  -2  18    5.90   13.30
  -5   2  18   -4.20   17.80
  -6   0 -18   -1.50   12.50
   6   0  18   10.40   12.40
  -6   0  18    9.30   17.60
   6   1  18    2.90   11.30
  -6  -1  18    1.30   15.80
  -6   1 -18   12.30   13.90
  -6  -1 -18    2.30   16.90
   6  -1  18    0.60   13.30
  -6   1  18   14.50   18.70
   0   0 -19    2.40   16.80
   0   0  19   -3.00   12.10
   0  -1  19    0.20   11.10
   0   1  19   -4.10   12.20
   0   1 -19    7.50   17.00
   0   2  19   14.20   13.40
   0  -2  19   -7.50   11.90
   0   2 -19  -16.30   15.60
   0   3 -19   -6.80   16.80
   0  -3  19    4.30   12.70
   0   3  19    9.70   14.10
   1   0  19    1.80   11.30
  -1   0 -19   -1.90   15.80
   1   0 -19   11.00   18.90
  -1   0  19    8.90   12.90
   1   1  19    5.10   12.10
  -1   1 -19  -12.00   14.70
  -1  -1  19    7.40   12.00
   1   1 -19   13.10   19.10
   1  -1  19   -1.10   11.60
  -1   1  19   -4.00   12.90
  -1  -2  19    1.80   11.80
   1   2  19   14.90   12.00
  -1   2 -19    2.20   15.80
  -1   2  19    0.80   13.80
   1   2 -19   -1.10   18.20
   1  -2  19    5.50   12.60
  -1  -3  19   -2.70   11.60
   1   3  19   -0.20   11.80
  -1   3 -19    4.50   18.00
   1   3 -19  -14.60   21.90
  -1   3  19    5.70   15.30
   1  -3  19   12.90   13.50
   2   0  19   -0.20   10.20
  -2   0  19    2.20   12.90
   2   1  19   34.70   13.30
  -2   1 -19   37.90   17.20
  -2  -1  19   31.50   16.00
   2  -1  19   29.40   14.40
   2   1 -19   23.20   22.00
  -2   1  19   30.30   16.40
  -2   2 -19  -11.30   15.30
   2   2  19    8.50   11.40
  -2  -2  19    7.90   12.50
   2   2 -19    0.10   19.70
   2  -2  19   -5.00   11.70
  -2   2  19   -9.20   14.10
  -2   3 -19   16.60   20.00
  -2  -3  19   34.50   14.80
   2   3  19   22.80   13.40
   2  -3  19   38.70   16.30
  -2   3  19   18.50   17.40
   3   0  19   14.80   12.20
  -3   0  19   12.60   15.70
   3   1  19   -4.10    9.30
  -3  -1  19   -2.00   14.40
  -3   1 -19   -4.00   13.50
  -3  -1 -19   -3.30   13.40
   3  -1  19   -9.30   10.70
   3   1 -19    1.40   23.00
  -3   1  19    9.30   14.60
   3   2  19   -5.80    9.60
  -3  -2  19   -6.20   12.60
  -3   2 -19    0.00   14.40
   3   2 -19   -6.20   23.10
   3  -2  19   -6.80   12.30
  -3   2  19    3.30   16.60
   3   3  19   -9.50   10.20
  -3  -3  19   -4.40   12.20
  -3   3  19    6.70   18.00
   3  -3  19    6.70   14.90
   4   0  19    9.10   11.20
  -4   0  19   -4.10   15.70
  -4  -1  19    9.40   15.70
   4   1  19   12.20   10.80
  -4   1 -19    7.60   14.80
   4  -1  19    0.60   12.40
  -4  -1 -19   -0.30   14.20
  -4   1  19   -3.20   16.30
  -4   2 -19   -1.10   15.40
  -4  -2  19   29.80   15.30
  -4   2  19   28.90   19.10
   4  -2  19   28.30   15.30
   5   0  19   -5.80   10.70
  -5   0  19    3.70   17.10
   5   1  19   13.70   10.30
  -5  -1  19   -0.10   16.10
  -5   1 -19    1.20   13.90
   5  -1  19    9.60   13.50
  -5   1  19   -3.80   18.00
  -5  -1 -19    4.80   14.90
   0   0 -20    5.50   18.10
   0   0  20    3.20   12.60
   0   1  20    4.10   13.00
   0   1 -20   -4.70   18.40
   0  -1  20   13.70   13.10
   0   2  20   -0.70   13.80
   0   2 -20  -14.30   18.80
   0  -2  20    1.00   13.40
  -1   0 -20    4.60   17.20
  -1   0  20   14.00   13.60
   1   0  20   16.30   13.30
   1   0 -20   -3.90   19.30
  -1   1 -20   -3.30   16.70
   1   1  20    4.30   12.90
  -1  -1  20   -6.80   13.00
  -1   1  20    6.30   15.90
   1  -1  20   10.20   12.40
   1   1 -20   12.20   21.00
  -1  -2  20   -3.00   13.60
   1   2  20   -1.90   12.20
  -1   2 -20  -11.00   17.40
  -1   2  20   -6.60   13.70
   1  -2  20   -7.30   12.70
  -2   0 -20   13.20   16.60
   2   0  20   13.50   12.50
  -2   0  20   14.00   15.20
  -2   1 -20   -2.80   15.20
   2   1  20    4.70   11.60
  -2  -1  20   14.30   13.60
   2  -1  20    5.30   13.00
  -2   1  20    2.40   14.80
   2   1 -20   -3.70   21.70
  -2  -2  20    6.50   13.80
   2   2  20    9.50   11.70
  -2   2 -20    7.10   18.60
  -2   2  20   -6.30   15.40
   2  -2  20    6.40   14.10
   3   0  20   11.70   12.40
  -3   0 -20   -4.70   15.30
  -3   0  20    9.60   15.60
  -3   1 -20   23.60   17.10
   3   1  20   17.70   11.50
  -3  -1  20   12.60   16.20
  -3   1  20   19.00   16.10
   3  -1  20   16.30   13.20
  -4   0 -20   11.10   15.90
   0   0 -21   -7.40   19.70
   0   0  21    3.00   14.00
   0   1 -21    9.90   22.50
   0   1  21    5.20   15.30
   0  -1  21    0.30   14.10
   1   0  21    3.20   12.80
  -1   0 -21   -1.20   19.00
  -1   0  21    6.00   14.30

_computing_structure_solution     'SHELXT 2014/4 (Sheldrick, 2014)'
;
_shelx_hkl_checksum              25019
_olex2_submission_special_instructions 'No special instructions were received'
loop_
_space_group_symop_operation_xyz
'x, y, z'
'-x+1/2, -y, z+1/2'
'-x, y+1/2, -z'
'x+1/2, -y+1/2, -z+1/2'
'-x, -y, -z'
'x-1/2, y, -z-1/2'
'x, -y-1/2, z'
'-x-1/2, y-1/2, z-1/2'
loop_
_atom_site_label
_atom_site_type_symbol
_atom_site_fract_x
_atom_site_fract_y
_atom_site_fract_z
_atom_site_U_iso_or_equiv
_atom_site_adp_type
_atom_site_occupancy
_atom_site_site_symmetry_order
_atom_site_calc_flag
_atom_site_refinement_flags_posn
_atom_site_refinement_flags_adp
_atom_site_refinement_flags_occupancy
_atom_site_disorder_assembly
_atom_site_disorder_group
N1 N 1.0622(10) 0.7500 0.8857(5) 0.097(3) Uani 1 2 d S T P . .
C2A C 1.04(2) 0.7500 0.798(15) 0.18(9) Uani 0.21(8) 2 d S TU P A 1
C3A C 0.981(5) 0.7500 0.750(2) 0.05(2) Uani 0.21(8) 2 d S TU P A 1
C1 C 1.070(4) 0.808(5) 0.802(2) 0.109(12) Uani 0.39(4) 1 d . U . A 2
C2 C 0.992(3) 0.848(8) 0.766(2) 0.127(12) Uani 0.39(4) 1 d . U . A 2
Co1 Co 0.72822(14) 0.2500 0.54104(8) 0.0732(6) Uani 1 2 d S T P . .
Cl1 Cl 0.7584(3) 0.2500 0.41394(19) 0.149(2) Uani 1 2 d S T P . .
Cl2 Cl 0.5112(3) 0.2500 0.56949(19) 0.1197(13) Uani 1 2 d S T P . .
Cl3 Cl 0.8306(2) 0.4974(3) 0.58763(15) 0.1097(9) Uani 1 1 d . . . . .
N2 N 0.8714(13) 0.7500 0.4294(6) 0.123(4) Uani 1 2 d S T P . .
C3 C 0.838(3) 0.830(3) 0.3632(17) 0.153(9) Uani 0.5 1 d . . . . .
C4 C 0.810(3) 0.7500 0.2971(11) 0.185(10) Uani 1 2 d S T P . .
loop_
_atom_site_aniso_label
_atom_site_aniso_U_11
_atom_site_aniso_U_22
_atom_site_aniso_U_33
_atom_site_aniso_U_23
_atom_site_aniso_U_13
_atom_site_aniso_U_12
N1 0.089(6) 0.148(8) 0.055(5) 0.000 0.000(4) 0.000
C2A 0.18(9) 0.18(9) 0.18(9) 0.000 0.000(10) 0.000
C3A 0.07(3) 0.06(3) 0.03(2) 0.000 -0.017(13) 0.000
C1 0.115(14) 0.113(15) 0.098(13) 0.006(8) -0.006(9) -0.012(9)
C2 0.131(14) 0.125(15) 0.126(14) 0.009(10) -0.001(9) 0.001(9)
Co1 0.0759(10) 0.0709(9) 0.0727(9) 0.000 -0.0015(7) 0.000
Cl1 0.082(2) 0.288(6) 0.0761(19) 0.000 0.0158(15) 0.000
Cl2 0.0781(19) 0.189(4) 0.092(2) 0.000 0.0217(15) 0.000
Cl3 0.1145(17) 0.0729(12) 0.142(2) -0.0152(13) -0.0231(15) -0.0064(11)
N2 0.126(10) 0.157(11) 0.085(7) 0.000 0.020(7) 0.000
C3 0.164(19) 0.14(2) 0.16(2) 0.050(17) -0.039(17) -0.043(14)
C4 0.30(3) 0.167(17) 0.088(11) 0.000 -0.010(15) 0.000
loop_
_atom_type_symbol
_atom_type_description
_atom_type_scat_dispersion_real
_atom_type_scat_dispersion_imag
_atom_type_scat_source
C C 0.0033 0.0016 'International Tables Vol C Tables 4.2.6.8 and 6.1.1.4'
Cl Cl 0.1484 0.1585 'International Tables Vol C Tables 4.2.6.8 and 6.1.1.4'
Co Co 0.3494 0.9721 'International Tables Vol C Tables 4.2.6.8 and 6.1.1.4'
N N 0.0061 0.0033 'International Tables Vol C Tables 4.2.6.8 and 6.1.1.4'
loop_
_geom_angle_atom_site_label_1
_geom_angle_atom_site_label_2
_geom_angle_atom_site_label_3
_geom_angle
_geom_angle_site_symmetry_1
_geom_angle_site_symmetry_3
C1 N1 C1 33(3) . 7_575
C3A C2A N1 155(10) . .
C1 C1 N1 73.7(14) 7_575 .
C1 C1 C2 106(4) 7_575 .
C1 C1 C2 41(2) 7_575 7_575
C2 C1 N1 129(4) . .
C2 C1 N1 99(3) 7_575 .
C2 C1 C2 65(5) . 7_575
C1 C2 C1 33(3) . 7_575
C1 C2 C2 74(4) . 7_575
C2 C2 C1 41(2) 7_575 7_575
Cl2 Co1 Cl1 110.66(14) . .
Cl2 Co1 Cl3 111.23(9) . 7_565
Cl2 Co1 Cl3 111.23(9) . .
Cl3 Co1 Cl1 107.44(10) 7_565 .
Cl3 Co1 Cl1 107.44(10) . .
Cl3 Co1 Cl3 108.70(13) 7_565 .
C3 N2 C3 52(2) 7_575 .
C3 C3 N2 64.1(12) 7_575 .
C3 C3 C4 63.8(10) 7_575 .
C4 C3 N2 128(2) . .
C3 C4 C3 52(2) . 7_575
loop_
_geom_bond_atom_site_label_1
_geom_bond_atom_site_label_2
_geom_bond_distance
_geom_bond_site_symmetry_2
N1 C2A 1.6(3) .
N1 C1 1.54(5) .
N1 C1 1.54(5) 7_575
C2A C3A 1.0(3) .
C1 C1 0.86(8) 7_575
C1 C2 1.53(6) 7_575
C1 C2 1.05(4) .
C2 C1 1.53(6) 7_575
C2 C2 1.45(11) 7_575
Co1 Cl1 2.258(4) .
Co1 Cl2 2.233(3) .
Co1 Cl3 2.254(2) 7_565
Co1 Cl3 2.254(2) .
N2 C3 1.35(2) .
N2 C3 1.35(2) 7_575
C3 C3 1.18(5) 7_575
C3 C4 1.33(3) .
C4 C3 1.33(3) 7_575
loop_
_geom_torsion_atom_site_label_1
_geom_torsion_atom_site_label_2
_geom_torsion_atom_site_label_3
_geom_torsion_atom_site_label_4
_geom_torsion
_geom_torsion_site_symmetry_1
_geom_torsion_site_symmetry_2
_geom_torsion_site_symmetry_3
_geom_torsion_site_symmetry_4
N1 C1 C2 C1 -82(4) . . . 7_575
N1 C1 C2 C2 -82(4) . . . 7_575
C1 N1 C1 C2 98(5) 7_575 . . .
C1 N1 C1 C2 32(2) 7_575 . . 7_575
C1 C1 C2 C2 0.00(2) 7_575 . . 7_575
C2 C1 C2 C1 0.00(4) 7_575 . . 7_575
N2 C3 C4 C3 3(4) . . . 7_575
C3 N2 C3 C4 -3(4) 7_575 . . .
