#------------------------------------------------------------------------------
#$Date: 2021-04-13 13:17:58 +0300 (Tue, 13 Apr 2021) $
#$Revision: 264091 $
#$URL: file:///home/coder/svn-repositories/cod/cif/1/56/16/1561696.cif $
#------------------------------------------------------------------------------
#
# This file is available in the Crystallography Open Database (COD),
# http://www.crystallography.net/
#
# All data on this site have been placed in the public domain by the
# contributors.
#
data_1561696
loop_
_publ_author_name
'Liu, Yunsheng'
'Mei, Dajiang'
'Xu, Jingli'
'Wu, Yuandong'
_publ_section_title
;
 Hydrothermal synthesis, structures and optical properties of
 A2Zn3(SeO3)4&#x00B7;XH2O (A=Li, Na, K; X=2 or 0)
;
_journal_name_full               'Journal of Solid State Chemistry'
_journal_page_first              193
_journal_page_last               199
_journal_paper_doi               10.1016/j.jssc.2015.09.033
_journal_volume                  232
_journal_year                    2015
_chemical_formula_moiety         'O12 Se4 Zn3, 2(O)'
_chemical_formula_sum            'O14 Se4 Zn3'
_chemical_formula_weight         736.01
_space_group_crystal_system      monoclinic
_space_group_IT_number           14
_space_group_name_Hall           '-P 2ybc'
_space_group_name_H-M_alt        'P 1 21/c 1'
_atom_sites_solution_hydrogens   .
_cell_angle_alpha                90
_cell_angle_beta                 112.838(9)
_cell_angle_gamma                90
_cell_formula_units_Z            2
_cell_length_a                   8.123(4)
_cell_length_b                   9.139(4)
_cell_length_c                   7.938(3)
_cell_measurement_temperature    292(2)
_cell_volume                     543.1(4)
_computing_structure_refinement  'SHELXL-2014/7 (Sheldrick, 2014)'
_diffrn_ambient_temperature      292(2)
_diffrn_measured_fraction_theta_full 0.991
_diffrn_measured_fraction_theta_max 0.907
_diffrn_radiation_type           MoK\a
_diffrn_radiation_wavelength     0.71073
_diffrn_reflns_av_R_equivalents  0.0156
_diffrn_reflns_av_unetI/netI     0.0170
_diffrn_reflns_Laue_measured_fraction_full 0.991
_diffrn_reflns_Laue_measured_fraction_max 0.907
_diffrn_reflns_limit_h_max       11
_diffrn_reflns_limit_h_min       -6
_diffrn_reflns_limit_k_max       13
_diffrn_reflns_limit_k_min       -11
_diffrn_reflns_limit_l_max       10
_diffrn_reflns_limit_l_min       -11
_diffrn_reflns_number            4632
_diffrn_reflns_point_group_measured_fraction_full 0.991
_diffrn_reflns_point_group_measured_fraction_max 0.907
_diffrn_reflns_theta_full        25.242
_diffrn_reflns_theta_max         30.873
_diffrn_reflns_theta_min         2.721
_exptl_absorpt_coefficient_mu    20.060
_exptl_absorpt_correction_T_max  0.7462
_exptl_absorpt_correction_T_min  0.5838
_exptl_absorpt_correction_type   multi-scan
_exptl_absorpt_process_details   SADABS
_exptl_crystal_colour            colorless
_exptl_crystal_density_diffrn    4.501
_exptl_crystal_description       block
_exptl_crystal_F_000             676
_exptl_crystal_size_max          0.050
_exptl_crystal_size_mid          0.040
_exptl_crystal_size_min          0.020
_refine_diff_density_max         0.779
_refine_diff_density_min         -1.725
_refine_diff_density_rms         0.219
_refine_ls_extinction_coef       0.0025(6)
_refine_ls_extinction_expression Fc^*^=kFc[1+0.001xFc^2^\l^3^/sin(2\q)]^-1/4^
_refine_ls_extinction_method     'SHELXL-2014/7 (Sheldrick 2014'
_refine_ls_goodness_of_fit_ref   1.142
_refine_ls_hydrogen_treatment    undef
_refine_ls_matrix_type           full
_refine_ls_number_parameters     98
_refine_ls_number_reflns         1555
_refine_ls_number_restraints     0
_refine_ls_restrained_S_all      1.142
_refine_ls_R_factor_all          0.0267
_refine_ls_R_factor_gt           0.0238
_refine_ls_shift/su_max          0.000
_refine_ls_shift/su_mean         0.000
_refine_ls_structure_factor_coef Fsqd
_refine_ls_weighting_details
'w=1/[\s^2^(Fo^2^)+(0.0464P)^2^+1.9790P] where P=(Fo^2^+2Fc^2^)/3'
_refine_ls_weighting_scheme      calc
_refine_ls_wR_factor_gt          0.0770
_refine_ls_wR_factor_ref         0.0787
_reflns_Friedel_coverage         0.000
_reflns_Friedel_fraction_full    .
_reflns_Friedel_fraction_max     .
_reflns_number_gt                1447
_reflns_number_total             1555
_reflns_threshold_expression     'I > 2\s(I)'
_cod_data_source_file            Li2Zn3SeO34H2O2.cif
_cod_data_source_block           2
_cod_original_sg_symbol_H-M      'P 21/c'
_cod_database_code               1561696
_shelx_space_group_comment
;
The symmetry employed for this shelxl refinement is uniquely defined
by the following loop, which should always be used as a source of
symmetry information in preference to the above space-group names.
They are only intended as comments.
;
_shelx_estimated_absorpt_t_min   0.434
_shelx_estimated_absorpt_t_max   0.690
_shelx_res_file
;

    shelx.res created by SHELXL-2014/7


TITL p21c in P2(1)/c
CELL 0.71073   8.1232   9.1391   7.9381  90.000 112.838  90.000
ZERR    4.00   0.0035   0.0039   0.0034   0.000   0.009   0.000
LATT  1
SYMM -X, 0.5+Y, 0.5-Z
SFAC O ZN SE
UNIT 28 6 8
ACTA
SIZE 0.05 0.04 0.02
L.S. 9
BOND
FMAP 2
PLAN 10
WGHT    0.046400    1.979000
EXTI    0.002544
FVAR       0.10377
SE1   3    0.401716    0.176314    0.261590    11.00000    0.00881    0.00957 =
         0.00866   -0.00002    0.00221    0.00080
SE2   3    0.820933    0.301033    0.153249    11.00000    0.00990    0.00712 =
         0.01006   -0.00044    0.00475   -0.00015
ZN1   2    0.111233    0.125294    0.444972    11.00000    0.01573    0.01104 =
         0.01402    0.00075    0.00621    0.00029
ZN2   2    0.000000    0.000000    0.000000    10.50000    0.01615    0.01015 =
         0.01076    0.00143    0.00597    0.00057
O1    1    0.014403    0.325571    0.343781    11.00000    0.01500    0.01099 =
         0.00921   -0.00183    0.00160    0.00073
O2    1    0.157229    0.624859    0.394209    11.00000    0.01785    0.00782 =
         0.02076    0.00284    0.01169    0.00216
O3    1    0.211932    0.082594    0.243422    11.00000    0.01350    0.01228 =
         0.01257   -0.00112    0.00575   -0.00387
O4    1    0.316796    0.342579    0.176458    11.00000    0.01469    0.00874 =
         0.01308    0.00083    0.00273    0.00162
O5    1    0.325004    0.488630    0.355633    11.00000    0.04194    0.03343 =
         0.05014   -0.00054    0.02507    0.00420
O6    1    0.450079    0.106655    0.093689    11.00000    0.01642    0.01665 =
         0.01470   -0.00169    0.00906    0.00246
O7    1    0.877043    0.399669    0.001455    11.00000    0.01574    0.00913 =
         0.01419    0.00139    0.00788    0.00023
HKLF 4

REM  p21c in P2(1)/c
REM R1 =  0.0238 for    1447 Fo > 4sig(Fo)  and  0.0267 for all    1555 data
REM     98 parameters refined using      0 restraints

END

WGHT      0.0464      1.9791

REM Highest difference peak  0.779,  deepest hole -1.725,  1-sigma level  0.219
Q1    1   0.1784  0.0123  0.4624  11.00000  0.05    0.65
Q2    1   0.3718  0.3200  0.2975  11.00000  0.05    0.58
Q3    1   0.5266  0.3825  0.3482  11.00000  0.05    0.52
Q4    1   0.9612  0.3083 -0.0670  11.00000  0.05    0.51
Q5    1   0.4391  0.1004  0.1718  11.00000  0.05    0.50
Q6    1   0.1170  0.6294  0.4725  11.00000  0.05    0.48
Q7    1   0.3004  0.6173  0.4437  11.00000  0.05    0.48
Q8    1   0.4382  0.0428  0.2235  11.00000  0.05    0.45
Q9    1   0.2027  0.3152  0.0872  11.00000  0.05    0.43
Q10   1   0.2783  0.3202  0.2143  11.00000  0.05    0.43
;
_shelx_res_checksum              82928
_shelx_hkl_file
;
   0   0   1    0.08    0.02
   0   0  -1    0.03    0.02
   0   0   1    0.02    0.03
   0   0   1    0.04    0.02
   0   0  -1    0.01    0.03
   0   0   2   17.01    0.41
   0   0  -2   17.52    0.41
   0   0  -2   17.12    0.37
   0   0  -2   18.11    0.38
   0   0   2   17.65    0.37
   0   0  -3    0.13    0.05
   0   0  -3    0.08    0.07
   0   0  -3    0.03    0.05
   0   0   3    0.04    0.06
   0   0   3    0.06    0.06
   0   0  -4   32.17    0.70
   0   0   4   32.59    0.70
   0   0  -4   31.64    0.77
   0   0   4   32.92    0.68
   0   0  -4   32.44    0.68
   0   0  -5    0.06    0.11
   0   0  -5    0.03    0.08
   0   0   5    0.05    0.09
   0   0  -6    0.40    0.12
   0   0  -6    0.54    0.15
   0   0  -7    0.16    0.15
   0   0  -8   25.27    0.73
   0   0  -9    0.08    0.20
   0   1   1    4.77    0.14
   0   1   1    4.37    0.13
   0   1  -1    4.51    0.13
   0   1  -1    4.68    0.14
   0  -1   1    4.56    0.13
   0  -1  -1    4.62    0.14
   0   1   2   54.97    1.10
   0   1   2   54.70    1.19
   0   1  -2   54.90    1.13
   0   1  -2   54.66    1.19
   0  -1   2   56.73    1.07
   0  -1  -2   54.70    1.19
   0  -1   2   56.25    1.13
   0  -1  -2   53.09    1.09
   0  -1   2   49.75    1.19
   0   1   3    3.23    0.13
   0   1  -3    3.31    0.11
   0   1  -3    3.14    0.13
   0   1   3    3.13    0.14
   0   1  -3    3.28    0.15
   0  -1  -3    3.18    0.13
   0  -1   3    2.84    0.13
   0  -1   3    3.44    0.14
   0  -1  -3    3.37    0.15
   0  -1   3    3.23    0.10
   0   1  -4   61.64    1.33
   0   1   4   62.59    1.31
   0   1  -4   63.41    1.42
   0  -1  -4   62.42    1.41
   0  -1   4   65.13    1.27
   0  -1   4   64.86    1.34
   0  -1  -4   63.45    1.29
   0   1   5    0.36    0.08
   0   1  -5    0.22    0.12
   0  -1   5    0.49    0.10
   0  -1   5    0.47    0.11
   0  -1  -5    0.50    0.11
   0   1  -6   90.07    2.00
   0  -1  -6   87.78    2.00
   0   1  -7   19.86    0.60
   0  -1  -7   19.70    0.60
   0   1  -8   31.04    0.86
   0  -1  -8   30.76    0.86
   0   1  -9   17.20    0.61
   0  -1  -9   17.75    0.63
   0   2   0  107.36    2.15
   0   2   0  110.81    2.23
   0   2   0  107.92    2.32
   0  -2   0  107.28    2.23
   0  -2   0  112.03    2.32
   0   2  -1   75.63    1.59
   0   2  -1   75.29    1.46
   0   2   1   69.84    1.60
   0   2  -1   75.98    1.54
   0   2   1   74.64    1.48
   0   2   1   76.23    1.52
   0  -2   1   72.66    1.54
   0  -2  -1   77.36    1.60
   0  -2  -1   72.45    1.48
   0  -2   1   73.93    1.59
   0   2  -2  241.76    4.80
   0   2   2  234.32    4.63
   0   2  -2  233.91    5.00
   0   2   2  237.96    5.00
   0  -2   2  238.97    5.00
   0  -2  -2  236.34    5.00
   0  -2   2  231.41    4.80
   0  -2  -2  232.06    4.63
   0   2  -3    0.06    0.06
   0   2  -3    0.16    0.07
   0  -2  -3    0.28    0.07
   0  -2   3    0.20    0.07
   0   2  -4   27.22    0.67
   0  -2  -4   27.81    0.62
   0  -2   4   27.82    0.64
   0  -2  -4   28.01    0.68
   0   2  -5  410.10    8.72
   0  -2   5  411.02    8.35
   0  -2  -5  410.46    8.73
   0   2  -6    1.32    0.17
   0  -2  -6    1.17    0.16
   0   2  -7   33.00    0.86
   0  -2  -7   32.53    0.87
   0   2  -8    0.17    0.19
   0  -2  -8    0.05    0.18
   0   2  -9    1.59    0.26
   0  -2  -9    1.07    0.23
   0   3   0   -0.03    0.06
   0   3   0   -0.04    0.05
   0  -3   0    0.04    0.06
   0  -3   0   -0.13    0.04
   0   3   1  263.95    5.23
   0   3  -1  260.25    5.21
   0   3  -1  272.78    5.64
   0   3   1  269.91    5.41
   0   3   1  253.52    5.65
   0  -3  -1  274.88    5.65
   0  -3   1  264.75    5.42
   0  -3   1  273.48    5.64
   0  -3  -1  268.01    5.23
   0   3  -2   29.29    0.68
   0   3   2   29.18    0.69
   0   3   2   29.81    0.69
   0   3  -2   29.19    0.66
   0   3   2   31.37    0.63
   0   3   2   29.44    0.65
   0  -3   2   29.95    0.66
   0  -3  -2   29.98    0.64
   0   3   3    5.05    0.21
   0   3  -3    4.62    0.20
   0  -3  -3    4.95    0.19
   0   3  -4    1.92    0.18
   0  -3   4    1.91    0.19
   0  -3  -4    1.82    0.17
   0   3  -5   64.04    1.46
   0  -3  -5   63.73    1.47
   0  -3   5   64.43    1.40
   0   3  -6    1.91    0.20
   0  -3  -6    1.46    0.18
   0   3  -9    0.57    0.23
   0  -3  -9    0.63    0.23
   0   4   0  152.63    3.16
   0   4   0  152.25    3.05
   0   4   0  162.02    3.29
   0  -4   0  150.37    3.29
   0   4  -1   12.28    0.32
   0   4   1   11.95    0.32
   0   4   1   12.15    0.31
   0  -4   1   11.80    0.32
   0  -4   2    1.95    0.16
   0   4   3   97.14    2.15
   0   4  -3   99.95    2.13
   0  -4   3   96.03    2.06
   0   4  -4    2.57    0.21
   0   4   4    2.65    0.20
   0  -4   4    2.79    0.22
   0   4  -5  207.40    4.46
   0   4   5  208.92    4.49
   0  -4   5  204.98    4.29
   0   4  -6   80.58    1.83
   0   4  -7   53.77    1.30
   0   4  -8   15.47    0.56
   0   4  -9    0.43    0.23
   0   4   9    0.25    0.22
   0   5   0    0.03    0.07
   0   5  -1   15.62    0.41
   0   5   1   15.58    0.41
   0   5  -2    5.21    0.21
   0   5   2    5.54    0.22
   0  -5   2    5.27    0.23
   0   5   3  275.06    6.00
   0   5   3  287.70    5.70
   0   5  -3  282.00    5.99
   0  -5   3  279.31    5.77
   0   5  -4    9.39    0.34
   0   5   4    9.66    0.35
   0  -5   4    9.38    0.36
   0   5   5    3.69    0.28
   0   5  -5    3.25    0.26
   0   5   6   26.83    0.75
   0   5  -6   26.49    0.73
   0   5   7    1.49    0.21
   0   5  -7    1.36    0.22
   0   5  -8    0.55    0.22
   0   5   8    0.41    0.21
   0   5   9    0.17    0.24
   0   5  -9    0.17    0.25
   0   6   0  232.94    4.97
   0   6  -1   61.08    1.36
   0   6   1   59.97    1.36
   0   6   2   40.90    0.96
   0   6  -2   40.85    0.95
   0   6   3  147.08    3.15
   0   6   3  137.87    2.97
   0   6  -3  148.32    3.13
   0   6   4   23.21    0.64
   0   6  -4   22.95    0.62
   0   6   5   13.43    0.47
   0   6  -5   13.06    0.45
   0   6   6    1.51    0.21
   0   6  -6    1.68    0.22
   0   6   7   28.16    0.83
   0   6  -7   28.58    0.81
   0   6   8   18.90    0.69
   0   6  -8   18.80    0.66
   0   7   0   -0.02    0.11
   0   7   1   11.78    0.37
   0   7  -1   12.10    0.37
   0   7   2   13.64    0.41
   0   7  -2   13.21    0.41
   0   7   3   18.00    0.53
   0   7  -3   18.04    0.51
   0   7   4    5.50    0.31
   0   7  -4    5.53    0.30
   0   7  -6    0.67    0.21
   0   7   6    0.46    0.20
   0   7   7   62.51    1.56
   0   7  -7   62.97    1.52
   0   7   8   34.03    0.99
   0   7  -8   33.13    0.95
   0   8   0    4.80    0.26
   0   8   1   16.14    0.47
   0   8  -1   16.59    0.48
   0   8   2  258.44    5.59
   0   8  -2  262.75    5.59
   0   8   3    5.20    0.30
   0   8  -3    5.44    0.29
   0   8  -5    0.00    0.18
   0   8   5   -0.07    0.18
   0   8   6    0.05    0.20
   0   8  -6    0.74    0.21
   0   8  -7    1.04    0.26
   0   8   7    0.20    0.25
   0   9   0   -0.03    0.14
   0   9   1    0.64    0.15
   0   9  -1    0.49    0.15
   0   9   2   45.87    1.12
   0   9  -2   46.04    1.11
   0   9   3   -0.03    0.15
   0   9  -3    0.05    0.15
   0   9   4    0.32    0.19
   0   9  -4    0.48    0.19
   0   9   5    6.84    0.42
   0   9  -5    6.84    0.40
   0   9   6    0.91    0.26
   0   9  -6    1.09    0.25
   0  10   0   96.06    2.17
   0  10  -1    8.41    0.38
   0  10   1    9.38    0.38
   0  10   2    0.62    0.18
   0  10  -2    0.33    0.17
   0  10   4    1.22    0.23
   0  10  -4    1.78    0.24
   0  10   5    3.32    0.32
   0  10  -5    3.96    0.38
   0  10   6   21.42    0.76
   0  10  -6   21.39    0.75
   0  11   0    0.21    0.19
   0  11  -1    8.68    0.40
   0  11   1    8.30    0.41
   0  11  -2   10.95    0.45
   0  11   2   10.67    0.47
   0  11   3   20.55    0.66
   0  11  -3   20.23    0.65
   0  11   4   19.44    0.69
   0  11  -4   20.05    0.67
   0  12   0    0.73    0.23
   0  12  -1    0.08    0.22
   0  12   1    0.34    0.23
   0  12  -2   12.86    0.53
   0  12   2   12.69    0.55
   0  12   3    9.49    0.51
   0  12  -3    8.98    0.50
   1   0 -10    0.92    0.24
   1   0  -9   -0.07    0.18
   1   0  -8   62.21    1.49
   1   0  -7    0.25    0.14
   1   0  -7    0.03    0.11
   1   0  -6  107.08    2.28
   1   0  -6  111.72    2.44
   1   0  -6  112.25    2.22
   1   0  -5   -0.03    0.08
   1   0  -5    0.14    0.09
   1   0  -5   -0.07    0.10
   1   0  -4   11.01    0.28
   1   0  -4   11.76    0.28
  -1   0   4   11.56    0.28
   1   0  -3    0.26    0.04
  -1   0   3    0.11    0.05
  -1   0   2   14.26    0.30
   1   0  -2   13.81    0.30
   1   0  -1    0.03    0.03
   1   0  -1   -0.03    0.03
  -1   0   1    0.05    0.03
   1   0   0  147.03    3.13
  -1   0   0  150.04    3.14
  -1   0   0  147.22    2.89
   1   0   0  147.65    3.14
  -1   0  -1    0.16    0.08
   1   0   1    0.03    0.07
   1   0   2  988.03   20.22
   1   0   2 1000.00   21.06
  -1   0  -2  993.90   21.11
   1   0   3    0.05    0.07
   1   0   3    0.38    0.08
  -1   0  -3    0.06    0.07
  -1   0  -4   18.43    0.50
   1   0   4   18.92    0.44
   1   0   4   18.64    0.45
  -1   0  -5    0.27    0.13
   1   0   5   -0.11    0.11
  -1   0  -6  107.82    2.37
   1   0   6  103.67    2.21
   1   0   7    0.04    0.14
  -1   0  -7    0.09    0.16
  -1   0  -8    0.61    0.20
  -1   0  -9    0.17    0.22
   1   1 -10    7.66    0.46
   1  -1 -10    7.74    0.49
   1   1  -9   51.15    1.32
   1  -1  -9   53.61    1.34
   1   1  -8    0.83    0.19
   1  -1  -8    0.81    0.19
   1   1  -7    7.76    0.35
   1   1  -7    7.94    0.27
   1  -1  -7    7.92    0.30
   1  -1  -7    9.47    0.36
   1   1  -6   75.30    1.70
   1   1  -6   75.16    1.52
   1  -1  -6   73.93    1.70
   1  -1  -6   75.44    1.54
   1   1  -5  127.68    2.47
   1   1  -5  120.01    2.56
   1   1  -5  124.02    2.71
   1  -1  -5  125.15    2.71
  -1  -1   5  124.34    2.47
   1  -1  -5  126.06    2.49
   1   1  -4  386.47    8.41
   1   1  -4  405.51    8.05
   1   1  -4  408.06    7.77
  -1  -1   4  399.41    7.75
   1  -1  -4  400.94    7.77
   1  -1  -4  381.28    8.42
   1   1  -3    0.76    0.08
   1   1  -3    0.75    0.07
  -1   1   3    0.73    0.09
   1   1  -3    0.83    0.10
  -1   1   3    1.06    0.08
  -1  -1   3    0.91    0.07
   1  -1  -3    0.82    0.08
   1  -1  -3    1.04    0.10
  -1   1   2    3.67    0.12
   1   1  -2    3.12    0.13
   1   1  -2    3.56    0.10
  -1  -1   2    3.69    0.10
   1  -1  -2    3.55    0.12
  -1  -1   2    3.42    0.13
   1   1  -1   22.43    0.46
  -1   1   1   23.00    0.46
  -1   1   1   22.35    0.49
   1   1  -1   21.73    0.50
   1  -1  -1   21.71    0.49
  -1  -1   1   22.39    0.46
  -1  -1   1   22.55    0.50
  -1   1   0    5.84    0.15
  -1   1   0    6.00    0.13
  -1   1   0    5.85    0.14
   1  -1   0    5.84    0.14
  -1  -1   0    6.05    0.15
  -1   1  -1   95.76    1.98
  -1   1  -1   94.13    1.91
   1   1   1   92.20    1.98
   1  -1   1   86.07    1.91
   1  -1   1   94.89    1.98
  -1  -1  -1   93.06    1.99
   1  -1   1   94.03    1.82
   1   1   2   12.46    0.32
  -1   1  -2   12.85    0.32
   1   1   2   12.77    0.29
  -1   1  -2   12.84    0.30
   1  -1   2   12.41    0.31
   1  -1   2   12.55    0.31
  -1  -1  -2   12.75    0.33
  -1   1  -3    1.66    0.13
  -1   1  -3    1.79    0.13
   1   1   3    2.23    0.14
   1   1   3    1.67    0.11
   1  -1   3    1.96    0.11
   1  -1   3    1.84    0.14
   1   1   4   15.24    0.36
  -1   1  -4   14.90    0.42
   1  -1   4   14.83    0.40
  -1  -1  -4   14.85    0.42
   1  -1   4   14.82    0.34
   1   1   5    0.08    0.11
  -1   1  -5    0.20    0.12
   1  -1   5    0.33    0.10
  -1  -1  -5    0.20    0.12
   1  -1   5    0.28    0.12
  -1   1  -6  122.93    2.69
   1   1   6  120.76    2.51
  -1  -1  -6  122.22    2.69
   1  -1   6  119.04    2.53
  -1   1  -7    5.92    0.36
   1  -1   7    5.63    0.30
  -1  -1  -7    5.76    0.34
  -1   1  -8    3.12    0.32
  -1  -1  -8    3.31    0.33
  -1   1  -9    4.33    0.39
  -1  -1  -9    4.78    0.40
   1   2 -10    5.03    0.43
   1  -2 -10    5.14    0.46
   1   2  -9    8.75    0.45
   1  -2  -9    8.27    0.46
   1   2  -8   45.58    1.14
   1  -2  -8   45.56    1.15
   1   2  -7    3.68    0.28
   1  -2  -7    3.10    0.28
   1  -2  -7    3.57    0.24
   1   2  -6   14.27    0.34
   1   2  -6   13.86    0.44
  -1  -2   6   13.53    0.36
   1  -2  -6   14.04    0.39
   1  -2  -6   13.95    0.45
   1   2  -5    4.68    0.23
   1   2  -5    4.70    0.16
  -1  -2   5    4.92    0.17
   1  -2  -5    4.77    0.21
   1  -2  -5    4.57    0.24
   1   2  -4   68.60    1.55
   1   2  -4   71.56    1.39
   1  -2  -4   68.61    1.43
  -1  -2   4   72.97    1.39
   1  -2  -4   68.08    1.55
   1   2  -3  200.43    3.87
   1   2  -3  199.53    4.22
   1   2  -3  206.74    4.05
  -1   2   3  182.98    3.90
   1  -2  -3  195.27    4.22
   1  -2  -3  200.89    3.91
  -1  -2   3  201.71    3.88
   1   2  -2   73.67    1.47
   1   2  -2   69.71    1.53
   1   2  -2   69.44    1.40
  -1   2   2   67.99    1.42
  -1   2   2   70.01    1.53
   1  -2  -2   70.37    1.53
  -1  -2   2   71.10    1.40
   1   2  -1   31.28    0.68
  -1   2   1   31.90    0.64
  -1   2   1   30.38    0.67
  -1   2   1   29.81    0.62
   1  -2  -1   31.78    0.67
  -1  -2   1   26.73    0.67
  -1   2   0   33.55    0.71
  -1   2   0   32.41    0.70
  -1   2   0   33.63    0.66
   1  -2   0   32.75    0.71
  -1  -2   0   32.43    0.72
  -1   2  -1  124.79    2.65
  -1   2  -1  128.79    2.56
   1   2   1  122.68    2.66
   1  -2   1  125.23    2.56
  -1  -2  -1  122.25    2.66
   1  -2   1  123.88    2.65
   1   2   2   26.21    0.61
  -1   2  -2   26.20    0.60
  -1   2  -2   25.56    0.58
   1   2   2   25.67    0.56
   1  -2   2   25.75    0.59
   1  -2   2   26.64    0.60
   1   2   3   28.71    0.63
   1  -2   3   29.69    0.67
  -1  -2  -3   29.75    0.71
   1   2   4  252.97    5.10
  -1   2  -4  246.38    5.37
   1  -2   4  252.38    5.15
  -1  -2  -4  253.96    5.38
   1   2   5    8.32    0.26
  -1   2  -5    8.68    0.33
  -1  -2  -5    9.28    0.34
   1  -2   5    8.70    0.33
  -1   2  -6    2.38    0.25
   1  -2   6    2.30    0.25
  -1  -2  -6    1.90    0.24
  -1   2  -7  132.04    3.00
  -1  -2  -7  134.72    3.02
   1  -2   7  138.03    2.84
  -1   2  -8    3.28    0.35
  -1  -2  -8    2.62    0.32
  -1   2  -9   10.01    0.51
  -1  -2  -9   11.03    0.52
   1   3  -9   61.09    1.50
   1  -3  -9   60.89    1.52
   1   3  -8    0.74    0.19
   1  -3  -8    0.31    0.18
   1   3  -7   16.73    0.53
   1  -3  -7   16.98    0.54
   1   3  -6   12.58    0.42
   1  -3  -6   13.08    0.39
   1  -3  -6   12.88    0.43
   1   3  -5    1.32    0.15
   1  -3  -5    1.24    0.14
   1  -3  -5    1.19    0.13
   1   3  -4    0.19    0.10
   1  -3  -4    0.12    0.09
   1  -3  -4   -0.04    0.08
   1   3  -3   77.90    1.85
  -1   3   3   88.56    1.85
   1   3  -3   86.51    1.66
   1   3  -2   22.25    0.53
   1   3  -2   23.09    0.47
  -1   3   2   22.45    0.53
  -1   3   2   23.79    0.49
  -1   3   2   21.23    0.49
  -1   3   2   21.60    0.53
   1  -3  -2   23.10    0.48
   1  -3  -2   22.35    0.50
  -1   3   1    6.57    0.18
  -1   3   1    7.10    0.19
  -1   3   1    6.33    0.18
   1   3  -1    6.81    0.20
   1  -3  -1    6.79    0.19
   1   3   0   91.70    2.01
  -1   3   0   94.81    1.99
  -1   3   0   93.74    1.93
  -1   3   0   93.94    1.85
   1  -3   0   93.40    1.93
  -1  -3   0   94.14    2.01
   1  -3   0   91.85    1.85
   1  -3   0   94.10    2.00
   1   3   1  470.90    9.79
  -1   3  -1  468.45    9.77
  -1   3  -1  487.92    9.01
  -1   3  -1  415.65    9.32
   1  -3   1  469.91    9.71
  -1  -3  -1  439.51    9.71
   1  -3   1  472.62    9.02
   1  -3   1  456.84    9.40
  -1   3  -2   54.65    1.19
   1  -3   2   53.04    1.16
  -1   3  -3   55.21    1.25
   1   3   3   56.16    1.27
   1  -3   3   55.93    1.22
  -1   3  -4   29.28    0.71
   1  -3   4   28.39    0.70
  -1  -3  -4   28.54    0.73
  -1   3  -5    4.13    0.27
  -1  -3  -5    4.68    0.26
   1  -3   5    3.97    0.27
  -1   3  -6    0.31    0.17
   1  -3   6    0.61    0.15
  -1  -3  -6    0.41    0.16
  -1   3  -7   13.00    0.48
   1  -3   7   12.92    0.46
  -1  -3  -7   13.09    0.49
  -1   3  -8    7.21    0.42
  -1  -3  -8    6.77    0.41
  -1   3  -9    3.93    0.42
  -1  -3  -9    3.92    0.40
   1   4  -9    0.22    0.21
   1  -4  -9    0.30    0.22
   1  -4  -8   13.99    0.55
   1   4  -7   11.24    0.46
   1   4  -6   52.66    1.23
   1  -4  -6   51.75    1.24
   1  -4  -6   51.01    1.14
  -1   4   5    0.13    0.12
   1   4  -5    0.23    0.13
   1  -4  -5    0.07    0.12
   1   4  -4  103.59    2.27
  -1   4   4  105.29    2.28
   1  -4  -4  102.24    2.11
   1   4  -3  162.71    3.44
  -1   4   3  160.09    3.44
   1   4  -3  158.49    3.14
   1  -4  -3  158.45    3.19
   1   4  -2    9.37    0.28
  -1   4   2    9.86    0.25
  -1   4   2    9.63    0.27
   1   4  -2    9.78    0.24
   1  -4  -2    9.65    0.25
  -1   4   1  234.78    4.73
   1   4  -1  240.99    4.93
  -1   4   1  224.49    4.56
  -1   4   1  234.81    4.92
   1  -4  -1  227.51    4.57
   1  -4  -1  224.59    4.92
   1  -4  -1  236.70    4.72
  -1   4   0    0.30    0.06
  -1   4   0    0.06    0.06
   1   4   0    0.11    0.06
   1  -4   0    0.14    0.06
   1  -4   0    0.18    0.07
   1  -4   0    0.13    0.06
  -1   4  -1   94.44    1.82
  -1   4  -1   93.89    1.98
   1  -4   1   86.71    1.98
   1  -4   1   92.80    1.82
   1   4   2   16.85    0.46
   1  -4   2   17.46    0.45
  -1   4  -3    0.28    0.12
   1   4   3    0.37    0.11
   1  -4   3    0.32    0.12
  -1   4  -4   11.61    0.38
   1   4   4   11.39    0.39
   1  -4   4   11.76    0.39
  -1   4  -5   10.66    0.38
   1   4   5   10.36    0.40
   1  -4   5   10.93    0.39
   1   4   6    1.27    0.19
  -1   4  -6    0.67    0.18
   1  -4   6    0.62    0.17
   1   4   7   65.29    1.58
  -1   4  -7   65.74    1.56
   1  -4   7   64.79    1.48
   1   4   8   30.87    0.92
  -1   4  -8   32.40    0.90
  -1   4  -9   73.49    1.85
   1   5  -9   42.84    1.15
  -1   5   9   43.68    1.19
  -1   5   8    3.44    0.36
   1   5  -8    4.47    0.37
  -1   5   7   14.77    0.53
   1   5  -7   14.42    0.52
  -1   5   6    1.40    0.18
   1   5  -6    1.76    0.20
  -1   5   5    5.57    0.29
   1   5  -5    5.46    0.28
   1  -5  -5    5.43    0.27
   1   5  -4   54.04    1.25
  -1   5   4   54.53    1.26
   1  -5  -4   54.21    1.17
   1   5  -3   26.42    0.66
  -1   5   3   26.95    0.67
   1   5  -3   27.27    0.57
  -1   5   3   28.18    0.60
   1  -5  -3   26.55    0.63
  -1   5   2    5.30    0.21
  -1   5   2    5.23    0.20
   1   5  -2    5.23    0.21
   1  -5  -2    5.24    0.21
   1   5  -1  263.91    5.56
   1   5  -1  254.96    5.14
   1  -5  -1  265.84    5.33
  -1   5   0   41.37    0.90
   1   5   0   45.41    0.99
   1  -5   0   44.02    0.96
   1  -5   0   43.04    0.91
   1   5   1    1.30    0.14
  -1   5  -1    1.26    0.11
  -1   5  -1    1.27    0.14
   1  -5   1    1.53    0.17
  -1   5  -2   16.06    0.43
   1   5   2   15.47    0.39
   1   5   2   16.10    0.44
   1  -5   2   16.07    0.44
   1   5   3  117.43    2.65
  -1   5  -3  122.15    2.62
   1   5   3  121.81    2.48
   1  -5   3  121.27    2.55
  -1   5  -4    0.26    0.15
   1   5   4    0.04    0.13
   1  -5   4   -0.06    0.14
   1   5   5   94.90    2.12
  -1   5  -5   94.58    2.09
   1  -5   5   89.74    2.02
   1   5   6    9.25    0.42
   1  -5   6    9.11    0.40
   1   5   7    3.38    0.34
   1   5   8   11.74    0.54
  -1   5  -8   11.36    0.52
  -1   6   9    7.08    0.50
   1   6  -8    1.90    0.25
  -1   6   8    1.02    0.26
  -1   6   7   20.29    0.66
   1   6  -6   50.64    1.24
  -1   6   6   50.72    1.25
  -1   6   5    2.32    0.25
   1   6  -5    2.26    0.25
  -1   6   4    5.90    0.28
   1   6  -4    5.61    0.28
   1  -6  -4    6.03    0.28
  -1   6   3    8.20    0.29
   1   6  -3    8.43    0.31
  -1   6   3    8.77    0.31
   1   6  -3    8.46    0.25
   1  -6  -3    8.95    0.31
   1   6  -2   33.85    0.81
  -1   6   2   33.31    0.80
   1  -6  -2   33.98    0.76
   1   6  -1  274.11    5.84
  -1   6   1  273.12    5.82
   1  -6  -1  274.20    5.41
   1  -6  -1  274.62    5.59
   1   6   0    1.75    0.16
  -1   6   0    1.91    0.17
   1  -6   0    2.21    0.19
  -1   6  -1    1.70    0.17
  -1   6  -1    2.10    0.15
   1   6   1    1.69    0.18
   1  -6   1    1.81    0.20
  -1   6  -2  148.71    2.89
   1   6   2  146.95    3.20
  -1   6  -2  145.50    3.17
   1  -6   2  147.09    3.08
   1   6   3   55.21    1.20
   1   6   3   55.96    1.31
  -1   6  -3   56.78    1.28
   1  -6   3   55.68    1.26
   1   6   4   39.62    0.99
  -1   6  -4   38.90    0.95
   1  -6   4   39.34    0.95
   1   6   5   10.64    0.48
  -1   6  -5   11.54    0.43
   1  -6   5   11.23    0.43
  -1   6  -6   43.74    1.09
   1   6   6   43.58    1.13
   1  -6   6   42.96    1.07
   1   6   7    0.93    0.23
  -1   6  -7    0.90    0.23
  -1   6  -8    2.94    0.33
   1   6   8    2.14    0.29
  -1   7   8   17.33    0.66
   1   7  -8   17.08    0.62
   1   7  -7   20.40    0.66
  -1   7   7   21.11    0.68
  -1   7   6   45.93    1.18
   1   7  -6   47.60    1.17
  -1   7   5  114.34    2.56
  -1   7   4   18.00    0.53
   1   7  -4   18.07    0.53
  -1   7   3    0.32    0.12
   1   7  -3    0.51    0.14
   1   7  -3    0.11    0.11
   1   7  -2   71.53    1.62
  -1   7   2   72.55    1.61
  -1   7   1   12.44    0.37
   1   7  -1   12.80    0.40
   1   7   0    1.49    0.18
  -1   7   0    1.59    0.19
   1  -7   0    1.63    0.15
  -1   7  -1   58.72    1.33
   1   7   1   58.90    1.36
   1  -7   1   59.67    1.31
   1   7   2    0.28    0.14
  -1   7  -2    0.36    0.11
  -1   7  -2    0.07    0.13
   1  -7   2   -0.04    0.14
   1   7   3    4.02    0.27
  -1   7  -3    3.85    0.26
   1  -7   3    3.89    0.28
  -1   7  -4   43.63    1.05
   1   7   4   42.87    1.08
   1  -7   4   43.11    1.05
   1   7   5   11.51    0.47
  -1   7  -5   12.22    0.45
   1  -7   5   11.73    0.47
   1   7   6    0.37    0.21
   1   7   7   23.33    0.76
  -1   7  -7   21.13    0.70
  -1   8   8    9.59    0.55
   1   8  -7   13.53    0.54
  -1   8   7   13.19    0.58
   1   8  -6   50.75    1.26
  -1   8   5    2.09    0.23
   1   8  -5    2.42    0.28
  -1   8   4    6.46    0.33
   1   8  -3    0.41    0.14
  -1   8   3    0.06    0.13
  -1   8   2   24.06    0.63
   1   8  -2   24.23    0.64
   1   8  -1    3.13    0.24
  -1   8   1    3.39    0.23
  -1   8   0   75.92    1.69
   1   8   0   74.59    1.70
   1   8   1   20.41    0.57
  -1   8  -1   19.87    0.54
   1   8   2    0.95    0.16
  -1   8  -2    1.03    0.16
   1   8   3   47.64    1.19
  -1   8  -3   49.36    1.16
   1   8   4  242.29    5.27
   1   8   5   25.14    0.82
  -1   8  -5   25.54    0.73
   1   8   6    3.17    0.38
  -1   8  -6    3.43    0.37
  -1   8  -7    1.26    0.28
   1   8   7    0.49    0.26
  -1   9   7   49.89    1.31
   1   9  -7   49.01    1.28
   1   9  -6   55.95    1.39
  -1   9   6   55.93    1.40
   1   9  -5    1.52    0.22
  -1   9   5    1.40    0.24
  -1   9   4   27.50    0.76
   1   9  -4   27.20    0.75
   1   9  -3   59.83    1.41
  -1   9   3   60.17    1.41
  -1   9   2   34.40    0.86
  -1   9   1    9.34    0.36
   1   9  -1    9.53    0.37
   1   9   0   33.44    0.86
  -1   9   0   33.60    0.84
  -1   9  -1    1.10    0.17
  -1   9  -2    2.40    0.26
   1   9   2    2.13    0.21
  -1   9  -3    1.90    0.22
   1   9   3    1.74    0.21
   1   9   4   22.67    0.70
  -1   9  -4   22.91    0.68
  -1   9  -5    6.28    0.42
   1   9   5    5.91    0.42
   1   9   6    9.36    0.52
  -1   9  -6    9.35    0.51
   1  10  -6   35.46    1.00
  -1  10   6   36.48    1.03
  -1  10   5   12.04    0.53
   1  10  -5   12.30    0.51
   1  10  -4   20.00    0.63
  -1  10   3    1.23    0.21
   1  10  -2   12.42    0.46
  -1  10   2   12.44    0.45
  -1  10   1   81.89    1.84
   1  10  -1   78.84    1.85
   1  10   0   19.75    0.60
  -1  10   0   20.00    0.59
   1  10   1   11.77    0.45
  -1  10  -1   11.35    0.43
  -1  10  -2   48.31    1.18
  -1  10  -3    7.02    0.43
   1  10   3    6.28    0.39
   1  10   4    8.43    0.45
  -1  10  -4    8.43    0.45
   1  10   5   40.76    1.15
  -1  10  -5   43.16    1.13
  -1  11   5    4.26    0.44
   1  11  -4   26.51    0.79
  -1  11   4   26.11    0.80
   1  11  -3    1.38    0.23
  -1  11   3    1.26    0.23
  -1  11   2   10.04    0.44
   1  11  -2    9.57    0.44
   1  11  -1   50.10    1.24
   1  11   0   21.76    0.67
  -1  11  -1    0.73    0.22
   1  11   1    0.69    0.21
  -1  11  -2   22.44    0.68
   1  11   2   22.72    0.70
  -1  11  -3   30.06    0.84
   1  11   3   28.95    0.87
  -1  11  -4    1.43    0.28
   1  11   4    0.88    0.26
   1  12  -3   12.67    0.57
  -1  12   3   11.94    0.56
  -1  12   2   46.73    1.21
   1  12  -2   47.71    1.22
   1  12  -1   34.24    0.93
  -1  12   1   32.47    0.92
  -1  12   0   21.64    0.68
   1  12   0   19.53    0.68
   1  12   1    2.26    0.28
  -1  12  -1    2.07    0.28
   1  12   2    3.19    0.40
  -1  12  -2    3.63    0.41
  -1  12  -3    0.31    0.28
   2   0 -10   63.40    1.57
   2   0  -9    0.30    0.17
   2   0  -8   40.31    0.90
   2   0  -7    0.10    0.14
   2   0  -7   -0.08    0.11
   2   0  -6    5.54    0.27
   2   0  -6    4.82    0.21
   2   0  -6    5.20    0.21
   2   0  -5   -0.06    0.10
   2   0  -5   -0.01    0.07
   2   0  -4   11.19    0.31
  -2   0   4   10.98    0.28
   2   0  -4   11.76    0.28
  -2   0   3    0.19    0.05
  -2   0   3   -0.01    0.06
   2   0  -3    0.00    0.05
   2   0  -2   87.62    1.78
  -2   0   2   86.38    1.91
  -2   0   2   94.81    1.79
  -2   0   1    0.26    0.04
  -2   0   1    0.37    0.05
  -2   0   0    5.07    0.15
   2   0   0    5.27    0.14
   2   0   0    5.23    0.14
  -2   0  -1    0.10    0.06
   2   0   1    0.21    0.05
   2   0   1    0.18    0.05
   2   0   2  480.42    9.64
  -2   0  -2  467.54   10.01
   2   0   2  473.33   10.00
  -2   0  -3   -0.10    0.09
   2   0   3   -0.04    0.08
  -2   0  -4  179.37    3.86
  -2   0  -5   -0.05    0.12
   2   0   5    0.03    0.11
   2   0   6   13.28    0.41
  -2   0  -6   13.46    0.46
  -2   0  -7   -0.02    0.17
  -2   0  -8   78.97    1.88
  -2   0  -9    0.29    0.27
   2   1 -10    8.54    0.49
   2  -1 -10    8.07    0.50
   2   1  -9    0.86    0.22
   2  -1  -9    0.60    0.23
   2  -1  -9    0.86    0.18
   2   1  -8   18.23    0.47
   2   1  -8   18.58    0.60
   2  -1  -8   17.60    0.49
   2   1  -7  136.48    3.03
   2   1  -7  138.95    2.75
   2  -1  -7  137.81    2.77
   2  -1  -7  137.20    3.03
   2   1  -6    5.55    0.21
   2   1  -6    6.12    0.27
   2  -1  -6    5.71    0.27
   2  -1  -6    5.67    0.23
   2   1  -5    7.53    0.24
   2   1  -5    7.38    0.28
   2   1  -5    8.07    0.23
   2  -1  -5    7.77    0.24
   2  -1  -5    7.80    0.27
   2   1  -4   45.81    0.93
   2   1  -4   47.27    0.97
   2  -1  -4   44.10    1.02
  -2  -1   4   45.00    0.94
   2  -1  -4   45.41    0.94
  -2   1   3   79.29    1.60
   2   1  -3   80.32    1.59
   2   1  -3   78.87    1.73
  -2  -1   3   82.06    1.59
  -2  -1   3   78.52    1.72
   2  -1  -3   78.28    1.60
   2  -1  -3   81.22    1.72
   2   1  -2  637.86   12.66
   2   1  -2  624.36   13.67
  -2   1   2  658.03   12.61
  -2  -1   2  639.47   12.62
   2  -1  -2  639.29   12.67
  -2  -1   2  664.65   13.63
   2  -1  -2  634.81   13.61
   2   1  -1   57.80    1.18
  -2   1   1   58.20    1.17
   2   1  -1   59.47    1.25
  -2  -1   1   59.79    1.25
  -2  -1   1   56.69    1.18
  -2   1   0  272.01    5.83
   2   1   0  268.07    5.40
  -2   1   0  280.77    5.39
   2   1   0  281.96    5.86
   2  -1   0  276.11    5.43
  -2  -1   0  279.08    5.82
   2  -1   0  272.16    5.60
   2  -1   0  274.81    5.83
   2   1   1   29.97    0.68
   2   1   1   31.29    0.69
  -2   1  -1   30.64    0.68
   2  -1   1   29.62    0.67
   2  -1   1   31.06    0.63
   2  -1   1   29.54    0.67
  -2   1  -2   25.58    0.60
   2   1   2   25.09    0.60
   2  -1   2   25.34    0.58
   2  -1   2   26.19    0.54
   2  -1   2   25.29    0.60
  -2  -1  -2   26.29    0.61
  -2   1  -3   32.15    0.76
   2   1   3   32.58    0.72
  -2  -1  -3   32.06    0.77
  -2   1  -4   17.81    0.50
   2   1   4   18.53    0.45
   2  -1   4   17.58    0.47
  -2  -1  -4   18.40    0.51
  -2   1  -5   13.45    0.45
   2  -1   5   13.46    0.41
   2  -1   5   14.43    0.40
  -2  -1  -5   13.32    0.44
   2   1   6    0.43    0.13
  -2   1  -6    0.54    0.16
   2  -1   6    0.40    0.16
  -2  -1  -6    0.42    0.15
  -2   1  -7    1.34    0.21
  -2  -1  -7    1.81    0.21
   2  -1   7    1.51    0.19
  -2   1  -8   80.97    1.92
  -2  -1  -8   81.41    1.93
  -2   1  -9    0.58    0.26
   2   2 -10    1.94    0.29
   2  -2 -10    1.84    0.29
   2   2  -9    7.50    0.41
   2  -2  -9    7.49    0.43
   2   2  -8   50.80    1.26
   2  -2  -8   53.04    1.29
   2  -2  -8   50.18    1.13
   2   2  -7   20.74    0.61
   2   2  -7   21.72    0.50
   2  -2  -7   21.00    0.54
   2  -2  -7   21.34    0.61
   2   2  -6   10.70    0.38
   2   2  -6   11.39    0.30
   2  -2  -6   11.10    0.34
   2  -2  -6   11.39    0.38
   2   2  -5   64.95    1.48
   2   2  -5   67.57    1.33
  -2  -2   5   65.09    1.34
   2  -2  -5   65.32    1.48
   2  -2  -5   66.88    1.37
   2   2  -4   21.92    0.47
   2   2  -4   20.66    0.54
  -2  -2   4   22.20    0.48
   2  -2  -4   21.69    0.53
   2  -2  -4   21.66    0.50
   2   2  -3  122.36    2.66
   2   2  -3  124.49    2.44
  -2  -2   3  128.74    2.45
  -2  -2   3  123.36    2.66
   2  -2  -3  120.98    2.65
   2  -2  -3  122.78    2.46
  -2   2   2  178.32    3.84
  -2   2   2  188.57    3.57
   2   2  -2  188.15    3.85
   2   2  -2  185.35    3.57
   2  -2  -2  179.36    3.57
   2  -2  -2  187.37    3.69
  -2  -2   2  185.92    3.57
  -2  -2   2  157.59    3.85
  -2   2   1  117.10    2.31
  -2   2   1  117.79    2.48
   2   2  -1  118.54    2.50
   2   2  -1  116.14    2.32
   2  -2  -1  117.23    2.32
  -2  -2   1  117.81    2.50
   2  -2  -1  117.46    2.48
   2  -2  -1  114.49    2.40
  -2   2   0   40.24    0.80
  -2   2   0   38.73    0.85
   2   2   0   39.64    0.87
  -2   2   0   39.55    0.85
   2  -2   0   37.07    0.85
  -2  -2   0   39.64    0.87
   2  -2   0   40.62    0.85
   2  -2   0   39.35    0.80
  -2   2  -1    0.51    0.08
  -2   2  -1    0.28    0.06
  -2   2  -1    0.39    0.05
   2   2   1    0.38    0.06
   2   2   1    0.26    0.06
   2  -2   1    0.29    0.07
   2  -2   1    0.41    0.06
   2  -2   1    0.45    0.05
  -2   2  -2    0.42    0.09
   2   2   2    0.15    0.07
   2  -2   2    0.26    0.05
   2  -2   2    0.31    0.09
  -2   2  -3   52.54    1.18
  -2  -2  -3   52.34    1.19
   2  -2   3   51.71    1.14
  -2   2  -4    2.73    0.23
   2   2   4    2.86    0.19
  -2  -2  -4    2.81    0.21
   2  -2   4    3.83    0.23
  -2   2  -5   32.81    0.83
   2   2   5   33.11    0.74
   2  -2   5   33.13    0.80
  -2  -2  -5   32.06    0.84
   2   2   6   90.79    1.94
  -2   2  -6   93.58    2.10
   2  -2   6   93.91    2.01
  -2  -2  -6   93.19    2.12
  -2   2  -7   18.75    0.61
  -2  -2  -7   18.52    0.61
   2  -2   7   18.36    0.57
  -2   2  -8   14.17    0.56
  -2  -2  -8   15.03    0.58
   2   3 -10   26.24    0.82
   2  -3 -10   26.06    0.85
   2   3  -9   46.84    1.22
   2  -3  -9   48.83    1.24
   2   3  -8   14.71    0.51
   2  -3  -8   14.05    0.52
   2  -3  -8   14.86    0.46
   2   3  -7  176.70    3.84
   2   3  -7  176.50    3.47
   2  -3  -7  173.93    3.54
   2  -3  -7  175.86    3.84
   2   3  -6    1.29    0.15
   2   3  -6    1.35    0.17
   2  -3  -6    1.16    0.16
   2  -3  -6    1.64    0.16
  -2  -3   6    1.16    0.14
   2   3  -5  113.37    2.21
   2   3  -5  110.46    2.45
   2  -3  -5  110.36    2.45
  -2  -3   5  112.15    2.23
   2  -3  -5  112.48    2.27
   2   3  -4    7.04    0.25
   2   3  -4    7.27    0.20
   2  -3  -4    7.45    0.25
   2  -3  -4    7.20    0.24
  -2  -3   4    7.23    0.21
   2   3  -3    0.37    0.10
   2   3  -3    0.67    0.08
  -2   3   3    1.01    0.12
   2  -3  -3    0.49    0.09
   2  -3  -3    0.78    0.09
   2   3  -2   36.97    0.78
  -2   3   2   36.68    0.82
  -2   3   2   37.63    0.83
   2   3  -2   37.49    0.84
   2  -3  -2   38.12    0.79
   2  -3  -2   37.22    0.79
  -2   3   1   11.24    0.26
   2   3  -1   10.76    0.29
  -2   3   1   10.51    0.28
  -2   3   1   10.49    0.26
   2  -3  -1   10.53    0.28
  -2  -3   1   10.28    0.28
   2  -3  -1   10.60    0.27
   2  -3  -1   10.37    0.26
   2   3   0   75.33    1.61
  -2   3   0   71.81    1.55
  -2   3   0   75.50    1.59
  -2   3   0   75.60    1.47
  -2  -3   0   71.29    1.61
   2  -3   0   75.41    1.59
   2  -3   0   73.70    1.48
   2  -3   0   74.32    1.56
  -2   3  -1    4.92    0.14
   2   3   1    4.84    0.18
  -2   3  -1    5.28    0.17
   2  -3   1    4.92    0.14
   2  -3   1    5.12    0.17
  -2   3  -2    3.81    0.18
   2   3   2    4.06    0.19
   2  -3   2    4.14    0.21
   2   3   3  489.80   10.38
  -2   3  -3  487.73   10.35
   2  -3   3  489.73    9.95
   2   3   4    3.94    0.20
  -2   3  -4    4.43    0.26
   2   3   4    4.09    0.25
   2  -3   4    4.53    0.28
  -2   3  -5   14.43    0.46
   2   3   5   13.78    0.38
   2  -3   5   14.81    0.47
  -2  -3  -5   13.83    0.47
  -2   3  -6    5.68    0.34
   2  -3   6    5.73    0.34
  -2   3  -7   39.46    1.01
   2  -3   7   37.69    0.96
  -2   3  -8    0.43    0.23
  -2  -3  -8    0.40    0.21
   2  -4 -10    1.68    0.30
   2   4  -9   12.62    0.53
   2  -4  -9   13.27    0.55
   2   4  -8    9.95    0.44
   2  -4  -8    9.95    0.44
   2  -4  -8   10.30    0.40
   2   4  -7    2.69    0.27
   2  -4  -7    3.05    0.25
   2  -4  -7    2.56    0.28
   2   4  -6   40.20    0.98
   2   4  -6   39.62    0.82
   2  -4  -6   40.45    0.91
   2  -4  -6   40.59    0.99
   2   4  -5   10.28    0.36
  -2   4   5   10.83    0.37
   2   4  -5   10.96    0.27
   2  -4  -5   10.81    0.34
  -2   4   4  201.36    4.41
   2   4  -4  209.16    4.42
   2   4  -4  204.56    4.04
   2  -4  -4  208.37    4.10
  -2   4   3   50.20    1.12
   2   4  -3   49.81    1.03
   2   4  -3   49.52    1.13
   2  -4  -3   51.23    1.05
   2  -4  -3   49.16    1.05
  -2   4   2  106.07    2.20
   2   4  -2  107.43    2.13
  -2   4   2  108.67    2.28
   2   4  -2  108.37    2.30
   2  -4  -2  108.43    2.20
   2  -4  -2   99.58    2.15
  -2   4   1   11.41    0.32
  -2   4   1   12.49    0.31
  -2   4   1   11.85    0.30
   2  -4  -1   12.57    0.32
   2  -4  -1   12.53    0.32
   2  -4  -1   12.18    0.31
   2   4   0    0.13    0.08
  -2   4   0    0.05    0.07
  -2   4   0    0.07    0.06
   2  -4   0    0.18    0.07
   2  -4   0    0.12    0.07
  -2   4  -1  166.69    3.20
  -2   4  -1  162.71    3.48
   2   4   1  165.54    3.51
   2  -4   1  156.43    3.48
   2  -4   1  162.37    3.37
   2  -4   1  165.72    3.21
   2   4   2    7.53    0.28
  -2   4  -2    7.98    0.27
   2  -4   2    7.68    0.29
   2   4   3  154.34    3.38
  -2   4  -3  158.27    3.35
   2  -4   3  153.65    3.25
   2   4   4   10.04    0.38
  -2   4  -4   10.26    0.36
   2  -4   4    9.41    0.38
  -2   4  -5    2.40    0.27
   2   4   5    1.78    0.19
   2  -4   5    1.96    0.21
   2   4   6    0.94    0.20
   2  -4   6    0.78    0.19
   2   4   7    0.22    0.19
   2  -4   7    0.71    0.22
  -2   4  -8    1.40    0.27
   2   4   8    1.04    0.25
   2   5  -9    4.29    0.40
  -2   5   9    4.06    0.42
  -2   5   8   22.62    0.71
   2   5  -8   21.91    0.68
   2  -5  -8   21.75    0.63
   2   5  -7   90.46    2.09
  -2   5   7   91.65    2.11
   2  -5  -7   92.45    1.95
   2   5  -6    9.17    0.37
  -2   5   6    9.16    0.37
   2  -5  -6    8.99    0.34
  -2   5   5  138.17    2.97
   2   5  -5  135.84    2.97
   2   5  -5  134.19    2.67
   2  -5  -5  133.60    2.76
   2   5  -4   19.27    0.53
  -2   5   4   19.31    0.51
   2   5  -4   18.65    0.43
   2  -5  -4   19.50    0.50
  -2   5   3   15.39    0.41
  -2   5   3   15.33    0.39
   2   5  -3   15.32    0.43
   2   5  -3   15.79    0.38
   2  -5  -3   15.59    0.41
   2  -5  -3   15.47    0.38
   2   5  -2  182.72    3.99
   2   5  -2  183.67    3.69
  -2   5   2  194.21    3.84
  -2   5   2  186.07    3.97
   2  -5  -2  182.78    3.71
   2  -5  -2  189.58    3.82
   2   5  -1   45.09    1.04
  -2   5   1   46.45    1.02
  -2   5   0    8.14    0.25
  -2   5   0    7.59    0.23
   2   5   0    7.84    0.27
   2  -5   0    8.34    0.24
   2  -5   0    8.39    0.28
   2   5   1   73.73    1.64
  -2   5  -1   74.54    1.47
   2  -5   1   73.73    1.48
   2  -5   1   72.43    1.58
  -2   5  -2   44.03    1.00
   2   5   2   43.88    1.04
   2  -5   2   43.69    1.01
   2   5   3   35.66    0.90
  -2   5  -3   37.28    0.87
   2  -5   3   35.33    0.88
  -2   5  -4    5.50    0.29
   2   5   4    4.95    0.30
   2  -5   4    4.85    0.31
   2   5   5  240.38    5.38
  -2   5  -5  251.63    5.30
   2  -5   5  246.51    5.12
  -2   5  -6    1.93    0.23
   2   5   6    1.80    0.24
   2  -5   6    1.48    0.22
   2   5   7    4.96    0.40
  -2   5  -7    5.64    0.41
   2  -5   7    5.56    0.41
  -2   5  -8   20.06    0.71
   2   5   8   19.39    0.71
  -2   6   9   42.63    1.15
   2   6  -9   40.44    1.12
   2   6  -8    0.04    0.20
  -2   6   8    0.12    0.21
   2   6  -7    2.40    0.24
  -2   6   7    2.10    0.24
   2  -6  -7    2.16    0.21
  -2   6   6    3.64    0.30
   2   6  -5    8.21    0.34
  -2   6   5    8.12    0.34
   2  -6  -5    7.54    0.31
   2   6  -4   60.75    1.24
   2   6  -4   61.19    1.40
  -2   6   4   61.19    1.39
   2  -6  -4   59.68    1.31
   2   6  -3    8.31    0.30
  -2   6   3    8.18    0.28
   2   6  -3    8.27    0.27
   2  -6  -3    7.74    0.29
   2  -6  -3    8.07    0.26
  -2   6   2    0.29    0.09
   2   6  -2    0.25    0.11
   2  -6  -2    0.34    0.11
   2  -6  -2    0.44    0.11
   2   6  -1   40.02    0.95
  -2   6   1   41.08    0.92
   2  -6  -1   39.76    0.88
   2  -6  -1   40.90    0.91
   2   6   0   21.27    0.56
  -2   6   0   21.32    0.53
   2  -6   0   21.22    0.55
  -2   6  -1  201.49    4.00
   2   6   1  203.43    4.38
  -2   6  -1  203.46    4.35
   2  -6   1  208.28    4.22
   2  -6   1  201.63    4.01
  -2   6  -2    1.78    0.20
   2   6   2    1.47    0.16
   2  -6   2    1.71    0.18
   2   6   3   16.02    0.50
  -2   6  -3   15.91    0.46
   2  -6   3   15.58    0.49
  -2   6  -4   38.41    0.95
   2   6   4   38.81    0.99
   2  -6   4   38.54    0.95
  -2   6  -5   18.00    0.57
   2   6   5   18.31    0.59
   2  -6   5   17.69    0.58
  -2   6  -6    7.60    0.41
   2   6   6    7.83    0.42
   2  -6   6    7.52    0.42
  -2   6  -7    0.43    0.25
   2   6   7    0.25    0.23
   2  -6   7    0.40    0.26
  -2   6  -8   40.86    1.20
  -2   7   9    0.84    0.30
   2   7  -8    0.61    0.23
  -2   7   8    0.66    0.25
   2   7  -7    3.48    0.32
  -2   7   7    3.03    0.28
   2   7  -6    7.46    0.37
   2  -7  -6    6.94    0.35
  -2   7   5   75.96    1.73
   2  -7  -5   74.93    1.66
  -2   7   4   57.52    1.33
   2   7  -4   59.58    1.35
   2   7  -4   54.97    1.19
   2  -7  -4   58.55    1.27
   2   7  -3   76.94    1.74
   2   7  -3   77.16    1.58
  -2   7   3   76.89    1.72
   2  -7  -3   76.71    1.62
  -2   7   2  121.39    2.61
   2   7  -2  118.88    2.64
   2  -7  -2  120.40    2.45
   2  -7  -2  120.52    2.51
   2   7  -1    7.41    0.30
  -2   7   1    7.22    0.27
   2  -7  -1    7.12    0.27
   2  -7  -1    7.28    0.29
   2   7   0  180.38    3.95
  -2   7   0  184.14    3.92
   2  -7   0  182.70    3.64
   2  -7   0  184.19    3.80
  -2   7  -1    9.23    0.32
   2   7   1    9.18    0.35
   2  -7   1    8.97    0.35
  -2   7  -2    6.51    0.29
   2   7   2    6.35    0.31
   2  -7   2    6.70    0.32
   2   7   3    6.49    0.33
  -2   7  -3    6.49    0.30
   2  -7   3    6.27    0.33
   2   7   4    1.04    0.20
  -2   7  -4    0.49    0.17
   2  -7   4    0.21    0.16
  -2   7  -5    5.93    0.37
   2  -7   5    5.62    0.38
  -2   7  -6   17.79    0.60
   2   7   6   17.03    0.64
   2  -7   6   16.99    0.62
   2   7   7    1.51    0.29
  -2   7  -7    2.24    0.30
   2   8  -8   24.02    0.80
  -2   8   8   22.33    0.79
   2   8  -7    5.18    0.39
  -2   8   7    4.79    0.42
  -2   8   6    3.83    0.35
   2   8  -6    4.49    0.34
   2   8  -5   11.33    0.43
  -2   8   5   10.57    0.43
   2   8  -4   52.55    1.26
   2   8  -4   48.90    1.06
  -2   8   4   51.24    1.20
   2  -8  -4   49.39    1.17
   2   8  -3   11.02    0.40
   2   8  -3   11.28    0.35
  -2   8   3   11.12    0.38
   2  -8  -3   11.22    0.39
   2   8  -2   12.41    0.42
  -2   8   2   12.37    0.39
   2  -8  -2   13.19    0.40
   2   8  -1    2.73    0.24
  -2   8   1    3.24    0.23
   2  -8  -1    2.89    0.24
   2   8   0   24.63    0.67
  -2   8   0   25.04    0.64
   2  -8   0   24.97    0.65
  -2   8  -1    3.70    0.25
   2   8   1    3.59    0.27
   2  -8   1    4.21    0.28
  -2   8  -2   16.99    0.51
   2   8   2   17.08    0.53
   2  -8   2   17.05    0.53
  -2   8  -3    2.95    0.28
   2   8   3    3.25    0.29
   2  -8   3    4.04    0.31
   2   8   4   27.01    0.78
  -2   8  -4   27.44    0.76
   2  -8   4   25.98    0.76
  -2   8  -5    9.26    0.45
   2   8   5    8.56    0.45
   2  -8   5    8.92    0.46
  -2   8  -6   88.60    2.04
   2   8   6   86.48    2.09
  -2   8  -7   15.91    0.66
   2   9  -7    0.94    0.24
  -2   9   7    0.46    0.27
  -2   9   6    3.19    0.37
   2   9  -6    3.92    0.35
   2   9  -5   57.14    1.39
  -2   9   5   57.36    1.38
   2   9  -4   15.35    0.52
   2   9  -3    0.12    0.16
  -2   9   3   -0.16    0.15
   2   9  -3    0.25    0.15
  -2   9   2   19.03    0.54
   2   9  -2   18.45    0.56
  -2   9   1   73.64    1.67
  -2   9   0  103.65    2.31
   2   9   0  105.02    2.36
   2  -9   0  105.75    2.26
   2   9   1   17.44    0.55
  -2   9  -1   17.18    0.51
  -2   9  -2    4.61    0.31
   2   9   2    5.00    0.33
   2  -9   2    4.59    0.33
  -2   9  -3   14.76    0.51
   2   9   4    4.67    0.39
  -2   9  -4    5.54    0.39
   2  -9   4    5.23    0.39
   2   9   5    7.86    0.47
  -2   9  -5    8.75    0.47
  -2   9  -6    0.32    0.29
  -2  10   7    4.88    0.52
  -2  10   6    1.66    0.28
   2  10  -6    1.69    0.26
   2  10  -5    0.27    0.20
  -2  10   5    0.24    0.22
  -2  10   4   34.82    0.92
   2  10  -4   34.92    0.93
  -2  10   3    3.18    0.30
   2  10  -3    3.52    0.30
   2  10  -1   21.38    0.65
  -2  10   1   21.13    0.62
   2  10   0    0.71    0.20
  -2  10  -1   37.22    0.95
   2  10   1   36.41    0.99
  -2  10  -2   44.00    1.10
   2  10   2   43.97    1.13
   2  10   3    3.05    0.35
  -2  10  -4    3.89    0.41
   2  10   4    3.27    0.39
  -2  10  -5    1.34    0.31
  -2  11   6   28.61    0.92
  -2  11   5   30.54    0.90
  -2  11   4   12.79    0.53
   2  11  -4   13.08    0.53
   2  11  -3    9.19    0.44
  -2  11   3    9.28    0.45
   2  11  -2    8.32    0.41
  -2  11   2    8.56    0.43
   2  11  -1    0.08    0.18
  -2  11   1    0.27    0.21
   2  11   0    0.15    0.19
  -2  11   0    0.06    0.20
   2  11   1   41.66    1.10
   2  11   2    0.82    0.23
  -2  11  -2    0.98    0.25
   2  11   3    1.71    0.28
  -2  11  -3    1.79    0.29
  -2  11  -4   20.15    0.73
  -2  12   4    0.58    0.30
  -2  12   3    2.44    0.32
   2  12  -2   24.99    0.76
  -2  12   2   24.37    0.77
   2  12  -1    0.31    0.22
  -2  12   1    0.48    0.27
  -2  12   0   13.73    0.56
   2  12   0   13.33    0.56
  -2  12  -1   13.19    0.56
  -2  12  -2   22.59    0.76
  -2  12  -3    2.00    0.34
  -2  13   1    0.54    0.31
   3   0 -10    8.63    0.49
   3   0  -9    0.13    0.16
   3   0  -9    0.16    0.20
   3   0  -8   37.87    0.96
   3   0  -8   37.00    0.84
   3   0  -7   -0.03    0.11
   3   0  -7    0.17    0.14
   3   0  -6   85.62    1.83
   3   0  -6   89.54    1.79
   3   0  -6   89.06    1.96
   3   0  -5    0.05    0.08
   3   0  -5   -0.09    0.09
   3   0  -4   41.62    0.94
  -3   0   3    0.06    0.08
  -3   0   3   -0.24    0.07
   3   0  -3   -0.23    0.06
   3   0  -3   -0.40    0.07
  -3   0   2   33.91    0.72
  -3   0   2   36.22    0.75
   3   0  -2   33.00    0.72
   3   0  -1    0.02    0.04
  -3   0   1    0.06    0.05
   3   0  -1    0.13    0.05
   3   0   0   73.37    1.58
  -3   0   0   72.56    1.49
   3   0   0   75.28    1.58
   3   0   0   74.61    1.49
   3   0   1    0.18    0.06
  -3   0  -1    0.11    0.07
   3   0   1    0.03    0.07
   3   0   2    5.59    0.20
  -3   0  -2    5.78    0.22
  -3   0  -3   -0.07    0.11
   3   0   3   -0.09    0.10
  -3   0  -4  134.04    2.96
   3   0   4  137.14    2.83
  -3   0  -5   -0.10    0.14
   3   0   5    0.05    0.12
   3   0   6   33.26    0.81
  -3   0  -8    0.47    0.24
   3   1 -10   26.98    0.84
   3  -1 -10   26.95    0.84
   3   1  -9    0.42    0.16
   3   1  -9    0.10    0.19
   3  -1  -9    0.16    0.16
   3  -1  -9    0.11    0.19
   3   1  -8   26.40    0.73
   3   1  -8   25.55    0.62
   3  -1  -8   26.58    0.73
   3  -1  -8   25.55    0.64
   3   1  -7   27.04    0.62
   3   1  -7   27.84    0.73
   3  -1  -7   27.74    0.65
   3  -1  -7   27.08    0.72
   3   1  -6  166.28    3.33
   3   1  -6  167.31    3.64
   3  -1  -6  170.39    3.42
   3  -1  -6  167.77    3.63
   3  -1  -6  168.07    3.35
   3   1  -5  158.81    3.11
   3   1  -5  152.09    3.37
   3  -1  -5  158.01    3.37
   3  -1  -5  157.39    3.12
   3   1  -4    8.94    0.24
   3   1  -4    8.42    0.26
   3  -1  -4    8.88    0.25
   3  -1  -4    8.56    0.26
   3   1  -3   53.29    1.06
   3   1  -3   52.06    1.14
  -3  -1   3   51.81    1.13
  -3  -1   3   50.01    1.06
   3  -1  -3   51.45    1.13
   3  -1  -3   51.50    1.06
   3   1  -2   27.88    0.62
  -3   1   2   26.61    0.59
   3   1  -2   27.72    0.59
   3  -1  -2   28.15    0.60
   3  -1  -2   26.97    0.59
  -3  -1   2   27.02    0.59
  -3  -1   2   28.37    0.61
   3   1  -1  223.54    4.61
  -3   1   1  215.13    4.28
   3   1  -1  219.15    4.30
  -3  -1   1  210.09    4.29
  -3  -1   1  223.34    4.61
   3  -1  -1  217.01    4.29
  -3   1   0  262.75    5.07
   3   1   0  259.70    5.47
   3   1   0  265.44    5.47
   3   1   0  258.51    5.08
  -3   1   0  255.17    5.45
   3  -1   0  251.63    5.45
   3  -1   0  257.18    5.07
   3   1   1   14.22    0.35
   3   1   1   14.19    0.37
  -3   1  -1   15.07    0.36
   3   1   1   14.08    0.37
   3  -1   1   15.06    0.34
   3  -1   1   14.68    0.37
   3  -1   1   14.72    0.36
  -3   1  -2  174.04    3.73
   3  -1   2  177.72    3.45
   3  -1   2  171.67    3.60
  -3   1  -3    3.23    0.21
   3   1   3    3.06    0.19
   3  -1   3    2.79    0.20
  -3  -1  -3    3.24    0.20
   3  -1   3    2.97    0.16
  -3   1  -4  122.06    2.70
   3   1   4  123.18    2.57
   3  -1   4  123.15    2.46
   3  -1   4  124.10    2.59
  -3  -1  -4  122.92    2.71
   3   1   5    6.76    0.29
  -3   1  -5    7.21    0.33
  -3  -1  -5    6.98    0.33
   3  -1   5    6.79    0.32
   3   1   6    1.00    0.17
  -3   1  -6    0.92    0.20
  -3  -1  -6    1.03    0.20
   3  -1   6    1.33    0.19
  -3  -1  -7   16.26    0.57
   3  -1   7   15.19    0.55
  -3   1  -8    1.70    0.29
  -3  -1  -8    1.44    0.27
   3   2 -10    0.37    0.23
   3  -2 -10    0.69    0.26
   3  -2 -10    0.40    0.23
   3  -2  -9    2.12    0.26
   3  -2  -9    1.91    0.22
   3   2  -8    0.15    0.12
   3  -2  -8    0.19    0.18
   3  -2  -8   -0.03    0.15
   3   2  -7   40.74    0.86
   3   2  -7   39.33    0.99
   3  -2  -7   39.45    0.89
   3  -2  -7   39.89    0.99
   3   2  -6  132.68    2.66
   3   2  -6  132.83    2.93
   3  -2  -6  135.84    2.70
   3  -2  -6  134.05    2.92
   3   2  -5   15.99    0.45
   3  -2  -5   16.20    0.44
   3  -2  -5   16.93    0.42
   3   2  -4   16.47    0.39
   3   2  -4   17.12    0.44
   3  -2  -4   16.58    0.43
   3  -2  -4   17.21    0.41
   3   2  -3   33.57    0.74
   3   2  -3   34.01    0.69
  -3  -2   3   27.27    0.74
   3  -2  -3   34.34    0.73
  -3  -2   3   32.46    0.69
   3   2  -2   18.14    0.42
  -3   2   2   18.99    0.40
   3   2  -2   18.82    0.44
   3  -2  -2   18.16    0.41
  -3  -2   2   17.07    0.41
  -3  -2   2   18.02    0.43
  -3   2   1   24.33    0.52
   3   2  -1   24.43    0.55
   3   2  -1   24.24    0.54
   3  -2  -1   23.96    0.55
   3  -2  -1   23.90    0.52
  -3  -2   1   24.27    0.55
   3   2   0   73.27    1.50
  -3   2   0   74.33    1.57
  -3   2   0   73.51    1.48
   3   2   0   74.64    1.60
   3  -2   0   73.55    1.56
  -3  -2   0   71.57    1.59
   3  -2   0   75.34    1.48
   3  -2   0   72.82    1.57
  -3   2  -1   32.14    0.71
  -3   2  -1   31.44    0.66
   3   2   1   31.99    0.73
   3  -2   1   30.51    0.72
   3  -2   1   31.39    0.71
   3  -2   1   31.94    0.66
   3   2   2   12.53    0.37
  -3   2  -2   13.06    0.36
   3  -2   2   12.84    0.31
   3  -2   2   12.61    0.37
  -3   2  -3   22.64    0.58
   3   2   3   22.84    0.60
   3  -2   3   22.82    0.59
   3  -2   3   23.34    0.50
   3   2   4    5.69    0.25
  -3   2  -4    6.29    0.30
  -3  -2  -4    5.77    0.28
   3  -2   4    6.24    0.21
   3  -2   4    5.38    0.30
  -3   2  -5   24.17    0.67
   3   2   5   24.12    0.59
   3  -2   5   23.87    0.64
  -3  -2  -5   23.36    0.67
  -3  -2  -6   24.03    0.70
   3  -2   6   24.06    0.67
   3  -2   7    9.37    0.46
  -3  -2  -7   10.14    0.47
  -3   2  -8   12.51    0.56
  -3  -2  -8   11.20    0.55
   3   3 -10    0.44    0.24
   3  -3 -10    0.56    0.26
   3  -3 -10    0.34    0.23
   3   3  -9   19.91    0.65
   3  -3  -9   20.55    0.59
   3   3  -8   80.72    1.87
   3  -3  -8   78.49    1.88
   3  -3  -8   82.14    1.71
   3   3  -7    4.04    0.19
   3   3  -7    4.55    0.29
   3  -3  -7    3.66    0.25
   3  -3  -7    3.41    0.28
   3   3  -6    8.71    0.34
   3  -3  -6    7.72    0.29
   3  -3  -6    7.39    0.31
   3   3  -5  100.35    1.99
   3   3  -5   99.59    2.20
   3  -3  -5   99.12    2.03
   3  -3  -5   99.61    2.18
   3   3  -4    0.59    0.11
   3   3  -4    0.44    0.09
   3  -3  -4    0.44    0.08
   3  -3  -4    0.28    0.09
   3  -3  -4    0.48    0.10
   3   3  -3  153.50    3.27
  -3   3   3  152.67    3.25
   3   3  -3  155.75    3.03
  -3   3   3  147.23    3.25
   3  -3  -3  153.66    3.04
   3  -3  -3  152.89    3.12
   3   3  -2    3.17    0.15
  -3   3   2    3.31    0.11
  -3   3   2    3.01    0.14
   3   3  -2    3.21    0.15
   3  -3  -2    3.17    0.16
  -3   3   1  124.43    2.50
   3   3  -1  126.15    2.70
  -3   3   1  124.89    2.67
   3  -3  -1  129.19    2.67
   3  -3  -1  126.19    2.51
   3  -3  -1  125.90    2.61
  -3   3   0    0.09    0.07
   3   3   0    0.29    0.07
  -3   3   0    0.03    0.06
   3  -3   0    0.09    0.06
   3  -3   0    0.08    0.08
   3  -3   0    0.15    0.06
   3   3   1   60.30    1.34
  -3   3  -1   60.66    1.20
  -3   3  -1   58.55    1.30
   3  -3   1   59.48    1.30
   3  -3   1   59.53    1.20
   3  -3   1   59.12    1.30
   3   3   2  107.15    2.40
  -3   3  -2  110.93    2.37
   3  -3   2  109.52    2.32
   3  -3   2  111.26    2.17
  -3   3  -3    4.58    0.24
   3   3   3    4.79    0.25
   3  -3   3    4.85    0.27
   3   3   4    8.34    0.29
  -3   3  -4    8.34    0.34
   3   3   4    8.82    0.35
   3  -3   4    8.58    0.35
   3   3   5  158.53    3.42
   3   3   5  154.52    3.19
  -3   3  -5  150.47    3.38
   3  -3   5  154.39    3.26
  -3   3  -6    1.30    0.22
   3   3   6    1.04    0.20
   3  -3   6    0.93    0.22
  -3   3  -7   22.56    0.71
   3   3   7   22.13    0.73
   3  -3   7   22.44    0.69
  -3   3  -8    0.01    0.24
   3   3   8    0.15    0.24
   3   4 -10    5.02    0.43
   3  -4 -10    4.61    0.47
   3  -4 -10    5.76    0.42
   3   4  -9   41.66    1.11
   3  -4  -9   42.41    1.12
   3  -4  -9   43.40    1.03
   3   4  -8    6.59    0.38
   3  -4  -8    6.30    0.33
   3  -4  -8    6.21    0.36
   3   4  -7    3.74    0.29
   3  -4  -7    3.33    0.28
   3  -4  -7    3.50    0.26
   3   4  -6   16.59    0.50
   3  -4  -6   16.06    0.46
   3   4  -5    1.28    0.15
  -3   4   5    1.32    0.14
   3   4  -5    1.07    0.11
   3  -4  -5    1.15    0.14
   3   4  -4   73.66    1.49
  -3   4   4   70.59    1.62
   3   4  -4   74.05    1.63
   3  -4  -4   74.88    1.52
   3  -4  -4   72.32    1.52
  -3   4   3    8.29    0.29
  -3   4   3    9.29    0.26
   3   4  -3    9.08    0.29
   3  -4  -3    8.78    0.27
   3  -4  -3    8.81    0.26
   3   4  -2  240.79    5.06
  -3   4   2  235.55    5.03
   3   4  -2  233.15    4.70
  -3   4   2  242.01    5.02
   3  -4  -2  234.58    4.68
   3  -4  -2  237.13    4.85
   3   4  -1  127.29    2.57
   3   4  -1  127.20    2.76
  -3   4   1  131.04    2.72
   3  -4  -1  129.20    2.72
   3  -4  -1  127.83    2.55
   3  -4  -1  124.94    2.66
   3   4   0   59.93    1.34
  -3   4   0   59.33    1.21
  -3   4   0   59.58    1.30
   3  -4   0   60.23    1.30
   3  -4   0   59.24    1.22
   3  -4   0   60.66    1.30
  -3   4  -1   33.24    0.76
   3   4   1   34.73    0.80
  -3   4  -1   33.27    0.69
   3  -4   1   32.93    0.69
   3  -4   1   32.27    0.78
   3  -4   1   32.06    0.76
   3   4   2   19.44    0.53
  -3   4  -2   19.40    0.50
   3  -4   2   18.70    0.42
   3  -4   2   19.20    0.52
  -3   4  -3    1.89    0.22
   3   4   3    2.27    0.23
   3  -4   3    2.30    0.25
   3   4   4    0.39    0.15
  -3   4  -4    0.46    0.16
   3  -4   4    0.42    0.17
  -3   4  -5   22.11    0.63
   3  -4   5   22.08    0.65
   3   4   6   17.41    0.61
  -3   4  -6   17.58    0.58
   3  -4   6   16.80    0.59
   3   4   7    0.83    0.23
  -3   4  -7    0.97    0.25
  -3   4  -8    0.15    0.27
  -3   5  10    6.96    0.52
  -3   5   9    2.03    0.27
   3   5  -9    2.35    0.28
   3  -5  -9    2.56    0.26
  -3   5   8   -0.11    0.18
   3  -5  -8    0.03    0.17
  -3   5   7    9.96    0.42
   3   5  -7   11.08    0.43
   3  -5  -7   10.62    0.39
  -3   5   6   58.86    1.38
   3   5  -6   57.94    1.21
   3   5  -6   60.82    1.40
   3  -5  -6   59.82    1.30
  -3   5   5   26.54    0.67
   3   5  -5   26.12    0.69
   3  -5  -5   25.76    0.64
  -3   5   4   16.54    0.45
   3   5  -4   15.78    0.42
   3   5  -4   16.80    0.47
   3  -5  -4   16.75    0.45
   3  -5  -4   17.04    0.41
   3   5  -3  381.11    7.47
   3   5  -3  387.76    8.08
  -3   5   3  365.71    8.04
   3  -5  -3  387.01    7.72
   3  -5  -3  379.35    7.48
  -3   5   2    8.44    0.25
   3   5  -2    8.31    0.29
   3   5  -2    8.47    0.27
   3  -5  -2    8.39    0.28
   3  -5  -2    8.19    0.27
  -3   5   1  117.64    2.46
   3   5  -1  112.64    2.49
   3  -5  -1  110.44    2.46
   3  -5  -1  115.64    2.30
   3  -5  -1  117.19    2.40
  -3   5   0  108.48    2.30
   3   5   0  108.62    2.34
   3  -5   0   98.91    2.30
   3  -5   0  110.09    2.14
   3  -5   0  108.27    2.26
  -3   5  -1   12.47    0.32
   3   5   1   13.86    0.41
   3  -5   1   13.39    0.33
   3  -5   1   13.46    0.41
   3   5   2    3.40    0.24
  -3   5  -2    3.29    0.22
   3  -5   2    3.20    0.25
   3   5   3    8.92    0.36
  -3   5  -3    8.65    0.34
   3  -5   3    8.44    0.37
  -3   5  -4   38.44    0.94
   3   5   4   38.89    0.99
   3  -5   4   38.04    0.96
   3   5   5    2.44    0.30
  -3   5  -5    2.69    0.24
   3  -5   5    2.26    0.25
  -3   5  -6    9.01    0.44
   3   5   6    8.58    0.44
   3  -5   6    8.73    0.46
  -3   5  -7  127.93    2.87
   3   5   7  126.05    2.92
   3  -5   7  127.58    2.79
   3  -5   8    2.17    0.37
  -3   6   9   32.64    0.94
   3   6  -9   31.67    0.92
   3  -6  -9   32.17    0.86
  -3   6   8   35.06    0.96
   3   6  -8   35.27    0.95
   3  -6  -8   33.92    0.88
   3   6  -7   31.06    0.84
  -3   6   7   30.66    0.85
   3  -6  -7   30.40    0.78
  -3   6   6    3.13    0.28
   3   6  -5    1.11    0.17
   3   6  -5    0.86    0.11
  -3   6   5    0.74    0.15
   3  -6  -5    0.77    0.15
  -3   6   4   57.48    1.29
   3   6  -4   57.07    1.19
   3   6  -4   58.38    1.32
   3  -6  -4   56.15    1.21
   3  -6  -4   55.42    1.23
  -3   6   3    0.15    0.10
   3   6  -3    0.44    0.12
   3   6  -3    0.23    0.13
   3  -6  -3    0.19    0.11
   3  -6  -3    0.18    0.12
   3   6  -2    0.18    0.12
  -3   6   2    0.22    0.09
   3   6  -2    0.13    0.11
   3  -6  -2    0.72    0.12
   3  -6  -2    0.29    0.11
   3   6  -1   29.50    0.74
   3  -6  -1   30.00    0.72
   3  -6  -1   30.46    0.68
  -3   6   0   50.80    1.14
   3   6   0   51.46    1.20
   3  -6   0   51.23    1.16
   3  -6   0   51.31    1.08
  -3   6  -1  119.15    2.48
   3   6   1  130.68    2.76
  -3   6  -1  125.42    2.70
   3  -6   1  126.52    2.49
   3  -6   1  124.04    2.65
   3   6   2    3.64    0.27
  -3   6  -2    3.64    0.23
   3  -6   2    3.62    0.28
   3   6   3   62.22    1.47
  -3   6  -3   62.20    1.42
   3  -6   3   61.54    1.42
  -3   6  -4   13.24    0.47
   3   6   4   13.72    0.50
   3  -6   4   13.56    0.50
   3  -6   5   11.52    0.49
   3   6   6    4.27    0.39
   3  -6   6    3.68    0.41
  -3   6  -7    0.15    0.27
   3   6   7   -0.06    0.23
   3  -6   7    0.71    0.30
  -3   7   9   13.57    0.63
  -3   7   8   98.87    2.24
   3   7  -8   95.37    2.23
   3  -7  -8   94.50    2.08
  -3   7   7    0.84    0.21
   3   7  -7    0.65    0.20
   3  -7  -7    0.68    0.19
  -3   7   6    3.27    0.31
   3   7  -6    3.77    0.30
   3  -7  -6    4.06    0.29
   3   7  -5   18.06    0.46
  -3   7   5   18.86    0.54
   3   7  -4   12.91    0.37
  -3   7   4   13.11    0.40
   3   7  -4   13.09    0.44
   3  -7  -4   12.87    0.42
  -3   7   3  125.54    2.70
   3   7  -3  125.49    2.75
   3   7  -3  124.57    2.53
   3  -7  -3  124.21    2.60
   3  -7  -3  123.87    2.55
  -3   7   2   18.94    0.49
   3   7  -2   19.39    0.55
   3   7  -2   18.89    0.50
   3  -7  -2   18.67    0.50
   3  -7  -2   19.30    0.51
   3   7  -1   24.13    0.65
  -3   7   1   24.87    0.61
   3  -7  -1   24.23    0.59
   3  -7  -1   24.54    0.63
  -3   7   0   21.82    0.56
   3   7   0   21.97    0.61
   3  -7   0   22.21    0.60
   3  -7   0   22.44    0.54
  -3   7  -1    5.97    0.27
   3   7   1    5.76    0.30
   3  -7   1    5.56    0.24
   3  -7   1    5.58    0.32
   3   7   2  192.13    4.08
  -3   7  -2  183.45    4.02
   3  -7   2  184.67    3.93
  -3   7  -3   39.63    0.96
   3   7   3   38.46    1.01
   3  -7   3   38.65    0.98
  -3   7  -4   46.04    1.13
   3   7   4   46.65    1.18
   3  -7   4   45.81    1.14
   3   7   5    0.91    0.22
  -3   7  -5    1.28    0.23
   3  -7   5    0.59    0.23
  -3   7  -6    3.38    0.41
   3   7   6    3.59    0.34
   3  -7   6    3.60    0.34
  -3   7  -7    7.26    0.53
   3   8  -8    1.07    0.24
  -3   8   8    0.68    0.28
   3   8  -7   20.23    0.66
   3  -8  -7   19.68    0.62
   3   8  -6   52.76    1.30
  -3   8   6   53.19    1.30
   3  -8  -6   53.02    1.23
   3   8  -5   36.70    0.96
  -3   8   5   37.35    0.93
   3  -8  -5   37.32    0.91
  -3   8   4   45.81    1.08
   3   8  -4   44.74    0.99
   3   8  -4   45.77    1.12
   3   8  -3    1.15    0.16
  -3   8   3    1.01    0.15
   3   8  -3    0.89    0.17
   3  -8  -3    0.93    0.15
   3  -8  -3    1.38    0.17
   3   8  -2   10.56    0.39
  -3   8   2   10.66    0.35
   3   8  -2   10.52    0.36
   3  -8  -2   10.72    0.37
   3  -8  -2   10.69    0.37
   3   8  -1    4.06    0.27
  -3   8   1    4.08    0.24
   3  -8  -1    4.05    0.25
   3  -8  -1    4.27    0.28
  -3   8   0    6.91    0.29
   3   8   0    7.04    0.33
   3  -8   0    7.34    0.29
   3  -8   0    7.48    0.34
  -3   8  -1    8.82    0.35
   3  -8   1    9.40    0.39
  -3   8  -2    5.13    0.30
   3   8   2    5.33    0.33
   3  -8   2    5.36    0.34
  -3   8  -3    6.65    0.36
   3   8   3    6.24    0.38
   3  -8   3    7.18    0.39
   3   8   4    3.45    0.36
  -3   8  -4    3.55    0.35
   3  -8   4    3.24    0.36
   3   8   5   12.76    0.56
  -3   8  -5   13.17    0.56
   3  -8   5   12.55    0.56
  -3   8  -6   40.24    1.08
   3  -8   6   38.76    1.11
  -3   9   8   47.36    1.28
   3   9  -7   28.50    0.85
  -3   9   7   29.80    0.87
  -3   9   6    0.22    0.21
   3   9  -6    0.12    0.20
   3   9  -5    6.73    0.38
  -3   9   5    6.87    0.41
   3  -9  -5    6.78    0.37
  -3   9   4    7.39    0.35
   3  -9  -4    7.31    0.36
  -3   9   3   76.72    1.74
   3   9  -3   77.81    1.79
   3   9  -3   76.79    1.63
   3   9  -2    1.19    0.18
   3   9  -2    1.07    0.17
  -3   9   2    1.13    0.18
   3  -9  -2    1.07    0.17
   3  -9  -2    1.12    0.18
  -3   9   1    0.81    0.17
   3   9  -1    0.66    0.17
   3  -9  -1    0.72    0.17
   3   9   0    1.12    0.19
  -3   9   0    1.16    0.17
  -3   9  -1   65.17    1.51
   3   9   1   65.35    1.57
   3  -9   1   67.15    1.51
  -3   9  -2  114.80    2.55
  -3   9  -3   23.00    0.68
   3   9   3   22.32    0.71
   3  -9   3   22.40    0.69
   3   9   4    4.62    0.41
   3  -9   4    5.51    0.41
  -3   9  -5   14.73    0.62
   3  -9   5   15.02    0.64
  -3   9  -6    0.01    0.31
  -3  10   7    0.06    0.30
   3  10  -6    9.55    0.48
  -3  10   6    9.71    0.52
  -3  10   5   22.43    0.69
   3  10  -5   21.34    0.70
   3  10  -4   22.52    0.69
  -3  10   4   22.65    0.67
   3  10  -3    1.41    0.22
   3  10  -3    0.94    0.20
   3  10  -2   28.44    0.81
   3  10  -2   29.52    0.75
  -3  10   2   29.46    0.78
  -3  10   1    0.87    0.20
   3  10  -1    1.10    0.20
   3 -10  -1    0.98    0.20
  -3  10   0   17.87    0.55
   3  10   0   18.10    0.60
   3 -10   0   17.83    0.58
   3  10   1   21.83    0.69
   3 -10   1   22.93    0.68
  -3  10  -2    4.03    0.37
   3  10   2    4.09    0.37
   3 -10   2    3.84    0.38
   3  10   3   10.88    0.51
   3 -10   3   11.09    0.52
  -3  10  -4   23.38    0.76
  -3  10  -5    0.61    0.33
  -3  11   5   10.05    0.53
  -3  11   4   30.81    0.85
   3  11  -4   29.64    0.87
  -3  11   3   34.56    0.93
   3  11  -3   34.48    0.95
  -3  11   2   43.71    1.11
   3  11  -2   46.01    1.08
   3  11  -2   43.61    1.15
   3  11  -1   25.71    0.78
  -3  11   1   26.58    0.74
   3  11   0    3.20    0.30
  -3  11   0    3.29    0.36
  -3  11  -1    0.57    0.26
   3  11   1    0.07    0.21
  -3  11  -2    2.22    0.30
   3  11   2    2.38    0.28
  -3  11  -3   18.10    0.71
   4   0 -10   64.05    1.59
   4   0  -9    0.16    0.21
   4   0  -9   -0.18    0.15
   4   0  -8   27.35    0.74
   4   0  -8   27.18    0.66
   4   0  -7    0.23    0.13
   4   0  -7    0.42    0.12
   4   0  -6   39.26    0.92
   4   0  -6   38.25    0.84
   4   0  -5    0.07    0.10
   4   0  -5    0.01    0.09
   4   0  -4  205.48    4.04
   4   0  -4  202.86    4.34
   4   0  -3    0.12    0.08
   4   0  -3    0.01    0.06
  -4   0   3    0.17    0.07
  -4   0   2  112.92    2.38
   4   0  -2  112.33    2.39
   4   0  -1    0.14    0.05
   4   0  -1    0.15    0.05
   4   0   0  186.53    3.86
   4   0   0  177.44    3.86
   4   0   1    0.14    0.10
   4   0   1    0.08    0.09
   4   0   1    0.07    0.08
  -4   0  -2   10.06    0.32
   4   0   2    9.84    0.29
   4   0   2    9.63    0.32
   4   0   3    0.16    0.10
  -4   0  -3   -0.10    0.11
   4   0   3    0.09    0.12
  -4   0  -4   23.44    0.64
   4   0   4   24.08    0.57
   4   0   4   24.10    0.63
  -4   0  -5    0.35    0.16
   4   0   5    0.37    0.13
   4   0   5    0.04    0.16
   4   0   6   61.94    1.42
  -4   0  -6   62.77    1.51
  -4   0  -7    0.15    0.22
   4  -1 -11    1.96    0.38
   4   1 -10   23.06    0.76
   4  -1 -10   22.52    0.65
   4  -1 -10   23.53    0.77
   4   1  -9    3.44    0.28
   4   1  -9    3.68    0.35
   4  -1  -9    3.64    0.30
   4  -1  -9    4.33    0.36
   4   1  -8    0.44    0.13
   4   1  -8    0.63    0.18
   4  -1  -8    0.23    0.17
   4  -1  -8    0.47    0.14
   4   1  -7    2.92    0.24
   4   1  -7    3.21    0.20
   4  -1  -7    2.68    0.22
   4  -1  -7    3.00    0.25
   4   1  -6   14.29    0.38
   4   1  -6   14.01    0.43
   4  -1  -6   13.63    0.39
   4  -1  -6   13.98    0.42
   4   1  -5   60.12    1.38
   4   1  -5   62.28    1.28
   4  -1  -5   62.53    1.29
   4   1  -4  284.02    5.91
  -4   1   4  243.54    5.89
   4   1  -4  292.64    5.49
   4  -1  -4  286.26    5.49
   4  -1  -4  286.78    5.90
  -4   1   3  115.66    2.40
   4   1  -3  111.76    2.27
   4   1  -3  113.49    2.42
   4  -1  -3  109.24    2.40
   4  -1  -3  111.47    2.27
  -4  -1   3  115.81    2.41
   4   1  -2    5.88    0.21
   4   1  -2    6.05    0.19
   4  -1  -2    5.92    0.21
  -4  -1   2    6.26    0.18
   4   1  -1   12.47    0.33
   4   1  -1   12.49    0.31
  -4  -1   1   12.60    0.31
   4  -1  -1   12.55    0.32
   4   1   0   41.40    0.90
   4   1   0   42.75    0.94
   4   1   0   42.71    0.94
   4  -1   0   42.17    0.89
   4  -1   0   42.25    0.92
   4  -1   0   42.36    0.92
   4   1   1  297.46    6.28
   4   1   1  292.43    5.83
  -4   1  -1  293.80    6.26
   4  -1   1  294.99    6.25
   4  -1   1  294.14    6.05
   4  -1   1  301.38    5.81
   4   1   2   12.17    0.34
   4   1   2   12.12    0.37
   4  -1   2   12.09    0.37
   4   1   3    3.12    0.20
   4   1   3    2.32    0.22
  -4   1  -3    2.65    0.23
  -4  -1  -3    2.58    0.22
   4  -1   3    2.71    0.18
   4  -1   3    2.99    0.24
  -4   1  -4   30.70    0.79
   4   1   4   32.04    0.75
   4   1   4   30.28    0.71
  -4  -1  -4   29.99    0.79
   4  -1   4   30.80    0.77
   4  -1   4   30.33    0.69
  -4   1  -5    4.32    0.32
   4   1   5    4.45    0.30
   4  -1   5    4.37    0.32
   4  -1   5    4.00    0.24
  -4  -1  -5    4.51    0.31
  -4   1  -6  150.94    3.33
   4   1   6  150.38    3.16
   4   1   6  149.20    3.05
   4  -1   6  149.40    3.18
  -4  -1  -6  150.82    3.34
  -4   1  -7    1.39    0.26
  -4  -1  -7    1.47    0.26
  -4   1  -8   18.82    0.73
   4   2 -10    0.69    0.25
   4  -2 -10    0.71    0.24
   4  -2 -10    0.65    0.26
   4   2  -9   54.99    1.36
   4  -2  -9   54.76    1.23
   4  -2  -9   55.17    1.36
   4   2  -8    1.59    0.16
   4   2  -8    1.83    0.22
   4  -2  -8    1.42    0.17
   4  -2  -8    1.58    0.22
   4   2  -7   11.10    0.33
   4   2  -7   11.54    0.41
   4  -2  -7   11.22    0.41
   4  -2  -7   11.07    0.37
   4   2  -6    3.00    0.23
   4   2  -6    2.79    0.19
   4  -2  -6    3.02    0.21
   4  -2  -6    3.29    0.23
   4   2  -5  114.42    2.31
   4   2  -5  114.70    2.51
   4  -2  -5  116.75    2.33
   4   2  -4  181.03    3.86
   4   2  -4  185.10    3.58
   4  -2  -4  177.56    3.58
   4  -2  -4  177.01    3.83
   4   2  -3   34.44    0.77
   4   2  -3   33.61    0.73
   4  -2  -3   32.79    0.73
   4   2  -2  116.26    2.43
   4   2  -2  113.21    2.28
   4  -2  -2  111.58    2.27
  -4  -2   2  112.36    2.43
   4   2  -1    3.48    0.18
   4   2  -1    3.89    0.17
  -4  -2   1    3.67    0.16
   4  -2  -1    3.82    0.19
   4   2   0   80.64    1.70
  -4   2   0   76.73    1.66
   4   2   0   77.29    1.60
   4   2   0   78.88    1.69
   4  -2   0   76.20    1.66
   4  -2   0   78.86    1.57
   4  -2   0   75.24    1.65
   4   2   1  160.66    3.30
   4   2   1  170.64    3.55
  -4   2  -1  164.62    3.52
   4  -2   1  164.16    3.51
   4  -2   1  166.75    3.27
   4  -2   1  163.67    3.43
   4   2   2   36.42    0.88
   4  -2   2   37.44    0.79
   4  -2   2   37.36    0.87
   4   2   3    5.20    0.27
  -4   2  -3    4.60    0.26
   4  -2   3    4.28    0.21
   4  -2   3    4.28    0.28
   4   2   4    1.05    0.17
   4   2   4    1.05    0.15
  -4   2  -4    0.96    0.17
   4  -2   4    0.62    0.16
   4  -2   4    0.88    0.13
  -4   2  -5   43.89    1.11
   4   2   5   46.68    1.05
   4   2   5   44.97    1.14
   4  -2   5   46.60    1.10
   4   2   6    1.97    0.24
  -4   2  -6    2.76    0.26
  -4   2  -7    2.18    0.29
   4   2   7    2.43    0.29
   4  -2   7    2.36    0.32
   4  -3 -11    0.44    0.29
   4   3 -10    6.96    0.47
   4  -3 -10    6.33    0.48
   4  -3 -10    7.52    0.42
   4   3  -9   63.50    1.53
   4  -3  -9   61.87    1.52
   4  -3  -9   62.07    1.39
   4   3  -8   11.04    0.35
   4   3  -8   11.82    0.45
   4  -3  -8   11.50    0.45
   4   3  -7   21.35    0.51
   4   3  -7   22.04    0.62
   4  -3  -7   21.59    0.61
   4  -3  -7   22.04    0.57
   4   3  -6   40.01    0.86
   4   3  -6   40.85    0.97
   4  -3  -6   39.45    0.95
   4  -3  -6   39.82    0.90
   4   3  -5    7.83    0.26
   4   3  -5    8.33    0.31
   4  -3  -5    8.37    0.29
   4  -3  -5    8.08    0.28
   4  -3  -5    8.28    0.26
  -4   3   4    0.02    0.14
   4   3  -4    0.23    0.11
   4  -3  -4    0.11    0.10
   4  -3  -4    0.15    0.10
  -4   3   3    0.15    0.10
  -4   3   3    0.24    0.06
   4   3  -3    0.29    0.10
   4   3  -3    0.44    0.10
   4  -3  -3    0.21    0.09
   4   3  -2    1.28    0.12
   4  -3  -2    1.41    0.12
   4  -3  -2    1.22    0.12
   4   3  -1   71.48    1.48
   4  -3  -1   72.56    1.53
   4  -3  -1   69.98    1.46
   4   3   0   12.23    0.35
   4   3   0   12.30    0.35
   4  -3   0   12.09    0.30
   4  -3   0   12.02    0.36
   4  -3   0   12.39    0.32
  -4   3  -1  191.54    3.90
  -4   3  -1  199.15    4.21
   4   3   1  203.74    4.25
   4  -3   1  200.20    3.91
   4  -3   1  198.51    4.10
   4  -3   1  195.01    4.20
   4   3   2   30.67    0.78
   4  -3   2   31.26    0.77
   4  -3   2   31.90    0.67
   4   3   3   69.57    1.62
  -4   3  -3   71.14    1.59
   4  -3   3   71.73    1.43
   4  -3   3   71.18    1.58
   4   3   4   33.23    0.78
  -4   3  -4   32.80    0.83
   4   3   4   32.92    0.86
   4  -3   4   32.95    0.84
   4   3   5    8.09    0.40
  -4   3  -5    8.04    0.39
   4   3   5    6.97    0.34
   4  -3   5    8.24    0.41
   4   3   6    1.43    0.24
  -4   3  -6    1.27    0.24
   4  -3   6    0.70    0.24
  -4   3  -7   18.39    0.65
   4   3   7   18.55    0.67
   4  -3   7   16.63    0.68
   4   4 -10    2.29    0.31
   4  -4 -10    2.80    0.28
   4  -4 -10    2.31    0.31
   4   4  -9   68.74    1.65
   4  -4  -9   68.26    1.52
   4  -4  -9   68.30    1.64
   4   4  -8    3.88    0.32
   4  -4  -8    3.50    0.31
   4  -4  -8    3.53    0.29
   4   4  -7  144.43    3.14
   4   4  -7  138.57    2.83
   4  -4  -7  141.88    3.11
   4  -4  -7  143.20    2.90
   4   4  -6    0.03    0.10
   4   4  -6   -0.01    0.14
   4  -4  -6    0.18    0.12
   4   4  -5   42.93    1.02
   4   4  -5   42.10    0.91
  -4   4   5   42.71    0.98
   4  -4  -5   41.23    0.94
   4  -4  -5   42.49    0.91
   4   4  -4   90.21    1.98
   4   4  -4   87.70    1.82
  -4   4   4   90.22    1.94
   4  -4  -4   89.77    1.87
   4  -4  -4   89.45    1.84
  -4   4   3    0.18    0.13
  -4   4   3    0.19    0.13
   4   4  -3    0.26    0.11
  -4   4   3    0.20    0.07
   4   4  -3    0.11    0.11
   4  -4  -3    0.21    0.10
   4   4  -2  133.35    2.80
  -4   4   2  127.13    2.75
   4   4  -2  129.88    2.61
   4  -4  -2  128.23    2.59
   4  -4  -2  128.56    2.69
   4   4  -1    7.22    0.27
   4   4  -1    6.99    0.26
   4  -4  -1    7.12    0.24
   4  -4  -1    7.03    0.27
   4  -4  -1    7.10    0.20
   4   4   0  146.05    2.94
   4   4   0  147.78    3.15
  -4   4   0  139.05    3.09
   4  -4   0  147.40    3.10
   4  -4   0  147.67    3.05
   4   4   1  104.51    2.24
  -4   4  -1  101.09    2.03
  -4   4  -1  100.64    2.19
   4  -4   1  103.43    2.03
   4  -4   1   96.88    2.19
   4  -4   1  102.16    2.17
  -4   4  -2   24.24    0.60
   4   4   2   23.91    0.65
   4  -4   2   24.04    0.54
   4  -4   2   25.10    0.65
   4   4   3  122.50    2.73
  -4   4  -3  122.02    2.68
   4  -4   3  124.08    2.64
   4   4   4   14.53    0.50
  -4   4  -4   14.31    0.47
   4  -4   4   14.03    0.50
   4   4   5   22.17    0.67
  -4   4  -5   20.99    0.63
   4  -4   5   20.84    0.66
   4   4   6    0.88    0.23
  -4   4  -6    0.87    0.25
  -4   4  -7    2.65    0.32
   4   4   7    2.48    0.32
   4  -4   7    2.57    0.34
  -4   5  10    0.30    0.28
   4  -5 -10    0.06    0.24
  -4   5   9    0.64    0.24
   4   5  -9    1.27    0.25
   4  -5  -9    1.98    0.24
  -4   5   8    3.39    0.37
   4   5  -7    4.13    0.31
   4   5  -7    3.53    0.21
  -4   5   7    4.02    0.29
   4  -5  -7    4.00    0.28
   4   5  -6    6.55    0.32
   4   5  -6    6.10    0.24
  -4   5   6    6.55    0.30
   4  -5  -6    6.19    0.29
   4   5  -5   71.98    1.63
   4   5  -5   70.50    1.47
  -4   5   5   72.19    1.59
   4  -5  -5   70.21    1.51
   4  -5  -5   71.07    1.49
   4   5  -4   39.88    0.89
   4   5  -4   41.97    0.98
   4  -5  -4   40.05    0.91
  -4   5   3   12.63    0.33
   4   5  -3   12.22    0.38
   4   5  -3   12.74    0.37
  -4   5   3   10.90    0.37
   4  -5  -3   12.44    0.36
   4  -5  -3   12.35    0.36
   4   5  -2    1.63    0.20
   4   5  -2    1.79    0.19
  -4   5   2    1.37    0.14
   4  -5  -2    1.64    0.17
   4  -5  -2    2.22    0.21
   4   5  -1  118.47    2.58
   4   5  -1  119.44    2.42
  -4   5   1  115.69    2.53
   4  -5  -1  119.58    2.53
   4  -5  -1  118.99    2.38
   4  -5  -1  118.79    2.50
  -4   5   0    0.56    0.11
   4   5   0    0.45    0.13
   4  -5   0    0.30    0.13
   4  -5   0    0.47    0.10
   4  -5   0    0.35    0.11
   4   5   1  101.34    2.22
   4  -5   1   98.32    2.00
   4  -5   1   99.85    2.15
   4   5   2   22.25    0.62
  -4   5  -2   21.97    0.57
   4  -5   2   21.90    0.50
   4  -5   2   21.50    0.61
  -4   5  -3    5.54    0.29
   4   5   3    5.10    0.32
   4  -5   3    5.48    0.34
   4   5   4   -0.07    0.17
  -4   5  -4   -0.08    0.16
   4  -5   4    0.14    0.19
   4  -5   5    0.09    0.22
   4   5   6   25.07    0.80
   4  -5   6   24.76    0.80
  -4   5  -7   11.84    0.60
   4  -5   7   11.18    0.63
  -4   6  10   22.20    0.81
  -4   6   9    5.59    0.47
   4   6  -9    4.45    0.43
   4  -6  -9    5.89    0.39
  -4   6   8    1.96    0.25
   4   6  -8    2.34    0.27
   4  -6  -8    2.57    0.29
   4   6  -7  106.93    2.41
  -4   6   7  107.43    2.38
   4  -6  -7  102.93    2.23
  -4   6   6   75.96    1.69
   4   6  -6   73.08    1.53
   4  -6  -6   74.06    1.61
   4   6  -5    4.59    0.23
   4   6  -5    5.18    0.30
  -4   6   5    4.57    0.25
   4  -6  -5    4.88    0.27
   4  -6  -5    4.87    0.25
   4   6  -4   19.17    0.49
   4   6  -4   18.39    0.54
  -4   6   4   19.19    0.49
   4  -6  -4   18.92    0.48
   4  -6  -4   18.72    0.51
   4   6  -3    0.68    0.15
   4   6  -3    0.61    0.13
   4  -6  -3    0.65    0.13
   4  -6  -3    0.59    0.13
  -4   6   2  176.84    3.72
   4   6  -2  177.07    3.79
   4   6  -2  174.40    3.51
   4  -6  -2  172.10    3.50
   4  -6  -2  173.52    3.63
  -4   6   1    6.95    0.25
   4   6  -1    7.69    0.31
   4   6  -1    7.40    0.30
   4  -6  -1    7.14    0.27
   4  -6  -1    7.28    0.31
   4   6   0    4.52    0.27
   4  -6   0    4.64    0.22
   4  -6   0    4.90    0.28
  -4   6  -1    0.19    0.12
   4   6   1    0.39    0.15
   4  -6   1    0.85    0.17
   4  -6   1    0.22    0.12
   4   6   2   27.91    0.75
  -4   6  -2   27.70    0.69
   4  -6   2   26.03    0.73
  -4   6  -3  127.52    2.80
   4  -6   3  128.38    2.77
  -4   6  -4    0.31    0.19
   4   6   4    0.50    0.19
   4  -6   4    0.12    0.21
   4   6   5    1.09    0.25
   4  -6   5    0.86    0.26
  -4   6  -6   21.17    0.71
   4   6   6   21.63    0.74
   4  -6   6   20.06    0.74
  -4   6  -7    2.25    0.35
  -4   7   9    4.66    0.48
   4   7  -8    5.88    0.43
  -4   7   8    7.40    0.48
   4  -7  -8    6.25    0.39
   4   7  -7    0.18    0.18
   4  -7  -7    0.19    0.17
   4   7  -6   49.81    1.23
  -4   7   6   48.98    1.18
   4  -7  -6   49.30    1.14
   4   7  -5    0.30    0.14
   4   7  -5    0.39    0.16
  -4   7   5    0.32    0.14
   4  -7  -5    0.25    0.15
   4   7  -4   14.78    0.47
  -4   7   4   14.89    0.42
   4   7  -4   13.74    0.42
   4  -7  -4   14.58    0.45
   4  -7  -4   14.62    0.42
   4   7  -3   61.69    1.32
  -4   7   3   61.60    1.37
   4   7  -3   61.17    1.43
   4  -7  -3   61.43    1.35
   4  -7  -3   61.91    1.33
   4   7  -2   15.25    0.44
   4   7  -2   14.69    0.47
  -4   7   2   14.96    0.41
   4  -7  -2   14.70    0.45
   4  -7  -2   14.50    0.43
   4   7  -1   85.22    1.77
  -4   7   1   83.03    1.83
   4   7  -1   84.10    1.90
   4  -7  -1   83.56    1.83
   4  -7  -1   83.29    1.74
  -4   7   0    0.39    0.13
   4   7   0    0.54    0.16
   4  -7   0    0.98    0.17
   4  -7   0    0.34    0.13
  -4   7  -1    0.57    0.13
   4   7   1    0.42    0.16
   4  -7   1    0.59    0.17
   4  -7   1    0.46    0.13
   4   7   2    1.99    0.22
  -4   7  -2    1.85    0.18
   4  -7   2    1.72    0.22
   4   7   3    5.43    0.37
  -4   7  -3    5.02    0.33
   4  -7   3    4.64    0.38
   4   7   4   73.06    1.73
  -4   7  -4   69.94    1.66
   4  -7   4   72.08    1.68
  -4   7  -5   11.75    0.53
   4   7   5   11.90    0.55
   4  -7   5   11.85    0.56
  -4   7  -6   23.65    0.80
   4  -7   6   23.99    0.84
  -4   8   9    1.52    0.36
  -4   8   8   10.91    0.56
   4   8  -8   11.07    0.53
   4  -8  -8   10.42    0.49
   4   8  -7   -0.19    0.19
  -4   8   7   -0.05    0.22
   4  -8  -7    0.49    0.19
  -4   8   6    1.35    0.21
   4   8  -6    1.67    0.23
   4  -8  -6    1.65    0.21
   4   8  -5    2.85    0.30
  -4   8   5    3.21    0.28
   4   8  -5    2.79    0.27
   4  -8  -5    2.73    0.28
   4   8  -4   53.50    1.29
  -4   8   4   54.51    1.23
   4   8  -4   52.31    1.17
   4  -8  -4   51.75    1.18
   4  -8  -4   53.80    1.24
  -4   8   3   35.68    0.85
   4   8  -3   35.18    0.83
   4   8  -3   34.95    0.91
   4  -8  -3   35.24    0.84
   4  -8  -3   35.52    0.85
  -4   8   2  137.28    2.96
   4   8  -2  133.78    2.80
   4  -8  -2  139.58    2.90
   4  -8  -2  137.19    2.80
  -4   8   1   37.72    0.91
   4  -8  -1   39.05    0.95
   4  -8  -1   39.43    0.89
  -4   8   0    1.60    0.17
   4   8   0    2.16    0.25
   4  -8   0    1.97    0.22
   4  -8   0    2.03    0.23
  -4   8  -1    1.69    0.18
   4   8   1    1.66    0.21
   4  -8   1    2.17    0.23
  -4   8  -2    1.10    0.19
   4   8   2    0.92    0.20
   4  -8   2    0.86    0.21
   4   8   3    0.78    0.21
  -4   8  -3    0.81    0.22
   4  -8   3    0.30    0.21
   4   8   4    2.81    0.30
  -4   8  -4    3.43    0.40
   4  -8   4    2.76    0.30
   4   8   5    1.27    0.28
  -4   8  -5    1.92    0.30
   4  -8   5    0.73    0.27
  -4   9   7   -0.21    0.27
   4   9  -7    0.52    0.22
   4  -9  -7    0.44    0.20
  -4   9   6   50.03    1.24
   4   9  -6   50.25    1.28
   4  -9  -6   50.46    1.20
   4   9  -5   26.09    0.76
  -4   9   5   25.02    0.70
   4  -9  -5   25.08    0.71
  -4   9   4   10.73    0.40
   4   9  -4   10.81    0.43
   4   9  -4   10.07    0.41
   4  -9  -4   10.86    0.43
   4   9  -3    7.56    0.37
   4   9  -3    7.93    0.38
  -4   9   3    7.45    0.35
   4  -9  -3    8.09    0.36
   4  -9  -3    8.01    0.37
   4   9  -2    5.35    0.34
   4   9  -2    4.84    0.33
  -4   9   2    5.03    0.30
   4  -9  -2    4.85    0.31
   4  -9  -2    4.85    0.33
  -4   9   1   48.22    1.14
   4   9  -1   48.94    1.22
   4  -9  -1   50.08    1.10
  -4   9   0    0.92    0.19
   4   9   0    1.01    0.20
   4  -9   0    1.15    0.21
   4   9   1    3.96    0.33
  -4   9  -1    4.01    0.32
  -4   9  -2    5.93    0.38
   4   9   2    5.99    0.40
   4  -9   2    5.45    0.40
  -4   9  -3   45.68    1.12
   4   9   3   42.61    1.17
   4  -9   3   43.66    1.15
   4   9   4   40.03    1.11
   4  -9   4   38.44    1.08
   4 -10  -6    2.38    0.28
   4  10  -5    0.58    0.22
   4 -10  -5    0.33    0.22
   4  10  -4    1.06    0.22
   4 -10  -4    1.12    0.23
   4  10  -3   32.43    0.90
   4 -10  -3   33.20    0.85
   4 -10  -3   31.93    0.84
   4  10  -2   31.21    0.81
   4  10  -2   29.37    0.86
   4 -10  -2   32.15    0.81
   4 -10  -2   30.92    0.82
   4  10  -1   11.06    0.48
   4  10  -1   11.30    0.47
   4 -10  -1   11.90    0.48
   4  10   0   -0.03    0.18
   4 -10   0    0.00    0.20
   4  10   1    2.00    0.25
   4 -10   1    2.41    0.26
   4  10   2    2.33    0.30
   4 -10   2    2.41    0.28
   4 -10   3   37.88    1.11
   4  11  -4   22.72    0.77
   4  11  -3    0.14    0.22
   4  11  -2    4.20    0.39
   4  11  -1   15.97    0.62
   4  11  -1   17.46    0.62
   4 -11  -1   17.27    0.63
   4  11   0   29.00    0.88
   4 -11   0   30.87    0.87
   4 -11   1   29.83    0.89
   4  12  -1    0.64    0.32
   5   0 -11    0.69    0.31
   5   0 -10   14.63    0.61
   5   0 -10   14.54    0.50
   5   0  -9    0.09    0.20
   5   0  -8  228.30    4.90
   5   0  -8  224.59    4.52
   5   0  -7    0.11    0.14
   5   0  -7    0.05    0.12
   5   0  -6    0.29    0.12
   5   0  -6    0.18    0.13
   5   0  -5    0.14    0.11
   5   0  -4   42.21    0.90
  -5   0   4   40.87    0.92
   5   0  -4   41.12    0.93
   5   0  -3    0.00    0.09
  -5   0   3    0.02    0.07
   5   0  -3   -0.02    0.07
   5   0  -2   32.73    0.74
   5   0  -2   33.61    0.73
   5   0  -1    0.11    0.06
   5   0  -1    0.10    0.07
   5   0  -1    0.07    0.09
   5   0   0  152.40    3.20
   5   0   0  150.41    3.02
   5   0   0  148.40    3.20
   5   0   1    0.14    0.10
   5   0   1    0.06    0.10
   5   0   2  354.93    7.35
   5   0   2  352.84    7.62
   5   0   2  367.94    7.07
  -5   0  -3    0.33    0.14
   5   0   3   -0.02    0.14
   5   0   3   -0.18    0.11
   5   0   4   11.39    0.38
   5   0   4   12.26    0.44
  -5   0  -4   11.43    0.43
   5   0   5    0.08    0.18
   5   0   5    0.10    0.16
   5   0   6    2.90    0.29
  -5   0  -7   -0.12    0.26
   5   1 -11   10.51    0.62
   5  -1 -11   11.17    0.64
   5  -1 -10    4.13    0.45
   5   1  -9    1.99    0.19
   5   1  -9    2.28    0.25
   5  -1  -9    2.02    0.25
   5  -1  -9    2.07    0.21
   5   1  -8   21.11    0.55
   5   1  -8   22.28    0.63
   5  -1  -8   21.12    0.63
   5  -1  -8   21.81    0.57
   5   1  -7    6.12    0.31
   5   1  -7    6.07    0.27
   5  -1  -7    6.03    0.28
   5   1  -6   26.49    0.62
   5   1  -6   26.64    0.67
   5  -1  -6   26.16    0.63
   5   1  -5    5.78    0.24
   5   1  -5    6.01    0.24
   5  -1  -5    5.69    0.24
   5  -1  -5    5.93    0.25
   5   1  -4   71.56    1.48
   5   1  -4   71.42    1.57
  -5   1   4   71.49    1.54
   5  -1  -4   71.62    1.54
   5  -1  -4   70.73    1.48
   5   1  -3   72.72    1.51
   5   1  -3   73.45    1.58
  -5  -1   3   71.28    1.57
   5  -1  -3   71.56    1.50
   5  -1  -3   75.04    1.55
   5   1  -2   83.44    1.74
   5   1  -2   85.78    1.82
   5  -1  -2   83.92    1.73
  -5  -1   2   84.99    1.81
   5   1  -1   74.04    1.59
   5   1  -1   72.51    1.52
   5   1  -1   74.59    1.59
   5  -1  -1   72.18    1.51
   5   1   0   35.40    0.80
   5   1   0   35.49    0.79
   5   1   0   32.72    0.80
   5  -1   0   35.66    0.77
   5  -1   0   35.04    0.77
   5  -1   0   34.96    0.77
   5   1   1   43.41    0.94
  -5   1  -1   44.06    0.97
   5   1   1   41.84    0.99
   5  -1   1   44.36    0.93
   5  -1   1   40.47    0.97
   5  -1   1   42.65    0.99
  -5   1  -2   10.29    0.34
   5   1   2   10.30    0.33
   5   1   2   10.29    0.35
   5  -1   2   10.59    0.32
   5  -1   2    9.94    0.37
   5   1   3   50.64    1.22
  -5   1  -3   52.17    1.21
   5   1   3   49.90    1.18
   5   1   3   55.07    1.14
   5  -1   3   52.22    1.20
   5  -1   3   51.60    1.11
   5   1   4    0.62    0.17
   5   1   4    0.44    0.15
   5   1   4    0.24    0.16
  -5   1  -4    0.31    0.15
   5  -1   4    0.28    0.17
   5  -1   4    0.05    0.13
   5   1   5    1.13    0.20
   5   1   5    0.95    0.20
  -5   1  -5    1.22    0.22
   5   1   5    1.59    0.19
   5  -1   5    1.14    0.22
   5   1   6    0.63    0.23
   5  -1   6    0.10    0.24
  -5   1  -7    2.78    0.34
   5   1   7    2.61    0.34
   5  -2 -11    0.39    0.27
   5  -2 -11    0.54    0.32
   5   2 -10   50.49    1.30
   5  -2 -10   50.54    1.19
   5  -2 -10   51.46    1.31
   5   2  -9    1.65    0.19
   5   2  -9    2.30    0.25
   5  -2  -9    1.84    0.21
   5  -2  -9    2.00    0.26
   5   2  -8   14.71    0.51
   5   2  -8   14.90    0.43
   5  -2  -8   14.68    0.51
   5   2  -7   25.04    0.68
   5   2  -7   24.84    0.61
   5  -2  -7   26.13    0.64
   5  -2  -7   25.45    0.68
   5   2  -6    9.02    0.30
   5   2  -6    8.49    0.33
   5  -2  -6    8.78    0.32
   5  -2  -6    8.73    0.31
   5   2  -5   56.64    1.28
   5   2  -5   56.67    1.19
   5  -2  -5   56.15    1.25
   5  -2  -5   55.98    1.20
   5   2  -4   34.72    0.76
   5   2  -4   33.55    0.80
   5  -2  -4   34.01    0.76
   5  -2  -4   33.19    0.75
   5   2  -3  259.88    5.45
   5   2  -3  254.52    5.08
   5  -2  -3  255.54    5.08
   5   2  -2   53.38    1.15
   5   2  -2   55.76    1.20
   5  -2  -2   53.40    1.14
  -5  -2   2   53.18    1.19
   5   2  -1    0.27    0.10
   5  -2  -1    0.29    0.10
   5   2   0   51.28    1.12
   5  -2   0   51.37    1.17
   5  -2   0   53.18    1.10
   5   2   1   18.73    0.49
   5   2   1   18.12    0.48
  -5   2  -1   18.42    0.47
   5  -2   1   18.39    0.52
   5  -2   1   17.33    0.47
   5  -2   1   18.60    0.45
  -5   2  -2  113.40    2.39
   5   2   2  109.82    2.26
   5   2   2  106.23    2.41
   5  -2   2  110.49    2.36
   5  -2   2  109.20    2.21
   5   2   3   81.52    1.81
   5   2   3   81.93    1.89
  -5   2  -3   85.43    1.87
   5   2   3   84.02    1.75
   5  -2   3   84.94    1.85
   5  -2   3   83.06    1.70
   5   2   4    0.61    0.17
  -5   2  -4    0.50    0.18
   5   2   4    0.55    0.16
   5   2   4    0.52    0.17
   5  -2   4    0.39    0.19
   5  -2   4    0.63    0.14
   5   2   5    4.54    0.36
  -5   2  -5    4.85    0.36
   5   2   5    3.78    0.35
   5   2   5    4.51    0.33
   5  -2   5    3.94    0.38
   5   2   6    0.12    0.22
   5   2   6    0.25    0.23
   5  -2   6    0.25    0.27
  -5   2  -7   60.73    1.53
   5   2   7   60.00    1.54
   5  -3 -11    8.48    0.61
   5  -3 -11    9.46    0.51
   5   3 -10    6.82    0.48
   5  -3 -10    6.57    0.49
   5  -3 -10    6.80    0.43
   5  -3  -9   62.25    1.50
   5   3  -8   14.13    0.41
   5  -3  -8   14.49    0.46
   5  -3  -8   13.92    0.49
   5   3  -7   56.09    1.20
   5   3  -7   56.55    1.34
   5  -3  -7   57.42    1.32
   5  -3  -7   57.52    1.25
   5   3  -6   56.14    1.30
   5   3  -6   55.50    1.19
   5  -3  -6   55.56    1.21
   5  -3  -6   55.92    1.21
   5  -3  -6   56.37    1.27
   5   3  -5    7.28    0.30
   5   3  -5    7.75    0.28
   5  -3  -5    7.42    0.29
   5   3  -4   19.21    0.51
   5   3  -4   19.19    0.49
  -5   3   4   19.80    0.45
   5  -3  -4   18.86    0.49
   5  -3  -4   18.83    0.49
   5   3  -3    2.09    0.19
   5   3  -3    1.73    0.18
   5  -3  -3    1.86    0.18
   5  -3  -3    1.92    0.20
   5   3  -2    0.75    0.13
   5   3  -2    1.01    0.12
   5  -3  -2    0.89    0.12
   5  -3  -2    1.08    0.14
   5   3  -1   15.99    0.43
   5   3  -1   15.68    0.43
   5  -3  -1   15.79    0.45
   5  -3  -1   16.30    0.41
   5   3   0    2.96    0.21
   5   3   0    2.95    0.20
   5  -3   0    3.60    0.24
   5  -3   0    3.09    0.18
  -5   3  -1    3.13    0.21
   5   3   1    3.62    0.23
   5   3   1    3.49    0.24
   5  -3   1    3.37    0.19
   5  -3   1    4.20    0.26
   5  -3   1    3.16    0.22
   5   3   2    0.46    0.14
   5   3   2    0.47    0.13
  -5   3  -2    0.27    0.13
   5  -3   2    0.25    0.11
   5  -3   2    0.67    0.16
   5   3   3   21.39    0.62
  -5   3  -3   21.91    0.59
   5   3   3   21.10    0.57
   5  -3   3   21.99    0.63
   5  -3   3   20.86    0.51
   5   3   4   27.59    0.71
  -5   3  -4   26.99    0.73
   5   3   4   26.81    0.70
   5   3   4   27.42    0.77
   5   3   5   36.05    0.89
   5   3   5   35.74    0.98
   5  -3   5   36.14    0.96
   5   3   6    2.48    0.30
   5  -3   6    2.75    0.33
  -5   3  -7    0.57    0.31
   5   4 -10    0.20    0.27
   5  -4 -10    0.70    0.23
   5   4  -9    3.06    0.30
   5  -4  -9    2.36    0.28
   5  -4  -9    2.64    0.26
   5   4  -8    0.79    0.21
   5   4  -8    0.82    0.16
   5  -4  -8    0.87    0.18
   5   4  -7   17.31    0.55
   5   4  -7   17.19    0.46
   5  -4  -7   17.29    0.51
  -5   4   6    7.13    0.30
   5   4  -6    7.38    0.33
   5   4  -6    7.42    0.28
   5  -4  -6    7.25    0.28
   5  -4  -6    7.29    0.31
   5   4  -5  120.00    2.62
   5   4  -5  119.34    2.41
   5  -4  -5  115.74    2.43
   5  -4  -5  120.85    2.48
   5   4  -4    8.87    0.31
   5   4  -4    8.95    0.32
  -5   4   4    8.87    0.25
   5  -4  -4    8.68    0.31
   5  -4  -4    8.85    0.31
   5   4  -3  154.37    3.13
   5   4  -3  155.43    3.35
   5  -4  -3  155.35    3.23
   5  -4  -3  156.52    3.12
   5   4  -2   86.83    1.78
   5   4  -2   83.69    1.88
   5  -4  -2   86.09    1.76
   5  -4  -2   84.80    1.83
   5   4  -1   11.23    0.36
   5   4  -1   12.33    0.37
   5  -4  -1   11.54    0.34
   5  -4  -1   11.70    0.39
   5   4   0   63.26    1.39
   5   4   0   66.18    1.47
   5  -4   0   64.18    1.34
   5  -4   0   66.46    1.45
   5   4   1    0.51    0.14
   5   4   1    0.28    0.13
  -5   4  -1    0.37    0.12
   5  -4   1    0.29    0.15
   5  -4   1    0.26    0.11
  -5   4  -2   81.88    1.82
   5   4   2   82.33    1.88
   5  -4   2   84.03    1.84
   5   4   3   11.48    0.44
  -5   4  -3   11.77    0.40
   5  -4   3   11.26    0.47
   5   4   4   14.52    0.53
   5   4   4   14.80    0.48
   5  -4   4   14.53    0.55
   5   4   5   65.45    1.60
  -5   4  -5   63.19    1.59
   5  -4   5   68.22    1.57
  -5   4  -6   13.30    0.57
   5   4   6   12.71    0.59
   5  -4   6   13.48    0.62
   5  -4   7   26.86    0.95
  -5   5  10    6.25    0.53
   5  -5 -10    8.31    0.48
  -5   5   9    5.67    0.44
   5   5  -9    5.94    0.43
   5  -5  -9    5.91    0.38
  -5   5   8    0.62    0.20
   5  -5  -8    0.84    0.19
  -5   5   7    4.47    0.31
   5   5  -7    4.88    0.33
   5   5  -7    4.49    0.26
   5  -5  -7    4.39    0.30
   5   5  -6    0.55    0.14
   5   5  -6    0.58    0.17
  -5   5   6    0.77    0.14
  -5   5   5   33.71    0.78
   5   5  -5   32.18    0.76
   5   5  -5   33.57    0.84
   5  -5  -5   33.28    0.76
   5  -5  -5   32.91    0.79
   5   5  -4   55.35    1.24
  -5   5   4   59.41    1.26
   5   5  -4   58.26    1.33
   5  -5  -4   57.13    1.26
   5  -5  -4   56.72    1.24
   5   5  -3   30.77    0.73
   5   5  -3   29.14    0.75
   5  -5  -3   30.14    0.73
   5  -5  -3   30.38    0.71
   5   5  -2    1.95    0.18
   5   5  -2    2.08    0.23
   5  -5  -2    1.91    0.20
   5  -5  -2    2.09    0.24
   5   5  -1   80.57    1.82
   5   5  -1   82.58    1.72
   5  -5  -1   81.04    1.78
   5  -5  -1   82.25    1.68
   5   5   0    0.24    0.14
   5   5   0    0.21    0.14
  -5   5   0    0.36    0.12
   5  -5   0    0.37    0.15
   5  -5   0    0.45    0.12
   5   5   1    1.05    0.17
   5   5   1    1.13    0.16
   5  -5   1    1.15    0.13
   5  -5   1    1.39    0.18
  -5   5  -2    0.08    0.14
   5   5   2    0.09    0.15
   5  -5   2    0.00    0.16
   5  -5   2    0.05    0.13
  -5   5  -3   38.51    0.94
   5  -5   3   38.65    0.99
  -5   5  -4   12.26    0.46
   5   5   4   12.27    0.51
  -5   5  -5   11.50    0.52
   5   5   5   11.36    0.53
   5  -5   5   11.13    0.55
   5   5   6    0.18    0.27
   5  -5   6   -0.48    0.31
  -5   6   9   10.48    0.53
   5   6  -9    9.88    0.51
   5  -6  -9   10.72    0.48
   5   6  -8   51.82    1.31
   5  -6  -8   52.12    1.22
  -5   6   7    0.05    0.18
   5   6  -7    0.32    0.19
   5   6  -6    0.95    0.19
  -5   6   6    0.99    0.16
   5   6  -6    1.26    0.16
   5  -6  -6    1.07    0.18
  -5   6   5  103.02    2.20
   5   6  -5  102.75    2.27
   5   6  -5   99.14    2.08
   5  -6  -5   99.91    2.11
   5  -6  -5   99.60    2.12
   5   6  -4   36.01    0.91
   5   6  -4   36.95    0.85
   5  -6  -4   36.26    0.85
   5  -6  -4   36.72    0.86
   5   6  -3   10.21    0.38
   5   6  -3   10.56    0.39
   5  -6  -3   10.94    0.38
   5  -6  -3   11.20    0.36
   5   6  -2    3.97    0.27
   5   6  -2    4.24    0.27
   5  -6  -2    4.07    0.27
   5  -6  -2    4.27    0.24
   5   6  -1   20.24    0.56
   5   6  -1   20.81    0.58
   5  -6  -1   20.15    0.58
   5  -6  -1   20.61    0.52
   5   6   0   99.82    2.10
   5   6   0  100.24    2.24
   5  -6   0  100.75    2.18
   5  -6   0   99.58    2.04
   5   6   1   23.95    0.67
  -5   6  -1   22.70    0.60
   5  -6   1   23.45    0.56
   5  -6   1   24.16    0.67
  -5   6  -2    9.30    0.36
   5  -6   2    9.20    0.41
   5   6   3   10.53    0.46
  -5   6  -3   10.40    0.41
   5  -6   3   11.68    0.50
  -5   6  -4   28.13    0.80
   5   6   4   29.75    0.86
   5  -6   4   29.71    0.87
   5   6   5   72.12    1.77
   5  -6   5   72.35    1.74
   5   7  -8   19.24    0.67
   5  -7  -8   19.57    0.62
   5   7  -7   12.23    0.50
  -5   7   7   13.25    0.50
   5  -7  -7   12.52    0.48
   5   7  -6   53.94    1.19
  -5   7   6   55.74    1.27
   5   7  -6   54.75    1.34
   5   7  -5    6.24    0.34
  -5   7   5    5.88    0.29
   5   7  -5    6.27    0.31
   5  -7  -5    6.58    0.33
   5   7  -4    2.84    0.28
   5   7  -4    2.68    0.27
  -5   7   4    2.84    0.21
   5  -7  -4    2.63    0.26
   5  -7  -4    2.65    0.26
  -5   7   3    0.38    0.13
   5   7  -3    0.29    0.16
   5   7  -3    0.69    0.18
   5  -7  -3    0.60    0.15
   5  -7  -3    0.65    0.16
   5   7  -2    0.64    0.16
   5   7  -2    0.23    0.16
   5  -7  -2    0.03    0.13
   5  -7  -2    0.16    0.15
   5   7  -1  108.31    2.38
   5   7  -1  106.60    2.23
   5  -7  -1  105.66    2.29
   5  -7  -1  103.75    2.17
   5   7   0    4.43    0.31
   5  -7   0    3.99    0.32
   5  -7   0    3.77    0.25
   5   7   1   21.73    0.65
  -5   7  -1   20.78    0.57
   5  -7   1   21.38    0.64
   5   7   2    2.15    0.25
  -5   7  -2    2.91    0.28
   5  -7   2    2.28    0.26
   5   7   3    0.32    0.21
   5  -7   3    0.80    0.22
   5   7   4    4.94    0.43
   5  -7   4    4.01    0.46
   5   7   5   18.46    0.73
   5  -7   5   20.86    0.83
   5   8  -8    3.63    0.44
   5   8  -7    7.10    0.42
   5  -8  -7    6.28    0.39
   5   8  -6   31.07    0.87
   5  -8  -6   30.65    0.82
   5   8  -5    3.73    0.30
   5   8  -4   11.56    0.43
   5   8  -4   11.67    0.45
   5  -8  -4   11.51    0.43
   5  -8  -4   11.49    0.43
   5   8  -3    0.40    0.17
   5   8  -3    0.05    0.17
   5  -8  -3    0.19    0.16
   5  -8  -3    0.23    0.18
   5   8  -2   27.87    0.77
   5  -8  -2   26.68    0.70
   5  -8  -2   28.00    0.74
   5   8  -1   12.76    0.47
   5   8  -1   13.02    0.46
   5  -8  -1   12.48    0.42
   5   8   0  128.06    2.69
   5   8   0  130.91    2.88
   5  -8   0  126.85    2.78
   5  -8   0  128.75    2.62
   5   8   1   35.33    0.96
   5   8   2   26.84    0.80
   5  -8   2   27.02    0.80
   5   8   3    7.24    0.47
   5  -8   3    7.49    0.48
   5   8   4    7.77    0.50
   5  -8   4    7.39    0.52
   5   9  -6   42.80    1.14
   5  -9  -6   43.31    1.07
   5   9  -5    4.76    0.37
   5  -9  -5    4.07    0.35
   5   9  -4    8.68    0.42
   5   9  -3   27.92    0.74
   5   9  -3   27.43    0.78
   5  -9  -3   26.86    0.74
   5  -9  -3   27.26    0.73
   5   9  -2    5.19    0.37
   5   9  -2    5.70    0.37
   5  -9  -2    5.57    0.39
   5  -9  -2    5.43    0.34
   5   9  -1   12.11    0.47
   5   9  -1   11.26    0.48
   5  -9  -1   11.97    0.44
   5  -9  -1   11.65    0.50
   5   9   0   22.51    0.67
   5   9   0   21.96    0.70
   5  -9   0   22.68    0.71
   5   9   1   16.00    0.59
   5  -9   1   15.77    0.61
   5   9   2    0.62    0.24
   5  -9   2    0.05    0.24
   5   9   3   11.54    0.57
   5  -9   3   11.72    0.57
   5  10  -5   46.62    1.24
   5 -10  -5   48.38    1.17
   5  10  -4    8.07    0.45
   5 -10  -4    7.80    0.44
   5  10  -3    2.96    0.29
   5  10  -3    3.22    0.35
   5 -10  -3    3.24    0.39
   5  10  -2    6.95    0.43
   5  10  -2    7.83    0.44
   5 -10  -2    7.97    0.48
   5 -10  -2    8.68    0.44
   5  10  -1   49.36    1.19
   5  10  -1   48.54    1.26
   5 -10  -1   48.67    1.21
   5  10   0   34.65    0.93
   5  10   0   34.90    0.97
   5 -10   0   33.47    0.95
   5  10   1   12.19    0.55
   5 -10   1   12.16    0.57
   5 -11  -4    1.45    0.30
   5  11  -3    8.25    0.56
   5 -11  -3    6.92    0.50
   5  11  -2   38.39    1.01
   5 -11  -2   36.13    1.01
   5  11  -1    2.48    0.32
   5 -11  -1    2.34    0.32
   5  11   0    6.85    0.50
   5 -11   0    6.06    0.50
   6   0 -11    0.39    0.33
   6   0 -10    0.52    0.29
   6   0 -10    0.23    0.21
   6   0  -9    0.18    0.17
   6   0  -8    2.71    0.29
   6   0  -8    2.41    0.26
   6   0  -7    0.03    0.14
   6   0  -7    0.12    0.13
   6   0  -6  404.50    8.06
   6   0  -6  413.31    8.67
   6   0  -5   -0.01    0.12
   6   0  -5    0.14    0.12
  -6   0   4    4.93    0.22
   6   0  -4    6.04    0.26
   6   0  -4    5.39    0.20
   6   0  -3    0.32    0.12
   6   0  -2    5.25    0.25
   6   0  -1    0.37    0.11
   6   0   0    8.80    0.27
   6   0   0    9.15    0.31
   6   0   0    8.93    0.30
   6   0   1    0.03    0.12
   6   0   2   24.01    0.65
   6   0   2   23.56    0.62
   6   0   2   24.74    0.61
   6   0   3   -0.15    0.16
   6   0   3   -0.03    0.14
   6   0   3    0.09    0.15
   6   0   4  187.51    4.04
   6   0   4  181.71    3.72
   6   0   5    0.16    0.23
   6   0   5   -0.24    0.22
   6   0   6   50.87    1.34
   6   1 -11    0.29    0.33
   6  -1 -11    0.28    0.28
   6  -1 -11    0.41    0.35
   6   1 -10    1.08    0.22
   6   1 -10    0.85    0.26
   6  -1 -10    0.88    0.22
   6   1  -9   26.15    0.76
   6   1  -9   26.62    0.68
   6  -1  -9   25.50    0.69
   6   1  -8    7.44    0.32
   6   1  -8    7.57    0.36
   6  -1  -8    7.46    0.33
   6   1  -7   12.36    0.40
   6   1  -7   12.79    0.43
   6  -1  -7   13.39    0.41
   6   1  -6   19.50    0.53
   6   1  -6   19.56    0.51
   6  -1  -6   19.41    0.52
   6   1  -5    0.13    0.11
  -6   1   5    0.05    0.15
   6   1  -5    0.14    0.13
   6  -1  -5   -0.01    0.10
   6  -1  -5   -0.04    0.12
   6   1  -4  101.59    2.09
   6   1  -4  101.94    2.19
   6  -1  -4  100.71    2.08
   6   1  -3    2.06    0.20
   6   1  -3    1.93    0.17
  -6  -1   3    2.15    0.16
   6  -1  -3    2.25    0.20
   6   1  -2  215.18    4.36
   6   1  -2  203.50    4.10
  -6  -1   2  198.37    4.35
   6  -1  -2  203.98    4.09
   6   1  -1   53.48    1.17
   6   1  -1   53.33    1.15
   6   1  -1   51.76    1.18
   6  -1  -1   53.82    1.14
   6   1   0    5.91    0.27
   6   1   0    5.91    0.24
   6  -1   0    5.99    0.26
   6   1   1    4.17    0.23
   6   1   1    4.12    0.25
   6  -1   1    4.30    0.22
   6  -1   1    4.31    0.24
   6  -1   1    4.12    0.28
   6   1   2    6.02    0.30
   6   1   2    6.26    0.29
   6   1   2    6.57    0.32
   6  -1   2    5.91    0.28
   6  -1   2    6.65    0.28
   6  -1   2    6.59    0.34
   6   1   3   64.24    1.47
   6   1   3   64.68    1.41
  -6   1  -3   67.25    1.50
   6   1   3   63.35    1.51
   6  -1   3   65.20    1.49
   6  -1   3   65.13    1.38
   6   1   4    2.80    0.33
   6   1   4    2.62    0.30
   6   1   4    2.83    0.32
  -6   1  -4    2.82    0.33
   6  -1   4    2.71    0.31
   6  -1   4    2.55    0.26
  -6   1  -5    8.60    0.47
   6   1   5    8.52    0.47
   6   1   5    8.80    0.48
   6  -1   5    8.31    0.49
   6   1   6    3.12    0.35
  -6   1  -6    2.53    0.33
   6  -1   6    2.36    0.35
   6  -2 -11   45.21    1.13
   6   2 -10   13.46    0.58
   6  -2 -10   13.79    0.52
   6   2  -9    3.27    0.29
   6  -2  -9    2.98    0.29
   6   2  -8   31.61    0.85
   6   2  -8   31.41    0.76
   6  -2  -8   31.89    0.84
   6  -2  -8   32.26    0.78
   6   2  -7    0.20    0.15
   6   2  -7    0.06    0.13
   6  -2  -7    0.29    0.16
   6  -2  -7    0.09    0.14
   6   2  -6   22.36    0.61
   6   2  -6   23.37    0.59
   6  -2  -6   23.89    0.59
   6  -2  -6   23.53    0.60
   6   2  -5    1.27    0.16
   6   2  -5    1.25    0.15
   6  -2  -5    1.25    0.16
   6  -2  -5    1.40    0.17
   6   2  -4   53.36    1.20
   6   2  -4   53.02    1.16
   6  -2  -4   53.34    1.16
   6   2  -3    7.28    0.29
   6   2  -3    7.67    0.27
   6  -2  -3    7.20    0.29
   6   2  -2   24.72    0.60
   6   2  -2   23.95    0.61
   6  -2  -2   24.20    0.59
   6   2  -1  237.57    4.74
   6  -2  -1  243.18    4.71
   6  -2  -1  230.87    4.90
   6   2   0    1.10    0.13
   6   2   0    0.98    0.16
   6  -2   0    1.35    0.14
   6  -2   0    1.15    0.16
   6   2   1   25.85    0.64
   6   2   1   24.30    0.64
   6  -2   1   25.33    0.60
   6  -2   1   24.66    0.61
   6  -2   1   25.16    0.67
   6   2   2    3.37    0.27
   6   2   2    3.69    0.26
  -6   2  -2    3.49    0.25
   6  -2   2    3.60    0.29
   6  -2   2    3.33    0.24
   6   2   3    1.74    0.20
   6   2   3    2.17    0.21
  -6   2  -3    2.21    0.21
   6   2   3    2.44    0.28
   6  -2   3    2.07    0.24
   6   2   4   88.12    1.97
  -6   2  -4   89.53    2.03
   6  -2   4   90.40    2.01
   6   2   5    5.73    0.42
  -6   2  -5    6.01    0.43
   6  -2   5    6.52    0.48
   6   2   6    9.67    0.58
   6  -2   6   10.31    0.62
   6   3 -10    0.81    0.28
   6  -3 -10    1.09    0.24
   6   3  -9   23.96    0.64
   6  -3  -9   25.40    0.68
   6   3  -8   26.24    0.66
   6  -3  -8   27.23    0.70
   6  -3  -8   26.50    0.73
   6   3  -7  168.67    3.45
   6   3  -7  170.78    3.74
   6  -3  -7  171.23    3.70
   6  -3  -7  174.32    3.55
   6  -3  -7  172.18    3.48
   6   3  -6    2.12    0.22
   6   3  -6    2.19    0.25
   6  -3  -6    2.04    0.22
   6   3  -5   22.17    0.59
   6   3  -5   22.14    0.57
  -6   3   5   21.63    0.52
   6  -3  -5   21.31    0.56
   6   3  -4   24.59    0.62
   6   3  -4   25.19    0.62
   6  -3  -4   23.73    0.62
   6  -3  -4   24.21    0.61
   6   3  -3   18.98    0.51
   6   3  -3   18.99    0.50
   6  -3  -3   18.93    0.52
   6  -3  -3   18.71    0.50
   6   3  -2    1.13    0.14
   6   3  -2    1.17    0.16
   6  -3  -2    1.16    0.14
   6  -3  -2    1.27    0.17
   6   3  -1    1.81    0.20
   6   3  -1    1.71    0.18
   6  -3  -1    1.93    0.19
   6  -3  -1    1.78    0.16
   6   3   0    1.43    0.17
   6   3   0    2.03    0.21
   6  -3   0    1.50    0.15
   6  -3   0    1.33    0.18
   6   3   1   55.78    1.29
  -6   3  -1   56.72    1.25
   6   3   1   56.01    1.24
   6  -3   1   55.42    1.19
   6  -3   1   56.17    1.30
  -6   3  -2   16.75    0.47
   6   3   2   15.44    0.50
   6   3   2   15.76    0.49
   6  -3   2   15.90    0.44
   6  -3   2   16.15    0.54
   6   3   3   44.03    1.11
  -6   3  -3   44.89    1.07
   6  -3   3   43.98    1.10
   6   3   4    6.79    0.42
   6   3   4    7.28    0.39
  -6   3  -4    6.91    0.40
   6   3   4    7.02    0.39
   6   3   5   -0.11    0.23
   6   3   5   -0.02    0.24
   6  -3   5   -0.15    0.26
   6   3   6   11.15    0.62
   6  -3   6   11.81    0.66
   6   4 -10    0.96    0.30
   6  -4 -10    1.00    0.25
   6   4  -9    7.50    0.46
   6  -4  -9    7.97    0.41
   6   4  -8    0.66    0.21
   6   4  -8    0.31    0.17
   6  -4  -8    0.53    0.18
   6   4  -7   12.83    0.46
   6   4  -7   12.57    0.40
  -6   4   7   11.68    0.41
   6  -4  -7   12.38    0.43
   6   4  -6    1.90    0.18
  -6   4   6    2.25    0.20
   6   4  -6    2.11    0.20
   6  -4  -6    2.22    0.18
  -6   4   5    5.19    0.22
   6   4  -5    4.92    0.28
   6   4  -5    4.74    0.28
   6  -4  -5    5.14    0.28
   6  -4  -5    5.38    0.27
   6   4  -4    0.36    0.13
   6   4  -4    0.29    0.14
   6  -4  -4    0.50    0.14
   6  -4  -4    0.38    0.14
   6   4  -3   43.28    1.01
   6   4  -3   43.37    0.98
   6  -4  -3   42.54    1.00
   6  -4  -3   43.03    0.96
   6   4  -2    0.08    0.13
   6   4  -2    0.21    0.14
   6  -4  -2    0.22    0.14
   6  -4  -2    0.20    0.13
   6   4  -1  198.25    4.29
   6   4  -1  198.34    4.03
   6  -4  -1  199.85    3.98
   6  -4  -1  202.35    4.17
   6   4   0   60.91    1.40
   6   4   0   61.18    1.35
   6  -4   0   61.89    1.30
   6  -4   0   60.87    1.40
  -6   4  -1   63.09    1.40
   6   4   1   63.80    1.46
   6   4   1   62.95    1.39
   6  -4   1   62.29    1.33
   6  -4   1   63.78    1.45
  -6   4  -2   20.42    0.54
   6   4   2   18.32    0.58
   6  -4   2   19.83    0.61
   6  -4   2   18.88    0.50
   6   4   3    1.87    0.22
   6  -4   3    1.63    0.24
   6   4   4   27.96    0.83
   6   4   4   30.50    0.88
   6   4   4   28.70    0.78
   6  -4   4   29.26    0.86
   6   4   5    0.13    0.27
   6   4   5    0.26    0.24
   6  -4   5    0.27    0.28
   6   4   6    5.23    0.51
   6   5  -9   79.95    1.89
   6  -5  -9   77.66    1.75
   6  -5  -8   23.24    0.67
   6   5  -7    1.19    0.19
   6   5  -7    1.90    0.23
   6   5  -6    7.70    0.33
   6   5  -6    8.29    0.37
   6  -5  -6    7.59    0.34
   6  -5  -6    8.15    0.33
   6   5  -5   30.68    0.79
   6   5  -5   30.13    0.73
   6  -5  -5   30.02    0.74
   6  -5  -5   29.72    0.74
   6   5  -4    0.35    0.15
   6   5  -4    0.64    0.15
   6  -5  -4    0.70    0.15
   6  -5  -4    0.36    0.14
   6   5  -3   68.00    1.55
   6   5  -3   68.07    1.47
   6  -5  -3   67.73    1.50
   6  -5  -3   67.56    1.45
   6   5  -2   48.40    1.14
   6   5  -2   49.07    1.11
   6  -5  -2   48.71    1.13
   6  -5  -2   48.26    1.07
   6   5  -1   13.68    0.43
   6   5  -1   13.00    0.44
   6  -5  -1   13.28    0.46
   6  -5  -1   13.24    0.40
   6   5   0    1.70    0.19
   6   5   0    1.61    0.19
   6  -5   0    1.75    0.17
   6  -5   0    1.49    0.20
   6   5   1   47.91    1.12
   6   5   1   48.02    1.17
   6  -5   1   47.55    1.04
   6  -5   1   48.73    1.17
   6   5   2    2.85    0.30
   6  -5   2    2.74    0.32
   6   5   3    9.25    0.45
   6  -5   3    9.09    0.47
   6   5   4    1.49    0.24
   6   5   4    1.12    0.26
   6  -5   4    1.17    0.27
   6   5   5    1.01    0.28
   6   5   5    1.54    0.27
   6  -5   5    1.03    0.32
   6   6  -9   20.87    0.75
   6  -6  -9   22.44    0.72
   6   6  -8    1.26    0.25
   6  -6  -8    1.14    0.21
   6   6  -7   13.33    0.45
   6   6  -7   14.98    0.55
   6  -6  -7   13.65    0.49
   6   6  -6   53.26    1.18
   6   6  -6   54.11    1.30
   6  -6  -6   52.11    1.21
   6   6  -5   26.09    0.68
   6   6  -5   27.43    0.74
   6  -6  -5   27.70    0.70
   6  -6  -5   26.55    0.68
   6   6  -4    4.07    0.28
   6   6  -4    3.90    0.29
   6  -6  -4    4.06    0.30
   6  -6  -4    3.76    0.27
   6   6  -3   32.70    0.86
   6   6  -3   34.94    0.84
   6  -6  -3   33.83    0.81
   6  -6  -3   34.01    0.84
   6   6  -2   18.53    0.54
   6   6  -2   17.86    0.54
   6  -6  -2   18.11    0.50
   6  -6  -2   17.76    0.55
   6   6  -1   16.73    0.52
   6  -6  -1   17.08    0.54
   6  -6  -1   17.36    0.48
   6   6   0    1.53    0.20
   6   6   0    1.64    0.21
   6  -6   0    2.12    0.24
   6  -6   0    1.90    0.22
   6   6   1   48.08    1.15
   6  -6   1   49.76    1.20
   6   6   2   40.34    1.04
   6   6   2   40.72    1.06
   6  -6   2   40.42    1.06
   6   6   3    1.57    0.26
   6   6   3    1.90    0.23
   6  -6   3    1.75    0.27
   6   6   4   25.81    0.77
   6   6   4   25.21    0.82
   6  -6   4   26.34    0.85
   6   7  -8    0.60    0.25
   6  -7  -8    0.78    0.21
   6   7  -7    4.50    0.39
   6  -7  -7    4.78    0.36
   6   7  -6   27.49    0.72
   6  -7  -6   28.85    0.76
   6   7  -5    0.58    0.19
   6   7  -5    0.54    0.18
   6  -7  -5    0.65    0.19
   6  -7  -5    0.38    0.17
   6   7  -4   62.38    1.49
   6   7  -4   62.02    1.40
   6  -7  -4   65.21    1.40
   6  -7  -4   63.09    1.42
   6  -7  -3   14.57    0.47
   6  -7  -3   15.11    0.50
   6   7  -2    6.00    0.35
   6  -7  -2    6.48    0.32
   6  -7  -2    6.40    0.37
   6   7  -1   15.93    0.53
   6  -7  -1   16.01    0.55
   6  -7  -1   15.71    0.47
   6   7   0   11.60    0.44
   6   7   0   11.32    0.45
   6  -7   0   11.12    0.47
   6  -7   0   10.87    0.39
   6   7   1   61.46    1.48
   6   7   1   60.73    1.40
   6  -7   1   61.07    1.45
   6   7   2    1.39    0.22
   6   7   2    1.34    0.25
   6  -7   2    1.81    0.26
   6   7   3    0.87    0.22
   6   7   3    0.53    0.25
   6  -7   3    0.26    0.26
   6   7   4    0.43    0.28
   6   8  -7    3.52    0.41
   6  -8  -7    3.87    0.38
   6   8  -6    2.35    0.28
   6  -8  -6    2.84    0.27
   6   8  -5   11.32    0.45
   6   8  -5   10.93    0.48
   6  -8  -5   11.09    0.46
   6   8  -4   74.62    1.65
   6  -8  -4   77.15    1.65
   6  -8  -4   74.73    1.68
   6   8  -3    1.38    0.22
   6   8  -3    1.37    0.22
   6  -8  -3    1.58    0.21
   6   8  -2    9.16    0.42
   6   8  -2    8.83    0.43
   6  -8  -2    9.48    0.43
   6  -8  -2    8.90    0.40
   6   8  -1    1.58    0.23
   6  -8  -1    1.43    0.21
   6  -8  -1    1.30    0.23
   6   8   0    0.40    0.21
   6   8   0    0.33    0.19
   6  -8   0    0.03    0.21
   6   8   1    0.35    0.24
   6   8   1    0.87    0.22
   6  -8   1    0.56    0.24
   6   8   2   28.43    0.82
   6   8   2   28.70    0.88
   6  -8   2   29.88    0.88
   6   8   3   13.19    0.62
   6   9  -6    1.88    0.28
   6  -9  -6    1.97    0.27
   6   9  -5   18.98    0.66
   6   9  -5   19.17    0.63
   6  -9  -5   19.67    0.64
   6   9  -4   70.79    1.71
   6   9  -4   69.97    1.58
   6  -9  -4   72.32    1.59
   6   9  -3   16.33    0.59
   6  -9  -3   16.57    0.56
   6  -9  -3   16.31    0.60
   6   9  -2    4.55    0.39
   6   9  -2    3.92    0.37
   6  -9  -2    4.06    0.38
   6   9  -1   -0.03    0.21
   6   9  -1    0.39    0.22
   6  -9  -1   -0.04    0.23
   6   9   0    4.82    0.40
   6   9   0    4.49    0.42
   6  -9   0    4.35    0.43
   6   9   1   19.75    0.70
   6   9   1   20.20    0.67
   6  -9   1   19.62    0.72
   6   9   2    7.42    0.51
   6 -10  -5    1.25    0.27
   6  10  -4    1.19    0.29
   6  10  -4    1.15    0.25
   6 -10  -4    1.20    0.27
   6  10  -3   33.74    0.96
   6  10  -3   34.31    0.93
   6 -10  -3   34.44    0.94
   6 -10  -3   33.62    0.91
   6  10  -2    1.63    0.27
   6  10  -2    1.76    0.29
   6 -10  -2    1.57    0.30
   6  10  -1    2.50    0.31
   6  10  -1    1.90    0.29
   6 -10  -1    1.53    0.31
   6  10   0   19.96    0.72
   6  10   0   22.03    0.71
   6 -10   0   20.13    0.75
   6 -11  -4    1.23    0.34
   6  11  -3   -0.08    0.32
   6  11  -2    9.72    0.58
   6 -11  -2    8.12    0.59
   7   0 -10    9.26    0.46
   7   0  -9    0.29    0.23
   7   0  -8   17.78    0.52
   7   0  -8   16.85    0.53
   7   0  -7    0.20    0.14
   7   0  -6  133.27    2.74
   7   0  -6  133.59    2.88
   7   0  -5    0.09    0.12
   7   0  -5   -0.24    0.12
   7   0  -4  138.24    2.82
   7   0  -3    0.09    0.13
   7   0  -2    0.03    0.13
   7   0  -1    0.31    0.13
   7   0   0   50.32    1.14
   7   0   0   51.91    1.13
   7   0   1    0.12    0.15
   7   0   1    0.01    0.12
   7   0   1    0.23    0.15
   7   0   2   11.85    0.42
   7   0   2   12.72    0.46
   7   0   2   11.32    0.41
   7   0   3    0.08    0.17
   7   0   3   -0.02    0.18
   7   0   3   -0.09    0.18
   7   0   4    4.24    0.42
   7   0   5   -0.37    0.28
   7  -1 -11   11.76    0.56
   7   1 -10   84.84    1.82
   7  -1 -10   84.76    1.84
   7   1  -9    0.34    0.22
   7   1  -9    0.69    0.20
   7  -1  -9    0.89    0.20
   7   1  -8    3.90    0.30
   7   1  -8    2.75    0.32
   7  -1  -8    4.15    0.30
   7   1  -7    9.85    0.39
   7  -1  -7   10.50    0.39
   7   1  -6   12.15    0.41
   7   1  -6   12.37    0.39
   7  -1  -6   12.31    0.40
   7   1  -5   33.71    0.81
   7  -1  -5   34.36    0.81
   7   1  -4    4.23    0.27
   7   1  -4    4.29    0.22
   7  -1  -4    4.02    0.26
   7   1  -3    3.15    0.25
   7   1  -3    3.10    0.20
   7  -1  -3    2.99    0.24
   7   1  -2   29.13    0.73
   7   1  -2   30.47    0.69
   7  -1  -2   29.56    0.72
   7   1  -1    1.04    0.13
   7   1  -1    0.98    0.15
   7  -1  -1    0.97    0.16
   7   1   0  180.98    3.66
   7   1   0  178.90    3.87
   7  -1   0  183.06    3.64
   7  -1   0  180.99    3.80
   7   1   1   21.64    0.59
   7   1   1   20.86    0.57
   7  -1   1   21.99    0.57
   7  -1   1   21.38    0.63
   7   1   2   12.24    0.44
   7   1   2   13.68    0.50
   7   1   2   12.87    0.44
   7  -1   2   12.92    0.48
   7  -1   2   13.16    0.43
   7   1   3    0.94    0.21
   7   1   3    1.09    0.21
   7  -1   3    0.60    0.20
   7  -1   3    1.12    0.20
   7   1   4    0.06    0.23
   7   1   4    0.30    0.23
   7  -1   4    0.74    0.25
   7  -1   5   22.27    0.79
   7   2 -10    0.49    0.28
   7   2 -10    0.61    0.26
   7  -2 -10    0.55    0.23
   7   2  -9   14.42    0.56
   7   2  -9   14.60    0.49
   7  -2  -9   14.52    0.51
   7   2  -8   38.55    0.91
   7   2  -8   38.38    0.98
   7   2  -7    1.16    0.19
   7   2  -7    0.98    0.18
   7  -2  -7    1.32    0.18
   7   2  -6   -0.20    0.13
   7   2  -6   -0.02    0.14
   7   2  -5    4.84    0.29
   7   2  -5    5.07    0.26
   7  -2  -5    5.81    0.28
   7   2  -4    1.16    0.14
   7   2  -4    1.06    0.17
   7  -2  -4    1.29    0.17
   7   2  -3   10.93    0.38
   7  -2  -3   10.86    0.37
   7   2  -2   84.22    1.78
   7  -2  -2   83.83    1.76
   7   2  -1   25.83    0.66
   7   2  -1   25.81    0.64
   7  -2  -1   26.16    0.64
   7  -2  -1   26.08    0.69
   7   2   0    0.17    0.12
   7   2   0    0.09    0.14
   7  -2   0    0.50    0.16
   7   2   1   57.23    1.35
   7   2   1   59.09    1.31
   7  -2   1   59.19    1.27
   7  -2   1   59.34    1.41
   7   2   2    0.32    0.17
   7  -2   2    0.40    0.18
   7  -2   2    0.39    0.16
   7   2   3    3.97    0.36
   7   2   3    3.20    0.36
   7   2   3    3.68    0.35
   7   2   4    3.24    0.32
   7   2   4    2.94    0.30
   7  -2   4    3.16    0.32
   7   2   5    4.59    0.55
   7  -2   5    3.48    0.37
   7   3 -10    0.10    0.29
   7  -3 -10    0.37    0.23
   7   3  -9    7.89    0.40
   7  -3  -9    7.55    0.40
   7   3  -8   18.78    0.55
   7  -3  -8   18.95    0.57
   7   3  -7   10.14    0.41
   7  -3  -7   10.01    0.39
   7   3  -6   24.71    0.67
   7   3  -6   24.65    0.64
   7  -3  -6   23.93    0.64
   7   3  -5  303.69    6.05
   7   3  -5  304.89    6.49
   7  -3  -5  303.25    6.05
   7   3  -4    3.52    0.27
   7   3  -4    3.23    0.24
   7  -3  -4    4.39    0.26
   7  -3  -4    3.71    0.28
   7   3  -3    1.06    0.15
   7   3  -3    1.04    0.16
   7  -3  -3    0.83    0.16
   7  -3  -3    1.01    0.17
   7   3  -2   27.08    0.67
   7   3  -2   26.87    0.69
   7  -3  -2   26.15    0.66
   7  -3  -2   26.62    0.71
   7   3  -1   33.30    0.80
   7   3  -1   33.69    0.82
   7  -3  -1   33.54    0.85
   7  -3  -1   33.09    0.78
   7   3   0    5.49    0.28
   7   3   0    5.52    0.31
   7  -3   0    5.40    0.28
   7   3   1    0.74    0.19
   7   3   1    0.76    0.17
   7  -3   1    0.75    0.17
   7  -3   1    1.52    0.20
   7   3   2    9.20    0.41
   7   3   2   10.40    0.42
   7  -3   2    9.53    0.45
   7  -3   2    9.87    0.38
   7   3   3   33.18    0.90
   7   3   3   33.66    0.88
   7  -3   3   31.97    0.91
   7   3   4    1.64    0.30
   7   3   4    1.75    0.28
   7   3   4    1.97    0.27
   7  -3   4    1.64    0.29
   7   3   5   32.69    1.00
   7   3   5   31.70    0.91
   7  -3   5   31.64    1.00
   7   4 -10    4.79    0.52
   7   4  -9    5.35    0.45
   7  -4  -9    5.73    0.40
   7   4  -8   -0.16    0.19
   7   4  -8    0.41    0.22
   7  -4  -8    0.20    0.17
   7   4  -7   27.83    0.77
   7   4  -6    0.85    0.18
   7   4  -6    0.76    0.17
   7  -4  -6    0.47    0.18
   7  -4  -6    0.83    0.17
   7   4  -5    0.18    0.16
   7   4  -5    0.01    0.16
   7  -4  -5    0.10    0.16
   7   4  -4    0.31    0.15
   7  -4  -4    0.07    0.16
   7  -4  -4    0.04    0.14
   7   4  -3   10.68    0.38
   7   4  -3   11.30    0.41
   7  -4  -3   11.07    0.42
   7  -4  -3   10.96    0.38
   7   4  -2   18.86    0.55
   7   4  -2   18.96    0.53
   7  -4  -2   18.49    0.57
   7  -4  -2   18.84    0.51
   7   4  -1    2.18    0.24
   7  -4  -1    2.25    0.22
   7  -4  -1    2.31    0.25
   7   4   0    0.20    0.15
   7   4   0   -0.08    0.15
   7  -4   0    0.44    0.15
   7  -4   0    0.31    0.17
   7   4   1   30.66    0.79
   7   4   1   30.35    0.80
   7  -4   1   30.21    0.73
   7  -4   1   30.73    0.84
   7  -4   2   31.75    0.88
   7   4   3   51.31    1.21
   7   4   3   49.28    1.27
   7  -4   3   51.13    1.28
   7   4   4    8.54    0.53
   7   4   4    9.16    0.50
   7  -4   4    8.93    0.55
   7   4   5   12.31    0.66
   7   5  -9    1.08    0.29
   7  -5  -9    1.39    0.24
   7   5  -8    0.55    0.21
   7   5  -8    0.63    0.24
   7  -5  -8    0.37    0.20
   7   5  -7   95.74    2.17
   7   5  -7   93.58    1.99
   7  -5  -7   94.67    2.03
   7   5  -6   35.33    0.93
   7  -5  -6   35.90    0.87
   7  -5  -6   35.83    0.88
   7   5  -5    8.95    0.39
   7  -5  -5    8.69    0.38
   7  -5  -5    8.85    0.37
   7   5  -4   16.89    0.52
   7  -5  -4   17.04    0.53
   7   5  -3  120.87    2.68
   7  -5  -3  122.91    2.61
   7  -5  -3  121.37    2.51
   7   5  -2    1.86    0.21
   7   5  -2    1.46    0.19
   7  -5  -2    1.68    0.18
   7  -5  -2    1.33    0.20
   7   5  -1   13.20    0.45
   7   5  -1   12.26    0.46
   7  -5  -1   12.66    0.42
   7  -5  -1   12.94    0.48
   7   5   0   37.06    0.92
   7   5   0   36.84    0.93
   7  -5   0   36.51    0.96
   7  -5   0   36.84    0.86
   7   5   1    2.13    0.26
   7   5   2   -0.04    0.20
   7   5   2    0.56    0.21
   7  -5   2    0.02    0.21
   7   5   3   11.97    0.56
   7   5   3   12.27    0.52
   7  -5   3   13.38    0.57
   7   5   4    6.74    0.54
   7   5   4    7.73    0.50
   7   6  -9    0.28    0.30
   7   6  -8    0.57    0.26
   7  -6  -8    0.37    0.20
   7   6  -7   48.25    1.12
   7  -6  -7   48.37    1.16
   7   6  -6   12.64    0.47
   7   6  -6   12.88    0.51
   7  -6  -6   12.62    0.47
   7   6  -5    3.86    0.33
   7  -6  -5    4.00    0.34
   7  -6  -5    4.58    0.33
   7   6  -4   14.90    0.50
   7   6  -4   14.60    0.49
   7  -6  -4   14.21    0.47
   7  -6  -4   13.75    0.50
   7   6  -3   33.42    0.85
   7   6  -3   33.07    0.86
   7  -6  -3   33.16    0.86
   7   6  -2    7.86    0.38
   7   6  -2    7.58    0.38
   7  -6  -2    7.98    0.35
   7  -6  -2    7.87    0.40
   7   6  -1    0.45    0.17
   7   6  -1    0.27    0.17
   7  -6  -1    0.33    0.17
   7  -6  -1    0.58    0.20
   7   6   0   18.50    0.59
   7   6   0   18.47    0.60
   7  -6   0   18.28    0.53
   7   6   1    0.35    0.20
   7   6   1    0.17    0.21
   7  -6   1    0.16    0.20
   7   6   2    0.43    0.22
   7   6   2   -0.07    0.24
   7  -6   2    0.07    0.22
   7   6   3   51.00    1.33
   7   6   3   50.34    1.25
   7  -6   3   51.05    1.32
   7   6   4    9.54    0.66
   7   7  -8   42.58    1.17
   7   7  -7    1.18    0.26
   7  -7  -7    1.11    0.23
   7   7  -6    0.08    0.22
   7   7  -6   -0.28    0.21
   7  -7  -6    0.07    0.19
   7   7  -5   12.29    0.50
   7   7  -5   12.71    0.49
   7  -7  -5   13.16    0.49
   7  -7  -5   12.96    0.51
   7   7  -4   10.10    0.44
   7   7  -4   10.51    0.44
   7  -7  -4   10.24    0.42
   7  -7  -4   10.60    0.47
   7   7  -3    1.79    0.24
   7   7  -3    1.51    0.22
   7  -7  -3    1.94    0.22
   7  -7  -3    1.88    0.24
   7   7  -2   65.35    1.59
   7  -7  -2   67.56    1.56
   7  -7  -2   69.14    1.52
   7   7  -1   15.76    0.55
   7   7  -1   15.24    0.54
   7  -7  -1   15.43    0.51
   7   7   0   27.08    0.77
   7   7   0   23.65    0.73
   7  -7   0   25.04    0.77
   7   7   1   41.65    1.07
   7   7   1   42.07    1.11
   7  -7   1   42.06    1.11
   7   7   2   24.98    0.81
   7   7   2   24.36    0.76
   7  -7   2   25.50    0.81
   7   7   3   10.97    0.62
   7   8  -7    1.50    0.30
   7   8  -6    2.24    0.29
   7  -8  -6    2.51    0.28
   7   8  -5    0.53    0.28
   7   8  -5    0.51    0.23
   7  -8  -5    0.55    0.23
   7   8  -4    5.45    0.41
   7   8  -4    5.69    0.40
   7  -8  -4    5.46    0.39
   7  -8  -4    5.96    0.44
   7   8  -3   18.17    0.63
   7   8  -3   17.56    0.61
   7  -8  -3   19.17    0.59
   7  -8  -3   18.31    0.63
   7   8  -2   86.61    2.01
   7   8  -2   86.20    1.91
   7  -8  -2   86.13    1.85
   7  -8  -2   86.16    1.95
   7   8  -1    3.94    0.38
   7   8  -1    4.31    0.39
   7  -8  -1    4.13    0.42
   7   8   0    1.95    0.27
   7   8   0    1.86    0.27
   7  -8   0    1.81    0.28
   7   8   1    0.20    0.26
   7   8   1    0.01    0.22
   7  -8   1    0.27    0.27
   7   8   2    0.74    0.30
   7   9  -5    0.98    0.29
   7   9  -5    0.63    0.26
   7  -9  -5    1.17    0.28
   7   9  -4    1.47    0.28
   7   9  -4    1.03    0.27
   7  -9  -4    1.48    0.27
   7   9  -3   15.32    0.60
   7   9  -3   15.54    0.60
   7  -9  -3   16.14    0.60
   7  -9  -3   15.62    0.63
   7   9  -2   33.61    0.95
   7   9  -2   36.17    0.99
   7  -9  -2   35.14    0.98
   7   9  -1   27.19    0.82
   7   9  -1   27.75    0.85
   7  -9  -1   27.53    0.86
   7   9   0   14.04    0.62
   7  -9   0   13.46    0.62
   7  10  -4   21.98    0.77
   7 -10  -4   22.95    0.76
   7  10  -3    0.50    0.30
   7 -10  -3    0.19    0.34
   7 -10  -2    3.90    0.40
   8   0 -10    0.46    0.24
   8   0  -9    0.20    0.20
   8   0  -8    5.43    0.35
   8   0  -7   -0.26    0.15
   8   0  -6    6.02    0.33
   8   0  -5    0.17    0.15
   8   0  -3   -0.08    0.14
   8   0  -2   14.42    0.46
   8   0  -1    0.05    0.15
   8   0   0    0.55    0.17
   8   0   1    0.29    0.18
   8   0   1    0.09    0.18
   8   0   2   49.65    1.22
   8   0   2   49.52    1.15
   8   0   3    0.07    0.22
   8   0   3    0.03    0.23
   8   0   4    2.70    0.33
   8   1 -10    2.25    0.28
   8  -1 -10    1.95    0.27
   8   1  -9    9.39    0.45
   8  -1  -9    9.36    0.44
   8   1  -8   80.77    1.75
   8  -1  -8   76.61    1.71
   8   1  -7   10.30    0.42
   8  -1  -7   10.33    0.42
   8   1  -6   18.48    0.55
   8  -1  -6   18.40    0.54
   8   1  -5    2.51    0.27
   8  -1  -5    3.58    0.28
   8   1  -3   27.87    0.75
   8  -1  -3   29.32    0.73
   8   1  -2    3.88    0.29
   8  -1  -2    3.75    0.28
   8  -1  -1    2.91    0.27
   8   1   0    0.10    0.16
   8  -1   0    0.11    0.16
   8  -1   0    0.47    0.17
   8   1   1    2.13    0.22
   8  -1   1    2.11    0.22
   8  -1   1    2.21    0.25
   8   1   2  120.67    2.62
   8   1   2  119.69    2.51
   8  -1   2  120.12    2.63
   8   1   3    3.95    0.42
   8  -1   3    3.90    0.43
   8   1   4   31.35    0.95
   8  -1   4   32.69    0.97
   8   2 -10    0.67    0.26
   8   2  -9   65.77    1.45
   8  -2  -9   63.84    1.47
   8  -2  -8    5.45    0.36
   8   2  -7    2.22    0.22
   8   2  -6   43.33    1.01
   8  -2  -6   42.59    1.01
   8   2  -5    2.41    0.26
   8   2  -5    2.38    0.22
   8  -2  -5    2.18    0.21
   8   2  -4   15.45    0.45
   8   2  -4   14.75    0.51
   8   2  -3    2.13    0.24
   8  -2  -3    1.19    0.18
   8   2  -2   22.92    0.59
   8   2  -2   21.51    0.61
   8  -2  -2   20.08    0.58
   8   2  -1    4.13    0.30
   8  -2  -1    4.26    0.29
   8  -2  -1    4.53    0.32
   8   2   0   23.13    0.65
   8  -2   0   23.17    0.62
   8  -2   0   23.41    0.68
   8   2   1   38.30    0.94
   8  -2   1   37.80    0.91
   8  -2   1   38.67    1.01
   8   2   2    0.92    0.22
   8  -2   2    0.80    0.22
   8  -2   2    0.83    0.22
   8   2   3    3.89    0.41
   8   2   3    4.51    0.43
   8  -2   3    3.75    0.45
   8   2   4    0.53    0.29
   8   2   4    0.66    0.29
   8  -2   4    0.44    0.32
   8   3  -9   -0.21    0.23
   8  -3  -9    0.45    0.21
   8  -3  -8    5.36    0.36
   8   3  -7    0.15    0.20
   8   3  -7    0.17    0.18
   8  -3  -7    0.40    0.19
   8  -3  -7    0.38    0.18
   8   3  -6   51.42    1.18
   8   3  -6   51.50    1.22
   8  -3  -6   50.51    1.18
   8   3  -5    0.52    0.18
   8   3  -5    0.45    0.16
   8  -3  -5    0.07    0.16
   8  -3  -5    0.36    0.17
   8   3  -4    5.67    0.30
   8   3  -4    6.27    0.35
   8  -3  -4    6.00    0.32
   8  -3  -4    6.37    0.36
   8   3  -3  282.62    5.68
   8   3  -3  283.63    6.04
   8   3  -2    2.16    0.21
   8   3  -2    2.21    0.26
   8  -3  -2    1.92    0.20
   8  -3  -2    1.79    0.21
   8   3  -1   15.95    0.48
   8   3  -1   15.81    0.52
   8  -3  -1   16.11    0.55
   8  -3  -1   15.72    0.49
   8   3   0    7.95    0.38
   8   3   0    6.50    0.35
   8  -3   0    7.20    0.35
   8  -3   0    7.22    0.41
   8   3   1   39.16    0.99
   8  -3   1   39.09    1.02
   8  -3   1   39.86    0.93
   8   3   2    0.09    0.22
   8  -3   2    0.48    0.23
   8   3   3    0.66    0.26
   8   3   3    0.57    0.26
   8  -3   3    0.57    0.27
   8   3   4   16.91    0.68
   8   4  -9   38.86    0.99
   8   4  -9   42.12    1.15
   8  -4  -9   38.58    1.04
   8   4  -8    0.41    0.25
   8   4  -8    0.35    0.23
   8  -4  -8    0.77    0.20
   8   4  -7   10.43    0.45
   8   4  -7    9.86    0.44
   8  -4  -7   10.18    0.43
   8   4  -6    0.58    0.20
   8   4  -6    0.12    0.18
   8  -4  -6    0.28    0.20
   8  -4  -6    0.50    0.17
   8   4  -5    3.40    0.31
   8   4  -5    3.39    0.27
   8  -4  -5    3.36    0.34
   8  -4  -5    3.79    0.30
   8   4  -4    0.29    0.17
   8   4  -4    0.37    0.18
   8  -4  -4    0.47    0.17
   8  -4  -4    0.40    0.19
   8   4  -3    2.70    0.27
   8   4  -3    2.70    0.29
   8  -4  -3    2.53    0.24
   8  -4  -3    2.71    0.29
   8   4  -2    0.68    0.18
   8   4  -2    0.79    0.18
   8  -4  -2    0.39    0.19
   8  -4  -2    0.61    0.17
   8   4  -1   15.21    0.52
   8   4  -1   15.52    0.49
   8  -4  -1   15.70    0.54
   8  -4  -1   15.06    0.49
   8   4   0    6.87    0.37
   8   4   0    7.08    0.40
   8  -4   0    6.96    0.36
   8  -4   0    6.46    0.40
   8   4   1   33.14    0.89
   8   4   1   33.85    0.89
   8  -4   1   34.07    0.93
   8   4   2    0.53    0.24
   8   4   2    0.32    0.25
   8  -4   2   -0.01    0.23
   8   4   3    1.45    0.29
   8   4   3    1.09    0.29
   8  -4   3    1.10    0.30
   8   5  -9    0.35    0.31
   8   5  -8   19.00    0.70
   8   5  -8   19.52    0.63
   8  -5  -8   20.25    0.64
   8   5  -7    7.06    0.45
   8  -5  -7    7.58    0.41
   8   5  -6    0.10    0.21
   8  -5  -6    0.42    0.21
   8  -5  -6    0.21    0.18
   8   5  -5   30.04    0.82
   8   5  -5   31.20    0.81
   8  -5  -5   29.92    0.81
   8   5  -4   21.50    0.63
   8   5  -4   21.05    0.61
   8  -5  -4   20.65    0.64
   8  -5  -4   21.39    0.61
   8   5  -3    6.89    0.35
   8   5  -3    6.66    0.39
   8  -5  -3    6.50    0.39
   8  -5  -3    7.00    0.36
   8   5  -2    7.19    0.37
   8  -5  -2    7.33    0.42
   8   5  -1  203.51    4.22
   8   5  -1  204.65    4.47
   8  -5  -1  206.07    4.16
   8  -5  -1  212.24    4.39
   8   5   0    2.42    0.27
   8  -5   0    2.34    0.27
   8  -5   0    2.60    0.24
   8   5   1    0.24    0.24
   8   5   1   -0.06    0.21
   8  -5   1    0.04    0.22
   8   5   2   38.80    1.02
   8   5   2   38.92    1.06
   8  -5   2   38.06    1.06
   8   6  -9    3.17    0.42
   8   6  -8    8.20    0.54
   8   6  -7   17.21    0.65
   8   6  -7   17.65    0.61
   8  -6  -7   17.54    0.60
   8   6  -6    8.79    0.45
   8   6  -6    8.93    0.47
   8  -6  -6    8.60    0.43
   8   6  -5   30.69    0.85
   8   6  -5   30.73    0.82
   8  -6  -5   30.82    0.84
   8  -6  -5   31.42    0.82
   8   6  -4   29.74    0.86
   8   6  -4   33.18    0.85
   8  -6  -4   33.31    0.88
   8   6  -3    2.71    0.26
   8  -6  -3    2.76    0.28
   8  -6  -3    3.26    0.33
   8   6  -2    0.28    0.21
   8   6  -2    0.08    0.19
   8  -6  -2   -0.18    0.20
   8  -6  -2    0.20    0.20
   8   6  -1   10.81    0.47
   8   6  -1   11.56    0.49
   8  -6  -1   10.51    0.52
   8   6   0    0.54    0.24
   8   6   0    0.81    0.24
   8  -6   0    0.59    0.24
   8   6   1    4.74    0.41
   8   6   1    4.07    0.45
   8  -6   1    4.46    0.44
   8   6   2    3.01    0.36
   8   6   3    7.14    0.61
   8   7  -8   13.45    0.65
   8   7  -7    2.46    0.33
   8   7  -7    2.03    0.31
   8   7  -6   63.97    1.58
   8   7  -6   65.30    1.49
   8  -7  -6   64.97    1.50
   8   7  -5    7.03    0.44
   8   7  -5    6.86    0.44
   8  -7  -5    7.91    0.43
   8  -7  -5    7.67    0.48
   8   7  -4    0.16    0.22
   8  -7  -4    0.09    0.21
   8  -7  -4    0.32    0.24
   8   7  -3    1.13    0.24
   8   7  -3    1.31    0.25
   8  -7  -3    0.93    0.25
   8   7  -2    2.29    0.28
   8  -7  -2    1.84    0.26
   8  -7  -2    1.98    0.28
   8   7  -1    7.76    0.46
   8   7  -1    6.64    0.45
   8  -7  -1    6.90    0.47
   8   7   0   27.83    0.83
   8   7   0   29.23    0.86
   8  -7   0   28.33    0.87
   8   7   1    0.84    0.30
   8   7   2   13.86    0.67
   8   8  -6   38.07    1.08
   8   8  -6   38.69    1.02
   8   8  -5   11.99    0.55
   8   8  -5   10.86    0.54
   8  -8  -5   12.11    0.54
   8   8  -4    1.98    0.29
   8   8  -4    1.40    0.29
   8  -8  -4    1.03    0.29
   8  -8  -4    1.65    0.28
   8   8  -3    4.68    0.43
   8   8  -3    4.18    0.43
   8  -8  -3    4.48    0.49
   8  -8  -3    4.66    0.44
   8   8  -2   34.40    0.96
   8   8  -2   36.19    1.00
   8  -8  -2   35.04    1.00
   8   8  -1    0.12    0.27
   8   8  -1   -0.50    0.25
   8  -8  -1   -0.15    0.25
   8   8   0   29.63    0.92
   8   9  -5    8.75    0.57
   8   9  -4    1.47    0.32
   8   9  -4    1.67    0.32
   8  -9  -4    2.20    0.33
   8   9  -3    2.91    0.34
   8  -9  -3    2.07    0.36
   8   9  -2    6.38    0.52
   8  -9  -2    6.04    0.55
   9   0  -9    0.06    0.23
   9   0  -8    7.46    0.41
   9   0  -7    0.07    0.18
   9   0  -6   -0.05    0.17
   9   0  -4   -0.02    0.17
   9   0  -3   -0.16    0.17
   9   0  -2  166.11    3.41
   9   0  -1   -0.24    0.18
   9   0   0    0.69    0.20
   9   0   0    0.37    0.22
   9   0   1    0.27    0.21
   9   0   1    0.14    0.22
   9   0   2   27.65    0.79
   9   0   2   28.24    0.84
   9   1  -9    2.47    0.29
   9  -1  -9    2.34    0.27
   9   1  -8   15.69    0.55
   9  -1  -8   16.29    0.56
   9   1  -7   23.70    0.68
   9  -1  -7   22.22    0.67
   9   1  -6   15.80    0.52
   9  -1  -6   14.96    0.52
   9   1  -4   22.45    0.66
   9  -1  -4   23.52    0.65
   9   1  -3    0.22    0.18
   9  -1  -3    0.19    0.18
   9   1  -2   50.63    1.18
   9  -1  -2   49.74    1.16
   9  -1  -1    5.13    0.35
   9  -1  -1    5.13    0.34
   9   1   0    0.29    0.20
   9  -1   0    0.41    0.20
   9  -1   0    0.54    0.20
   9   1   1    5.89    0.41
   9   1   1    6.01    0.41
   9  -1   1    5.85    0.42
   9  -1   1    6.33    0.45
   9   1   2    4.22    0.43
   9   1   2    4.21    0.43
   9  -1   2    3.38    0.32
   9   2  -9    5.39    0.45
   9   2  -8    9.68    0.48
   9  -2  -8   10.28    0.46
   9   2  -7   50.50    1.19
   9  -2  -7   49.84    1.19
   9   2  -6    6.39    0.36
   9  -2  -6    5.88    0.35
   9   2  -5    3.88    0.33
   9  -2  -5    3.52    0.32
   9  -2  -4   14.15    0.49
   9  -2  -3   28.86    0.75
   9  -2  -3   28.91    0.80
   9  -2  -2   14.80    0.50
   9   2  -1    0.22    0.19
   9  -2  -1   -0.06    0.18
   9  -2  -1    0.33    0.18
   9   2   0   51.71    1.20
   9  -2   0   49.72    1.17
   9  -2   0   50.41    1.25
   9   2   1   -0.02    0.22
   9  -2   1   -0.09    0.21
   9  -2   1   -0.07    0.23
   9   2   2    0.22    0.26
   9   2   2    0.35    0.26
   9  -2   2    0.19    0.25
   9   2   3   24.69    0.81
   9   3  -9   13.42    0.58
   9   3  -8    2.46    0.28
   9  -3  -8    2.56    0.26
   9   3  -7    6.52    0.40
   9  -3  -7    6.80    0.39
   9  -3  -7    7.11    0.45
   9   3  -6    0.51    0.21
   9  -3  -6    0.30    0.18
   9  -3  -6    0.86    0.23
   9   3  -5    0.02    0.19
   9  -3  -5    0.09    0.17
   9  -3  -5    0.33    0.20
   9   3  -4   29.67    0.80
   9  -3  -4   30.12    0.82
   9   3  -3   19.94    0.62
   9  -3  -3   20.14    0.60
   9   3  -2    0.59    0.20
   9  -3  -2    0.22    0.19
   9  -3  -2    0.45    0.20
   9   3  -1   58.82    1.36
   9  -3  -1   58.32    1.41
   9  -3  -1   59.02    1.32
   9   3   0    3.49    0.37
   9  -3   0    3.16    0.27
   9  -3   0    3.21    0.29
   9   3   1    8.29    0.46
   9  -3   1    7.96    0.48
   9   3   2    0.15    0.26
   9   3   2    0.32    0.27
   9   4  -9    7.33    0.51
   9   4  -8   37.82    1.01
   9  -4  -8   41.41    1.08
   9   4  -7   66.40    1.49
   9  -4  -7   64.53    1.49
   9   4  -6   -0.13    0.21
   9  -4  -6    0.02    0.24
   9  -4  -6    0.23    0.18
   9   4  -5   61.52    1.40
   9  -4  -5   59.93    1.38
   9  -4  -5   60.11    1.43
   9   4  -4    1.70    0.24
   9  -4  -4    1.87    0.24
   9   4  -3    9.80    0.45
   9  -4  -3    9.97    0.47
   9   4  -2    0.15    0.20
   9  -4  -2    0.14    0.20
   9  -4  -2    0.35    0.20
   9   4  -1   -0.44    0.19
   9  -4  -1    0.09    0.22
   9  -4  -1    0.23    0.20
   9   4   0    4.06    0.39
   9  -4   0    4.01    0.40
   9  -4   0    4.24    0.40
   9   4   1    6.16    0.45
   9  -4   1    6.67    0.47
   9   5  -8    0.34    0.28
   9   5  -7    9.55    0.51
   9  -5  -7   10.18    0.47
   9   5  -6    5.31    0.42
   9  -5  -6    5.66    0.39
   9  -5  -6    5.93    0.46
   9   5  -5   16.66    0.60
   9  -5  -5   16.87    0.59
   9  -5  -5   18.64    0.65
   9   5  -4    1.48    0.24
   9  -5  -4    1.36    0.25
   9  -5  -4    1.76    0.24
   9   5  -3    0.37    0.21
   9  -5  -3    0.15    0.21
   9  -5  -3    0.18    0.22
   9   5  -2   10.40    0.48
   9  -5  -2    9.80    0.51
   9   5  -1    3.13    0.30
   9  -5  -1    3.18    0.29
   9  -5  -1    3.18    0.31
   9   5   0    3.14    0.30
   9  -5   0    2.74    0.31
   9   6  -8    4.64    0.51
   9   6  -7    8.64    0.53
   9   6  -6   22.25    0.73
   9  -6  -6   21.71    0.70
   9   6  -5   49.57    1.21
   9  -6  -5   49.53    1.20
   9  -6  -5   48.99    1.24
   9   6  -4    6.57    0.44
   9  -6  -4    6.22    0.48
   9  -6  -4    5.69    0.42
   9   6  -3    8.90    0.48
   9  -6  -3    9.78    0.48
   9  -6  -3    9.37    0.52
   9   6  -2   29.65    0.84
   9  -6  -2   28.99    0.81
   9  -6  -2   30.08    0.89
   9   6  -1    4.25    0.39
   9  -6  -1    2.84    0.33
   9   7  -7    3.53    0.38
   9   7  -6   -0.25    0.28
   9   7  -5    0.38    0.27
   9  -7  -5    0.19    0.26
   9   7  -4   36.04    0.99
   9  -7  -4   37.15    0.98
   9  -7  -4   36.46    1.03
   9   7  -3   10.75    0.54
   9  -7  -3   10.73    0.58
   9  -7  -3   11.13    0.54
   9  -7  -2    6.25    0.51
   9   8  -4   17.12    0.72
   9  -8  -4   14.33    0.72
   9  -8  -4   14.32    0.64
   9   8  -3   13.00    0.65
   9  -8  -3   12.01    0.70
  10   0  -8   33.73    0.97
  10   0  -7   -0.42    0.20
  10   0  -6   27.30    0.78
  10   0  -5   -0.07    0.18
  10   0  -4    3.05    0.33
  10   0  -3   -0.42    0.18
  10   0  -2   -0.26    0.20
  10   0  -1    0.27    0.21
  10   0  -1    0.08    0.22
  10   0   0   74.64    1.79
  10   0   0   78.75    1.72
  10   0   1   -0.67    0.28
  10   1  -8    9.87    0.50
  10   1  -7    8.13    0.45
  10  -1  -7    7.72    0.42
  10   1  -6   31.54    0.85
  10  -1  -6   31.19    0.85
  10   1  -5   33.95    0.89
  10  -1  -5   33.52    0.88
  10   1  -4    1.93    0.26
  10  -1  -4    2.68    0.26
  10   1  -3    4.91    0.37
  10  -1  -3    4.15    0.35
  10   1  -2    0.50    0.23
  10  -1  -2    0.30    0.20
  10  -1  -2   -0.07    0.21
  10   1  -1    2.20    0.28
  10  -1  -1    2.52    0.27
  10  -1  -1    1.87    0.27
  10   1   0   36.41    1.01
  10   1   0   37.74    0.97
  10  -1   0   36.37    0.95
  10  -1   0   36.90    1.02
  10   1   1    0.42    0.28
  10   2  -8   14.21    0.64
  10   2  -7    1.78    0.27
  10  -2  -7    1.57    0.25
  10   2  -6   21.97    0.68
  10  -2  -6   21.31    0.66
  10   2  -5   49.01    1.19
  10  -2  -5   49.21    1.19
  10   2  -4    6.38    0.41
  10  -2  -4    6.01    0.39
  10  -2  -4    6.88    0.44
  10   2  -3   22.73    0.70
  10  -2  -3   22.51    0.68
  10  -2  -3   24.16    0.73
  10   2  -2    1.06    0.25
  10  -2  -2    1.06    0.24
  10  -2  -2    1.24    0.24
  10   2  -1   32.51    0.88
  10  -2  -1   32.70    0.86
  10  -2  -1   31.40    0.91
  10   2   0    4.67    0.43
  10  -2   0    4.09    0.43
  10   3  -7    0.14    0.23
  10  -3  -7    0.56    0.29
  10   3  -6   11.15    0.51
  10  -3  -6   11.16    0.55
  10  -3  -6    9.53    0.48
  10   3  -5    9.52    0.47
  10  -3  -5   10.19    0.52
  10  -3  -5    9.64    0.46
  10   3  -4   14.49    0.56
  10  -3  -4   13.65    0.53
  10  -3  -4   15.48    0.58
  10   3  -3   -0.11    0.21
  10  -3  -3   -0.48    0.21
  10  -3  -3    0.45    0.23
  10   3  -2   10.02    0.50
  10  -3  -2   11.14    0.49
  10  -3  -2   11.25    0.52
  10   3  -1   37.00    0.98
  10  -3  -1   37.09    0.95
  10  -3  -1   36.14    1.01
  10   4  -7    0.24    0.26
  10   4  -6   18.34    0.65
  10  -4  -6   18.20    0.68
  10  -4  -6   17.61    0.62
  10   4  -5   34.48    0.95
  10  -4  -5   36.13    0.97
  10  -4  -5   33.20    0.92
  10   4  -4   -0.15    0.23
  10  -4  -4    0.01    0.24
  10  -4  -4   -0.48    0.22
  10   4  -3   54.65    1.33
  10  -4  -3   55.84    1.38
  10  -4  -3   55.60    1.30
  10   4  -2    8.04    0.47
  10  -4  -2    8.90    0.50
  10  -4  -2    9.55    0.48
  10  -4  -1   24.29    0.75
  10  -5  -6    3.91    0.39
  10   5  -5    6.87    0.48
  10  -5  -5    7.07    0.51
  10  -5  -5    7.24    0.46
  10   5  -4    0.75    0.27
  10  -5  -4    0.97    0.27
  10  -5  -4    0.69    0.27
  10  -5  -3    0.88    0.27
  10  -5  -3    0.82    0.28
  10  -5  -2    4.53    0.47
  10  -6  -5    0.50    0.32
  10  -6  -4    9.17    0.53
  10  -6  -4    8.27    0.58
  10  -6  -3   42.75    1.10
  11   0  -4   63.64    1.53
  11   0  -3   -0.28    0.25
  11  -1  -4   16.20    0.62
  11  -1  -3    5.40    0.43
  11  -1  -2   18.77    0.70
  11  -2  -6    7.22    0.54
  11  -2  -5    0.31    0.27
  11  -2  -3   11.07    0.54
  11  -2  -2   -0.26    0.28
  11  -3  -6    4.45    0.52
  11  -3  -2    9.59    0.59
   0   0   0    0.00    0.00
;
_shelx_hkl_checksum              81149
loop_
_space_group_symop_operation_xyz
'x, y, z'
'-x, y+1/2, -z+1/2'
'-x, -y, -z'
'x, -y-1/2, z-1/2'
loop_
_atom_site_label
_atom_site_type_symbol
_atom_site_fract_x
_atom_site_fract_y
_atom_site_fract_z
_atom_site_U_iso_or_equiv
_atom_site_adp_type
_atom_site_occupancy
_atom_site_site_symmetry_order
_atom_site_calc_flag
_atom_site_refinement_flags_posn
_atom_site_refinement_flags_adp
_atom_site_refinement_flags_occupancy
_atom_site_disorder_assembly
_atom_site_disorder_group
Se1 Se 0.40172(5) 0.17631(4) 0.26159(5) 0.00937(12) Uani 1 1 d . . . . .
Se2 Se 0.82093(5) 0.30103(4) 0.15325(5) 0.00876(12) Uani 1 1 d . . . . .
Zn1 Zn 0.11123(6) 0.12529(5) 0.44497(6) 0.01346(14) Uani 1 1 d . . . . .
Zn2 Zn 0.0000 0.0000 0.0000 0.01213(16) Uani 1 2 d S . P . .
O1 O 0.0144(4) 0.3256(3) 0.3438(4) 0.0127(5) Uani 1 1 d . . . . .
O2 O 0.1572(4) 0.6249(3) 0.3942(4) 0.0142(6) Uani 1 1 d . . . . .
O3 O 0.2119(4) 0.0826(3) 0.2434(4) 0.0126(5) Uani 1 1 d . . . . .
O4 O 0.3168(4) 0.3426(3) 0.1765(4) 0.0130(5) Uani 1 1 d . . . . .
O5 O 0.3250(6) 0.4886(5) 0.3556(7) 0.0396(10) Uani 1 1 d . . . . .
O6 O 0.4501(4) 0.1067(3) 0.0937(4) 0.0150(6) Uani 1 1 d . . . . .
O7 O 0.8770(4) 0.3997(3) 0.0015(4) 0.0124(5) Uani 1 1 d . . . . .
loop_
_atom_site_aniso_label
_atom_site_aniso_U_11
_atom_site_aniso_U_22
_atom_site_aniso_U_33
_atom_site_aniso_U_23
_atom_site_aniso_U_13
_atom_site_aniso_U_12
Se1 0.00881(19) 0.0096(2) 0.00866(19) -0.00002(12) 0.00221(13) 0.00080(12)
Se2 0.00990(19) 0.00712(19) 0.0101(2) -0.00044(12) 0.00475(14) -0.00015(12)
Zn1 0.0157(2) 0.0110(2) 0.0140(2) 0.00075(16) 0.00621(18) 0.00029(15)
Zn2 0.0162(3) 0.0102(3) 0.0108(3) 0.0014(2) 0.0060(2) 0.0006(2)
O1 0.0150(13) 0.0110(13) 0.0092(12) -0.0018(10) 0.0016(10) 0.0007(10)
O2 0.0178(14) 0.0078(12) 0.0208(14) 0.0028(11) 0.0117(12) 0.0022(10)
O3 0.0135(12) 0.0123(13) 0.0126(13) -0.0011(10) 0.0058(10) -0.0039(10)
O4 0.0147(13) 0.0087(12) 0.0131(13) 0.0008(10) 0.0027(10) 0.0016(10)
O5 0.042(2) 0.033(2) 0.050(3) -0.0005(19) 0.025(2) 0.0042(17)
O6 0.0164(13) 0.0166(14) 0.0147(13) -0.0017(11) 0.0091(11) 0.0025(11)
O7 0.0157(13) 0.0091(12) 0.0142(13) 0.0014(10) 0.0079(10) 0.0002(10)
loop_
_atom_type_symbol
_atom_type_description
_atom_type_scat_dispersion_real
_atom_type_scat_dispersion_imag
_atom_type_scat_source
O O 0.0106 0.0060 'International Tables Vol C Tables 4.2.6.8 and 6.1.1.4'
Zn Zn 0.2839 1.4301 'International Tables Vol C Tables 4.2.6.8 and 6.1.1.4'
Se Se -0.0929 2.2259 'International Tables Vol C Tables 4.2.6.8 and 6.1.1.4'
loop_
_geom_angle_atom_site_label_1
_geom_angle_atom_site_label_2
_geom_angle_atom_site_label_3
_geom_angle
_geom_angle_site_symmetry_1
_geom_angle_site_symmetry_3
O6 Se1 O4 102.15(15) . .
O6 Se1 O3 103.06(15) . .
O4 Se1 O3 101.53(14) . .
O2 Se2 O7 105.57(14) 2_645 .
O2 Se2 O1 100.50(14) 2_645 1_655
O7 Se2 O1 98.57(14) . 1_655
O4 Zn1 O1 107.04(12) 4_566 .
O4 Zn1 O3 107.42(12) 4_566 .
O1 Zn1 O3 94.12(12) . .
O4 Zn1 O7 90.12(12) 4_566 2_645
O1 Zn1 O7 160.96(12) . 2_645
O3 Zn1 O7 88.36(11) . 2_645
O4 Zn1 O7 108.85(12) 4_566 4_466
O1 Zn1 O7 86.52(12) . 4_466
O3 Zn1 O7 141.78(11) . 4_466
O7 Zn1 O7 79.99(12) 2_645 4_466
O1 Zn2 O1 180.00(10) 4_565 2_545
O1 Zn2 O2 89.68(12) 4_565 4_565
O1 Zn2 O2 90.32(12) 2_545 4_565
O1 Zn2 O2 90.32(12) 4_565 2_545
O1 Zn2 O2 89.68(12) 2_545 2_545
O2 Zn2 O2 180.00(13) 4_565 2_545
O1 Zn2 O3 93.24(11) 4_565 .
O1 Zn2 O3 86.76(11) 2_545 .
O2 Zn2 O3 98.57(11) 4_565 .
O2 Zn2 O3 81.43(11) 2_545 .
O1 Zn2 O3 86.76(11) 4_565 3
O1 Zn2 O3 93.24(11) 2_545 3
O2 Zn2 O3 81.43(11) 4_565 3
O2 Zn2 O3 98.57(11) 2_545 3
O3 Zn2 O3 180.0 . 3
Se2 O1 Zn1 108.15(14) 1_455 .
Se2 O1 Zn2 112.69(15) 1_455 2
Zn1 O1 Zn2 124.45(15) . 2
Se2 O2 Zn2 137.69(16) 2_655 2
Se1 O3 Zn1 116.47(15) . .
Se1 O3 Zn2 128.68(15) . .
Zn1 O3 Zn2 109.60(12) . .
Se1 O4 Zn1 124.90(17) . 4_565
Se2 O7 Zn1 112.34(15) . 2_655
Se2 O7 Zn1 126.78(16) . 4_665
Zn1 O7 Zn1 100.01(12) 2_655 4_665
loop_
_geom_bond_atom_site_label_1
_geom_bond_atom_site_label_2
_geom_bond_distance
_geom_bond_site_symmetry_2
Se1 O6 1.656(3) .
Se1 O4 1.697(3) .
Se1 O3 1.720(3) .
Se2 O2 1.679(3) 2_645
Se2 O7 1.703(3) .
Se2 O1 1.721(3) 1_655
Zn1 O4 1.967(3) 4_566
Zn1 O1 2.031(3) .
Zn1 O3 2.097(3) .
Zn1 O7 2.100(3) 2_645
Zn1 O7 2.129(3) 4_466
Zn2 O1 2.051(3) 4_565
Zn2 O1 2.051(3) 2_545
Zn2 O2 2.115(3) 4_565
Zn2 O2 2.115(3) 2_545
Zn2 O3 2.165(3) .
Zn2 O3 2.165(3) 3
O1 Se2 1.721(3) 1_455
O1 Zn2 2.051(3) 2
O2 Se2 1.679(3) 2_655
O2 Zn2 2.115(3) 2
O4 Zn1 1.967(3) 4_565
O7 Zn1 2.100(3) 2_655
O7 Zn1 2.129(3) 4_665
