#------------------------------------------------------------------------------
#$Date: 2021-04-13 10:39:21 +0300 (Tue, 13 Apr 2021) $
#$Revision: 264074 $
#$URL: file:///home/coder/svn-repositories/cod/cif/1/56/16/1561674.cif $
#------------------------------------------------------------------------------
#
# This file is available in the Crystallography Open Database (COD),
# http://www.crystallography.net/
#
# All data on this site have been placed in the public domain by the
# contributors.
#
data_1561674
loop_
_publ_author_name
'Childs, Amanda B.'
'Baranets, Sviatoslav'
'Bobev, Svilen'
_publ_section_title
;
 Five new ternary indium-arsenides discovered. Synthesis and structural
 characterization of the Zintl phases Sr3In2As4, Ba3In2As4, Eu3In2As4,
 Sr5In2As6 and Eu5In2As6
;
_journal_name_full               'Journal of Solid State Chemistry'
_journal_page_first              120889
_journal_paper_doi               10.1016/j.jssc.2019.07.050
_journal_volume                  278
_journal_year                    2019
_chemical_formula_sum            'As4 Eu3 In2'
_chemical_formula_weight         985.20
_space_group_crystal_system      orthorhombic
_space_group_IT_number           58
_space_group_name_Hall           '-P 2 2n'
_space_group_name_H-M_alt        'P n n m'
_atom_sites_solution_hydrogens   .
_atom_sites_solution_primary     dual
_cell_angle_alpha                90
_cell_angle_beta                 90
_cell_angle_gamma                90
_cell_formula_units_Z            2
_cell_length_a                   6.8262(7)
_cell_length_b                   16.5130(17)
_cell_length_c                   4.4132(5)
_cell_measurement_reflns_used    1655
_cell_measurement_temperature    200(2)
_cell_measurement_theta_max      30.72
_cell_measurement_theta_min      4.76
_cell_volume                     497.46(9)
_computing_cell_refinement       'SAINT V8.38A (Bruker, 2016)'
_computing_data_collection       'Bruker APEX-II'
_computing_data_reduction        'SAINT V8.38A (Bruker, 2016)'
_computing_molecular_graphics    'Olex2 (Dolomanov et al., 2009)'
_computing_publication_material  'Olex2 (Dolomanov et al., 2009)'
_computing_structure_refinement  'ShelXL (Sheldrick, 2015)'
_computing_structure_solution    'ShelXT (Sheldrick, 2015)'
_diffrn_ambient_temperature      200.0
_diffrn_measured_fraction_theta_full 1.000
_diffrn_measured_fraction_theta_max 1.000
_diffrn_measurement_device_type  'Bruker APEX-II CCD'
_diffrn_measurement_method       '\f and \w scans'
_diffrn_radiation_type           MoK\a
_diffrn_radiation_wavelength     0.71073
_diffrn_reflns_av_R_equivalents  0.0374
_diffrn_reflns_av_unetI/netI     0.0283
_diffrn_reflns_Laue_measured_fraction_full 1.000
_diffrn_reflns_Laue_measured_fraction_max 1.000
_diffrn_reflns_limit_h_max       9
_diffrn_reflns_limit_h_min       -9
_diffrn_reflns_limit_k_max       21
_diffrn_reflns_limit_k_min       -23
_diffrn_reflns_limit_l_max       5
_diffrn_reflns_limit_l_min       -6
_diffrn_reflns_number            4487
_diffrn_reflns_point_group_measured_fraction_full 1.000
_diffrn_reflns_point_group_measured_fraction_max 1.000
_diffrn_reflns_theta_full        25.242
_diffrn_reflns_theta_max         30.718
_diffrn_reflns_theta_min         2.467
_diffrn_standards_number         0
_exptl_absorpt_coefficient_mu    36.320
_exptl_absorpt_correction_T_max  0.2657
_exptl_absorpt_correction_T_min  0.1387
_exptl_absorpt_correction_type   multi-scan
_exptl_absorpt_process_details
'SADABS-2016/2 (Bruker,2016/2) was used for absorption correction. wR2(int) was 0.1297 before and 0.0495 after correction. The Ratio of minimum to maximum transmission is 0.5220. The \l/2 correction factor is Not present.'
_exptl_crystal_colour            grey
_exptl_crystal_density_diffrn    6.577
_exptl_crystal_description       block
_exptl_crystal_F_000             838
_exptl_crystal_size_max          0.076
_exptl_crystal_size_mid          0.065
_exptl_crystal_size_min          0.043
_refine_diff_density_max         1.427
_refine_diff_density_min         -1.309
_refine_diff_density_rms         0.286
_refine_ls_extinction_coef       0.0063(2)
_refine_ls_extinction_expression Fc^*^=kFc[1+0.001xFc^2^\l^3^/sin(2\q)]^-1/4^
_refine_ls_extinction_method     'SHELXL-2018/3 (Sheldrick 2018)'
_refine_ls_goodness_of_fit_ref   1.072
_refine_ls_hydrogen_treatment    undef
_refine_ls_matrix_type           full
_refine_ls_number_parameters     30
_refine_ls_number_reflns         866
_refine_ls_number_restraints     0
_refine_ls_restrained_S_all      1.072
_refine_ls_R_factor_all          0.0240
_refine_ls_R_factor_gt           0.0206
_refine_ls_shift/su_max          0.001
_refine_ls_shift/su_mean         0.000
_refine_ls_structure_factor_coef Fsqd
_refine_ls_weighting_details
'w=1/[\s^2^(Fo^2^)+(0.0172P)^2^] where P=(Fo^2^+2Fc^2^)/3'
_refine_ls_weighting_scheme      calc
_refine_ls_wR_factor_gt          0.0418
_refine_ls_wR_factor_ref         0.0426
_reflns_Friedel_coverage         0.000
_reflns_Friedel_fraction_full    .
_reflns_Friedel_fraction_max     .
_reflns_number_gt                781
_reflns_number_total             866
_reflns_threshold_expression     'I > 2\s(I)'
_cod_data_source_file            yjssc_20889_Eu3In2As4_mmc3.cif
_cod_data_source_block           Eu3In2As4
_cod_database_code               1561674
_shelx_space_group_comment
;
The symmetry employed for this shelxl refinement is uniquely defined
by the following loop, which should always be used as a source of
symmetry information in preference to the above space-group names.
They are only intended as comments.
;
_shelx_estimated_absorpt_t_max   0.304
_shelx_estimated_absorpt_t_min   0.169
_olex2_refinement_description
;
;
_shelx_res_file
;
TITL shelx_a.res in Pnnm
CELL 0.71073 6.8262 16.513 4.4132 90 90 90
ZERR 2 0.0007 0.0017 0.0005 0 0 0
LATT 1
SYMM -X,-Y,+Z
SYMM 0.5-X,0.5+Y,0.5-Z
SYMM 0.5+X,0.5-Y,0.5-Z
SFAC As Eu In
UNIT 8 6 4

L.S. 20
PLAN  20
TEMP -73.15
list 4
fmap 2 53
acta

WGHT    0.017200
EXTI    0.006286
FVAR       0.21956
EU2   2    0.000000    0.000000    0.000000    10.25000    0.00915    0.00951 =
         0.00698    0.00000    0.00000    0.00090
EU1   2    0.707761    0.198270    0.000000    10.50000    0.01428    0.00796 =
         0.00737    0.00000    0.00000   -0.00073
IN    3    0.139880    0.586438    0.000000    10.50000    0.00975    0.00750 =
         0.00785    0.00000    0.00000    0.00021
AS2   1    0.245929    0.430217    0.000000    10.50000    0.00937    0.00755 =
         0.00661    0.00000    0.00000   -0.00051
AS1   1    0.233111    0.168519    0.000000    10.50000    0.01214    0.00727 =
         0.00572    0.00000    0.00000    0.00087
HKLF 4


END

WGHT      0.0172      0.0000

REM Highest difference peak  1.427,  deepest hole -1.309,  1-sigma level  0.286
Q1    1   0.0000  0.5000 -0.2793  10.50000  0.05    1.43
Q2    1   0.3087 -0.0405  0.0000  10.50000  0.05    1.07
Q3    1  -0.0639  0.0578  0.0000  10.50000  0.05    0.91
Q4    1   0.5226  0.1208 -0.0761  11.00000  0.05    0.87
Q5    1   0.2854  0.0160  0.0000  10.50000  0.05    0.81
Q6    1   0.1650  0.3192  0.0000  10.50000  0.05    0.81
Q7    1   0.6196  0.2629  0.2664  11.00000  0.05    0.80
Q8    1   0.4647  0.3757  0.0000  10.50000  0.05    0.80
Q9    1   0.4731  0.2340  0.2570  11.00000  0.05    0.80
Q10   1   0.0547  0.5627  0.0954  11.00000  0.05    0.80
Q11   1   0.1735  0.1141 -0.1076  11.00000  0.05    0.79
Q12   1   0.1726  0.6369  0.0000  10.50000  0.05    0.79
Q13   1   0.0402  0.0386  0.1041  11.00000  0.05    0.78
Q14   1   0.1711  0.4843  0.0000  10.50000  0.05    0.78
Q15   1   0.1430  0.1396  0.3523  11.00000  0.05    0.77
Q16   1   0.9001  0.1823  0.2061  11.00000  0.05    0.77
Q17   1   0.2766  0.1566 -0.2756  11.00000  0.05    0.77
Q18   1   0.2127  0.3772  0.1006  11.00000  0.05    0.77
Q19   1  -0.0811  0.0378 -0.2187  11.00000  0.05    0.76
Q20   1   0.1350  0.1631  0.2089  11.00000  0.05    0.76
;
_shelx_res_checksum              71065
_shelx_hkl_file
;
   0   0  -1    5.50    2.00
   0   0  -1   27.90    3.00
   0   0  -2 9999.00  251.17
   0   0  -2 9207.48  250.17
   0   0  -3    0.30    2.80
   0   0  -3    2.10    2.70
   0   0  -4 6710.83  187.38
   0   0  -4 6582.14  185.08
   0   0  -5    0.90    4.50
   0   0  -5   -4.40    5.70
   0   0  -6 3251.37  107.29
   0   0  -6 2915.71  132.29
  -1   0   0    4.00    1.00
   1   0   0    2.20    1.50
  -1   0   0    3.70    1.70
   1   0   0    5.60    1.10
  -1   0  -1 1299.77   37.60
   1   0  -1 1335.67   38.70
  -1   0  -1 1259.07   37.60
   1   0  -1 1374.46   36.70
  -1   0  -2    0.60    2.00
  -1   0  -2    2.70    2.30
   1   0  -2    4.00    2.10
   1   0  -2    1.10    2.60
  -1   0  -3  696.53   28.20
   1   0  -3  687.13   29.20
  -1   0  -3  700.93   28.50
   1   0  -3  706.43   27.30
   1   0  -4    0.20    4.60
  -1   0  -4    1.40    3.30
   1   0  -4    2.10    3.90
  -1   0  -4   -0.60    4.20
  -1   0  -5  249.08   20.90
   1   0  -5  295.87   21.20
   1   0  -5  322.97   24.60
  -1   0  -5  283.27   26.40
   1   0  -6   -6.10    6.50
   1   0  -6   -6.00    7.50
  -1   0  -6    1.20    6.90
   2   0   0 3591.24   92.39
  -2   0   0 3587.64   92.19
  -2   0   0 3533.85   95.79
   2   0   0 3341.87   95.69
  -2   0  -1    2.00    2.10
   2   0  -1    2.60    2.50
  -2   0  -1    2.00    1.70
   2   0  -1    1.00    1.60
  -2   0  -2 2940.61   82.39
  -2   0  -2 2706.83   81.79
   2   0  -2 3005.90   85.19
   2   0  -2 2917.21   79.49
  -2   0  -3    1.10    3.40
  -2   0  -3    2.80    2.60
   2   0  -3   -0.10    3.00
   2   0  -3    2.00    2.30
   2   0  -4 1575.24   59.49
  -2   0  -4 1567.74   56.79
  -2   0  -4 1491.65   55.29
   2   0  -4 1607.64   53.49
  -2   0  -5   -0.20    5.50
  -2   0  -5    2.50    5.70
   2   0  -5   -0.60    4.40
   2   0  -5   -3.40    6.30
   2   0  -6  754.92   46.20
  -2   0  -6  683.73   41.20
   3   0   0    3.20    2.90
  -3   0   0   -0.10    2.40
   3   0   0    1.10    1.70
  -3   0   0    1.80    1.60
   3   0  -1  214.48   10.00
   3   0  -1  200.58   12.90
  -3   0  -1  212.68   12.20
  -3   0  -1  198.98   10.30
   3   0  -2    0.70    1.80
  -3   0  -2    2.90    2.80
  -3   0  -2   -0.80    1.40
   3   0  -2    2.90    3.90
  -3   0  -3  154.78   14.80
   3   0  -3  144.59    9.70
  -3   0  -3  130.59   13.60
   3   0  -3  119.79   14.90
   3   0  -4    0.30    3.30
  -3   0  -4    5.70    5.40
  -3   0  -4    0.50    4.10
   3   0  -4   -2.80    5.70
  -3   0  -5   68.79   14.30
   3   0  -5   75.49   16.10
  -3   0  -6    4.70    9.00
   3   0  -6   -7.70    9.00
   4   0   0 2112.09   63.79
  -4   0   0 1969.30   62.99
   4   0   0 1931.91   57.69
  -4   0   0 1994.00   57.79
  -4   0  -1    4.60    3.40
   4   0  -1    4.20    4.20
  -4   0  -1    4.90    2.70
   4   0  -1   11.90    3.60
  -4   0  -2 1596.74   52.69
   4   0  -2 1645.34   46.30
   4   0  -2 1590.14   56.09
  -4   0  -2 1525.55   51.19
   4   0  -3    1.40    4.10
  -4   0  -3    2.40    3.40
  -4   0  -3    2.10    4.10
  -4   0  -4  893.41   39.50
  -4   0  -4  970.10   42.10
   4   0  -4  949.21   45.60
  -4   0  -5    2.90    6.10
   4   0  -5   -7.20    7.20
   5   0   0    1.10    2.60
  -5   0   0    3.10    3.70
   5   0   0    1.60    3.70
   5   0  -1  112.59   13.40
   5   0  -1  108.39    8.70
   5   0   1  137.89   14.30
  -5   0  -1  113.79    9.30
   5   0   1  119.29    9.60
  -5   0  -1  117.09   13.60
   5   0  -2   -3.50    3.90
  -5   0  -2    0.20    4.00
  -5   0  -2    0.20    2.90
  -5   0  -3   74.29   10.80
   5   0  -3   56.59   12.50
  -5   0  -3   78.99   12.00
   5   0  -4    2.20    7.10
  -5   0  -4   -3.30    4.60
   5   0  -5   43.80   14.60
  -5   0  -5   41.30   11.90
  -6   0   0    2.40    4.50
   6   0   0    2.90    4.80
   6   0   1    3.50    4.50
  -6   0  -1    1.60    3.70
   6   0  -1   -0.30    4.80
   6   0   1    1.70    3.50
  -6   0  -1    1.60    3.40
   6   0  -2   -3.20    4.80
  -6   0  -2    1.10    4.10
   6   0   2    1.90    4.30
   6   0   2    2.20    4.30
  -6   0  -2   -0.70    3.70
  -6   0  -3    0.60    4.30
  -6   0  -3    0.60    4.10
   6   0  -3   -4.90    5.50
  -6   0  -4    4.60    6.10
   6   0  -4    4.50    8.20
   6   0  -5    3.60    9.90
   7   0   0    2.00    4.60
   7   0  -1 1575.24   57.79
   7   0   1 1405.46   55.49
  -7   0  -1 1483.05   55.99
  -7   0  -2   -1.50    4.50
  -7   0  -2   -0.50    4.00
   7   0   2    5.00    4.50
   7   0  -2    5.30    6.50
   7   0   2    2.10    4.60
   7   0   3 1206.28   50.69
  -7   0  -3 1198.58   49.80
   7   0  -3 1283.47   55.39
   7   0   4   -0.20    6.40
  -7   0  -4    6.30    7.00
   7   0  -4    4.60    8.20
   8   0   0  666.63   35.20
  -8   0  -1    0.70    5.80
   8   0   1    0.20    6.30
   8   0  -1   -1.80    5.70
   8   0  -2  595.24   35.20
   8   0   2  681.73   35.50
  -8   0  -3   -2.40    5.40
   8   0   3   -0.10    5.50
   8   0  -3    2.70    8.20
   9   0   0    1.50    6.90
   9   0   1   39.10   11.20
   9   0  -1   39.30   10.90
   9   0  -2   -2.20    6.40
   0  -1  -1    8.20    2.10
   0  -1  -1   15.70    2.60
   0   1  -1    6.60    2.30
   0   1  -1   11.60    2.20
   0   1  -2    3.10    2.50
   0  -1  -2    0.70    2.00
   0   1  -2    1.10    2.00
   0  -1  -2    2.50    2.30
   0   1  -3    2.40    2.70
   0   1  -3    4.70    3.60
   0  -1  -3    5.10    3.70
   0  -1  -3    0.50    2.70
   0  -1  -4   -1.40    3.90
   0  -1  -4    8.40    4.80
   0   1  -4    2.00    3.70
   0   1  -4    1.40    4.20
   0   1  -5    2.00    6.10
   0   1  -5    3.70    5.50
   0  -1  -5   -3.70    4.60
   0  -1  -5    3.20    5.90
   0   1  -6   -0.40    7.50
   0  -1  -6    0.80    6.90
   0   1  -6    8.40    8.10
   1   1   0    7.10    1.80
   1  -1   0    3.90    1.40
  -1   1   0    4.20    1.30
  -1   1   0    8.70    2.40
   1   1  -1  622.74   21.40
  -1  -1  -1  676.13   20.90
  -1  -1  -1  645.64   20.10
   1   1  -1  647.64   18.90
   1  -1  -1  686.43   22.10
  -1   1  -1  656.13   20.90
  -1   1  -1  668.13   21.60
   1  -1  -1  658.43   21.20
   1   1  -2    1.50    2.20
  -1  -1  -2    4.10    2.50
  -1  -1  -2    8.00    3.00
   1   1  -2    2.30    1.90
  -1   1  -2    2.20    2.50
  -1   1  -2    1.20    1.60
   1  -1  -2    4.10    2.30
   1  -1  -2    5.70    3.20
  -1  -1  -3  313.47   17.40
  -1  -1  -3  328.77   17.30
   1   1  -3  309.67   18.10
   1   1  -3  339.77   16.40
  -1   1  -3  341.77   17.60
  -1   1  -3  322.87   17.80
   1  -1  -3  361.46   19.00
   1  -1  -3  338.37   16.90
   1   1  -4   -0.10    4.80
   1   1  -4    5.50    4.00
  -1  -1  -4    3.10    4.40
  -1  -1  -4    1.60    3.90
  -1   1  -4    5.40    5.10
  -1   1  -4    3.00    4.00
   1  -1  -4    6.10    4.10
   1  -1  -4   -1.40    4.90
   1   1  -5  152.18   20.00
  -1  -1  -5  145.09   17.90
  -1  -1  -5  187.78   20.30
   1   1  -5  187.88   19.40
   1  -1  -5  173.28   18.90
  -1   1  -5  175.18   20.00
   1  -1  -5  183.48   21.80
  -1   1  -5  172.48   20.00
  -1  -1  -6    5.90    7.50
   1   1  -6   -2.30    6.90
   1   1  -6   14.20   10.40
   1  -1  -6    8.50    7.80
  -1   1  -6    3.60    7.10
   1  -1  -6   -5.80    8.00
  -2   1   0   87.19    5.40
   2  -1   0   98.99    5.80
  -2  -1   0   86.19    6.20
  -2   1   0  101.59    7.40
  -2  -1   0   86.39    4.20
   2   1   0  109.39    6.90
   2  -1   0   96.99    7.40
   2   1  -1  646.94   23.20
   2   1  -1  624.14   18.00
  -2  -1  -1  631.94   20.90
  -2  -1  -1  627.84   21.40
   2  -1  -1  620.04   21.70
  -2   1  -1  639.84   22.90
  -2   1  -1  640.14   21.40
   2  -1  -1  592.94   23.40
   2   1  -2   65.09    4.90
  -2  -1  -2   77.79    8.40
   2   1  -2   66.39    8.90
  -2  -1  -2   71.29    7.60
  -2   1  -2   58.09    7.50
   2  -1  -2   55.19    8.10
  -2   1  -2   67.89    8.40
   2  -1  -2   70.09    7.40
   2   1  -3  312.27   15.30
  -2  -1  -3  332.77   18.30
  -2  -1  -3  323.37   17.20
   2   1  -3  293.77   19.10
  -2   1  -3  337.17   18.60
   2  -1  -3  329.67   16.50
  -2   1  -3  335.97   18.30
   2  -1  -3  316.37   19.60
   2   1  -4   36.80    7.30
  -2  -1  -4   32.40    8.10
  -2  -1  -4   31.50    7.60
   2   1  -4   18.20    7.90
   2  -1  -4   38.70   10.40
  -2   1  -4   37.20    8.80
   2  -1  -4   39.30    7.90
  -2   1  -4   38.90    8.60
   2   1  -5  139.39   15.80
  -2  -1  -5  149.59   19.70
   2   1  -5  161.58   21.70
   2  -1  -5  119.59   15.30
   2  -1  -5  159.88   21.40
  -2   1  -5  152.78   19.00
  -2   1  -5  199.88   21.70
   2   1  -6   11.90   11.10
  -2  -1  -6   19.90   10.10
  -2   1  -6    5.00    8.30
   2  -1  -6   28.00   13.00
   3  -1   0 2248.18   64.89
  -3  -1   0 2302.27   67.29
   3  -1   0 2210.58   68.79
  -3   1   0 2308.77   64.79
  -3   1   0 2308.67   69.09
   3   1   0 2322.07   62.79
   3   1   0 2466.15   67.99
  -3  -1   0 2325.57   62.69
  -3  -1  -1   37.50    4.90
   3   1  -1   44.40    3.50
   3   1  -1   47.60    7.20
  -3  -1  -1   45.40    6.40
  -3   1  -1   49.60    6.20
  -3   1  -1   35.40    6.40
   3  -1  -1   54.69    8.40
   3  -1  -1   42.10    6.10
  -3  -1  -2 1816.72   56.59
  -3  -1  -2 1830.12   56.59
   3   1  -2 1864.21   60.29
   3  -1  -2 1877.51   54.69
  -3   1  -2 1808.82   58.49
   3  -1  -2 1840.32   60.79
  -3   1  -2 1870.41   57.29
  -3  -1  -3   18.20    5.50
   3   1  -3   20.60    7.40
  -3  -1  -3   27.60    6.60
   3   1  -3   29.40    5.20
   3  -1  -3   27.60    5.80
  -3   1  -3   34.50    7.90
  -3   1  -3   21.40    6.20
   3  -1  -3   24.40    7.80
  -3  -1  -4  950.90   41.70
  -3  -1  -4  988.40   39.80
   3   1  -4  902.61   44.10
  -3   1  -4  913.21   41.00
  -3   1  -4 1021.00   42.20
   3  -1  -4 1020.90   38.20
   3  -1  -4 1065.29   46.90
  -3  -1  -5    3.00    6.30
   3   1  -5   17.50    9.70
  -3   1  -5    5.80    7.30
  -3   1  -5    7.30    6.70
   3  -1  -5    3.30    8.00
  -3  -1  -6  516.95   35.70
   3   1  -6  468.05   44.20
   3  -1  -6  476.85   37.60
  -3   1  -6  490.75   34.60
   4  -1   0 1069.49   38.60
   4   1   0  977.90   36.20
  -4  -1   0 1016.20   31.40
   4   1   0  976.30   31.50
  -4  -1   0  989.10   36.00
  -4   1   0 1036.50   38.20
   4  -1   0  998.90   33.60
   4   1  -1 1278.57   36.50
  -4  -1  -1 1259.57   39.40
   4  -1   1 1206.48   40.50
   4   1  -1 1212.58   43.60
  -4  -1  -1 1295.97   42.60
  -4   1  -1 1243.48   40.50
  -4   1  -1 1248.58   43.90
   4  -1  -1 1190.08   44.90
   4  -1  -1 1223.68   40.60
   4   1   1 1296.27   42.40
  -4  -1  -2  746.23   29.90
   4   1  -2  782.22   33.80
  -4  -1  -2  816.62   30.60
   4   1  -2  778.52   24.70
   4  -1  -2  789.62   33.80
  -4   1  -2  803.42   32.40
  -4   1  -2  805.92   30.80
   4  -1  -2  781.72   27.30
  -4  -1  -3  756.72   32.80
  -4  -1  -3  780.02   31.80
   4   1  -3  748.03   35.70
  -4   1  -3  825.62   34.50
  -4   1  -3  759.82   33.00
   4  -1  -3  722.53   35.80
   4   1  -4  398.76   28.70
  -4  -1  -4  462.25   27.00
  -4   1  -4  443.86   26.30
  -4   1  -4  447.16   26.40
   4  -1  -4  416.56   29.20
   4   1  -5  346.97   34.80
  -4  -1  -5  411.06   28.80
  -4   1  -5  398.96   28.10
   4  -1  -5  428.46   38.80
   5   1   0  234.88   12.40
  -5   1   0  266.97   17.70
   5  -1   0  220.18   13.40
   5  -1   0  217.68   16.30
   5   1   0  228.08   15.50
  -5  -1   0  232.28   12.10
  -5  -1   0  250.37   15.90
   5  -1   1  509.65   22.20
   5  -1   1  488.85   24.80
  -5  -1  -1  549.05   24.50
  -5  -1  -1  487.85   20.80
   5   1  -1  458.05   24.10
   5   1   1  470.45   23.40
  -5   1  -1  509.65   22.40
   5  -1  -1  459.05   25.60
  -5   1  -1  498.65   25.00
   5   1   1  520.35   21.30
   5  -1  -1  515.55   22.10
  -5  -1  -2  175.38   12.80
   5   1  -2  156.48   17.10
  -5  -1  -2  186.68   13.50
  -5   1  -2  190.28   13.60
   5  -1  -2  176.58   18.30
  -5   1  -2  178.98   14.50
  -5  -1  -3  327.07   20.40
   5   1  -3  293.47   22.70
  -5  -1  -3  317.37   18.70
  -5   1  -3  365.46   21.30
  -5   1  -3  327.87   21.00
   5  -1  -3  298.67   22.70
  -5  -1  -4   99.49   14.70
   5   1  -4   76.19   16.00
  -5   1  -4   82.39   15.00
  -5   1  -4   76.99   13.10
   5  -1  -4   83.19   16.30
  -5  -1  -5  151.38   21.30
   5   1  -5   99.69   19.90
  -5   1  -5  154.38   21.00
   5  -1  -5  187.18   26.70
   6   1   0 1508.65   55.29
   6  -1   0 1555.74   57.59
  -6   1   0 1594.34   57.99
   6  -1   0 1626.24   53.19
   6  -1   1  161.18   12.90
   6   1  -1  191.78   18.70
   6  -1   1  134.89   16.10
  -6  -1  -1  147.29   15.50
  -6  -1  -1  142.29   11.50
  -6   1  -1  152.98   17.00
   6   1   1  169.38   12.10
   6  -1  -1  191.28   19.90
  -6   1  -1  139.69   14.10
   6   1   1  151.08   15.70
  -6  -1  -2 1374.76   49.20
   6  -1   2 1412.66   50.89
  -6  -1  -2 1370.16   50.19
   6   1  -2 1449.15   54.89
   6   1   2 1383.76   50.99
  -6   1  -2 1449.15   52.39
  -6   1  -2 1397.06   50.29
   6  -1  -2 1357.76   54.89
  -6  -1  -3   98.49   13.60
   6   1  -3  122.39   17.70
  -6   1  -3   95.69   14.10
  -6   1  -3   92.09   13.20
   6  -1  -3  113.69   17.80
   6   1  -4  852.61   45.20
  -6  -1  -4  846.82   41.10
   6  -1  -4  809.32   44.10
  -6   1  -4  860.21   41.70
   6   1  -5   37.30   14.30
   6  -1  -5   43.80   15.10
   7   1   0    8.50    6.10
  -7   1   0    9.60    6.30
   7  -1   0   12.40    6.80
   7   1  -1  259.07   19.80
   7  -1   1  252.37   18.20
  -7  -1  -1  293.07   19.90
   7  -1   1  309.87   21.70
   7   1   1  284.47   20.30
  -7   1  -1  288.57   21.00
   7  -1  -1  257.37   20.30
   7   1  -2    1.50    5.70
   7  -1   2   15.50    6.90
  -7  -1  -2    8.10    5.80
   7  -1   2   15.70    6.10
  -7  -1  -2    6.00    5.40
   7   1   2    5.60    6.20
  -7   1  -2   11.10    5.70
  -7   1  -2    4.10    4.90
   7  -1  -2   -0.60    6.30
   7   1   2    4.40    5.10
   7  -1   3  234.68   19.60
  -7  -1  -3  209.18   21.10
   7  -1   3  177.38   22.50
   7   1  -3  172.08   22.40
   7  -1  -3  224.68   24.60
   7   1   3  217.88   21.90
  -7   1  -3  213.58   21.60
   7   1  -4   -2.60    7.50
  -7  -1  -4    6.90    7.70
   7  -1   4   10.50    8.20
   7  -1  -4   14.20    9.50
  -7   1  -4    4.00    6.60
   8  -1   0  680.03   36.50
   8   1   0  732.03   35.70
   8   1  -1   38.30   10.40
   8  -1   1   61.19   13.30
  -8   1  -1   60.99   12.70
   8  -1  -1   84.29   14.90
   8   1   1   60.49   11.90
   8   1  -2  528.75   32.60
   8  -1   2  596.14   34.00
   8  -1  -2  626.84   35.30
  -8   1  -2  659.83   33.70
   8   1  -3   56.49   14.40
   8  -1   3   34.40   10.60
   8  -1  -3   36.00   13.00
  -8   1  -3   24.40    9.30
   9  -1   0   64.99   14.10
   9   1   0   52.19   11.80
   9  -1   1  130.09   18.80
   9   1  -1  125.59   18.40
   9   1   1  110.29   17.00
   9  -1  -1  122.39   18.70
   9   1  -2   50.19   13.20
   9  -1  -2   51.99   13.60
   0   2   0   63.39    3.10
   0  -2   0   46.20    3.90
   0   2  -1    2.00    1.50
   0  -2  -1    0.10    1.70
   0   2  -1   -0.10    1.70
   0  -2  -1    3.30    1.50
   0  -2  -2   21.80    4.30
   0  -2  -2   17.60    4.20
   0   2  -2   30.10    4.60
   0   2  -2   20.80    4.70
   0   2  -3   -1.10    3.20
   0   2  -3    4.10    2.80
   0  -2  -3    3.70    3.50
   0  -2  -3    8.50    4.00
   0  -2  -4    8.20    5.00
   0   2  -4   13.40    5.50
   0   2  -4   15.10    7.10
   0  -2  -4    5.00    5.20
   0  -2  -5   10.40    6.70
   0  -2  -5   -2.40    5.70
   0   2  -5    7.90    7.00
   0   2  -5   -1.30    5.40
   0   2  -6    7.40    6.80
   0   2  -6    0.60    8.40
   0  -2  -6    0.90    7.10
  -1   2   0    1.60    1.60
  -1  -2   0    5.10    1.10
   1  -2   0    3.30    1.90
   1   2   0    9.40    1.60
   1   2  -1 1677.63   44.80
  -1  -2  -1 1611.74   45.10
   1   2  -1 1656.43   47.90
  -1  -2  -1 1705.13   47.40
   1  -2  -1 1704.03   48.70
  -1   2  -1 1719.23   48.60
  -1   2  -1 1695.63   47.50
   1  -2  -1 1643.54   49.00
  -1  -2  -2    1.20    2.10
   1   2  -2    3.60    2.00
   1   2  -2   18.90    4.50
  -1  -2  -2   32.10    5.30
   1  -2  -2    4.00    2.80
  -1   2  -2    1.20    2.10
  -1   2  -2    4.20    2.80
   1  -2  -2   10.00    3.70
   1   2  -3  946.31   32.60
   1   2  -3  881.21   35.60
  -1  -2  -3  901.51   33.10
  -1  -2  -3  943.31   35.30
  -1   2  -3  935.51   35.70
   1  -2  -3  935.01   34.50
   1  -2  -3  911.01   35.30
  -1   2  -3  898.71   34.20
   1   2  -4    1.10    3.30
  -1  -2  -4    5.30    4.60
   1   2  -4   -0.10    4.80
  -1  -2  -4    1.00    3.80
   1  -2  -4    4.70    4.50
  -1   2  -4   -0.70    4.40
  -1   2  -4    1.00    3.80
   1  -2  -4    7.20    6.10
   1   2  -5  464.75   30.10
   1   2  -5  439.26   25.20
  -1  -2  -5  379.96   26.50
  -1   2  -5  394.06   27.40
   1  -2  -5  422.36   26.50
   1  -2  -5  455.25   28.60
  -1   2  -5  418.16   26.70
   1   2  -6    1.00    8.70
  -1  -2  -6    4.60    7.80
   1  -2  -6    7.60    7.80
  -1   2  -6   -5.20    8.20
  -1   2  -6    5.10    8.10
   2  -2   0 1933.81   55.99
   2   2   0 1943.81   55.39
  -2   2   0 1949.41   57.69
  -2  -2   0 2040.20   51.89
  -2  -2  -1 1885.41   53.09
  -2  -2  -1 1871.31   52.79
   2   2  -1 1906.91   55.19
  -2   2  -1 1907.21   56.19
   2  -2  -1 1851.81   55.99
   2  -2  -1 1991.20   57.69
  -2   2  -1 1785.22   53.89
   2   2  -2 1563.04   44.40
  -2  -2  -2 1529.95   48.40
   2   2  -2 1547.45   50.19
  -2  -2  -2 1507.75   46.50
  -2   2  -2 1611.14   50.19
  -2   2  -2 1554.54   48.80
   2  -2  -2 1568.44   48.70
   2  -2  -2 1622.14   51.49
  -2  -2  -3 1064.49   39.70
   2   2  -3 1085.39   35.40
   2   2  -3 1080.29   41.80
  -2  -2  -3 1096.49   37.30
  -2   2  -3 1020.00   38.90
   2  -2  -3 1052.29   41.10
  -2   2  -3 1062.09   40.00
   2  -2  -3 1055.99   38.00
  -2  -2  -4  851.01   34.60
   2   2  -4  791.52   37.90
  -2  -2  -4  753.62   36.00
   2   2  -4  810.02   32.30
  -2   2  -4  868.51   37.10
  -2   2  -4  867.61   37.90
   2  -2  -4  786.12   38.00
   2  -2  -4  872.21   35.10
  -2  -2  -5  407.36   27.80
   2   2  -5  439.86   31.10
  -2   2  -5  454.65   28.50
   2  -2  -5  531.85   32.60
  -2   2  -5  497.05   30.60
   2   2  -6  371.46   36.80
  -2  -2  -6  400.86   30.90
  -2   2  -6  386.16   29.60
   2  -2  -6  386.26   37.50
   3  -2   0  906.71   29.80
  -3  -2   0  853.91   25.20
  -3   2   0  833.22   32.10
   3   2   0  886.41   29.90
   3  -2   0  858.51   32.30
  -3  -2  -1  152.68    9.30
  -3  -2  -1  147.09    8.30
   3  -2   1  165.48    9.80
   3   2  -1  156.78   10.60
   3  -2  -1  143.69   11.50
  -3   2  -1  141.19   10.70
   3  -2  -1  147.59   10.40
  -3   2  -1  164.58    9.80
  -3  -2  -2  629.94   25.20
  -3  -2  -2  664.13   24.40
   3   2  -2  660.13   20.10
   3   2  -2  640.14   28.00
   3  -2  -2  664.93   25.20
   3  -2  -2  623.84   28.20
  -3   2  -2  684.03   28.10
  -3   2  -2  603.54   25.40
  -3  -2  -3   84.09    9.90
   3   2  -3   77.89    6.50
   3   2  -3   73.79   11.90
  -3  -2  -3   71.19   10.40
   3  -2  -3   50.09   10.10
   3  -2  -3   78.79    9.40
  -3   2  -3   78.19   10.70
  -3   2  -3   61.79   10.20
  -3  -2  -4  333.57   21.70
   3   2  -4  298.87   23.20
  -3   2  -4  302.47   20.80
  -3   2  -4  304.47   21.20
   3  -2  -4  331.57   24.30
   3  -2  -4  309.17   18.50
  -3  -2  -5   38.20   11.00
   3   2  -5   26.60   11.10
  -3   2  -5   32.60   10.40
  -3   2  -5   39.20   10.40
   3  -2  -5   44.30   13.40
   3   2  -6  140.49   23.50
   3  -2  -6  158.58   25.50
   4   2   0   17.00    3.00
   4   2   0   13.30    4.30
  -4  -2   0   20.80    3.40
   4  -2   0   11.40    4.00
  -4   2   0   12.10    4.70
   4  -2   0    9.60    4.50
  -4  -2  -1  946.41   33.60
   4   2  -1  955.60   35.50
   4  -2   1  968.30   33.50
  -4  -2  -1  909.61   30.90
   4  -2  -1  932.11   34.10
   4   2   1  944.41   33.50
  -4   2  -1  936.21   33.20
   4  -2  -1  939.71   37.50
  -4   2  -1  944.31   36.30
   4   2  -2    5.40    4.50
  -4  -2  -2   10.90    4.00
  -4  -2  -2   13.80    4.30
   4  -2  -2    5.10    4.90
  -4   2  -2    3.50    3.70
  -4   2  -2   15.20    5.60
   4  -2  -2   13.80    4.30
  -4  -2  -3  551.74   27.50
   4   2  -3  609.34   31.50
  -4  -2  -3  601.44   25.80
   4  -2  -3  575.04   31.20
  -4   2  -3  613.34   28.70
  -4   2  -3  656.93   30.60
   4  -2  -3  625.84   25.20
   4   2  -4    4.00    6.70
  -4  -2  -4   13.20    6.60
  -4   2  -4    6.10    6.00
  -4   2  -4    8.60    5.80
   4  -2  -4   13.70    8.20
  -4  -2  -5  313.07   25.30
   4   2  -5  275.37   30.40
   4  -2  -5  311.37   33.20
  -4   2  -5  278.67   22.90
  -5  -2   0  632.44   22.90
   5   2   0  646.54   28.10
   5  -2   0  631.94   26.50
   5  -2   0  720.03   32.00
   5   2   0  631.54   23.20
  -5   2   0  687.43   31.50
   5  -2   1 1038.80   40.50
  -5  -2  -1  995.80   37.10
  -5  -2  -1 1060.19   34.70
   5  -2   1  964.80   36.80
   5   2  -1  999.40   38.90
   5   2   1  965.40   37.10
   5  -2  -1  928.51   36.30
   5  -2  -1 1105.89   42.80
  -5   2  -1  915.11   39.20
  -5   2  -1 1077.79   37.10
   5  -2   2  462.45   23.50
  -5  -2  -2  466.75   22.10
   5   2  -2  475.75   25.90
  -5  -2  -2  492.35   22.60
   5  -2  -2  488.15   26.60
  -5   2  -2  505.05   25.50
  -5   2  -2  440.86   22.80
   5   2  -3  715.23   36.40
  -5  -2  -3  724.73   32.90
   5  -2  -3  731.23   36.90
  -5   2  -3  731.93   34.30
  -5   2  -3  724.73   33.40
  -5  -2  -4  239.88   19.40
   5   2  -4  251.57   27.50
   5  -2  -4  246.18   26.20
  -5   2  -4  258.27   20.30
  -5   2  -4  229.68   19.60
  -5  -2  -5  388.76   28.90
   5   2  -5  351.66   35.60
   5  -2  -5  412.66   33.20
  -5   2  -5  411.76   29.50
  -6   2   0  236.58   22.30
   6  -2   0  260.37   16.70
   6   2   0  231.38   16.60
   6  -2   0  221.28   18.10
  -6  -2  -1   34.60    7.90
   6  -2   1   32.30    8.00
  -6  -2  -1   39.70    6.90
   6   2  -1   34.90    8.30
   6  -2   1   31.10    8.70
   6  -2  -1   48.80   10.70
  -6   2  -1   44.80   10.00
  -6   2  -1   41.70    8.40
   6   2   1   40.90    8.60
   6   2   1   34.00    6.70
   6   2  -2  224.58   21.60
  -6  -2  -2  185.18   14.30
  -6  -2  -2  174.78   14.00
   6  -2   2  179.58   14.80
  -6   2  -2  214.58   20.40
   6   2   2  256.77   16.60
   6  -2  -2  223.68   22.60
  -6   2  -2  180.28   14.90
  -6  -2  -3   38.00    8.90
   6   2  -3   25.80    9.50
   6  -2   3   21.30    7.80
  -6   2  -3   23.30    7.60
  -6   2  -3   34.60    9.00
   6  -2  -3   23.10    9.10
  -6  -2  -4  140.09   18.80
   6   2  -4   84.99   17.40
   6  -2  -4  129.89   19.70
  -6   2  -4  124.49   17.50
   7  -2   0   34.00    9.70
   7   2   0   12.40    6.40
  -7   2   0   14.50    7.60
   7   2  -1   33.80    9.10
  -7  -2  -1   25.80    7.50
   7  -2   1   35.70    8.50
   7  -2   1   39.70   10.40
   7  -2  -1   32.50    9.30
  -7   2  -1   24.30    8.00
  -7   2  -1   34.60    8.40
   7   2   1   21.80    7.70
  -7  -2  -2   14.20    6.00
   7   2  -2   11.00    7.30
   7  -2   2    5.50    5.60
   7  -2   2   16.40    7.80
  -7   2  -2   11.30    6.40
   7   2   2   17.90    6.60
  -7   2  -2   18.50    7.60
   7  -2  -2   16.60    7.40
   7   2  -3   27.70   10.50
   7  -2   3   34.00    9.60
  -7  -2  -3   27.10    8.50
  -7   2  -3   23.90    8.60
   7  -2  -3   41.10   11.70
  -7   2  -3   18.60    8.30
  -7  -2  -4    2.30    6.90
   7   2  -4   20.20   10.80
   7  -2   4   -0.80    6.60
  -7   2  -4   10.10    7.80
   7  -2  -4    2.60    8.30
   8  -2   0  710.93   38.00
   8   2   0  700.73   34.40
   8  -2   1   28.90    9.90
   8   2  -1   27.90    9.00
   8   2   1   20.70    8.20
  -8   2  -1   30.70    9.70
   8  -2  -1   18.80    8.60
   8  -2   2  626.04   35.20
   8   2  -2  606.84   34.30
  -8   2  -2  602.14   33.50
   8  -2  -2  629.44   36.80
   8  -2   3   15.10    8.40
   8   2  -3   20.30   10.10
  -8   2  -3   24.80    8.40
   8  -2  -3   17.80   10.00
   9  -2   0  256.67   27.00
   9   2   0  245.98   24.30
   9   2  -1  241.08   24.40
   9  -2   1  219.28   25.20
   9  -2  -1  214.08   24.60
  -9   2  -1  137.69   19.80
   9  -2   2  205.08   24.20
   9  -2  -2  200.88   25.10
  -9   2  -2  197.08   23.10
   0   3   0    0.50    1.10
   0  -3   0    0.30    2.20
   0  -3  -1 1713.03   49.30
   0   3  -1 1672.03   46.50
   0   3  -1 1705.53   48.00
   0  -3  -1 1614.74   45.30
   0  -3  -2    0.50    2.00
   0  -3  -2    3.10    2.40
   0   3  -2   -1.50    1.40
   0   3  -2    0.30    2.50
   0   3  -3  950.60   36.70
   0   3  -3  994.60   34.20
   0  -3  -3  932.21   33.90
   0  -3  -3  910.91   35.70
   0   3  -4    2.10    3.90
   0  -3  -4    2.80    3.90
   0   3  -4   -2.90    4.00
   0  -3  -4   -2.50    4.00
   0  -3  -5  449.16   28.30
   0   3  -5  403.16   25.40
   0  -3  -5  415.66   26.90
   0   3  -5  423.46   28.90
   0   3  -6    2.90    6.10
   0   3  -6    6.50    8.50
   0  -3  -6    6.40    7.90
  -1   3   0 1051.19   31.80
  -1  -3   0 1026.00   29.80
   1   3   0 1032.20   28.60
   1  -3   0 1080.69   33.10
   1  -3   1  424.66   15.60
   1   3  -1  423.36   13.00
  -1  -3  -1  424.66   12.70
   1   3  -1  406.76   15.60
  -1  -3  -1  410.46   15.60
   1  -3  -1  410.76   16.60
  -1   3  -1  394.36   16.30
  -1   3  -1  413.76   15.40
   1  -3  -1  391.36   17.60
   1   3  -2  749.73   24.50
  -1  -3  -2  727.43   24.40
  -1  -3  -2  760.82   27.80
   1   3  -2  773.12   28.20
   1  -3  -2  783.62   28.70
  -1   3  -2  782.82   27.20
   1  -3  -2  750.72   27.40
  -1   3  -2  757.32   28.40
  -1  -3  -3  221.58   14.50
   1   3  -3  231.58   13.00
   1   3  -3  239.88   15.80
  -1  -3  -3  216.58   12.90
  -1   3  -3  218.88   14.10
  -1   3  -3  229.98   15.40
   1  -3  -3  249.88   15.40
   1  -3  -3  236.18   15.10
  -1  -3  -4  360.86   20.70
   1   3  -4  373.66   23.60
   1   3  -4  371.46   19.80
  -1  -3  -4  385.46   23.00
  -1   3  -4  357.86   21.40
   1  -3  -4  376.76   22.50
   1  -3  -4  348.47   21.40
  -1   3  -4  366.16   23.20
   1   3  -5  118.59   15.40
  -1  -3  -5  130.99   18.10
   1   3  -5  124.19   18.70
  -1   3  -5   97.29   15.00
   1  -3  -5   88.79   15.00
  -1   3  -5   65.89   14.00
   1  -3  -5  120.29   16.70
  -1  -3  -6  152.88   21.60
   1   3  -6  166.98   24.50
  -1   3  -6  124.49   19.30
  -1   3  -6  132.59   21.30
   1  -3  -6  192.58   23.10
  -2   3   0 1824.02   54.19
   2  -3   0 1832.52   53.09
  -2  -3   0 1769.12   47.50
   2   3   0 1775.42   50.19
  -2  -3  -1 4728.93  117.99
  -2  -3  -1 4221.68  115.79
   2  -3   1 4257.57  119.49
   2   3  -1 4378.76  119.49
   2  -3  -1 4461.65  122.29
  -2   3  -1 4276.67  121.19
   2  -3  -1 4429.36  122.79
  -2   3  -1 4602.04  119.49
  -2  -3  -2 1326.17   43.50
   2   3  -2 1359.86   38.80
   2   3  -2 1372.86   45.10
  -2  -3  -2 1329.97   40.30
  -2   3  -2 1353.96   45.30
   2  -3  -2 1304.27   45.80
   2  -3  -2 1375.16   44.90
  -2   3  -2 1398.96   44.20
  -2  -3  -3 3068.99   91.99
   2   3  -3 3064.59   93.69
   2   3  -3 3042.80   86.09
  -2  -3  -3 3106.79   87.79
   2  -3  -3 3089.29   93.49
  -2   3  -3 3114.59   91.69
  -2   3  -3 3005.10   92.69
   2  -3  -3 3006.20   90.89
  -2  -3  -4  616.54   31.50
   2   3  -4  588.34   32.40
   2   3  -4  637.14   27.20
  -2  -3  -4  603.14   36.90
  -2   3  -4  631.44   30.90
  -2   3  -4  700.93   33.30
   2  -3  -4  732.83   34.90
   2  -3  -4  660.93   30.40
  -2  -3  -5 1576.14   64.79
   2   3  -5 1616.44   67.49
  -2   3  -5 1707.23   64.39
   2  -3  -5 1642.34   61.79
   2  -3  -5 1750.72   68.09
  -2   3  -5 1618.94   65.39
   2   3  -6  291.57   33.20
  -2  -3  -6  307.67   32.90
  -2   3  -6  291.67   31.40
  -2   3  -6  234.28   26.60
   3  -3   0    3.70    2.60
  -3  -3   0    8.30    1.80
  -3   3   0    5.60    3.80
   3  -3   0    9.00    4.40
   3   3   0    1.30    2.30
  -3  -3  -1 2017.80   57.89
  -3   3   1 1986.50   63.29
   3   3  -1 1948.91   60.49
  -3  -3  -1 2113.49   57.79
   3  -3   1 1969.90   60.09
  -3   3  -1 2039.70   60.19
   3   3   1 2048.70   57.99
   3  -3  -1 1997.00   62.69
   3  -3  -1 2033.70   64.09
  -3   3  -1 2018.50   62.89
  -3  -3  -2    4.10    3.00
   3   3  -2    5.80    4.10
   3   3  -2    2.70    1.30
  -3  -3  -2    6.80    3.00
  -3   3  -2    7.10    3.90
   3  -3  -2    3.40    3.20
   3  -3  -2    5.80    4.40
  -3   3  -2    7.50    3.50
  -3  -3  -3 1350.16   42.90
  -3  -3  -3 1304.57   46.70
   3   3  -3 1233.38   39.40
   3   3  -3 1260.57   49.20
   3  -3  -3 1277.87   45.20
  -3   3  -3 1265.37   46.60
   3  -3  -3 1318.97   50.29
  -3   3  -3 1315.77   48.70
   3   3  -4    1.50    6.10
  -3  -3  -4    1.10    4.60
  -3   3  -4    2.20    5.30
   3  -3  -4   -1.20    6.60
   3  -3  -4    3.10    4.40
  -3   3  -4    5.20    5.30
   3   3  -5  619.44   38.10
  -3  -3  -5  581.34   34.70
  -3   3  -5  517.85   33.20
  -3   3  -5  637.04   35.10
   3  -3  -5  618.04   37.90
   4  -3   0  685.43   26.90
   4   3   0  617.04   25.60
  -4  -3   0  666.53   21.20
  -4   3   0  693.63   30.20
   4   3   0  710.33   21.60
   4  -3   0  634.44   29.40
  -4  -3  -1  345.37   15.90
  -4  -3  -1  310.17   13.90
   4   3  -1  290.97   16.60
   4  -3   1  314.87   16.70
  -4   3   1  347.27   19.90
   4  -3  -1  278.67   18.50
   4  -3  -1  315.47   17.70
  -4   3  -1  331.27   16.50
   4   3   1  328.17   15.90
  -4   3  -1  319.37   18.50
  -4  -3  -2  503.25   20.60
   4   3  -2  453.25   24.20
   4  -3   2  475.65   22.90
  -4  -3  -2  457.55   21.20
  -4   3  -2  526.45   25.60
   4  -3  -2  513.45   22.60
   4  -3  -2  530.15   26.60
  -4   3  -2  468.95   22.70
   4   3  -3  213.18   21.00
  -4  -3  -3  209.48   15.30
   4  -3  -3  214.68   21.30
  -4   3  -3  171.28   14.50
  -4   3  -3  208.68   16.80
   4  -3  -3  181.58   13.00
  -4  -3  -4  309.87   21.50
   4   3  -4  235.98   26.10
  -4   3  -4  272.37   21.20
   4  -3  -4  251.77   26.00
  -4   3  -4  267.77   20.20
   4   3  -5   48.70   14.60
  -4  -3  -5   77.29   15.30
   4  -3  -5   69.89   16.50
  -4   3  -5   63.89   14.40
  -4   3  -5   89.59   15.70
   5  -3   0  978.20   37.80
  -5  -3   0 1024.50   31.60
   5   3   0 1047.00   37.60
  -5   3   0  957.50   41.20
   5   3   0 1035.80   31.80
   5  -3   0  939.51   41.10
   5   3  -1 1436.56   50.49
  -5  -3  -1 1460.95   45.50
  -5  -3  -1 1427.66   48.10
   5  -3   1 1447.66   49.80
   5  -3  -1 1455.85   54.29
  -5   3  -1 1464.85   49.40
  -5   3  -1 1384.96   52.19
   5  -3  -1 1466.05   50.39
   5   3   1 1485.45   48.60
  -5  -3  -2  757.82   29.70
   5   3  -2  698.73   33.40
  -5  -3  -2  731.73   30.20
   5  -3   2  788.62   32.80
  -5   3  -2  689.73   33.50
   5  -3  -2  789.12   30.50
  -5   3  -2  764.22   32.40
   5  -3  -2  823.62   36.80
   5   3   2  781.92   30.30
   5   3  -3 1016.30   44.80
   5  -3   3 1002.00   41.70
  -5  -3  -3 1034.70   41.10
   5  -3  -3  953.60   44.40
  -5   3  -3 1012.40   41.60
  -5   3  -3  979.40   43.00
  -5  -3  -4  442.86   27.90
   5   3  -4  420.26   30.70
   5  -3  -4  469.55   30.90
  -5   3  -4  466.35   28.80
  -5   3  -4  455.55   28.00
  -5  -3  -5  523.95   34.00
  -5   3  -5  520.55   33.70
   5  -3  -5  520.25   37.00
   6  -3   0   18.80    6.50
  -6   3   0   14.90    7.50
   6  -3   0   17.60    7.50
   6   3   0   17.90    6.00
  -6  -3  -1  728.93   31.60
   6  -3   1  746.53   36.20
   6   3  -1  753.32   33.70
  -6  -3  -1  758.62   29.10
   6  -3   1  785.52   33.40
  -6   3  -1  791.82   36.80
   6   3   1  840.42   33.30
   6   3   1  748.03   29.20
   6  -3  -1  746.83   37.20
  -6   3  -1  777.52   33.10
   6   3  -2    9.60    6.80
   6  -3   2   18.40    6.60
  -6  -3  -2   10.00    5.10
   6  -3  -2   14.00    7.20
  -6   3  -2   23.20    7.10
  -6   3  -2   13.50    6.50
   6   3   2   16.70    6.20
  -6  -3  -3  538.05   28.20
   6   3  -3  551.74   31.40
   6  -3   3  513.85   29.30
  -6   3  -3  516.45   28.80
   6  -3  -3  514.15   31.50
  -6   3  -3  535.25   30.20
  -6  -3  -4    2.20    5.50
   6  -3   4   14.80    8.40
   6   3  -4    3.60    8.50
   6  -3  -4   18.30   10.10
  -6   3  -4    4.60    6.20
  -6   3  -4   14.70    7.70
   7   3   0   19.20    6.50
   7  -3   0   16.30    8.10
  -7   3   0    7.50    6.50
   7  -3   1   26.20    7.90
   7  -3   1   24.30    9.00
   7   3  -1   17.30    7.20
   7   3   1   23.20    7.10
   7  -3  -1   38.80   10.80
  -7   3  -1   21.60    8.50
   7  -3   2    9.50    6.80
   7   3  -2   26.90    9.00
   7  -3   2   13.00    7.90
  -7   3  -2   13.80    8.00
   7  -3  -2   19.80    8.70
  -7   3  -2   11.10    6.20
   7  -3   3    9.80    6.70
  -7  -3  -3   14.00    6.40
   7   3  -3   20.00    9.00
  -7   3  -3   24.40    8.90
  -7   3  -3   21.40    8.10
   7  -3  -3   23.00    9.70
   7   3  -4   13.10    9.70
   7  -3   4    6.50    7.50
  -7  -3  -4   10.30    7.10
   7  -3  -4    9.90    9.10
  -7   3  -4   -0.90    6.80
   8   3   0    9.90    6.60
  -8   3   0   17.40    8.40
   8  -3   0   -0.70    6.20
   8  -3   1  101.29   16.80
   8   3  -1   79.09   13.20
  -8   3  -1   89.09   15.30
   8  -3  -1  119.39   18.20
   8  -3   2    4.60    6.80
   8  -3   2   13.10    7.80
   8   3  -2    6.70    6.80
   8  -3  -2   13.30    9.40
  -8   3  -2   10.80    7.80
  -8   3  -2   13.10    7.90
   8   3  -3   72.69   15.30
   8  -3   3   82.89   15.60
   8  -3   3   91.39   16.90
  -8   3  -3   76.09   14.80
  -8   3  -3   88.19   17.00
   8  -3  -3   73.39   15.60
   9  -3   0  151.48   20.80
   9   3   0  105.59   15.30
   9   3  -1  134.69   18.70
   9  -3   1  119.09   18.80
  -9   3  -1  104.19   17.00
   9  -3  -1  107.19   18.00
   9  -3   2  113.59   18.80
   9   3  -2  105.29   17.30
  -9   3  -2  108.59   18.30
   9  -3  -2  105.69   18.70
   0   4   0    2.40    1.40
   0  -4   0    5.50    3.50
   0   4  -1    1.90    1.50
   0  -4   1    2.30    1.80
   0  -4  -1    0.30    2.50
   0  -4  -1    1.50    1.60
   0   4  -1    9.10    2.80
   0  -4  -2    2.70    2.30
   0   4  -2    1.20    2.70
   0   4  -2    4.30    2.40
   0  -4  -2    2.60    2.40
   0   4  -3    1.20    3.80
   0  -4  -3    4.20    3.80
   0  -4  -3    1.40    2.80
   0   4  -3    5.50    3.30
   0   4  -4    2.40    3.80
   0  -4  -4   -1.00    2.90
   0   4  -4   -0.80    4.70
   0  -4  -4   10.60    5.40
   0   4  -5    5.10    6.40
   0   4  -5    9.70    6.80
   0  -4  -5    1.70    5.70
   0   4  -6    6.10    9.90
   0  -4  -6   -5.40    8.40
   0   4  -6   -3.60    5.70
   1   4   0  459.15   14.00
  -1   4   0  463.85   17.00
   1  -4   0  466.25   19.00
  -1  -4   0  442.06   16.50
   1  -4   1   37.70    5.10
  -1   4   1   31.90    4.70
   1   4  -1   39.70    4.90
  -1  -4  -1   35.50    5.10
   1   4  -1   40.60    3.80
   1  -4  -1   28.80    5.00
   1  -4  -1   42.40    7.10
  -1   4  -1   36.80    4.80
  -1  -4   1   43.40    3.60
  -1   4  -1   35.70    5.20
  -1  -4  -2  338.37   16.50
   1   4  -2  289.07   15.70
   1   4  -2  330.57   13.40
  -1  -4  -2  326.67   12.50
  -1   4  -2  332.17   16.80
  -1   4  -2  344.67   15.60
   1  -4  -2  323.57   17.30
   1  -4  -2  330.87   15.80
   1   4  -3   20.60    6.30
   1   4  -3   17.30    4.30
  -1  -4  -3   16.50    4.40
  -1  -4  -3   27.00    7.00
   1  -4  -3   23.80    6.40
  -1   4  -3   20.80    5.50
  -1   4  -3   15.60    5.70
   1  -4  -3   17.90    5.40
   1   4  -4  133.39   16.70
  -1  -4  -4  142.29   14.30
   1   4  -4  138.99   14.10
  -1  -4  -4  119.69   15.90
  -1   4  -4  167.98   16.60
  -1   4  -4  141.09   17.40
   1  -4  -4  140.89   15.70
   1  -4  -4  138.49   16.30
   1   4  -5   15.40    9.30
  -1  -4  -5   11.40    7.60
   1   4  -5    8.70    6.00
   1  -4  -5   25.00    8.80
   1  -4  -5   17.90    9.10
  -1   4  -5   15.40    7.40
  -1   4  -5   10.70    7.90
   1   4  -6   86.29   18.40
  -1  -4  -6   76.39   17.00
  -1   4  -6   78.29   15.30
   1  -4  -6   64.19   14.50
  -1   4  -6   73.49   16.30
   2   4   0  913.31   26.70
  -2  -4   0  908.11   25.60
   2  -4   0  859.81   31.10
  -2   4   0  880.41   30.90
  -2   4   1    3.70    3.10
   2  -4   1    0.20    1.50
  -2  -4  -1    1.30    1.80
   2   4  -1    1.40    2.10
  -2  -4  -1    3.00    1.40
  -2  -4   1    4.50    1.70
   2   4   1    2.60    1.50
  -2   4  -1    6.50    3.50
   2  -4  -1    4.30    3.50
   2  -4  -1    2.40    3.50
  -2   4  -1    1.00    1.60
  -2  -4  -2  603.94   20.30
  -2  -4  -2  592.94   24.30
   2   4  -2  612.64   19.90
   2   4  -2  622.34   25.70
   2  -4  -2  608.34   26.40
  -2   4  -2  629.34   24.90
  -2   4  -2  670.43   26.80
   2  -4  -2  626.44   26.50
  -2  -4  -3    2.40    2.90
  -2  -4  -3   -0.20    3.20
   2   4  -3    1.40    2.20
   2   4  -3    0.80    3.90
   2  -4  -3    0.40    4.10
   2  -4  -3    3.80    4.00
  -2   4  -3    3.00    3.80
  -2   4  -3    7.30    4.60
  -2  -4  -4  287.27   20.90
   2   4  -4  336.17   17.80
   2   4  -4  345.47   22.90
   2  -4  -4  303.67   20.30
  -2   4  -4  297.37   20.20
  -2   4  -4  326.17   22.30
   2  -4  -4  321.27   22.60
  -2  -4  -5    6.00    7.30
   2   4  -5   12.10    8.30
  -2   4  -5   27.40   10.30
   2  -4  -5   -2.20    6.50
  -2   4  -5   -1.10    5.10
   2  -4  -5    3.20    6.80
  -2  -4  -6  125.09   20.70
   2   4  -6  149.09   24.60
  -2   4  -6  160.98   22.10
   2  -4  -6  131.59   19.90
  -2   4  -6  106.79   19.40
  -3  -4   0  480.65   15.00
   3   4   0  470.15   18.20
   3  -4   0  466.15   21.10
  -3   4   0  525.25   22.90
  -3   4   1 1778.62   57.09
  -3  -4  -1 1778.02   50.99
   3   4  -1 1765.22   53.69
   3  -4   1 1744.23   54.69
  -3  -4  -1 1732.63   49.90
   3  -4  -1 1853.01   58.19
   3  -4  -1 1747.23   57.59
  -3   4  -1 1690.33   56.29
  -3   4  -1 1635.04   53.29
   3   4   1 1777.62   50.39
   3  -4   2  383.36   19.20
  -3  -4  -2  363.16   17.80
  -3  -4  -2  400.06   15.40
   3   4  -2  375.26   12.20
   3   4  -2  377.76   19.80
  -3   4  -2  385.06   19.10
   3  -4  -2  386.36   20.10
   3  -4  -2  362.16   20.60
  -3   4  -2  386.86   20.80
  -3  -4  -3 1127.89   42.50
   3   4  -3 1102.79   44.80
  -3   4  -3 1109.09   42.60
   3  -4  -3 1149.48   45.50
  -3   4  -3 1090.29   44.30
   3  -4  -3 1138.89   42.00
  -3  -4  -4  198.58   20.10
   3   4  -4  210.38   22.70
   3  -4  -4  136.09   15.50
  -3   4  -4  189.18   19.20
  -3   4  -4  185.68   20.30
   3  -4  -4  129.89   18.80
  -3  -4  -5  569.54   33.90
   3   4  -5  493.25   34.70
  -3   4  -5  521.95   31.80
   3  -4  -5  544.75   30.00
  -3   4  -5  519.85   33.70
   3  -4  -5  569.54   36.40
   4  -4   0  644.34   29.90
   4  -4   0  687.73   28.00
  -4   4   0  620.24   29.30
  -4  -4   0  648.44   20.20
   4   4   0  637.94   24.60
  -4   4   1  734.03   32.90
   4   4  -1  807.22   30.20
   4  -4   1  765.62   30.40
  -4  -4  -1  802.32   27.20
  -4  -4  -1  761.12   26.20
   4   4   1  685.43   26.60
  -4   4  -1  779.62   32.60
   4  -4  -1  790.02   32.20
  -4   4  -1  815.12   30.40
   4  -4  -1  711.93   33.10
  -4  -4  -2  509.05   22.30
   4   4  -2  513.05   25.10
   4  -4   2  452.65   23.30
  -4  -4  -2  503.45   19.90
   4  -4  -2  464.85   25.60
  -4   4  -2  471.55   23.30
  -4   4  -2  486.15   25.50
   4  -4  -2  516.35   23.70
  -4  -4  -3  505.65   25.70
   4   4  -3  531.95   28.70
   4  -4  -3  495.25   28.50
   4  -4  -3  518.55   24.80
  -4   4  -3  519.85   26.50
  -4   4  -3  513.75   28.30
   4   4  -4  257.17   26.80
  -4  -4  -4  283.37   21.00
  -4   4  -4  296.67   21.40
  -4   4  -4  255.17   25.30
   4  -4  -4  249.78   25.60
  -4  -4  -5  225.08   26.10
   4   4  -5  277.67   30.50
  -4   4  -5  222.78   24.50
  -4   4  -5  281.67   28.40
   4  -4  -5  242.68   29.10
  -5   4   0 1373.76   52.29
   5  -4   0 1378.96   49.30
   5  -4   0 1467.65   53.79
   5   4   0 1310.07   45.60
  -5  -4  -1   55.69    7.90
   5   4  -1   57.09    9.40
  -5   4   1   53.79   10.20
  -5  -4  -1   61.39    7.10
   5  -4   1   45.80    8.60
  -5   4  -1   51.09   10.00
   5   4   1   53.09    8.10
   5  -4  -1   59.79   10.10
  -5   4  -1   46.20    8.40
   5  -4  -1   57.09   11.00
   5  -4   2 1081.79   41.70
  -5  -4  -2 1024.50   41.50
  -5  -4  -2 1104.39   39.00
   5   4  -2 1068.79   43.20
  -5   4  -2 1038.80   41.50
  -5   4  -2 1121.29   44.90
   5   4   2 1029.80   37.50
   5  -4  -2 1129.29   41.00
   5  -4  -2 1110.99   45.70
  -5  -4  -3   25.90    7.30
   5  -4   3   87.49   13.40
   5   4  -3   40.90   10.50
   5  -4  -3   41.90   10.30
  -5   4  -3   76.49   12.30
  -5   4  -3   42.10   10.20
  -5  -4  -4  635.14   34.00
   5   4  -4  668.63   38.90
   5  -4   4  637.14   34.60
   5  -4  -4  678.03   38.20
  -5   4  -4  653.73   36.10
  -5   4  -4  659.33   34.80
   5  -4   5   12.00    8.70
  -5  -4  -5   23.70   10.20
   5   4  -5   25.50   12.30
   5  -4  -5   36.50   13.80
  -5   4  -5   27.10    9.90
  -6   4   0  223.18   22.30
   6  -4   0  242.58   17.90
   6   4   0  252.77   16.10
   6  -4   0  240.28   23.20
   6  -4   1 1949.90   69.99
   6  -4   1 1919.11   65.79
   6   4  -1 1852.81   64.69
   6  -4  -1 2039.90   71.79
  -6   4  -1 1886.21   68.89
   6   4   1 1944.61   62.69
  -6   4  -1 1918.81   65.29
   6  -4  -1 2026.40   66.79
  -6  -4  -2  175.98   13.60
   6   4  -2  213.48   21.00
   6  -4   2  200.38   16.80
  -6   4  -2  221.18   17.00
  -6   4  -2  203.38   21.40
   6  -4  -2  255.97   24.20
   6  -4   3 1456.65   56.49
  -6  -4  -3 1408.86   53.89
   6   4  -3 1486.65   58.69
   6  -4  -3 1478.65   59.89
  -6   4  -3 1371.66   56.99
  -6   4  -3 1441.86   56.29
   6   4  -4  133.79   20.90
  -6  -4  -4  125.09   17.90
   6  -4   4  149.88   20.20
  -6   4  -4  128.59   18.90
  -6   4  -4  110.89   17.00
   6  -4  -4  133.19   21.00
   7   4   0  544.85   27.00
  -7   4   0  496.85   31.10
   7  -4   0  549.74   32.30
   7  -4   1  148.99   19.80
   7   4  -1  143.69   16.50
   7  -4   1  162.38   18.80
   7   4   1  145.39   15.50
   7  -4  -1   99.39   16.60
  -7   4  -1  137.29   18.70
   7  -4   2  419.16   27.90
   7  -4   2  494.05   28.10
   7   4  -2  432.36   27.00
   7  -4  -2  434.86   29.30
  -7   4  -2  429.26   26.20
  -7   4  -2  411.16   27.40
  -7  -4  -3   70.99   12.00
   7  -4   3   91.09   15.00
   7   4  -3   78.29   15.10
  -7   4  -3   74.59   13.20
  -7   4  -3   95.59   15.80
   7  -4  -3   90.29   16.20
   7   4  -4  194.98   26.00
   7  -4   4  276.17   27.80
  -7  -4  -4  272.27   23.00
   7  -4  -4  296.17   31.20
  -7   4  -4  246.08   26.50
   8  -4   0   22.50    9.80
  -8   4   0   12.90    8.20
   8   4   0    7.80    5.90
   8  -4   1  936.01   46.70
   8   4  -1  967.50   42.50
   8  -4  -1 1006.00   48.30
  -8   4  -1  939.51   46.20
   8  -4   2    8.00    7.60
   8  -4   2    1.00    6.50
   8   4  -2    8.40    7.70
  -8   4  -2    7.50    7.10
  -8   4  -2   11.10    8.00
   8  -4  -2    4.50    7.40
   8  -4   3  728.43   40.70
   8   4  -3  859.11   42.80
   8  -4   3  747.83   41.00
  -8   4  -3  720.93   39.70
  -8   4  -3  716.63   39.40
   8  -4  -3  728.03   42.10
   9  -4   0  152.48   22.00
   9   4  -1   11.70    7.40
   9  -4   1   18.90    9.40
   9  -4  -1    7.10    8.10
  -9   4  -1   13.40    8.70
   9  -4   2  114.09   19.80
   9   4  -2  156.38   21.00
  -9   4  -2  112.59   18.30
   9  -4  -2   81.79   17.00
   0   5   0   36.90    4.00
   0  -5   0    4.20    3.70
   0   5  -1 7582.64  209.58
   0  -5  -1 8132.89  213.88
   0  -5  -1 8076.59  206.88
   0   5  -1 8185.48  208.78
   0  -5   1 8063.79  209.48
   0  -5  -2    2.10    2.20
   0  -5  -2    4.20    3.30
   0   5  -2   -0.50    2.70
   0   5  -2   -0.30    1.70
   0   5  -3 5917.61  166.08
   0  -5  -3 6350.66  165.48
   0   5  -3 6130.89  170.88
   0  -5  -3 6038.50  171.38
   0   5  -4    0.00    3.20
   0  -5  -4    3.00    4.90
   0   5  -4   -3.20    4.60
   0  -5  -4    3.50    4.70
   0   5  -5 3557.74  108.79
   0   5  -5 3355.86  114.09
   0  -5  -5 3385.66  113.49
   0   5  -6    7.40   10.10
   0   5  -6    4.60    6.30
   0  -5  -6   10.00    8.10
  -1   5   0 1027.90   31.90
   1  -5   0  968.40   34.70
  -1  -5   0  994.30   32.80
   1   5   0 1021.80   28.40
   1   5  -1   60.79    6.30
   1  -5   1   86.69    6.70
  -1   5   1   66.79    6.90
  -1  -5  -1   76.89    8.10
   1  -5  -1   63.79    9.50
  -1   5  -1   76.49    7.50
   1  -5  -1   70.29    7.40
  -1  -5   1   68.89    5.20
  -1   5  -1   59.59    7.20
   1   5  -2  708.13   24.00
   1   5  -2  670.63   27.20
  -1  -5  -2  742.83   28.50
  -1  -5  -2  719.63   22.10
   1  -5  -2  691.43   29.70
  -1   5  -2  730.23   26.80
  -1   5  -2  721.23   28.50
   1  -5  -2  746.93   26.90
  -1  -5  -3   54.29    6.90
   1   5  -3   33.80    7.70
   1   5  -3   38.10    6.20
  -1  -5  -3   29.00    6.90
   1  -5  -3   37.20    8.20
   1  -5  -3   32.40    7.30
  -1   5  -3   43.20    7.60
  -1   5  -3   53.79    9.40
   1   5  -4  338.17   23.10
   1   5  -4  372.56   19.80
  -1  -5  -4  369.76   23.20
   1  -5  -4  318.67   21.10
  -1   5  -4  311.37   20.10
   1  -5  -4  396.16   24.10
  -1   5  -4  339.67   23.20
   1   5  -5   12.10    6.50
  -1  -5  -5   13.40    8.30
   1   5  -5   17.20    9.40
  -1   5  -5    7.50    7.40
   1  -5  -5   26.30    9.60
  -1   5  -5   19.00    7.40
  -1  -5  -6  152.28   23.70
   1   5  -6  143.79   23.10
   1  -5  -6  124.49   20.30
  -1   5  -6  152.68   23.40
  -1   5  -6  158.38   20.80
   2  -5   0  283.87   15.20
   2   5   0  278.17   10.50
  -2   5   0  279.37   14.20
  -2  -5   0  277.77   10.80
  -2   5   1 1682.03   52.09
  -2  -5  -1 1695.03   49.10
   2   5  -1 1629.34   49.00
   2  -5   1 1640.44   51.09
  -2   5  -1 1605.94   50.29
   2  -5  -1 1646.04   52.59
   2  -5  -1 1656.43   55.39
   2   5   1 1629.64   43.70
  -2   5  -1 1650.93   52.19
  -2  -5   1 1647.24   46.00
   2   5  -2  199.48   13.10
  -2  -5  -2  195.48   12.70
  -2  -5  -2  215.58    8.80
   2  -5   2  224.28   13.40
  -2   5  -2  204.18   14.10
   2  -5  -2  190.28   14.40
   2  -5  -2  204.18   14.00
  -2  -5   2  229.08    9.90
  -2   5  -2  232.88   13.50
   2   5  -3 1027.00   33.70
  -2  -5  -3  970.20   39.40
  -2  -5  -3 1009.40   35.10
   2   5  -3 1093.39   41.30
  -2   5  -3 1043.80   39.50
  -2   5  -3 1025.70   41.30
   2  -5  -3 1056.19   41.10
   2  -5  -3 1026.90   40.90
   2   5  -4  114.29   11.80
  -2  -5  -4   75.29   13.00
   2   5  -4   90.69   14.90
  -2   5  -4   99.99   15.30
   2  -5  -4   83.69   13.40
   2  -5  -4   75.89   13.30
  -2   5  -4  101.09   13.70
  -2  -5  -5  506.75   32.50
   2   5  -5  534.45   34.00
   2  -5  -5  421.96   30.00
  -2   5  -5  479.75   31.80
   2  -5  -5  493.55   29.80
  -2   5  -5  482.65   29.60
  -2  -5  -6   23.00   11.30
   2   5  -6   35.60   15.50
  -2   5  -6   62.89   14.60
   2  -5  -6   29.20   11.50
  -2   5  -6   39.10   13.60
   3  -5   0  373.46   19.40
  -3   5   0  402.66   19.70
   3   5   0  396.66   15.30
  -3  -5   0  373.96   12.70
   3  -5   1   69.29    8.90
   3   5  -1   59.89    7.70
  -3  -5  -1   61.39    6.50
  -3   5   1   52.39    8.60
   3   5   1   57.49    5.50
   3  -5  -1   60.39   10.00
   3  -5  -1   77.49   10.50
  -3   5  -1   44.80    8.10
  -3   5  -1   74.89    8.80
   3   5  -2  321.37   11.00
  -3  -5  -2  337.27   17.10
   3   5  -2  302.87   17.50
  -3  -5  -2  312.17   12.60
   3  -5   2  323.17   18.00
   3  -5  -2  300.57   18.60
  -3   5  -2  333.27   17.90
  -3   5  -2  326.97   19.40
   3  -5  -2  300.07   18.20
  -3  -5  -3   27.00    6.90
   3   5  -3   38.30    9.20
   3  -5  -3   22.50    6.80
   3  -5  -3   28.50    8.10
  -3   5  -3   19.30    7.20
  -3   5  -3   29.40    7.30
  -3  -5  -4  167.68   19.00
   3   5  -4  213.48   22.60
  -3   5  -4  201.28   20.50
  -3   5  -4  182.98   21.20
   3  -5  -4  167.98   20.00
   3  -5  -4  151.78   16.80
  -3  -5  -5   10.50    8.00
   3   5  -5   23.80   11.20
  -3   5  -5   12.70    9.20
   3  -5  -5   22.10   10.70
   3  -5  -5   22.30    8.50
  -3   5  -5   16.60    8.70
  -4   5   0  104.59   13.20
   4  -5   0   99.69   12.10
   4   5   0   90.19    9.00
  -4  -5   0  107.99    5.60
   4  -5   0  109.99   13.60
  -4   5   1  888.31   37.40
  -4  -5  -1  944.91   30.40
   4  -5   1  853.21   34.70
   4   5  -1  911.01   33.40
   4  -5  -1  913.71   37.20
  -4   5  -1  901.21   36.90
  -4   5  -1  883.71   34.40
   4  -5  -1  877.01   37.80
   4   5   1  915.31   30.30
   4  -5   2   81.99   11.10
  -4  -5  -2   67.19    9.10
   4   5  -2   79.49   11.00
   4   5   2   76.19    7.90
  -4   5  -2   67.39   10.50
   4  -5  -2   77.19   11.10
   4  -5  -2   76.69   12.00
  -4   5  -2   89.09   13.00
   4   5  -3  620.54   31.90
   4  -5   3  597.34   30.00
  -4  -5  -3  561.84   28.10
   4  -5  -3  573.34   30.80
  -4   5  -3  614.14   31.90
   4  -5  -3  615.14   28.70
  -4   5  -3  605.74   29.70
  -4  -5  -4   31.40    9.30
   4   5  -4   47.70   12.30
   4  -5   4   34.50    8.80
   4  -5  -4   20.80    9.10
  -4   5  -4   41.00    9.80
   4  -5  -4   38.00    9.00
  -4   5  -4   36.10   10.00
  -4  -5  -5  324.27   26.30
   4   5  -5  313.57   33.10
  -4   5  -5  356.06   26.50
  -4   5  -5  274.27   29.10
   4  -5  -5  288.97   31.30
  -5   5   0  185.18   19.30
   5  -5   0  177.28   19.40
   5  -5   0  220.58   16.10
   5   5   0  213.38   13.40
   5   5  -1  128.99   13.00
  -5   5   1  100.79   14.80
   5  -5   1  104.59   13.00
  -5  -5  -1  101.89    8.10
  -5   5  -1  140.69   16.50
   5  -5  -1  117.29   16.10
   5  -5  -1  125.69   14.70
  -5   5  -1  124.09   13.70
   5   5   1  114.69   10.90
  -5  -5  -2  142.99   11.80
   5  -5   2  153.58   16.40
   5   5  -2  134.09   15.30
  -5   5  -2  141.79   15.20
  -5   5  -2  118.89   15.80
   5  -5  -2  123.89   16.20
   5  -5  -2  154.98   15.50
   5   5  -3   65.69   12.60
   5  -5   3   74.69   12.70
  -5  -5  -3   72.79   11.30
  -5   5  -3   69.39   12.20
  -5   5  -3   75.49   13.50
   5  -5  -3   78.89   13.90
   5   5  -4  103.59   17.90
   5  -5   4   81.59   14.80
  -5  -5  -4   87.59   14.80
   5  -5  -4   92.19   16.80
  -5   5  -4  123.19   18.80
  -5   5  -4  135.49   18.30
   5  -5   5   43.60   12.40
   5   5  -5   35.80   13.10
  -5  -5  -5   38.00   11.80
  -5   5  -5   57.89   13.50
   5  -5  -5   29.70   12.70
  -5   5  -5   42.50   13.70
  -6   5   0    4.40    5.50
   6  -5   0    5.70    5.40
   6  -5   0    6.40    6.50
   6   5   0    0.30    4.10
   6   5  -1   69.49   10.90
   6  -5   1   95.29   15.00
  -6   5   1   63.59   12.80
   6  -5   1  102.29   13.90
   6  -5  -1   74.59   12.30
  -6   5  -1   81.19   13.70
   6  -5  -1   83.39   14.30
   6   5   1   95.69   11.20
   6  -5   2    2.40    4.70
   6   5  -2    9.00    6.80
  -6   5  -2   -0.30    4.10
  -6   5  -2    1.70    5.70
   6  -5  -2   -0.40    4.10
   6  -5   3   78.29   13.20
   6   5  -3   63.29   13.10
  -6  -5  -3   71.49   12.10
  -6   5  -3   52.09   10.90
   6  -5  -3   54.69   13.20
  -6   5  -3   71.29   13.90
   6   5  -4    2.70    8.50
  -6  -5  -4   -1.40    5.40
   6  -5   4    4.60    6.20
  -6   5  -4    0.40    6.30
   6  -5  -4   -3.70    6.50
  -6   5  -4   -2.80    6.30
   7  -5   0 1689.33   63.49
  -7   5   0 1803.82   68.49
   7  -5   0 1620.74   66.89
   7   5   0 1751.62   59.49
   7   5  -1    2.00    5.30
   7  -5   1   10.60    7.60
   7  -5   1   -3.50    5.10
   7  -5  -1    6.80    7.20
  -7   5  -1   -3.10    5.20
   7  -5   2 1497.85   60.89
   7   5  -2 1622.34   59.39
   7  -5   2 1412.36   57.59
  -7   5  -2 1496.55   58.29
   7  -5  -2 1460.65   61.79
  -7   5  -2 1496.95   60.69
   7  -5   3    8.10    6.50
  -7  -5  -3   -0.20    5.70
   7   5  -3    6.90    8.10
  -7   5  -3    6.40    7.10
  -7   5  -3    1.20    5.90
   7  -5  -3    2.90    6.70
   7   5  -4  920.21   50.89
  -7  -5  -4 1011.40   48.20
   7  -5   4 1055.39   51.19
  -7   5  -4  918.21   47.50
  -7   5  -4 1019.50   49.20
   7  -5  -4 1076.79   52.99
  -8   5   0    1.40    6.30
   8  -5   0    9.30    8.10
   8   5   0   -3.10    5.10
   8  -5   1  349.17   27.70
   8   5  -1  365.96   24.30
  -8   5  -1  405.06   28.60
   8  -5  -1  343.77   28.10
   8   5  -2    2.60    6.30
   8  -5   2   -1.20    5.80
   8  -5   2   -0.20    5.80
  -8   5  -2   11.20    8.20
   8  -5  -2    5.30    8.10
   8   5  -3  220.38   25.70
   8  -5   3  273.37   27.60
   8  -5   3  309.47   30.90
   8  -5  -3  255.97   28.70
  -8   5  -3  285.97   24.00
  -8   5  -3  211.58   25.40
   9  -5   0    6.60    8.70
   9  -5   1   -2.40    7.00
   9   5  -1   14.30    8.50
  -9   5  -1   17.90    9.60
   9  -5  -1    3.10    8.20
   9   5  -2   10.00    8.50
   9  -5   2   17.30   10.80
   9  -5  -2    8.00    9.00
  -9   5  -2    7.60    8.00
   0   6   0   72.39    5.20
   0  -6   0   69.09    9.40
   0  -6  -1    1.20    1.70
   0  -6   1    2.10    2.60
   0  -6  -1    3.60    3.80
   0   6  -1    2.00    2.30
   0   6  -1    1.50    2.10
   0   6   1    3.30    1.80
   0   6  -2   52.89    7.80
   0  -6  -2   62.49    6.10
   0  -6  -2   47.30    8.50
   0   6  -2   49.90    6.50
   0  -6   2   72.39    8.00
   0  -6  -3   -0.90    2.60
   0  -6  -3    0.40    4.00
   0   6  -3    2.00    3.00
   0   6  -3    2.00    3.30
   0  -6  -4   31.90    9.10
   0   6  -4   53.69    9.50
   0   6  -4   42.70   10.40
   0  -6  -5   -4.50    5.50
   0   6  -5    0.60    6.50
   0   6  -5    3.30    5.40
   0   6  -6   12.90    8.30
   0   6  -6   19.40   11.60
   0  -6  -6   28.80   12.20
  -1   6   0 2162.38   62.19
   1   6   0 2225.48   58.69
  -1  -6   0 2221.98   65.09
   1  -6   0 2060.19   66.49
   1   6  -1    0.10    2.20
   1  -6   1    3.00    2.80
  -1   6   1   -0.80    2.10
  -1  -6  -1   11.90    4.10
  -1  -6   1    6.30    2.70
  -1   6  -1    2.00    2.60
  -1   6  -1    5.00    2.70
   1  -6  -1   10.60    5.00
   1  -6  -1    4.00    3.00
   1   6  -2 1769.22   51.89
  -1  -6  -2 1786.12   48.10
  -1  -6  -2 1794.22   57.69
   1  -6   2 1735.33   55.29
   1   6  -2 1692.23   55.39
   1  -6  -2 1744.73   59.69
   1  -6  -2 1790.12   54.59
  -1   6  -2 1792.92   56.89
  -1  -6   2 1763.02   52.19
  -1   6  -2 1809.72   55.09
  -1  -6  -3    2.30    4.00
  -1  -6  -3    3.50    2.80
   1   6  -3   -1.20    2.60
   1   6  -3    0.70    2.60
   1  -6  -3    8.80    4.60
  -1   6  -3    0.80    3.00
  -1   6  -3   -0.20    2.70
   1  -6  -3    1.60    3.10
   1   6  -4  958.90   37.20
   1   6  -4  963.50   43.20
  -1  -6  -4  976.90   43.30
   1  -6  -4 1001.90   40.20
  -1   6  -4 1037.30   40.90
  -1   6  -4  936.61   42.90
   1  -6  -4  931.51   42.90
   1   6  -5    6.20    7.30
   1   6  -5    1.20    4.90
  -1  -6  -5    4.10    7.10
   1  -6  -5    2.00    6.10
  -1   6  -5   -2.60    6.90
  -1   6  -5   -1.50    4.60
   1   6  -6  459.25   36.00
  -1  -6  -6  451.25   34.60
  -1   6  -6  479.25   35.40
  -1   6  -6  474.55   31.80
   1  -6  -6  460.15   33.50
  -2  -6   0  134.49    7.60
   2   6   0  121.29    6.40
   2  -6   0  130.59   11.10
  -2   6   0  115.69    9.40
  -2   6   1  228.58   13.50
   2  -6   1  256.67   14.30
   2   6  -1  231.18   11.70
  -2  -6  -1  236.58   12.30
  -2  -6   1  227.68   10.80
   2  -6  -1  217.18   13.80
   2  -6  -1  210.58   15.70
  -2   6  -1  227.98   13.10
  -2   6  -1  215.38   13.60
  -2  -6  -2   91.69    4.10
  -2  -6  -2   85.29   10.00
   2   6  -2   77.59    5.70
   2  -6   2   73.19    9.50
   2   6  -2   71.59    9.20
  -2  -6   2   95.39    6.30
  -2   6  -2  103.89   12.00
   2  -6  -2   95.99   11.00
   2  -6  -2   82.99   12.10
  -2   6  -2   77.59    9.70
   2   6  -3   98.99   13.20
   2   6  -3  144.69    9.20
   2  -6   3  123.69   13.60
  -2  -6  -3  133.69   14.90
  -2   6  -3  135.89   14.40
   2  -6  -3  123.29   14.50
   2  -6  -3  145.09   16.50
  -2   6  -3  133.19   15.60
  -2  -6  -4   44.50   10.30
   2   6  -4   39.00   10.30
  -2   6  -4   39.80    9.50
   2  -6  -4   41.50   10.10
   2  -6  -4   38.80   10.20
  -2   6  -4   32.50    9.50
   2   6  -5   59.99   14.20
  -2  -6  -5   67.59   14.10
  -2   6  -5   58.99   12.80
   2  -6  -5   62.29   13.00
  -2   6  -5   60.09   13.90
   3  -6   0  905.61   35.60
   3   6   0  885.01   28.40
  -3  -6   0  894.41   26.80
  -3   6   0  949.71   35.40
  -3   6   1 1936.21   62.99
   3   6  -1 2075.79   58.59
  -3  -6  -1 1996.50   57.09
   3  -6   1 1932.11   61.69
  -3   6  -1 1939.71   62.69
   3  -6  -1 1868.21   63.49
   3  -6  -1 1938.41   65.69
  -3   6  -1 1864.51   60.59
   3   6   1 1886.91   52.59
   3   6  -2  723.23   29.70
  -3  -6  -2  700.63   28.20
   3  -6   2  727.03   30.20
   3  -6  -2  648.64   31.10
  -3   6  -2  742.03   32.40
  -3   6  -2  729.53   30.30
   3  -6  -2  712.93   31.10
   3  -6   3 1267.57   48.40
   3   6  -3 1265.27   49.00
  -3  -6  -3 1241.18   47.80
   3  -6  -3 1358.36   49.80
  -3   6  -3 1229.58   49.90
  -3   6  -3 1264.17   47.90
   3  -6  -3 1302.27   49.99
   3  -6   4  390.46   24.70
   3   6  -4  349.37   25.10
  -3  -6  -4  399.46   25.70
  -3   6  -4  381.86   24.30
   3  -6  -4  370.46   25.70
  -3   6  -4  343.07   25.00
   3  -6  -4  382.26   24.20
  -3  -6  -5  647.04   38.30
   3  -6   5  644.34   35.90
   3   6  -5  641.34   39.30
  -3   6  -5  658.63   38.80
   3  -6  -5  643.24   38.70
   3  -6  -5  586.84   33.60
  -3   6  -5  644.14   36.20
  -4  -6   0 1933.81   53.19
   4  -6   0 1940.71   66.19
   4   6   0 2018.20   57.69
  -4   6   0 1963.80   65.69
   4  -6   0 1884.71   64.59
   4   6  -1  573.24   24.10
   4  -6   1  556.14   26.20
  -4   6   1  579.04   28.50
  -4  -6  -1  561.94   21.50
  -4   6  -1  554.74   27.50
  -4   6  -1  560.84   25.70
   4  -6  -1  557.04   28.30
   4  -6  -1  573.14   29.20
   4   6   1  585.74   20.30
   4  -6   2 1577.44   56.49
   4   6  -2 1477.45   54.69
  -4  -6  -2 1670.53   53.39
  -4   6  -2 1657.43   59.19
   4  -6  -2 1610.04   57.89
   4  -6  -2 1655.73   57.49
  -4   6  -2 1680.43   56.39
   4  -6   3  392.96   23.80
   4   6  -3  397.26   24.40
  -4  -6  -3  358.76   22.10
   4  -6  -3  392.66   24.80
  -4   6  -3  375.46   23.10
   4  -6  -3  396.36   23.40
  -4   6  -3  428.56   26.30
   4  -6   4  956.30   44.00
   4   6  -4  958.90   45.70
  -4  -6  -4  946.91   43.40
  -4   6  -4  947.31   43.10
   4  -6  -4  948.81   45.20
   4  -6  -4  883.91   40.10
  -4   6  -4  862.31   43.80
  -4  -6  -5  185.88   23.30
   4   6  -5  224.28   28.10
   4  -6   5  212.28   24.80
  -4   6  -5  181.58   22.80
   4  -6  -5  182.38   25.60
  -4   6  -5  212.48   25.70
   5   6   0   92.19   10.10
  -5   6   0   93.19   13.80
   5  -6   0   91.49   13.90
   5  -6   0   77.99   12.20
   5   6  -1  277.47   16.80
   5  -6   1  299.07   19.30
  -5   6   1  271.77   20.30
  -5  -6  -1  300.17   14.40
  -5   6  -1  287.87   19.80
   5  -6  -1  279.17   20.10
   5   6   1  277.47   14.10
   5  -6  -1  245.88   20.10
   5  -6   2   67.89   11.30
  -5  -6  -2   85.39   10.50
   5   6  -2   66.49   11.20
  -5   6  -2   73.49   11.70
  -5   6  -2   92.19   14.20
   5  -6  -2   71.99   11.40
   5  -6  -2   75.59   12.90
   5   6  -3  192.08   21.10
  -5  -6  -3  189.48   15.60
   5  -6   3  158.28   18.40
  -5   6  -3  154.38   17.80
  -5   6  -3  190.68   21.60
   5  -6  -3  196.18   21.30
   5   6  -4   49.30   12.90
   5  -6   4   42.60   11.60
  -5  -6  -4   72.39   13.40
   5  -6  -4   53.79   13.50
  -5   6  -4   33.90   10.70
  -5   6  -4   43.30   11.20
  -5  -6  -5   87.89   16.90
   5   6  -5   78.69   18.60
   5  -6   5  104.89   18.20
   5  -6  -5   84.79   18.30
  -5   6  -5  118.89   19.60
  -5   6  -5   77.19   17.30
  -6   6   0   26.60    9.30
   6   6   0   25.30    6.60
   6  -6   0   32.10   10.10
   6  -6   0   18.40    7.40
   6  -6   1  606.14   30.50
  -6   6   1  588.84   32.90
   6   6  -1  580.44   27.60
   6  -6   1  536.35   31.20
  -6   6  -1  554.14   31.40
   6  -6  -1  556.34   30.50
   6  -6  -1  548.25   32.70
   6   6  -2   48.90   10.80
  -6  -6  -2   16.50    5.90
   6  -6   2   12.70    7.10
  -6   6  -2    4.20    6.20
  -6   6  -2   14.00    6.40
   6  -6  -2   16.00    7.70
  -6  -6  -3  363.86   23.00
   6   6  -3  392.16   26.60
   6  -6   3  335.97   24.70
  -6   6  -3  386.86   25.20
  -6   6  -3  390.76   27.30
   6  -6  -3  338.37   25.80
   6  -6   4   10.00    7.70
   6   6  -4   20.30   10.90
  -6  -6  -4   17.80    8.70
   6  -6  -4   10.70    9.40
  -6   6  -4    9.50    8.60
  -6   6  -4   17.90    8.80
   7   6   0    0.80    4.30
   7  -6   0    6.30    7.50
   7  -6   0   -0.90    6.00
  -7   6   0   -4.70    5.60
   7  -6   1    4.40    6.40
   7   6  -1    6.00    5.30
   7  -6   1    8.30    6.40
  -7   6  -1    2.50    5.80
   7  -6  -1    4.10    7.30
   7   6  -2    2.70    5.70
   7  -6   2    3.30    6.00
   7  -6  -2    7.40    6.10
  -7   6  -2    2.40    5.90
  -7   6  -2   -1.40    5.30
   7  -6   3    1.70    5.70
   7   6  -3    7.10    7.30
  -7   6  -3    4.90    6.70
  -7   6  -3   -2.00    7.60
   7  -6  -3    6.20    8.50
   7   6  -4    3.20    8.40
   7  -6   4   -4.30    6.00
  -7  -6  -4   10.10    7.80
  -7   6  -4   11.60    8.40
   7  -6  -4   -8.50    7.50
  -7   6  -4    3.80    7.20
   8  -6   0   21.80   10.10
  -8   6   0   38.40   11.50
   8  -6   1  169.68   31.70
   8   6  -1  217.18   21.60
   8  -6   1  245.08   27.40
   8  -6  -1  191.18   25.00
  -8   6  -1  192.48   23.60
   8  -6   2   29.80   11.20
   8   6  -2   29.90    9.70
   8  -6   2   32.20   10.50
   8  -6  -2   24.50   11.60
  -8   6  -2   21.20   10.20
   8   6  -3  202.28   24.60
   8  -6   3  155.78   22.20
   8  -6   3  175.38   23.40
  -8   6  -3  139.69   20.90
  -8   6  -3  161.48   21.90
   8  -6  -3  189.28   25.10
  -9   6   0   33.50   12.00
   9  -6   0   23.90   11.30
   9   6  -1   78.49   16.60
   9  -6   1   82.19   17.10
   9  -6  -1  101.19   19.40
  -9   6  -1   97.29   18.10
   0  -7   0   -2.80    3.30
   0   7   0    2.90    2.00
   0   7   1 1676.63   47.50
   0   7  -1 1700.43   51.19
   0  -7   1 1749.92   52.19
   0  -7  -1 1689.03   56.89
   0  -7  -1 1642.04   47.90
   0  -7   2    5.80    3.30
   0  -7  -2    3.00    2.30
   0  -7  -2    8.30    4.20
   0   7  -2    1.60    2.30
   0   7  -2    1.10    2.90
   0  -7  -3  947.01   41.50
   0   7  -3 1068.89   41.00
   0  -7   3  970.40   36.70
   0   7  -3  977.40   36.20
   0  -7  -3 1005.20   34.00
   0  -7  -4   -2.30    4.30
   0   7  -4    0.80    4.90
   0   7  -4    1.00    3.70
   0   7  -5  482.05   32.00
   0   7  -5  446.26   26.60
   0  -7  -5  411.66   30.00
   0   7  -6    3.90    8.30
   0  -7  -6   -4.00    7.90
   1  -7   0 1959.10   61.99
  -1   7   0 1928.41   56.29
   1   7   0 1945.21   52.69
  -1  -7   0 1786.12   59.39
   1   7  -1   75.39    7.70
   1  -7   1   77.09    9.20
  -1   7   1   80.79    8.00
  -1  -7  -1   59.99    8.60
  -1   7  -1   96.39    9.80
   1  -7  -1   84.79    8.80
  -1  -7   1   89.89    7.50
   1  -7  -1   86.39   12.40
   1  -7   2 1586.54   49.99
   1   7  -2 1523.05   46.20
  -1  -7  -2 1507.85   51.89
  -1  -7  -2 1565.34   40.90
   1   7  -2 1423.46   49.10
  -1  -7   2 1466.55   46.50
   1  -7  -2 1550.14   48.60
  -1   7  -2 1525.65   50.99
  -1   7  -2 1478.55   48.80
   1  -7  -2 1518.65   54.69
   1   7  -3   38.60    6.50
  -1  -7  -3   37.40    8.90
   1   7  -3   39.30    8.70
   1  -7   3   47.10    8.50
  -1  -7   3   43.80    6.90
   1  -7  -3   41.90    7.90
  -1   7  -3   44.60    8.20
  -1   7  -3   32.40    7.80
   1  -7  -3   52.29   10.80
  -1  -7  -4  798.32   38.90
   1   7  -4  789.72   38.10
   1   7  -4  765.62   31.90
   1  -7  -4  764.22   38.40
  -1   7  -4  760.02   34.50
  -1   7  -4  783.82   38.00
   1  -7  -4  773.42   39.70
  -1  -7  -5   19.50    9.30
   1   7  -5   25.10   10.90
  -1   7  -5   15.50    7.90
  -1   7  -5   19.00    9.20
   1  -7  -5   10.00    8.00
  -1  -7  -6  364.76   37.60
   1  -7  -6  383.76   30.70
  -1   7  -6  344.27   35.10
  -1   7  -6  314.17   26.40
   2  -7   0 1104.19   41.60
   2   7   0 1151.08   32.90
  -2   7   0 1167.78   39.00
  -2  -7   0 1092.79   35.70
   2  -7   1  150.78   11.20
  -2   7   1  147.79   10.90
   2   7  -1  145.89    9.20
  -2  -7  -1  153.28   10.20
  -2   7  -1  159.78   11.80
   2  -7  -1  157.68   16.80
  -2  -7   1  155.78    9.60
   2  -7  -1  142.59   11.40
  -2   7  -1  152.88   10.70
  -2  -7  -2  869.21   33.90
   2   7  -2  853.11   33.00
   2   7  -2  886.61   28.60
   2  -7   2  842.62   34.00
   2  -7  -2  841.92   37.10
   2  -7  -2  944.31   34.50
  -2   7  -2  880.71   35.50
  -2   7  -2  889.21   33.80
  -2  -7   2  893.21   28.90
   2   7  -3  103.29   13.50
   2   7  -3   87.89    8.90
  -2  -7  -3   77.69   12.10
   2  -7   3   87.69   12.30
  -2   7  -3   61.69   11.00
  -2   7  -3   92.19   11.90
   2  -7  -3  104.59   14.70
   2  -7  -3  108.39   14.00
  -2  -7   3   97.59    9.40
  -2  -7  -4  497.45   29.10
   2   7  -4  444.96   27.40
   2  -7   4  447.66   26.40
  -2   7  -4  455.75   26.30
   2  -7  -4  467.15   28.40
   2  -7  -4  461.35   27.40
  -2   7  -4  466.95   28.70
  -2  -7  -5   51.09   13.40
   2   7  -5   37.60   12.30
   2  -7   5   66.59   13.40
  -2   7  -5   48.50   11.50
   2  -7  -5   49.30   12.40
  -2   7  -5   45.80   12.70
   3  -7   0  577.14   27.20
   3   7   0  545.05   19.20
  -3  -7   0  564.24   19.00
  -3   7   0  565.94   25.60
   3   7  -1   54.19    7.10
  -3  -7  -1   43.70    6.40
   3  -7   1   50.09    8.50
  -3   7   1   53.69    8.90
   3  -7  -1   46.10    8.90
  -3  -7   1   48.60    3.00
   3  -7  -1   60.09   11.00
  -3   7  -1   50.89    8.50
   3   7   1   48.50    3.20
  -3   7  -1   52.39    8.30
   3   7  -2  466.45   22.20
  -3  -7  -2  458.05   21.50
   3  -7   2  464.95   23.60
  -3   7  -2  441.76   22.40
   3  -7  -2  419.26   22.90
   3  -7  -2  416.06   24.30
  -3   7  -2  416.26   23.80
   3  -7   3   20.90    6.50
  -3  -7  -3   27.30    7.30
   3   7  -3   37.30    8.60
  -3   7  -3   32.90    8.10
  -3   7  -3   26.10    8.20
   3  -7  -3   41.80    9.50
   3  -7  -3   29.30    8.10
   3  -7   4  249.38   20.10
  -3  -7  -4  190.68   21.00
   3   7  -4  229.88   23.80
   3  -7  -4  224.68   23.30
   3  -7  -4  224.18   23.00
  -3   7  -4  178.48   21.80
  -3   7  -4  224.98   18.70
   3  -7   5   17.70    8.60
   3   7  -5   13.70    9.10
  -3  -7  -5   17.00    9.80
  -3   7  -5   11.90    7.20
   3  -7  -5   11.70    8.10
  -3   7  -5   14.60    9.40
  -4  -7   0  833.22   25.60
   4  -7   0  869.81   36.90
   4   7   0  859.81   28.90
   4  -7   0  877.21   37.30
  -4   7   0  831.62   35.90
   4  -7   1   90.99   12.50
   4   7  -1  105.09   10.70
  -4  -7  -1   86.39    8.70
  -4   7   1  103.49   13.80
   4  -7  -1  112.89   14.80
   4   7   1   96.99    6.20
   4  -7  -1   96.19   13.80
  -4   7  -1   97.89   13.20
   4  -7   2  699.63   31.80
  -4  -7  -2  675.73   28.30
   4   7  -2  701.13   30.30
  -4   7  -2  636.74   32.50
   4  -7  -2  655.23   31.90
  -4   7  -2  670.33   30.80
   4  -7  -2  667.83   32.50
   4   7  -3   46.10   10.60
   4  -7   3   56.59   11.10
  -4  -7  -3   62.69   10.70
   4  -7  -3   56.19   10.90
   4  -7  -3   79.29   13.60
  -4   7  -3   60.39   11.20
  -4   7  -3   52.89   12.20
  -4  -7  -4  455.95   27.90
   4   7  -4  367.36   27.10
   4  -7   4  433.46   27.70
   4  -7  -4  321.87   23.40
   4  -7  -4  409.56   28.00
  -4   7  -4  356.26   25.40
  -4   7  -4  398.66   28.10
  -4  -7  -5   25.90    9.50
   4   7  -5   38.40   13.20
   4  -7   5   23.80    9.90
  -4   7  -5   32.70   12.00
  -4   7  -5   36.80   12.00
   4  -7  -5   34.80   13.30
   5  -7   0 1208.28   49.30
   5   7   0 1128.19   38.60
  -5   7   0 1128.49   47.20
   5  -7   0 1190.08   47.20
  -5   7   1   14.60    6.90
  -5  -7  -1   27.40    5.20
   5   7  -1   12.80    5.40
   5  -7   1   34.40    8.70
   5  -7  -1   20.60    7.90
   5  -7  -1   18.70    7.90
  -5   7  -1   33.60    8.80
   5   7  -2 1040.60   40.90
   5  -7   2  976.90   42.00
  -5  -7  -2  979.30   37.40
   5  -7  -2  915.81   43.10
  -5   7  -2  928.51   40.90
   5  -7  -2  987.40   41.60
  -5   7  -2 1049.89   44.70
   5  -7   3   45.80   10.70
  -5  -7  -3   25.00    7.50
   5   7  -3   21.90    8.60
   5  -7  -3   17.50    8.20
  -5   7  -3   31.70    9.10
   5  -7  -3   20.80    7.90
  -5   7  -3   18.90    8.60
   5   7  -4  620.04   37.20
   5  -7   4  609.64   35.30
  -5  -7  -4  649.43   35.10
   5  -7  -4  671.03   37.50
  -5   7  -4  605.34   35.20
  -5   7  -4  587.94   36.70
  -5  -7  -5    7.80    8.70
   5   7  -5    6.70    9.70
   5  -7   5   19.30    9.80
   5  -7  -5    6.50   10.60
  -5   7  -5    8.00    8.90
  -5   7  -5   22.90   10.50
   6  -7   0  167.58   20.90
   6  -7   0  185.18   20.20
   6   7   0  176.48   12.90
  -6   7   0  178.88   20.30
  -6   7   1    5.60    6.50
   6  -7   1   10.80    6.70
   6  -7   1    5.80    6.40
   6   7  -1   17.00    6.60
  -6   7  -1    7.40    6.40
   6  -7  -1    7.40    6.90
   6  -7  -1    8.30    6.60
   6   7  -2  121.69   15.30
  -6  -7  -2  128.89   13.70
   6  -7   2  136.99   17.70
  -6   7  -2  126.09   17.40
   6  -7  -2  152.18   17.50
   6  -7  -2  148.59   19.70
  -6   7  -2  132.69   17.10
   6   7  -3   12.50    7.50
   6  -7   3   14.70    7.40
  -6  -7  -3   12.30    6.20
  -6   7  -3   11.50    7.10
  -6   7  -3    6.60    6.80
   6  -7  -3    8.90    7.80
  -6  -7  -4   68.99   13.90
   6  -7   4   84.59   16.40
   6   7  -4   88.09   17.30
  -6   7  -4   83.09   15.60
  -6   7  -4  102.89   18.40
   6  -7  -4   79.79   16.10
  -7   7   0   28.80   10.00
   7  -7   0   17.90    9.20
   7  -7   0    4.40    7.40
   7  -7   1  153.78   19.70
   7  -7   1  132.29   19.90
  -7   7   1  119.99   18.30
   7   7  -1  167.18   17.50
   7  -7  -1  133.69   20.10
  -7   7  -1  106.39   17.40
   7  -7   2   13.10    7.60
   7   7  -2    7.90    6.70
   7  -7  -2   17.50    9.60
  -7   7  -2   12.40    7.70
   7   7  -3  118.49   18.00
   7  -7   3  105.69   17.60
  -7   7  -3  110.59   19.00
  -7   7  -3  106.09   17.00
   7  -7  -3  112.39   18.60
   7  -7   4   19.90   10.60
   7   7  -4   -3.90    8.20
  -7   7  -4   17.80    9.90
   7  -7  -4    3.50    9.50
  -8   7   0   81.29   15.90
   8  -7   0   79.89   16.70
   8  -7   1 1334.97   60.19
   8  -7   1 1316.57   57.39
   8   7  -1 1241.88   50.59
  -8   7  -1 1309.37   58.79
   8  -7  -1 1238.28   59.29
   8  -7   2  136.99   21.00
   8   7  -2   73.59   14.10
   8  -7   2   73.69   15.30
  -8   7  -2  108.69   18.80
   8  -7  -2   85.99   17.70
   8   7  -3  951.40   47.70
   8  -7   3  969.40   49.70
  -8   7  -3  962.70   48.50
   8  -7  -3 1067.99   52.99
  -8   7  -3  986.80   50.29
   9  -7   0  419.96   39.20
  -9   7   0  403.06   31.20
   9  -7   1  367.96   36.40
  -9   7  -1  322.87   33.50
   9  -7  -1  355.56   35.90
   0  -8   0 2608.44   81.39
   0   8   0 2611.34   72.59
   0   8   1    1.50    1.90
   0  -8  -1    5.80    4.40
   0   8  -1    0.70    2.50
   0  -8  -1    6.40    2.50
   0  -8   1    0.10    2.80
   0  -8   2 2169.08   66.69
   0   8  -2 2290.07   68.59
   0  -8  -2 2166.78   72.89
   0   8  -2 2153.48   65.69
   0  -8  -2 2182.28   61.59
   0  -8  -3    2.50    5.30
   0   8  -3   -3.30    3.30
   0   8  -3    1.20    2.90
   0  -8   3    1.30    3.20
   0   8  -4 1171.28   44.90
   0  -8  -4 1214.28   52.49
   0   8  -4 1153.58   49.60
   0  -8   4 1201.18   46.00
   0  -8   5    9.70    7.00
   0  -8  -5    7.50    7.70
   0   8  -5    1.30    6.30
   0   8  -5    8.70    6.30
   1   8   0  487.15   17.00
  -1  -8   0  489.05   23.50
  -1   8   0  467.95   19.60
   1  -8   0  527.55   25.50
   1   8  -1  384.76   16.70
   1  -8   1  376.26   19.10
  -1  -8  -1  370.86   20.20
  -1   8   1  392.26   16.80
  -1  -8   1  388.46   18.20
  -1   8  -1  396.96   18.70
   1  -8  -1  390.46   23.30
   1  -8  -1  391.96   17.50
   1   8  -2  379.86   19.30
   1  -8   2  396.36   20.00
   1   8  -2  367.46   17.00
  -1  -8  -2  367.36   21.30
  -1   8  -2  392.46   20.60
   1  -8  -2  336.47   22.50
  -1  -8   2  428.86   18.30
   1  -8  -2  413.16   18.70
  -1   8  -2  392.46   19.20
   1   8  -3  245.28   14.30
   1  -8   3  284.87   17.50
  -1  -8  -3  237.58   17.90
   1   8  -3  228.98   17.00
   1  -8  -3  224.58   14.70
   1  -8  -3  215.38   18.50
  -1   8  -3  262.07   18.00
  -1   8  -3  220.88   15.60
  -1  -8   3  225.38   14.10
  -1  -8  -4  210.98   23.30
   1  -8   4  207.28   20.40
   1   8  -4  225.48   15.50
   1   8  -4  234.58   23.20
  -1   8  -4  184.68   21.00
  -1  -8   4  209.58   15.50
   1  -8  -4  203.28   22.90
  -1   8  -4  187.18   18.70
  -1  -8  -5   74.79   16.60
   1   8  -5   73.49   15.50
   1  -8   5  106.29   16.30
  -1   8  -5  132.69   19.70
   1  -8  -5  130.89   20.20
  -1   8  -5  128.89   17.30
   2  -8   0 4442.96  129.99
  -2   8   0 4338.87  124.49
  -2  -8   0 4518.95  122.79
   2   8   0 4550.34  117.79
   2  -8   1  872.41   34.90
  -2  -8  -1  896.11   33.20
   2   8  -1  919.01   30.90
  -2   8   1  920.91   33.50
  -2   8  -1  855.51   34.40
   2  -8  -1  977.80   35.30
   2  -8  -1  970.00   40.10
  -2  -8   1  907.31   31.70
  -2  -8  -2 3843.22  112.29
   2  -8   2 3728.93  111.89
   2   8  -2 3820.02  109.99
   2  -8  -2 3821.62  116.99
  -2   8  -2 3867.21  111.29
  -2   8  -2 3817.12  113.59
   2  -8  -2 4028.70  111.09
  -2  -8   2 3744.13  104.99
   2   8  -3  575.14   28.40
   2   8  -3  574.54   22.60
   2  -8   3  519.05   27.00
  -2  -8  -3  555.44   28.90
  -2   8  -3  602.94   29.70
  -2  -8   3  559.04   23.00
   2  -8  -3  551.84   30.30
  -2   8  -3  548.75   27.50
   2  -8  -3  530.45   27.10
   2   8  -4 2429.26   83.79
  -2  -8  -4 2436.66   84.69
   2  -8   4 2345.87   81.39
   2  -8  -4 2324.17   84.29
  -2   8  -4 2379.86   80.89
  -2   8  -4 2320.47   83.79
   2  -8  -4 2559.84   82.19
   2  -8   5  283.07   23.10
   2   8  -5  245.98   27.90
  -2  -8  -5  350.36   27.70
  -2   8  -5  291.57   23.40
  -2   8  -5  253.67   28.40
   2  -8  -5  270.77   28.50
  -3   8   0 1761.22   58.09
   3  -8   0 1657.63   60.39
  -3  -8   0 1830.32   50.79
   3   8   0 1733.03   49.99
  -3  -8  -1   77.69    8.70
   3  -8   1   76.29   11.10
   3   8  -1   56.09    7.20
  -3   8   1   93.09   11.60
  -3   8  -1   62.99   10.30
   3   8   1   54.99    3.20
   3  -8  -1   70.49   11.00
  -3  -8   1   69.79    4.70
   3  -8  -1   79.39   13.00
   3   8  -2 1405.76   48.80
   3  -8   2 1467.45   52.19
  -3  -8  -2 1406.26   49.10
   3  -8  -2 1471.25   52.09
  -3   8  -2 1382.46   50.59
   3  -8  -2 1393.76   53.89
  -3   8  -2 1457.45   53.49
  -3  -8  -3   40.10    8.90
   3  -8   3   40.20    9.40
   3   8  -3   41.80    9.60
   3  -8  -3   63.99   12.60
  -3   8  -3   45.60    9.60
  -3   8  -3   44.60   10.30
   3  -8  -3   46.10   10.30
  -3  -8  -4  870.91   41.40
   3   8  -4  787.32   40.40
   3  -8   4  806.72   39.50
   3  -8  -4  797.12   40.10
   3  -8  -4  809.22   39.70
  -3   8  -4  797.32   41.40
  -3   8  -4  825.92   39.60
   3   8  -5   30.70   11.50
   3  -8   5   16.40    8.70
  -3  -8  -5   19.10   10.20
  -3   8  -5   38.50   11.40
  -3   8  -5   27.00   11.40
   3  -8  -5   33.20   10.70
   4   8   0  149.79    9.10
   4  -8   0  173.78   18.30
  -4   8   0  143.69   15.70
  -4  -8   0  151.98    7.70
  -4  -8  -1  245.38   13.10
  -4   8   1  209.58   20.30
   4   8  -1  239.78   14.30
   4  -8   1  276.57   18.50
   4  -8  -1  244.68   19.60
   4  -8  -1  267.17   19.60
  -4   8  -1  263.47   18.40
   4   8  -2  128.49   14.10
   4  -8   2  126.79   15.80
  -4  -8  -2  104.19   12.10
   4  -8  -2  118.69   15.80
   4  -8  -2  130.19   16.30
  -4   8  -2  133.39   15.50
  -4   8  -2  127.99   16.40
  -4  -8  -3  171.78   18.20
   4  -8   3  169.18   19.00
   4   8  -3  142.59   17.50
   4  -8  -3  172.38   19.30
   4  -8  -3  154.68   18.40
  -4   8  -3  164.08   19.80
  -4   8  -3  127.89   16.40
  -4  -8  -4   48.50   12.00
   4   8  -4   60.49   13.40
   4  -8   4   54.09   12.30
   4  -8  -4   61.19   12.60
   4  -8  -4   59.09   12.90
  -4   8  -4   62.99   12.80
  -4   8  -4   57.69   13.50
  -4  -8  -5   76.29   16.70
   4  -8   5   67.79   15.10
   4   8  -5   81.89   17.90
  -4   8  -5   78.79   16.70
  -4   8  -5   69.79   15.20
   5   8   0 1234.08   41.30
   5  -8   0 1247.78   52.09
  -5   8   0 1300.27   51.39
   5  -8   0 1319.27   51.99
  -5  -8  -1  995.70   34.30
   5  -8   1  939.61   41.70
   5   8  -1 1005.60   37.20
  -5   8   1 1004.90   43.90
   5  -8  -1  975.00   44.80
  -5   8  -1 1004.50   43.20
   5  -8  -1 1037.50   45.30
  -5  -8  -2 1017.50   40.00
   5   8  -2 1144.49   43.80
   5  -8   2 1123.79   46.20
  -5   8  -2 1139.59   48.50
   5  -8  -2 1115.19   46.10
  -5   8  -2 1071.99   45.30
   5  -8  -2 1041.90   47.30
   5   8  -3  723.63   36.30
   5  -8   3  801.72   38.00
  -5  -8  -3  685.83   33.80
   5  -8  -3  723.03   37.10
  -5   8  -3  695.93   38.10
  -5   8  -3  701.33   35.80
   5  -8  -3  670.53   34.60
  -5  -8  -4  643.84   35.70
   5   8  -4  654.73   37.70
   5  -8   4  577.24   35.90
   5  -8  -4  634.44   36.60
  -5   8  -4  591.64   37.50
  -5   8  -4  666.83   36.70
   5  -8   5  384.46   30.70
   5   8  -5  470.25   35.50
  -5   8  -5  436.86   34.60
   5  -8  -5  380.96   36.30
   6  -8   0  708.23   37.00
   6   8   0  692.33   28.80
  -6   8   0  770.02   37.80
   6  -8   0  733.03   38.60
   6  -8   1   71.89   13.70
   6   8  -1   82.99   11.20
  -6   8   1   75.49   13.80
  -6   8  -1   41.40   10.30
   6  -8  -1   53.29   12.40
   6  -8  -1   75.09   14.60
   6   8  -2  508.05   28.40
   6  -8   2  585.24   32.00
  -6   8  -2  531.15   32.30
   6  -8  -2  554.44   30.60
   6  -8  -2  574.74   33.70
  -6   8  -2  554.84   30.90
  -6  -8  -3   51.79   11.30
   6  -8   3   70.79   14.40
   6   8  -3   43.80   11.80
   6  -8  -3   38.40   11.30
  -6   8  -3   76.49   14.80
  -6   8  -3   17.80    9.40
   6   8  -4  341.17   32.80
  -6  -8  -4  368.86   26.90
   6  -8   4  319.17   26.90
  -6   8  -4  302.67   25.60
  -6   8  -4  383.66   36.00
   6  -8  -4  367.16   28.10
   7  -8   0   21.80   10.20
   7  -8   0   23.60    9.40
  -7   8   0   24.20    9.20
   7   8  -1   26.90    7.50
   7  -8   1   26.90   10.70
   7  -8   1   18.50    9.10
  -7   8   1   15.80    8.60
  -7   8  -1   16.40    9.00
   7  -8  -1   31.90   11.50
   7  -8  -1   38.30   16.70
   7  -8   2   16.50    8.40
   7   8  -2   22.50    8.30
   7  -8  -2   19.20    9.20
  -7   8  -2   29.90   10.60
   7   8  -3   20.30    9.90
   7  -8   3   14.80    8.80
  -7   8  -3   13.70    8.30
   7  -8  -3   26.90   10.80
  -7   8  -3   21.10   10.40
  -8   8   0   12.60    9.10
   8  -8   0   -4.80    7.20
   8  -8   1   56.29   13.30
   8  -8   1   34.50   12.50
  -8   8  -1   28.70   11.20
   8  -8  -1   25.00   11.00
   8   8  -2    6.80    7.70
   8  -8   2    5.90    9.50
   8  -8   2    8.60    8.10
   8  -8  -2    9.80    9.00
  -8   8  -2    9.50    8.70
  -9   8   0  110.69   19.70
   9  -8   0  101.39   19.90
   9  -8   1  120.19   21.70
   9  -8  -1  149.99   24.10
  -9   8  -1  142.59   22.60
   0  -9   0   -1.10    3.40
   0   9   0    1.10    1.80
   0  -9  -1  282.57   19.20
   0  -9   1  240.98   15.40
   0   9  -1  260.37   14.00
   0  -9  -1  270.67   12.00
   0   9   1  265.47   11.50
   0  -9   2   -0.50    2.70
   0   9  -2    4.40    3.70
   0  -9  -2    0.00    3.10
   0   9  -2    0.50    2.60
   0  -9  -2    1.20    2.20
   0  -9  -3  143.29   17.90
   0  -9   3  160.08   13.30
   0   9  -3  165.88   12.80
   0   9  -3  161.98   16.90
   0   9  -4    0.80    4.80
   0   9  -4    3.10    4.50
   0  -9   4    0.90    3.80
   0  -9  -4    6.30    6.70
   0  -9   5   78.69   13.80
   0  -9  -5   81.19   17.10
   0   9  -5   90.89   17.30
   0   9  -5   86.69   14.50
  -1  -9   0  142.09   14.80
   1  -9   0  160.98   17.20
   1   9   0  129.79    7.60
  -1   9   0  129.19    9.30
  -1  -9  -1 1536.65   41.50
  -1  -9  -1 1566.24   53.99
   1   9  -1 1444.46   47.30
   1  -9   1 1549.64   52.49
  -1   9   1 1509.25   47.40
   1  -9  -1 1484.55   48.30
  -1   9  -1 1566.14   50.49
   1   9   1 1527.35   41.50
   1  -9  -1 1631.04   58.39
  -1  -9   1 1587.44   51.09
   1  -9   2  116.59   13.10
   1   9  -2  106.09   11.60
  -1  -9  -2  104.19   13.70
  -1  -9   2  113.09    9.70
   1  -9  -2   93.59   14.20
  -1   9  -2  134.89   11.10
   1  -9  -2  115.29   11.00
  -1   9  -2  103.89   12.60
   1   9  -3  936.21   39.30
   1  -9   3  933.61   38.70
  -1  -9  -3 1025.20   43.50
   1   9  -3  931.41   34.90
   1  -9  -3  943.21   43.40
  -1  -9   3  950.10   35.50
  -1   9  -3  953.00   40.40
   1  -9  -3  977.80   35.80
  -1   9  -3  919.41   37.40
  -1  -9  -4   65.99   13.70
   1   9  -4   73.59   13.60
   1   9  -4   59.09    9.50
   1  -9   4   63.09   11.40
   1  -9  -4   53.19   12.80
  -1  -9   4   44.90    8.90
  -1   9  -4   34.70    9.90
  -1   9  -4   68.19   11.80
   1   9  -5  525.75   34.00
  -1  -9  -5  512.15   34.90
   1  -9   5  452.05   29.00
  -1   9  -5  499.05   33.50
   1  -9  -5  397.06   31.00
  -1   9  -5  523.25   30.70
   2   9   0   62.19    5.80
  -2   9   0   51.89    7.80
   2  -9   0   50.79   10.00
  -2  -9   0   53.19    7.90
  -2   9   1  267.67   15.40
   2   9  -1  265.37   13.60
  -2  -9  -1  280.17   16.20
   2  -9   1  329.77   18.60
   2  -9  -1  278.47   16.70
  -2  -9   1  257.37   14.70
   2  -9  -1  265.77   20.20
  -2   9  -1  272.07   16.80
   2   9  -2   29.10    6.60
  -2  -9  -2   40.10    8.50
   2  -9   2   40.90    8.60
  -2  -9   2   47.90    7.00
   2  -9  -2   28.00    6.90
  -2   9  -2   37.70    8.30
  -2   9  -2   48.60    8.80
   2  -9  -2   29.80    8.70
   2   9  -3  167.48   17.70
   2  -9   3  230.98   17.40
  -2  -9  -3  151.78   17.90
   2  -9  -3  179.58   20.40
  -2   9  -3  206.38   20.40
   2  -9  -3  175.28   17.40
  -2   9  -3  141.39   16.00
   2   9  -4    9.00    6.90
   2  -9   4   14.50    7.10
  -2  -9  -4   10.30    7.10
   2  -9  -4    9.00    7.30
  -2   9  -4   25.70    8.40
  -2   9  -4   20.30    8.10
   2   9  -5   90.99   17.40
  -2  -9  -5   68.29   16.00
   2  -9   5   76.69   14.50
  -2   9  -5   74.39   14.40
   2  -9  -5   83.39   16.10
  -2   9  -5   80.79   16.40
   3  -9   0  815.82   37.30
  -3   9   0  865.31   34.50
  -3  -9   0  847.72   28.60
   3   9   0  846.32   26.90
   3   9  -1   13.20    4.00
  -3   9   1   10.40    4.60
   3  -9   1   10.00    4.80
  -3  -9  -1   10.80    4.30
   3  -9  -1   15.50    6.10
   3  -9  -1   14.50    6.70
  -3  -9   1    9.50    3.20
  -3   9  -1    6.00    4.50
   3   9  -2  694.63   30.00
   3  -9   2  743.33   33.60
  -3  -9  -2  729.53   31.20
   3  -9  -2  707.13   35.20
   3  -9  -2  702.43   32.50
  -3   9  -2  762.72   35.00
  -3   9  -2  746.53   32.90
   3   9  -3   10.70    6.10
   3  -9   3    8.70    5.00
  -3  -9  -3    5.50    5.30
  -3   9  -3    7.70    4.90
   3  -9  -3    6.30    5.70
  -3   9  -3   -1.60    4.40
   3  -9  -3   15.50    7.50
   3  -9   4  395.06   26.30
   3   9  -4  347.87   25.60
  -3  -9  -4  375.66   26.80
  -3   9  -4  421.66   28.80
   3  -9  -4  383.46   25.70
  -3   9  -4  384.56   25.80
   3   9  -5    0.70    7.70
  -3  -9  -5    5.30    7.50
   3  -9   5    1.70    6.00
   3  -9  -5    0.60    8.00
  -3   9  -5   11.00   10.20
  -3   9  -5   -1.30    6.50
  -4   9   0  356.06   21.30
   4   9   0  362.56   15.50
   4  -9   0  384.66   23.80
  -4  -9  -1  312.57   15.70
  -4   9   1  318.27   20.70
   4  -9   1  336.97   21.40
   4   9  -1  342.27   17.10
   4  -9  -1  328.97   22.40
   4  -9  -1  299.27   22.80
  -4   9  -1  320.47   21.10
   4   9  -2  258.27   17.50
  -4  -9  -2  300.57   18.10
   4  -9   2  333.27   21.80
   4  -9  -2  286.57   20.80
   4  -9  -2  296.07   21.60
  -4   9  -2  329.47   22.50
  -4   9  -2  324.87   21.10
   4  -9   3  226.18   19.20
  -4  -9  -3  238.68   18.50
   4   9  -3  217.98   21.00
  -4   9  -3  229.28   23.90
   4  -9  -3  230.58   21.90
  -4   9  -3  161.48   19.00
   4  -9  -3  201.78   21.80
  -4  -9  -4  143.99   19.40
   4  -9   4  100.59   16.90
   4   9  -4  214.28   24.00
   4  -9  -4  188.88   20.90
  -4   9  -4  158.98   21.90
   4  -9  -4  162.78   20.40
  -4   9  -4  197.38   22.70
  -4  -9  -5  153.78   22.90
   4  -9   5  138.19   20.70
   4   9  -5  141.09   22.60
  -4   9  -5   99.29   17.40
  -4   9  -5  142.49   23.00
  -5   9   0   18.10    7.20
   5   9   0   25.70    5.20
   5  -9   0   13.70    7.70
   5  -9   0   14.20    7.60
   5   9  -1  492.05   22.80
   5  -9   1  499.75   28.60
  -5   9   1  450.55   27.70
   5  -9  -1  493.05   30.10
   5  -9  -1  464.75   29.20
  -5   9  -1  491.35   28.20
  -5  -9  -2   12.40    5.50
   5  -9   2    6.10    6.00
   5   9  -2   12.10    6.10
  -5   9  -2   10.90    7.20
   5  -9  -2   24.50    8.80
   5  -9  -2   12.50    6.90
  -5   9  -2    9.10    6.10
  -5  -9  -3  327.37   22.20
   5  -9   3  286.07   23.30
   5   9  -3  337.37   23.70
   5  -9  -3  369.16   24.70
   5  -9  -3  307.37   23.60
  -5   9  -3  371.26   26.90
  -5   9  -3  333.97   24.20
   5  -9   4   10.90    8.10
  -5  -9  -4    3.90    6.90
   5   9  -4   26.90   11.20
   5  -9  -4   -0.60    6.90
  -5   9  -4   10.10    7.90
  -5   9  -4    6.80    8.40
   6  -9   0 1551.04   61.19
  -6   9   0 1368.86   57.19
   6  -9   0 1352.86   57.89
  -6   9   1  135.59   18.70
   6  -9   1  127.39   17.90
   6   9  -1  144.99   14.40
   6  -9  -1  180.38   21.40
   6  -9  -1  118.49   18.70
  -6   9  -1  146.19   18.80
   6   9  -2 1178.08   47.70
   6  -9   2 1204.18   52.39
   6  -9  -2 1159.68   50.39
   6  -9  -2 1208.58   54.19
  -6   9  -2 1287.67   54.59
   6  -9   3   88.69   16.20
  -6  -9  -3   92.69   13.90
   6   9  -3   90.79   15.10
  -6   9  -3   85.99   15.50
   6  -9  -3   85.99   16.40
  -6   9  -3  112.49   18.50
  -6  -9  -4  898.01   44.30
   6  -9   4  895.61   47.00
   6   9  -4  735.73   42.80
  -6   9  -4  782.62   46.00
  -6   9  -4  793.62   43.90
   6  -9  -4  861.41   44.40
   7  -9   0  326.87   31.80
   7  -9   0  301.57   25.20
  -7   9   0  300.67   29.50
  -7   9   1  115.49   18.00
   7  -9   1   84.29   17.20
   7   9  -1  114.19   13.90
   7  -9   1  135.79   20.10
  -7   9  -1  115.79   18.40
   7  -9  -1  147.39   19.90
   7  -9  -1  129.99   20.90
   7  -9   2  297.67   24.20
   7   9  -2  277.77   21.30
  -7   9  -2  296.37   29.30
   7  -9  -2  283.97   29.80
   7   9  -3   74.59   15.10
   7  -9   3  109.79   18.20
  -7   9  -3   94.39   16.50
   7  -9  -3   98.99   17.80
  -7   9  -3   72.59   16.60
   8  -9   0  595.24   38.60
  -8   9   0  548.95   36.20
   8  -9   1   40.60   12.20
   8  -9   1   67.19   16.20
  -8   9  -1   27.50   11.00
   8  -9  -1   39.30   13.40
   8   9  -2  472.45   29.40
   8  -9   2  486.05   35.10
   8  -9   2  480.95   33.60
   8  -9  -2  523.65   35.50
  -8   9  -2  505.95   35.20
  -9   9   0   -0.90    8.00
   9  -9   0    1.40    8.40
   0 -10   0 2924.41   93.79
   0  10   0 3013.80   83.59
   0  10  -1    3.20    3.30
   0 -10   1   -0.60    3.50
   0 -10  -1    0.50    2.10
   0 -10  -1    2.40    4.60
   0 -10  -2 2470.55   82.89
   0  10  -2 2442.36   75.69
   0 -10   2 2367.46   75.19
   0 -10   3    1.00    3.50
   0 -10  -3   -5.20    4.30
   0  10  -3   -0.30    4.20
   0  10  -3   -2.60    2.90
   0  10  -4 1381.56   51.69
   0  10  -4 1425.56   57.69
   0 -10  -4 1463.75   61.39
   0 -10   4 1378.96   52.99
   0  10  -5    4.90    5.60
   0 -10  -5    7.50    8.50
   0  10  -5   -0.10    6.30
   0 -10   5    4.20    6.00
  -1 -10   0  107.39   13.70
   1  10   0  117.59    7.40
   1 -10   0  137.99   16.70
  -1  10   0  117.99    9.30
  -1 -10  -1  350.36   11.90
  -1 -10  -1  366.56   21.50
   1 -10   1  340.97   20.10
   1  10  -1  335.47   16.10
  -1  10   1  343.47   16.20
  -1  10  -1  324.27   17.90
   1 -10  -1  344.97   23.10
   1  10   1  342.57   11.60
  -1 -10   1  361.86   19.40
   1 -10  -1  335.37   16.90
   1  10  -2   92.99   11.40
   1 -10   2   95.69   12.20
  -1 -10  -2  111.99   15.30
   1 -10  -2   81.29   14.10
  -1 -10   2   90.49   10.30
  -1  10  -2   88.09   11.00
  -1  10  -2   92.59   12.30
   1 -10  -2   96.69   10.40
  -1 -10  -3  229.68   23.10
   1  10  -3  168.08   17.90
   1 -10   3  205.78   16.20
   1  10  -3  215.68   14.30
  -1  10  -3  170.78   18.70
  -1 -10   3  222.98   14.70
   1 -10  -3  178.78   21.20
  -1  10  -3  200.18   15.40
  -1 -10  -4   48.40   12.90
   1  10  -4   42.10    9.70
   1  10  -4   57.19   12.40
   1 -10   4   57.99   11.40
   1 -10  -4   45.20   12.50
  -1  10  -4   55.99   11.90
  -1  10  -4   42.10    9.50
  -1 -10  -5  125.19   20.80
   1 -10   5   86.39   15.60
   1  10  -5  100.99   18.00
   1 -10  -5  105.79   19.20
  -1  10  -5   93.09   15.50
  -1  10  -5   77.69   16.40
   2 -10   0   20.70    7.20
  -2  10   0   10.10    4.50
  -2 -10   0   12.20    5.00
   2  10   0    9.80    2.60
  -2 -10  -1  483.65   24.10
   2 -10   1  513.15   26.10
   2  10  -1  502.15   20.70
  -2  10   1  499.45   22.80
  -2  10  -1  505.35   24.70
   2 -10  -1  512.75   29.20
  -2 -10   1  530.45   23.60
   2 -10  -1  500.65   24.00
   2 -10   2    9.20    5.40
  -2 -10  -2   13.30    5.90
   2  10  -2    7.80    4.20
  -2  10  -2    2.00    3.90
  -2  10  -2    0.70    4.10
   2 -10  -2   11.70    6.40
   2 -10  -2   12.00    5.30
  -2 -10   2    7.50    4.10
   2  10  -3  335.07   21.00
  -2 -10  -3  274.17   20.70
   2 -10   3  290.37   20.50
   2 -10  -3  274.97   18.50
  -2  10  -3  277.67   20.40
   2 -10  -3  317.77   23.60
  -2  10  -3  272.07   19.30
   2 -10   4    3.70    6.60
   2  10  -4    4.70    6.70
  -2 -10  -4   -0.50    5.60
   2 -10  -4    1.70    6.10
  -2  10  -4    5.30    6.60
  -2  10  -4   -2.10    4.40
   2 -10   5  153.98   20.40
  -2 -10  -5  175.58   25.80
   2  10  -5  191.58   24.90
  -2  10  -5  124.79   18.20
   2 -10  -5  145.29   22.30
  -2  10  -5  139.09   21.80
   3  10   0  151.88    8.30
   3 -10   0  151.98   18.10
  -3  10   0  137.19   14.30
  -3 -10   0  133.59    9.50
  -3 -10  -1  689.23   28.30
   3 -10   1  666.03   32.60
  -3  10   1  722.33   30.90
   3  10  -1  722.03   26.80
   3 -10  -1  745.23   37.30
   3 -10  -1  712.23   32.50
  -3  10  -1  682.43   31.50
   3 -10   2   96.39   13.70
  -3 -10  -2  106.19   13.10
   3  10  -2   97.39   11.70
  -3  10  -2  115.29   14.50
  -3  10  -2  101.29   14.40
   3 -10  -2   95.99   15.10
   3 -10  -2   98.69   13.10
  -3 -10  -3  471.95   27.20
   3  10  -3  452.85   26.10
   3 -10   3  413.36   26.60
  -3  10  -3  516.65   28.30
   3 -10  -3  464.75   26.30
  -3  10  -3  520.85   29.90
   3 -10  -3  497.55   29.80
   3 -10   4   51.69   11.90
   3  10  -4   49.40   12.20
  -3 -10  -4   58.29   12.60
  -3  10  -4   50.79   11.50
   3 -10  -4   35.20   10.90
  -3  10  -4   58.69   13.90
  -3 -10  -5  337.27   34.30
   3  10  -5  245.38   28.90
   3 -10   5  236.88   27.10
   3 -10  -5  289.77   30.30
  -3  10  -5  332.57   26.40
  -3  10  -5  291.67   32.50
   4  10   0   35.40    5.30
  -4  10   0   28.00    7.80
   4 -10   0   30.30    9.30
   4  10  -1  152.68   11.20
  -4  10   1  140.79   16.40
  -4 -10  -1  150.38   11.00
   4 -10   1  159.98   18.50
   4 -10  -1  151.18   19.80
   4 -10  -1  144.79   18.10
  -4  10  -1  181.48   18.70
  -4 -10  -2   23.40    7.00
   4 -10   2   26.70    8.60
   4  10  -2   20.20    6.40
   4 -10  -2   15.40    6.80
  -4  10  -2   20.90    7.10
  -4  10  -2   18.40    7.10
   4 -10  -2   28.00    9.00
  -4 -10  -3  108.39   15.00
   4  10  -3   88.69   13.50
   4 -10   3  103.89   15.90
  -4  10  -3   80.19   14.10
   4 -10  -3   96.49   15.80
  -4  10  -3  109.39   16.90
   4 -10  -3  107.69   15.20
   4  10  -4   22.60    9.90
   4 -10   4   17.30    8.90
  -4 -10  -4   21.30    9.20
   4 -10  -4   24.10    9.40
   4 -10  -4   25.70   10.30
  -4  10  -4   18.80    9.50
  -4  10  -4   18.60    9.10
  -4 -10  -5   53.09   14.10
   4  10  -5   46.60   14.30
   4 -10   5   57.59   14.60
  -4  10  -5   31.50   12.00
  -4  10  -5   64.09   16.20
   4 -10  -5   47.70   12.50
   5 -10   0  286.87   22.80
   5 -10   0  343.57   24.00
  -5  10   0  270.47   20.20
   5  10  -1  334.27   18.30
   5 -10   1  318.87   23.60
  -5  10   1  327.37   23.00
  -5  10  -1  317.07   22.70
   5 -10  -1  284.77   23.80
   5 -10  -1  356.86   25.30
   5 -10   2  225.88   23.30
  -5 -10  -2  237.18   16.20
   5  10  -2  244.68   17.80
  -5  10  -2  238.08   24.30
   5 -10  -2  249.88   20.80
   5 -10  -2  232.28   23.90
   5 -10   3  242.88   25.30
  -5 -10  -3  226.68   19.00
   5  10  -3  260.17   24.10
  -5  10  -3  194.68   24.30
   5 -10  -3  225.38   23.00
  -5  10  -3  221.98   23.70
   5 -10  -3  190.68   22.00
   5 -10   4  124.59   19.80
  -5 -10  -4  160.58   21.10
   5  10  -4  152.68   21.90
   5 -10  -4  141.69   21.90
  -5  10  -4  151.98   21.30
   5 -10  -4  115.49   18.10
  -5  10  -4  137.39   21.80
   6 -10   0  681.23   37.30
  -6  10   0  615.04   34.50
   6 -10   0  574.94   35.20
   6  10  -1   10.90    5.40
   6 -10   1   10.30    8.10
  -6  10   1   16.80    8.30
  -6  10  -1    9.50    7.10
   6 -10  -1   31.50   10.70
   6 -10  -1   13.60    8.40
   6 -10   2  511.35   31.90
   6  10  -2  518.45   28.80
   6 -10  -2  565.94   34.50
   6 -10  -2  527.65   31.90
  -6  10  -2  604.54   34.90
   6  10  -3   16.40    8.60
   6 -10   3   16.00    8.90
  -6 -10  -3    9.70    6.50
  -6  10  -3   22.20    9.10
   6 -10  -3    7.80    8.70
  -6  10  -3   15.80    9.30
  -6 -10  -4  330.17   26.00
   6 -10   4  330.37   33.80
   6  10  -4  376.16   29.30
  -6  10  -4  398.06   32.10
   6 -10  -4  346.07   28.00
  -6  10  -4  370.56   29.00
   7 -10   0    5.30    7.70
  -7  10   0    0.80    6.10
   7 -10   0   -4.80    6.60
   7 -10   1 1635.84   68.79
   7 -10   1 1572.84   66.69
  -7  10   1 1692.73   67.49
   7 -10  -1 1589.74   66.69
  -7  10  -1 1672.63   67.69
   7 -10  -1 1542.65   67.89
   7  10  -2   -4.60    4.80
   7 -10   2    9.30    8.90
  -7  10  -2   -6.40    5.60
   7 -10  -2    4.60    7.60
   7 -10   3 1203.88   58.09
   7  10  -3 1280.97   55.39
   7 -10  -3 1320.67   59.39
  -7  10  -3 1287.97   60.49
  -8  10   0   -2.50    7.40
   8 -10   0    1.90    9.50
   8 -10   0   -2.10    7.90
   8 -10   1   -1.30    7.20
   8 -10   1    1.30    8.60
  -8  10  -1   -4.20    6.60
   8 -10  -1   -4.30    7.00
   8 -10   2   -4.60    8.20
   8 -10   2    8.00    9.50
  -8  10  -2    8.30   10.00
   8 -10  -2    8.70    9.30
   0 -11   0   -0.50    4.80
   0  11   0   16.50    4.10
   0 -11  -1  282.17   13.20
   0  11   1  278.47   12.50
   0 -11  -1  275.67   20.80
   0  11  -1  255.97   14.90
   0 -11   1  266.07   17.80
   0 -11  -2    4.50    4.80
   0 -11   2    1.50    3.80
   0  11  -2   -2.70    2.90
   0 -11   3  198.18   15.10
   0  11  -3  136.09   16.40
   0  11  -3  175.88   14.10
   0 -11  -3  163.18   21.10
   0 -11  -4   -7.50    4.90
   0  11  -4   -5.90    4.70
   0 -11   4   -3.00    3.70
   0  11  -4    3.30    5.40
   0 -11  -5   86.19   18.30
   0  11  -5  107.69   18.70
   1 -11   0    4.40    5.30
   1  11   0    0.70    2.20
  -1 -11   0    8.60    5.70
  -1  11   0    2.40    3.10
  -1  11   1 2640.44   74.79
   1  11  -1 2608.04   75.29
  -1 -11  -1 2605.34   83.79
   1 -11   1 2495.15   81.89
   1 -11  -1 2436.26   86.79
   1 -11  -1 2483.65   75.69
  -1 -11   1 2595.14   80.49
  -1  11  -1 2574.54   78.29
  -1 -11  -2    3.70    5.10
   1  11  -2   -0.60    3.20
   1 -11   2   -1.20    3.50
  -1 -11   2    3.20    3.90
   1 -11  -2    1.40    3.60
   1 -11  -2    1.70    4.30
  -1  11  -2   -1.50    3.60
  -1 -11  -3 1718.13   67.99
   1 -11   3 1713.13   62.79
   1  11  -3 1915.51   64.19
  -1 -11   3 1774.52   59.49
   1 -11  -3 1756.42   69.39
  -1  11  -3 1820.82   65.09
  -1  11  -3 1819.92   62.59
   1  11  -4    1.10    5.60
   1 -11   4   12.60    6.90
  -1 -11  -4   -1.30    4.00
   1 -11  -4   -5.00    5.80
  -1  11  -4    5.00    5.20
  -1  11  -4    1.00    5.30
   1 -11   5 1011.00   46.50
   1  11  -5  893.41   47.90
  -1 -11  -5  832.12   48.70
  -1  11  -5  960.10   49.90
  -1  11  -5  912.21   44.00
   1 -11  -5  950.80   50.89
  -2  11   0  372.46   19.40
   2  11   0  363.46   14.60
  -2 -11   0  353.26   19.50
   2 -11   0  351.36   23.80
  -2  11   1    5.90    3.50
   2 -11   1   -0.60    3.30
   2  11  -1    1.60    2.80
   2 -11  -1    9.00    4.30
  -2 -11   1   12.60    5.20
  -2  11  -1    3.80    4.10
   2 -11  -1    0.30    5.40
   2 -11   2  281.67   19.80
   2  11  -2  261.47   16.70
  -2 -11  -2  285.67   19.70
  -2 -11   2  294.97   16.50
   2 -11  -2  319.27   23.70
  -2  11  -2  282.77   19.50
   2 -11  -2  263.67   17.20
  -2 -11  -3    5.10    4.50
   2 -11   3   -3.80    4.00
   2  11  -3   -1.00    4.20
  -2  11  -3   -1.60    4.70
   2 -11  -3   -0.40    5.50
  -2  11  -3   -4.10    3.30
   2 -11   4  145.69   18.70
  -2 -11  -4  149.99   21.10
   2  11  -4  130.49   18.30
  -2  11  -4  138.19   19.90
   2 -11  -4  188.08   23.70
  -2  11  -4  151.28   18.50
  -2 -11  -5   -5.60    6.80
   2 -11   5    5.20    7.00
   2  11  -5    4.20    8.50
   2 -11  -5   -1.80    7.00
  -2  11  -5    4.00    7.20
  -2  11  -5   -1.10    7.40
   3 -11   0 1576.44   59.09
   3  11   0 1481.55   43.90
  -3 -11   0 1470.45   48.00
  -3  11   0 1461.85   52.29
   3 -11   1 2199.18   74.99
   3  11  -1 2159.08   64.69
  -3  11   1 2184.38   69.99
  -3 -11  -1 2022.80   66.99
  -3  11  -1 2158.98   71.89
   3 -11  -1 2150.28   78.49
   3 -11  -1 2235.38   72.89
   3 -11   2 1230.58   50.29
  -3 -11  -2 1228.78   47.10
   3  11  -2 1299.37   45.60
  -3  11  -2 1226.08   50.29
   3 -11  -2 1280.67   53.49
   3 -11  -2 1203.88   47.50
   3  11  -3 1541.95   57.69
   3 -11   3 1545.05   60.79
  -3 -11  -3 1570.54   60.19
   3 -11  -3 1615.84   57.39
  -3  11  -3 1570.94   61.89
   3 -11  -3 1546.45   62.59
  -3  11  -3 1530.15   59.69
   3  11  -4  736.93   39.00
  -3 -11  -4  795.92   41.40
   3 -11   4  754.12   40.20
  -3  11  -4  743.63   39.10
  -3  11  -4  752.52   41.30
   3 -11  -4  702.63   39.40
   3  11  -5  833.12   46.80
  -3 -11  -5  761.42   45.70
   3 -11   5  753.02   43.00
   3 -11  -5  801.22   43.90
  -3  11  -5  794.22   46.50
  -3  11  -5  790.82   43.30
   4 -11   0  303.17   23.10
  -4  11   0  306.67   20.10
   4  11  -1 1761.62   55.39
  -4 -11  -1 1799.72   56.29
   4 -11   1 1690.23   64.99
  -4  11   1 1652.63   61.49
  -4  11  -1 1773.92   63.59
   4 -11  -1 1769.12   64.89
   4 -11  -1 1741.63   68.49
  -4 -11  -2  283.17   17.90
   4 -11   2  280.57   21.30
   4  11  -2  212.78   15.80
  -4  11  -2  240.28   23.70
   4 -11  -2  215.58   21.20
   4 -11  -2  246.88   21.00
  -4 -11  -3 1267.47   51.29
   4  11  -3 1295.07   51.29
   4 -11   3 1362.66   55.39
   4 -11  -3 1195.88   53.39
   4 -11  -3 1257.97   51.29
  -4  11  -3 1243.68   53.49
  -4  11  -3 1252.37   55.49
   4 -11   4  150.48   21.30
   4  11  -4  118.39   18.10
  -4 -11  -4  125.89   19.10
  -4  11  -4  135.69   19.60
  -4  11  -4  157.88   22.10
   4 -11  -4  154.98   20.90
   5 -11   0  155.68   19.90
   5 -11   0  139.49   19.30
  -5  11   0  140.79   17.40
   5  11  -1  914.21   34.50
   5 -11   1  925.71   43.70
  -5  11   1  871.21   41.10
  -5  11  -1  911.91   41.80
   5 -11  -1  856.51   42.80
   5 -11  -1  906.41   45.40
   5  11  -2   98.09   12.90
  -5 -11  -2  107.49   13.40
   5 -11   2  113.29   17.30
  -5  11  -2   87.59   15.40
   5 -11  -2  133.59   18.30
   5 -11  -2   90.69   15.20
   5  11  -3  613.34   33.40
   5 -11   3  626.84   36.60
  -5 -11  -3  661.83   33.70
  -5  11  -3  693.03   39.20
   5 -11  -3  683.93   36.60
   5 -11  -3  630.94   34.70
  -5  11  -3  626.94   36.10
   5 -11   4   77.29   16.80
  -5 -11  -4   82.99   15.70
   5  11  -4   70.29   15.00
  -5  11  -4   59.19   15.00
  -5  11  -4   90.19   17.00
   5 -11  -4   59.69   13.40
   5 -11  -4   60.89   13.80
   6 -11   0   67.19   14.50
  -6  11   0   97.59   16.00
   6 -11   0   66.39   14.80
   6 -11   1    0.40    6.10
  -6  11   1    3.40    6.50
  -6  11  -1    5.60    6.40
   6 -11  -1   13.50    8.90
   6 -11  -1    5.80    7.40
   6 -11   2   59.99   13.90
   6  11  -2   65.89   11.70
  -6  11  -2   64.89   14.10
   6 -11  -2   58.49   13.40
   6 -11  -2   61.19   13.00
   6 -11   3    7.90    8.40
   6  11  -3   11.10    8.30
  -6  11  -3   14.80    9.30
   6 -11  -3    2.40    6.70
   6 -11  -3    4.50    7.30
  -6 -11  -4   44.40   12.20
   6  11  -4   43.30   12.80
   6 -11   4   33.30   12.60
  -6  11  -4   40.80   12.80
   6 -11  -4   42.90   12.70
  -6  11  -4   18.90   11.90
  -7  11   0   23.40    9.80
   7 -11   0    8.70    9.00
   7 -11   0    4.20    9.40
   7 -11   1   90.09   17.80
  -7  11   1   64.19   13.80
   7 -11   1   88.49   16.80
   7 -11  -1   60.29   14.90
   7 -11  -1  100.69   18.20
  -7  11  -1   89.19   16.50
   7 -11   2    4.00    8.00
   7  11  -2    8.40    7.30
  -7  11  -2    0.40    6.60
   7 -11  -2   -7.90    6.00
   7 -11   3   50.79   14.30
   7  11  -3   83.39   15.30
  -7  11  -3   39.60   13.30
   7 -11  -3   65.49   15.50
  -8  11   0    6.50    9.00
   8 -11   0    6.90   10.00
   8 -11   0   11.60    9.30
   8 -11   1   17.60   11.00
   8 -11   1   17.60   10.70
  -8  11  -1    2.30    7.70
   8 -11  -1    4.60    8.70
   8 -11   2    5.70   10.40
   8 -11   2    3.70    9.40
  -8  11  -2   21.20   10.80
   8 -11  -2    0.70    8.30
   0 -12   0 1585.94   61.29
   0  12   0 1670.43   51.19
   0 -12  -1    2.80    2.80
   0 -12  -1   -6.10    3.60
   0  12   1    2.40    2.60
   0  12  -1   -0.50    2.80
   0 -12   1    4.20    5.10
   0  12  -2 1244.28   45.40
   0 -12   2 1128.59   45.60
   0 -12  -2 1299.77   53.59
   0 -12  -3   -0.40    4.10
   0  12  -3    1.90    5.10
   0 -12   3   10.60    5.60
   0  12  -4  763.82   34.90
   0  12  -4  660.23   36.70
   0 -12   4  665.23   34.00
   0 -12  -4  660.43   39.90
   0 -12  -5   -1.40    8.10
   0  12  -5   -3.60    6.20
  -1  12   0    0.00    2.60
   1  12   0    6.40    3.10
  -1 -12   0    3.10    4.60
   1 -12   0   -3.40    3.10
  -1  12   1 1374.96   45.30
   1 -12   1 1481.15   53.79
  -1 -12  -1 1461.55   54.79
   1  12  -1 1397.86   46.00
  -1 -12   1 1394.26   51.49
   1 -12  -1 1366.66   46.60
   1 -12  -1 1406.96   57.59
  -1  12  -1 1380.26   48.80
  -1 -12  -2    5.60    5.60
   1 -12   2    1.20    4.40
   1  12  -2    3.50    3.80
   1 -12  -2    7.00    6.80
  -1 -12   2    8.50    4.70
  -1  12  -2    2.90    4.00
   1  12  -3  902.31   39.60
   1 -12   3  943.51   40.70
  -1 -12  -3  816.72   43.20
  -1 -12   3  984.00   37.90
   1 -12  -3  940.91   46.50
  -1  12  -3  941.31   39.80
  -1  12  -3  904.31   41.20
   1  12  -4    2.10    6.00
   1 -12   4    0.00    5.50
  -1 -12  -4    3.30    6.90
   1 -12  -4   10.70    8.80
  -1  12  -4    4.20    6.60
  -1  12  -4    3.20    5.30
   1 -12   5  506.35   32.30
  -1 -12  -5  480.15   36.60
   1  12  -5  502.15   34.80
   1 -12  -5  470.15   36.20
  -1  12  -5  508.75   31.70
  -1  12  -5  521.25   35.70
   2 -12   0   53.39   12.30
  -2  12   0   48.70    8.20
  -2 -12   0   39.50    8.10
   2  12   0   48.20    5.80
   2 -12   1  264.37   19.90
  -2 -12  -1  253.47   18.10
   2  12  -1  291.47   15.00
  -2  12   1  265.57   16.10
   2 -12  -1  285.97   17.70
  -2  12  -1  291.87   18.40
  -2 -12   1  255.27   17.00
   2 -12  -1  246.68   25.70
  -2 -12  -2   33.50    9.00
   2 -12   2   32.90    8.60
   2  12  -2   53.29    8.80
   2 -12  -2   42.30    8.70
  -2  12  -2   27.20    8.50
   2 -12  -2   30.00    9.90
  -2 -12  -3  209.88   22.40
   2 -12   3  178.08   19.80
   2  12  -3  174.68   18.30
  -2  12  -3  177.18   19.20
  -2  12  -3  129.79   17.60
   2 -12  -3  155.58   21.00
   2 -12   4   43.30   11.40
   2  12  -4   40.60   10.90
  -2 -12  -4   54.29   13.80
  -2  12  -4   46.20   11.00
   2 -12  -4   31.40   11.00
  -2  12  -4   21.10    8.90
  -2 -12  -5   68.09   16.30
   2 -12   5   66.29   14.60
   2  12  -5   70.69   15.80
   2 -12  -5   75.49   17.30
  -2  12  -5   96.19   18.90
  -2  12  -5   94.29   16.90
  -3 -12   0   18.90    5.20
   3 -12   0    2.20    6.10
  -3  12   0    2.50    4.00
  -3  12   1  489.85   25.20
   3  12  -1  492.25   21.50
   3 -12   1  538.05   29.70
  -3 -12  -1  504.65   24.60
   3 -12  -1  500.85   27.00
   3 -12  -1  515.45   31.90
  -3  12  -1  532.15   27.50
  -3 -12  -2    6.40    4.90
   3 -12   2   11.00    6.60
   3  12  -2    2.20    4.00
  -3  12  -2    2.60    5.50
   3 -12  -2    7.20    6.10
   3 -12  -2    6.60    6.70
   3  12  -3  354.76   22.90
  -3 -12  -3  351.16   24.50
   3 -12   3  361.66   25.20
   3 -12  -3  314.27   21.70
  -3  12  -3  339.37   24.50
   3 -12  -3  332.37   25.70
  -3  12  -3  342.77   24.10
  -3 -12  -4   30.40   10.90
   3  12  -4   11.20    8.00
   3 -12   4    7.40    7.90
  -3  12  -4   -2.40    5.40
  -3  12  -4   -1.30    5.90
   3 -12  -4    8.40    7.90
   3  12  -5  179.68   24.70
  -3 -12  -5  155.08   24.10
   3 -12   5  192.88   25.10
   3 -12  -5  197.48   25.10
  -3  12  -5  194.98   24.70
  -3  12  -5  199.48   27.70
   4 -12   0   26.90   10.00
  -4  12   0   30.60    8.30
   4 -12   1  349.77   24.90
   4  12  -1  330.57   17.30
  -4 -12  -1  331.17   18.20
  -4  12   1  333.17   22.00
  -4  12  -1  306.57   21.50
   4 -12  -1  319.27   25.70
   4 -12  -1  370.26   24.40
   4  12  -2   24.30    7.40
  -4 -12  -2   26.20    7.50
   4 -12   2   14.40    7.00
   4 -12  -2   25.30    8.60
  -4  12  -2   22.80    8.60
   4 -12  -2   25.90    9.40
   4 -12   3  255.37   26.20
   4  12  -3  264.67   20.10
  -4 -12  -3  211.68   21.90
  -4  12  -3  232.78   24.10
  -4  12  -3  224.38   25.20
   4 -12  -3  274.07   27.50
   4 -12  -3  258.77   20.00
   4 -12   4   19.00    9.90
   4  12  -4    8.80    8.00
  -4 -12  -4   16.60    9.30
   4 -12  -4   21.70    9.50
  -4  12  -4   23.00   10.20
  -4  12  -4    7.10    8.60
  -5  12   0   17.60    7.60
   5 -12   0   25.30   10.00
   5 -12   0    9.80    7.50
   5 -12   1  936.11   45.10
  -5  12   1  866.81   41.10
  -5  12  -1  845.82   41.30
   5 -12  -1  923.21   44.30
   5 -12  -1  867.11   45.50
   5  12  -2   11.50    5.90
   5 -12   2   19.00    8.70
  -5 -12  -2   17.20    9.90
  -5  12  -2    9.60    6.50
   5 -12  -2    7.60    6.40
   5 -12  -2   16.30    8.30
   5 -12   3  768.12   40.80
   5  12  -3  621.34   33.80
  -5 -12  -3  640.74   33.80
  -5  12  -3  597.04   37.70
   5 -12  -3  628.64   37.00
   5 -12  -3  649.14   35.10
  -5 -12  -4    8.60    7.90
   5 -12   4   -0.90    7.70
   5  12  -4    3.40    7.50
  -5  12  -4   15.80    9.40
  -5  12  -4    3.90    7.90
   5 -12  -4   10.10    8.10
   6 -12   0   18.40    9.30
  -6  12   0   23.30    9.20
   6 -12   0   18.60   10.50
  -6  12   1  196.18   23.00
   6 -12   1  194.28   24.10
   6 -12  -1  192.18   24.00
  -6  12  -1  177.58   21.10
   6 -12  -1  180.68   23.10
   6  12  -2   20.40    8.00
   6 -12   2   28.60   10.80
  -6  12  -2   16.00    8.50
   6 -12  -2   14.80    8.30
   6 -12  -2   13.20    8.60
   6 -12   3  135.19   21.30
   6  12  -3  121.09   17.10
  -6  12  -3  127.39   20.40
   6 -12  -3  160.88   21.70
   6 -12  -3  108.09   17.50
   7 -12   0  153.18   22.70
   7 -12   0  156.28   23.00
  -7  12   0  145.69   21.30
  -7  12   1   29.80   11.20
   7 -12   1   18.90   10.80
   7 -12   1   15.10    9.10
  -7  12  -1   23.00   10.10
   7 -12  -1   30.00   11.80
   7 -12  -1   23.70   10.60
   7 -12   2  122.99   20.60
  -7  12  -2  138.39   21.40
   7 -12  -2  189.28   23.80
   7  12  -3    9.00    8.40
   7 -12   3   13.50    9.80
  -7  12  -3    5.00    8.30
   7 -12  -3   13.60    9.80
   8 -12   0 1123.59   57.49
  -8  12   0 1173.48   56.09
   8 -12   0 1050.69   55.99
   8 -12   1   92.79   19.60
   8 -12   1   75.09   17.50
  -8  12   1   54.79   14.00
  -8  12  -1   60.49   15.30
   8 -12  -1   74.59   17.00
   0 -13   0    1.70    5.70
   0  13   0    4.40    3.20
   0  13  -1 1215.68   42.50
   0 -13  -1 1240.88   51.89
   0 -13   1 1083.19   46.30
   0  13  -2   28.00    7.40
   0 -13   2    3.30    4.50
   0 -13  -2    0.90    5.90
   0 -13  -3  786.02   42.70
   0  13  -3  809.62   37.30
   0 -13   3  767.92   35.50
   0 -13   4    1.20    5.50
   0  13  -4   -0.90    5.30
   0 -13  -4    8.70    8.70
   0  13  -4    4.70    5.90
   0 -13  -5  374.86   38.90
   0  13  -5  400.16   31.00
  -1 -13   0  166.78   18.90
   1  13   0  168.38   10.40
  -1  13   0  157.88   12.20
   1 -13   0  163.18   19.90
  -1  13   1   64.19    8.60
   1  13  -1   85.99    9.90
   1 -13   1   65.29   12.20
  -1 -13  -1   64.19   12.40
   1 -13  -1   99.19   11.10
   1 -13  -1   40.20   11.50
  -1 -13   1   54.59   10.90
  -1  13  -1   52.49    9.40
  -1 -13  -2  136.79   19.00
   1  13  -2  114.49   13.20
   1 -13   2  162.58   18.40
  -1 -13   2  108.29   13.90
  -1  13  -2  111.49   14.20
   1 -13  -2   83.19   15.90
  -1 -13  -3   61.09   13.70
   1  13  -3   31.90    8.70
   1 -13   3   31.30    9.50
   1 -13  -3   35.30   11.30
  -1 -13   3   37.80    8.80
  -1  13  -3   41.70    9.60
  -1 -13  -4   80.49   17.30
   1  13  -4   54.09   12.60
   1 -13   4   75.19   13.60
  -1  13  -4   87.69   14.10
  -1  13  -4   86.39   15.60
   1 -13  -4   88.89   18.60
   1  13  -5   18.40   10.60
   1 -13   5   31.30   12.10
  -1 -13  -5   22.40   11.70
  -1  13  -5   17.20    9.30
   1 -13  -5   30.40   12.30
  -1  13  -5   57.09   15.20
   2 -13   0  316.47   24.50
  -2  13   0  369.66   20.30
  -2 -13   0  424.16   23.00
   2 -13   1 2033.80   72.09
  -2 -13  -1 2025.60   69.49
   2  13  -1 2001.00   61.59
  -2  13   1 2096.19   64.89
  -2 -13   1 2054.29   66.59
   2 -13  -1 1980.50   65.99
   2 -13  -1 1906.81   75.59
  -2  13  -1 1936.91   67.29
   2 -13   2  291.07   21.70
   2  13  -2  332.67   19.10
  -2 -13  -2  301.17   22.10
   2 -13  -2  279.57   23.40
   2 -13  -2  317.67   19.10
  -2  13  -2  281.47   20.40
   2 -13   3 1373.66   57.39
   2  13  -3 1458.65   55.49
  -2 -13  -3 1392.26   59.59
   2 -13  -3 1523.05   63.09
  -2  13  -3 1493.35   58.99
   2  13  -4  178.08   21.40
   2 -13   4  201.58   23.10
  -2 -13  -4  190.58   25.20
  -2  13  -4  200.28   22.10
   2 -13  -4  142.19   21.40
  -2  13  -4  167.48   22.00
  -2 -13  -5  791.12   48.20
   2  13  -5  788.22   44.90
   2 -13   5  819.82   44.90
   2 -13  -5  829.02   46.90
  -2  13  -5  810.12   43.50
  -2  13  -5  721.83   45.10
  -3 -13   0   61.99    9.30
  -3  13   0   60.39   10.60
   3 -13   0   55.19   12.80
   3  13  -1  400.96   19.00
   3 -13   1  341.57   25.00
  -3  13   1  426.66   23.20
  -3 -13  -1  393.06   22.10
   3 -13  -1  439.46   29.00
  -3  13  -1  403.06   24.20
   3 -13  -1  387.16   23.80
  -3 -13  -2   66.09   11.80
   3  13  -2   43.20    9.00
   3 -13   2   59.79   12.70
  -3  13  -2   55.59   11.30
   3 -13  -2   51.49   13.00
   3 -13  -2   69.49   11.90
  -3 -13  -3  254.67   25.90
   3 -13   3  284.27   23.30
   3  13  -3  278.37   21.20
  -3  13  -3  264.77   26.80
   3 -13  -3  309.87   25.30
   3 -13   4   26.80   10.80
   3  13  -4   39.20   11.30
  -3 -13  -4   37.60   12.10
  -3  13  -4   23.90    9.80
   3 -13  -4   22.50   10.20
  -3  13  -4   49.00   13.00
   4 -13   0  142.79   20.60
  -4  13   0  123.99   15.50
  -4 -13  -1   43.20    7.90
   4  13  -1   48.40    7.50
  -4  13   1   57.99   11.10
   4 -13   1   49.50   11.70
  -4  13  -1   52.99   11.20
   4 -13  -1   51.69   12.80
   4 -13  -1   36.60   10.10
  -4 -13  -2  110.39   14.40
   4 -13   2  116.39   17.40
   4  13  -2   91.19   12.40
   4 -13  -2  115.99   16.30
  -4  13  -2  121.39   17.80
   4 -13  -2   77.69   15.70
   4 -13   3   30.50   11.20
   4  13  -3   38.10   10.20
  -4 -13  -3   40.90   10.70
  -4  13  -3   25.10   10.00
   4 -13  -3   33.10    9.80
   4 -13  -3   31.30   10.00
   4 -13   4   61.49   14.70
  -4 -13  -4   89.29   17.10
   4  13  -4   92.29   16.00
  -4  13  -4   44.90   12.70
  -4  13  -4   56.59   15.10
   4 -13  -4   35.30   11.80
   5 -13   0 1154.58   51.99
   5 -13   0 1196.68   55.89
  -5  13   0 1265.57   51.29
   5 -13   1  263.67   27.40
  -5  13   1  227.68   22.60
   5 -13  -1  294.97   29.90
   5 -13  -1  228.58   24.10
  -5  13  -1  229.98   24.20
   5 -13   2 1016.40   50.49
   5  13  -2 1109.89   43.90
   5 -13  -2 1171.58   50.59
   5 -13  -2 1150.18   52.39
  -5  13  -2 1028.30   49.90
   5 -13   3  183.88   23.90
  -5 -13  -3  210.58   22.20
   5  13  -3  201.28   22.20
   5 -13  -3  177.08   22.30
  -5  13  -3  157.48   22.70
   5 -13  -3  213.08   22.90
  -5 -13  -4  633.14   38.90
   5 -13   4  757.42   44.20
  -5  13  -4  690.53   42.90
  -5  13  -4  739.03   42.50
   5 -13  -4  655.13   38.90
   6 -13   0   32.20   12.00
   6 -13   0   23.00   10.30
  -6  13   0   15.50    8.50
   6 -13   1   90.39   17.00
  -6  13   1   77.19   14.90
   6 -13  -1   82.59   16.30
   6 -13  -1  136.69   20.90
  -6  13  -1   82.59   15.30
   6 -13   2   25.10   11.00
   6 -13  -2   18.10   10.30
   6 -13  -2   16.50    9.30
  -6  13  -2   14.60    8.00
   6 -13   3   68.79   15.60
   6  13  -3   57.29   12.50
  -6  13  -3   72.89   16.50
   6 -13  -3   64.49   15.10
   6 -13  -3   56.89   13.70
   7 -13   0  218.08   27.50
   7 -13   0  237.68   28.30
  -7  13   0  286.97   28.90
   7 -13   1    5.00    9.70
   7 -13   1    5.60    8.20
  -7  13   1   19.00    9.00
   7 -13  -1   15.50    9.90
   7 -13  -1   29.60   11.70
  -7  13  -1   21.40    9.80
   7 -13   2  266.27   31.10
  -7  13  -2  281.37   30.30
   7 -13  -2  232.98   27.50
   7 -13  -2  258.17   28.30
   8 -13   0   26.80   12.00
  -8  13   0    5.10    9.10
   8 -13   0   16.80   11.00
  -8  13   1   22.20   10.90
   8 -13   1   23.20   12.20
   8 -13   1   14.50   12.50
  -8  13  -1   30.50   12.90
   8 -13  -1    6.30    9.90
   0  14   0  941.31   34.70
   0 -14   0  969.70   44.30
   0  14  -1   -2.70    3.20
   0 -14   1    4.70    5.70
   0 -14  -1    0.10    5.70
   0 -14  -2  759.52   40.50
   0  14  -2  758.12   33.30
   0 -14   2  682.83   34.20
   0 -14   3    2.70    5.30
   0 -14  -3    8.90    8.10
   0  14  -3   15.10    6.80
   0 -14   4  424.26   27.40
   0  14  -4  470.85   30.50
   0 -14  -4  428.06   33.60
   0 -14  -5   -6.10    8.10
   0  14  -5   -0.20    8.20
   1 -14   0 2913.31  100.29
  -1  14   0 2983.60   88.89
  -1 -14   0 2973.60   96.59
   1  14   0 3006.50   85.09
   1  14  -1  257.87   15.40
  -1  14   1  223.38   14.00
   1 -14   1  215.08   22.50
  -1 -14  -1  245.68   20.40
  -1 -14   1  257.07   19.30
   1 -14  -1  222.68   25.60
  -1  14  -1  231.48   16.30
   1 -14  -1  271.87   16.30
   1 -14   2 2430.06   84.39
  -1 -14  -2 2508.05   88.79
   1  14  -2 2506.45   79.09
  -1 -14   2 2519.85   81.59
  -1  14  -2 2586.64   82.39
   1 -14  -2 2359.46   89.39
   1  14  -3  193.38   20.00
   1 -14   3  200.48   21.70
  -1 -14  -3  172.08   23.10
  -1  14  -3  152.28   18.90
   1 -14  -3  214.38   26.50
   1 -14   4 1597.74   64.19
  -1 -14  -4 1582.04   70.59
   1  14  -4 1646.74   65.39
  -1  14  -4 1649.23   66.49
   1 -14  -4 1597.24   70.99
   1  14  -5   65.59   15.80
  -1 -14  -5   64.39   17.30
   1 -14   5   79.19   18.40
  -1  14  -5   69.99   16.40
   1 -14  -5   73.59   17.40
  -1  14  -5   78.79   15.40
   2 -14   0   13.40    8.00
  -2 -14   0   17.60    6.70
  -2  14   0   16.30    5.70
  -2  14   1   56.99    9.20
   2 -14   1   58.49   12.50
  -2 -14  -1   42.50   10.30
   2  14  -1   67.29    8.80
   2 -14  -1   60.49   10.00
   2 -14  -1   47.50   13.10
  -2 -14   1   58.59   10.30
  -2  14  -1   57.39   10.60
  -2 -14  -2   13.90    7.40
   2 -14   2    6.80    6.80
   2  14  -2   15.30    6.10
  -2  14  -2   13.40    6.50
   2 -14  -2   19.80    9.50
   2  14  -3   37.10    9.60
   2 -14   3   26.60    9.40
  -2 -14  -3   31.80   10.90
   2 -14  -3   46.00   13.00
  -2  14  -3   30.10    9.80
  -2 -14  -4   10.50    9.00
   2 -14   4   -4.30    6.40
   2  14  -4   18.40    8.70
  -2  14  -4   15.50    9.10
   2 -14  -4    7.10    8.40
  -3 -14   0  421.26   22.00
   3 -14   0  416.46   28.60
  -3  14   0  388.56   23.00
  -3 -14  -1  171.78   17.90
   3  14  -1  182.38   12.50
   3 -14   1  158.88   20.50
  -3  14   1  186.88   18.10
  -3  14  -1  183.68   19.20
   3 -14  -1  179.18   18.80
   3 -14  -1  165.28   22.30
  -3 -14  -2  363.66   24.10
   3 -14   2  400.56   27.50
   3  14  -2  420.36   22.00
   3 -14  -2  358.56   22.60
   3 -14  -2  352.16   27.50
  -3  14  -2  296.67   23.40
   3 -14   3  124.69   18.70
  -3 -14  -3  148.39   20.00
   3  14  -3  144.49   17.30
   3 -14  -3  117.99   19.30
  -3  14  -3  123.39   18.50
   3  14  -4  183.48   22.30
  -3 -14  -4  212.08   26.20
   3 -14   4  230.18   26.40
   3 -14  -4  191.38   25.10
  -3  14  -4  178.18   23.50
   4 -14   0  224.98   25.80
  -4  14   0  212.58   21.10
  -4  14   1  102.79   14.60
   4 -14   1  107.59   17.70
   4 -14  -1  119.09   19.80
  -4  14  -1  108.49   15.90
   4 -14  -1  107.29   16.10
   4 -14   2  206.28   23.90
  -4 -14  -2  156.78   18.00
   4  14  -2  158.58   16.20
   4 -14  -2  161.78   21.90
  -4  14  -2  174.78   21.70
   4 -14  -2  200.68   21.10
   4  14  -3   69.19   12.70
   4 -14   3  100.99   17.70
  -4 -14  -3   55.29   12.40
  -4  14  -3   78.99   16.30
   4 -14  -3   72.29   15.60
  -4 -14  -4   93.89   18.20
   4  14  -4   97.19   17.30
   4 -14   4   94.89   18.80
   4 -14  -4  122.29   20.10
  -4  14  -4  102.29   18.70
   5 -14   0    0.90    7.50
  -5  14   0   -2.20    4.40
   5 -14   0   -0.40    5.90
   5 -14   1   12.00    8.50
  -5  14   1   16.80    7.80
  -5  14  -1   17.10    8.10
   5 -14  -1   19.40    9.10
   5 -14  -1   17.70    9.70
   5  14  -2   22.30    7.50
   5 -14   2    3.10    7.40
  -5  14  -2    0.70    5.60
   5 -14  -2    6.70    6.80
   5 -14  -2    2.40    6.90
   5 -14   3   14.60    9.90
   5  14  -3   12.80    8.10
  -5 -14  -3   26.20    9.80
  -5  14  -3   22.20   10.70
   5 -14  -3   13.50    8.10
   5 -14  -3   18.50    9.70
   6 -14   0   59.09   14.40
  -6  14   0   69.69   14.00
   6 -14   0   60.69   15.90
  -6  14   1  679.53   36.90
   6 -14   1  634.74   39.90
  -6  14  -1  680.03   37.60
   6 -14  -1  633.74   40.50
   6 -14  -1  562.94   36.70
   6 -14   2   55.19   15.70
   6 -14  -2   43.40   12.60
  -6  14  -2   55.39   14.20
   6 -14  -2   53.89   14.00
   6 -14   3  491.85   35.70
  -6  14  -3  518.85   36.10
   6 -14  -3  468.85   32.80
   6 -14  -3  518.35   32.70
   7 -14   0   17.20   11.00
  -7  14   0    9.60    7.70
   7 -14   0   -0.60    8.30
   7 -14   1  232.38   28.70
  -7  14   1  231.48   25.20
   7 -14   1  277.67   31.60
  -7  14  -1  241.98   26.90
   7 -14  -1  257.47   28.60
   7 -14  -1  261.57   30.20
   7 -14   2   -3.50    7.20
   7 -14  -2    5.70    8.30
  -7  14  -2    0.20    7.20
   7 -14  -2   16.10    8.80
   0 -15   0    9.00    6.80
   0  15   0    3.10    3.60
   0 -15  -1  368.86   26.90
   0  15  -1  367.26   20.70
   0 -15   1  409.76   26.30
   0 -15   2   -1.80    4.70
   0 -15  -2    0.40    6.10
   0  15  -2    2.20    4.70
   0  15  -3  289.27   21.60
   0 -15   3  230.58   23.10
   0 -15  -3  302.27   32.00
   0 -15  -4   10.30    9.40
   0  15  -4    9.20    7.50
  -1 -15   0   41.40   10.50
  -1  15   0   55.79    9.00
   1 -15   0   72.29   14.70
   1 -15   1   90.99   15.30
  -1 -15  -1   67.69   13.50
   1  15  -1   74.89   10.00
   1 -15  -1   68.29   15.10
  -1 -15   1   49.40   10.80
  -1  15  -1   77.09   11.80
   1  15  -2   57.99    9.90
   1 -15   2   39.60   10.80
  -1 -15  -2   29.60    9.80
  -1  15  -2   72.69   12.50
  -1 -15   2   53.79   10.90
   1 -15  -2   51.49   13.10
  -1 -15  -3   23.20   10.60
   1 -15   3   32.70   10.00
   1  15  -3   50.09   11.30
  -1  15  -3   55.59   11.80
   1 -15  -3   55.49   14.40
  -1 -15  -4   32.50   12.90
   1 -15   4   33.60   10.90
   1  15  -4   21.20    9.60
  -1  15  -4   34.40   11.20
   1 -15  -4   32.40   13.00
   2 -15   0  437.76   29.30
  -2 -15   0  433.36   25.30
  -2  15   0  443.36   23.40
  -2  15   1  214.68   15.60
   2 -15   1  221.18   24.00
   2  15  -1  200.78   13.40
  -2 -15  -1  185.78   20.10
  -2  15  -1  227.48   18.00
   2 -15  -1  249.08   17.50
   2 -15  -1  238.38   26.80
  -2 -15   1  230.28   17.80
   2 -15   2  345.57   25.40
   2  15  -2  324.97   20.10
  -2 -15  -2  306.07   24.00
   2 -15  -2  318.07   27.00
  -2  15  -2  334.37   23.10
   2  15  -3  142.69   17.50
  -2 -15  -3  133.19   20.50
   2 -15   3  139.19   19.00
  -2  15  -3  176.38   21.50
   2 -15  -3  110.79   19.50
   2  15  -4  199.58   23.40
   2 -15   4  235.98   26.80
  -2 -15  -4  232.48   29.10
  -2  15  -4  229.28   26.80
   2 -15  -4  230.48   28.80
   3 -15   0  882.21   45.60
  -3  15   0  882.81   38.30
  -3  15   1  131.29   15.50
   3 -15   1  159.08   21.20
  -3 -15  -1  132.79   15.90
  -3  15  -1  128.79   16.60
   3 -15  -1  185.58   19.60
   3 -15  -1  135.99   21.00
   3  15  -2  759.12   33.70
   3 -15   2  773.92   41.50
  -3 -15  -2  797.52   39.10
  -3  15  -2  744.93   38.80
   3 -15  -2  809.92   43.70
   3  15  -3  127.99   16.80
  -3 -15  -3  127.89   18.40
   3 -15   3  113.99   18.30
  -3  15  -3  107.89   18.30
   3 -15  -3   91.19   17.30
  -3 -15  -4  523.85   35.90
   3  15  -4  520.95   32.90
   3 -15   4  523.35   35.20
  -3  15  -4  470.25   33.90
   3 -15  -4  459.25   34.20
  -4  15   0  103.69   14.80
   4 -15   0   90.99   17.60
  -4  15   1    4.90    5.50
   4 -15   1    4.00    7.50
  -4  15  -1   15.70    7.30
   4 -15  -1   12.80    8.80
   4 -15  -1    7.00    6.40
   4 -15   2   74.79   16.20
  -4 -15  -2   93.79   14.10
   4  15  -2   75.79   11.70
  -4  15  -2   78.99   15.00
   4 -15  -2   70.89   15.40
   4 -15  -2   87.79   14.40
   4  15  -3    8.60    7.00
  -4 -15  -3    5.30    6.60
   4 -15   3   -1.50    6.60
   4 -15  -3    9.40    8.40
  -4  15  -3   14.00    8.80
   4  15  -4   55.49   14.10
   4 -15   4   55.39   15.30
  -4 -15  -4   56.59   15.60
   4 -15  -4   41.50   13.10
  -4  15  -4   41.20   13.80
   5 -15   0  244.38   28.50
   5 -15   0  314.37   24.80
  -5  15   0  240.28   23.50
   5 -15   1  280.67   30.20
  -5  15   1  274.37   21.90
   5 -15  -1  256.67   26.50
   5 -15  -1  320.37   32.90
  -5  15  -1  283.87   27.70
   5 -15   2  254.57   29.10
   5 -15  -2  238.28   25.90
  -5  15  -2  293.47   29.40
   5 -15  -2  209.58   25.40
   5 -15   3  219.68   27.80
   5  15  -3  192.38   21.90
  -5  15  -3  179.68   24.00
   5 -15  -3  213.68   26.50
  -6  15   0   70.29   14.20
   6 -15   0   60.89   14.90
   6 -15   0   44.50   14.00
  -6  15   1  691.13   38.90
   6 -15   1  843.32   47.00
  -6  15  -1  827.62   42.60
   6 -15  -1  777.12   45.20
   6 -15  -1  743.53   42.50
   6 -15   2   60.69   15.90
   6 -15  -2   78.49   16.70
  -6  15  -2   45.50   13.30
   6 -15  -2   62.09   14.60
   6 -15   3  628.44   42.10
   6 -15  -3  550.54   36.50
  -6  15  -3  664.73   41.70
  -7  15   0 1171.18   54.69
   7 -15   0 1165.08   57.79
   7 -15   0 1066.99   57.59
   7 -15   1   -1.50    9.10
   7 -15   1    2.20    9.30
  -7  15   1    1.10    7.40
  -7  15  -1    9.50    8.60
   7 -15  -1    4.60    9.30
   7 -15  -1    0.80    8.20
   0 -16   0  275.77   23.00
   0  16  -1    0.50    3.30
   0 -16   1    3.00    6.40
   0 -16  -1    4.10    6.60
   0 -16  -2  216.98   26.20
   0  16  -2  217.08   17.50
   0 -16   2  204.88   22.30
   0 -16  -3    3.00    7.80
   0 -16   3    7.40    6.60
   0  16  -3    2.00    5.40
   0  16  -4  145.69   20.30
   0 -16  -4  172.48   27.10
  -1 -16   0 1033.80   46.80
   1 -16   0 1166.58   52.69
  -1  16   0 1095.09   41.20
   1  16  -1    0.20    3.90
   1 -16   1    0.40    6.30
  -1 -16  -1   -5.50    4.30
  -1 -16   1    9.10    6.50
  -1  16  -1   -1.40    4.00
   1 -16  -1   -1.00    5.90
  -1 -16  -2  888.51   46.20
   1  16  -2  897.51   38.30
   1 -16   2  994.80   45.60
  -1  16  -2  954.40   41.20
   1 -16  -2  925.81   48.50
  -1 -16   2  887.61   41.00
  -1 -16  -3   -0.10    6.80
   1  16  -3    0.90    5.40
   1 -16   3   13.50    8.20
  -1  16  -3    1.30    5.90
   1 -16  -3   10.90    9.40
   1  16  -4  547.85   33.70
   1 -16   4  580.94   34.60
  -1 -16  -4  545.85   39.20
  -1  16  -4  502.45   33.80
   1 -16  -4  544.55   38.90
   2 -16   0    3.30    7.30
  -2 -16   0    5.30    6.00
  -2  16   0    5.50    4.70
  -2 -16  -1  376.96   25.40
   2 -16   1  403.76   28.70
  -2  16   1  397.36   21.80
  -2  16  -1  388.76   23.80
   2 -16  -1  405.06   30.10
  -2 -16  -2   11.50    7.00
   2 -16   2    4.20    6.80
   2  16  -2   -1.10    4.40
  -2  16  -2    2.80    5.40
   2 -16  -2   -2.60    4.70
   2  16  -3  252.77   20.30
  -2 -16  -3  333.27   32.80
   2 -16   3  299.67   29.30
   2 -16  -3  279.77   31.30
  -2  16  -3  302.77   28.50
  -2 -16  -4    3.10    8.80
   2 -16   4   -1.50    7.90
   2  16  -4    3.50    6.90
  -2  16  -4   -3.80    6.50
   2 -16  -4   -2.00    7.80
   3 -16   0 1569.24   66.19
  -3  16   0 1506.55   56.59
  -3 -16  -1  957.60   41.30
  -3  16   1  924.81   39.10
   3 -16   1  885.91   46.20
   3 -16  -1  936.31   41.50
   3 -16  -1  928.11   48.60
  -3  16  -1  923.31   41.80
  -3 -16  -2 1256.27   53.59
   3  16  -2 1257.67   47.60
   3 -16   2 1213.88   56.79
  -3  16  -2 1294.97   54.89
   3 -16  -2 1364.96   60.59
   3  16  -3  721.03   35.80
   3 -16   3  689.63   40.90
  -3 -16  -3  713.13   39.80
  -3  16  -3  638.34   38.30
   3 -16  -3  665.53   41.10
   3 -16   4  787.02   44.90
  -3 -16  -4  719.23   44.50
   3  16  -4  782.72   41.50
  -3  16  -4  751.22   44.50
   3 -16  -4  829.72   46.80
   4 -16   0 1030.30   52.69
  -4  16   0 1079.39   45.70
  -4  16   1  228.78   22.50
   4 -16   1  227.08   26.80
   4 -16  -1  190.98   25.80
   4 -16  -1  260.97   26.20
  -4  16  -1  242.68   24.20
   4 -16   2  980.80   49.90
  -4 -16  -2  936.61   42.30
   4 -16  -2  915.51   48.70
  -4  16  -2  897.71   45.50
   4  16  -3  147.39   18.40
  -4 -16  -3  136.59   19.60
   4 -16   3  187.48   24.90
  -4  16  -3  190.78   24.60
   4 -16  -3  146.49   23.00
   5 -16   0  757.02   41.30
   5 -16   0  763.62   45.10
  -5  16   0  791.62   39.60
  -5  16   1   18.70    8.00
   5 -16   1   40.70   13.60
  -5  16  -1   11.40    8.10
   5 -16  -1   17.80    8.80
   5 -16  -1   11.30    9.50
   5 -16   2  658.23   41.40
   5 -16  -2  653.63   37.10
   5 -16  -2  645.34   39.80
  -5  16  -2  627.54   38.00
   5 -16   3    9.00    9.50
   5  16  -3   13.40    9.30
   5 -16  -3   26.20   11.40
  -5  16  -3   14.80    9.60
   6 -16   0    3.60    7.60
  -6  16   0   -1.20    6.20
   6 -16   0   -0.30    7.90
   6 -16   1   -6.60    6.70
  -6  16   1    4.50    7.30
   6 -16  -1    5.10    9.40
   6 -16  -1   11.80    8.80
  -6  16  -1    7.70    8.00
   6 -16   2    3.50    8.50
   6 -16  -2    6.00    8.30
  -6  16  -2   -0.40    7.20
   6 -16  -2    6.40    8.60
  -7  16   0   41.90   12.50
   7 -16   0   25.50   12.40
   7 -16   0   39.60   14.10
  -7  16   1   44.30   12.30
   7 -16   1   35.10   13.90
   7 -16   1   61.49   17.10
  -7  16  -1   55.79   14.60
   7 -16  -1   41.80   13.50
   7 -16  -1   41.40   14.30
   0 -17   0   -1.20    6.40
   0 -17   1  282.37   22.70
   0 -17  -1  192.38   23.90
   0  17  -1  240.78   16.90
   0 -17   2    1.80    6.70
   0 -17  -2   -1.80    7.10
   0  17  -2   12.40    6.70
   0  17  -3  177.38   20.30
   0 -17   3  167.28   20.60
   0 -17  -3  171.78   24.70
   0 -17  -4    0.50    9.10
   0  17  -4    8.10    7.70
  -1 -17   0  882.51   41.50
   1 -17   0  817.92   43.70
  -1  17   0  776.92   33.80
   1 -17   1  329.67   26.20
   1  17  -1  305.77   18.50
  -1 -17  -1  296.07   23.90
  -1 -17   1  280.37   22.50
   1 -17  -1  305.07   26.10
  -1  17  -1  297.87   20.50
   1 -17   2  657.93   37.90
  -1 -17  -2  719.03   40.80
   1  17  -2  707.63   33.00
   1 -17  -2  721.43   42.30
  -1  17  -2  696.43   34.70
   1  17  -3  227.58   22.30
   1 -17   3  247.08   26.00
  -1 -17  -3  200.48   26.30
   1 -17  -3  172.68   25.80
  -1  17  -3  211.28   23.40
  -1 -17  -4  414.86   34.80
   1 -17   4  420.76   31.20
  -1  17  -4  428.36   31.20
   1 -17  -4  479.45   36.80
   2 -17   0   17.30   10.00
  -2 -17   0   17.10    8.00
  -2  17   0   18.30    6.20
  -2 -17  -1  380.46   25.70
   2 -17   1  376.96   28.90
   2 -17  -1  398.36   30.30
  -2  17  -1  341.37   22.90
   2 -17   2   23.30   10.20
  -2 -17  -2   18.20    8.90
   2  17  -2   18.10    6.60
  -2  17  -2   14.70    7.40
   2 -17  -2   10.70    9.00
  -2 -17  -3  293.07   31.70
   2  17  -3  252.67   20.40
   2 -17   3  230.28   27.00
  -2  17  -3  264.57   26.90
   2 -17  -3  309.37   33.10
   2 -17   4   14.30   10.30
  -2 -17  -4    6.20    9.10
   2  17  -4   10.00    8.10
  -2  17  -4    4.60    8.20
   2 -17  -4   12.90   10.60
  -3  17   0  281.07   20.30
   3 -17   0  271.97   30.20
  -3  17   1   60.79   11.30
   3 -17   1   52.19   14.20
  -3 -17  -1   58.79   11.50
   3 -17  -1   60.49   12.10
  -3  17  -1   71.79   13.30
   3 -17  -1   42.70   14.30
   3 -17   2  236.28   26.90
  -3 -17  -2  214.78   23.00
  -3  17  -2  200.28   22.90
   3 -17  -2  184.98   24.90
   3  17  -3   51.69   11.00
  -3 -17  -3   64.79   15.20
   3 -17   3   37.60   13.40
   3 -17  -3   44.00   13.80
  -3  17  -3   45.20   12.60
   4 -17   0   86.99   17.60
  -4  17   0   97.59   15.30
   4 -17   1   95.89   18.70
  -4  17   1   65.09   11.90
  -4  17  -1   49.50   11.90
   4 -17  -1   58.39   13.20
   4 -17  -1   68.19   16.80
   4 -17   2   76.39   17.10
   4 -17  -2   70.29   15.90
  -4  17  -2   66.59   14.00
  -4 -17  -3   53.29   13.40
   4 -17   3   27.70   12.60
   4  17  -3   55.59   11.90
  -4  17  -3   39.50   12.70
   4 -17  -3   37.50   12.70
   5 -17   0  434.46   33.50
  -5  17   0  382.86   26.90
   5 -17   0  380.36   29.10
   5 -17   1   11.30   10.40
  -5  17   1    4.80    6.60
  -5  17  -1   -0.30    6.90
   5 -17  -1    7.70    9.30
   5 -17  -1    1.30    6.80
   5 -17   2  353.46   35.60
  -5  17  -2  396.96   30.10
   5 -17  -2  316.57   32.20
   5 -17   3   -2.70    9.10
   5 -17  -3    4.80    9.10
  -5  17  -3    2.40    7.70
  -6  17   0  110.59   18.40
   6 -17   0  160.38   24.80
   6 -17   0  120.99   20.40
   6 -17   1  190.68   27.30
  -6  17   1  174.08   22.10
   6 -17  -1  205.08   29.00
  -6  17  -1  179.98   23.60
   6 -17  -1  157.98   23.40
   6 -17   2  128.19   22.70
   6 -17  -2   88.49   17.90
   6 -17  -2  125.49   20.50
  -6  17  -2   84.39   17.30
   0 -18   0  220.38   24.90
   0 -18   1    3.40    6.90
   0  18  -1   10.50    5.70
   0 -18  -1   -0.80    6.40
   0  18  -2  210.48   20.70
   0 -18   2  203.08   23.20
   0 -18  -2  164.98   23.60
   0 -18  -3    8.00    9.00
   0  18  -3    4.70    6.00
   0  18  -4  109.79   18.00
   0 -18  -4  122.69   23.50
   1 -18   0   18.90    9.60
  -1 -18   0   14.90    7.60
  -1 -18  -1   40.10   11.20
   1 -18   1   67.59   15.10
  -1 -18   1   64.39   13.10
   1 -18  -1   60.39   14.20
  -1  18  -1   51.49   10.40
   1  18  -2   22.10    7.70
  -1 -18  -2    3.10    7.30
   1 -18   2   24.80   10.30
  -1  18  -2   20.90    7.90
   1 -18  -2    8.40    9.60
   1  18  -3   41.40   10.50
   1 -18   3   61.89   14.30
  -1 -18  -3   36.50   13.50
  -1  18  -3   48.00   12.30
   1 -18  -3   51.99   15.10
  -1 -18  -4   21.40   12.70
   1  18  -4    4.30    7.30
   1 -18  -4    0.80   10.50
  -1  18  -4    6.70    8.50
  -2  18   0  531.85   27.40
  -2 -18   0  460.05   28.40
   2 -18   0  496.85   34.60
   2 -18   1  121.19   20.40
  -2 -18  -1  126.99   18.20
  -2  18  -1   88.59   14.20
   2 -18  -1   93.69   18.20
   2  18  -2  426.96   24.20
   2 -18   2  462.85   32.20
  -2 -18  -2  366.66   28.10
   2 -18  -2  397.36   31.70
  -2  18  -2  345.57   25.40
   2 -18   3   74.69   16.20
   2  18  -3   95.69   15.00
  -2 -18  -3   89.29   18.70
   2 -18  -3  109.99   20.00
  -2  18  -3  109.89   18.00
   3 -18   0   11.60    9.40
  -3  18   0    3.30    5.90
   3 -18   1   39.80   13.20
  -3  18  -1   21.40    7.70
   3 -18  -1   30.60   12.10
   3 -18   2    6.10    7.80
  -3 -18  -2   -0.90    5.80
  -3  18  -2    3.90    6.70
   3 -18  -2   -5.30    6.40
  -3 -18  -3   39.20   11.70
   3 -18   3   41.20   13.10
   3  18  -3   33.30    9.90
  -3  18  -3   27.80   11.70
   3 -18  -3   35.00   13.00
   4 -18   0  472.25   35.40
  -4  18   0  500.85   29.60
   4 -18   0  467.15   30.40
  -4  18   1   89.29   14.80
   4 -18   1  117.39   20.50
  -4  18  -1   83.09   14.30
   4 -18  -1  105.29   17.20
   4 -18  -1   94.49   19.10
   4 -18   2  421.76   33.20
  -4  18  -2  390.76   28.90
   4 -18  -2  400.26   31.90
   4 -18   3   73.19   17.60
  -4 -18  -3   70.09   15.90
  -4  18  -3   47.20   13.50
   4 -18  -3   99.39   19.70
   5 -18   0    2.30    8.50
   5 -18   0   12.30   10.40
  -5  18   0   -1.50    5.70
   5 -18   1 1031.20   56.69
  -5  18   1 1135.69   50.09
   5 -18  -1 1145.69   58.49
   5 -18  -1 1115.89   52.59
  -5  18  -1 1108.49   52.19
   5 -18   2   14.30   10.40
  -5  18  -2    0.20    6.70
   5 -18  -2    8.30    8.80
   6 -18   0   40.90   13.30
   6 -18   0   13.70   11.50
  -6  18   0   12.30    9.00
   6 -18   1   20.20   12.30
  -6  18   1   15.30    8.50
   6 -18   1   15.30   10.50
   6 -18  -1   26.00   13.10
   6 -18  -1   -2.00    7.80
  -6  18  -1   11.60    8.90
   0 -19   0    0.80    8.00
   0 -19  -1  983.30   49.30
   0 -19   1  967.10   47.90
   0 -19  -2    8.10    8.70
   0 -19   2    0.40    8.40
   0  19  -2   -6.30    5.10
   0 -19  -3  682.93   44.10
   0  19  -3  710.13   37.70
  -1 -19   0  255.07   25.80
   1 -19   0  303.17   30.90
  -1 -19  -1 2415.06   87.49
   1 -19   1 2363.86   89.19
  -1 -19   1 2426.76   85.29
   1 -19  -1 2364.66   90.59
  -1  19  -1 2396.66   80.29
  -1 -19  -2  252.47   29.30
   1  19  -2  276.67   20.20
   1 -19   2  243.98   27.80
  -1  19  -2  237.78   23.80
   1 -19  -2  200.38   26.80
  -1 -19  -3 1740.03   76.69
   1 -19   3 1828.92   73.99
   1  19  -3 1774.22   67.39
   1 -19  -3 1767.32   78.59
  -1  19  -3 1795.22   69.79
  -2 -19   0   16.00    9.00
   2 -19   0   10.00    9.20
  -2 -19  -1   -3.20    5.10
   2 -19   1    0.30    7.10
  -2  19  -1    5.70    6.40
   2 -19  -1   -1.80    7.30
  -2 -19  -2   12.00    8.50
   2 -19   2   17.70   10.40
  -2  19  -2    9.50    7.40
   2 -19  -2   11.60    9.90
   2 -19   3   -1.20    7.90
  -2 -19  -3   -7.60    8.20
   2  19  -3   -2.70    5.30
  -2  19  -3   -0.10    6.70
   2 -19  -3    1.80    8.30
   3 -19   0    7.60    7.90
  -3  19   0    3.50    5.70
   3 -19   1  640.24   41.50
  -3  19  -1  635.04   34.90
   3 -19  -1  755.32   44.00
  -3 -19  -2    7.20    8.20
   3 -19   2   11.20   10.40
   3 -19  -2   18.30   10.40
  -3  19  -2    8.90    7.80
   3 -19   3  510.55   36.80
  -3 -19  -3  489.95   34.20
   3 -19  -3  460.75   35.90
  -3  19  -3  516.85   34.70
   4 -19   0   56.39   15.50
   4 -19   0   72.09   14.50
  -4  19   0   49.00   11.90
   4 -19   1   70.29   17.70
   4 -19  -1   68.49   16.60
  -4  19  -1   45.90   12.50
   4 -19   2   66.29   17.40
  -4  19  -2   62.69   14.20
   4 -19  -2   75.39   17.40
  -5  19   0   35.20   11.00
   5 -19   0   26.60   12.60
   5 -19   0   19.30   10.30
   5 -19   1   76.49   18.20
  -5  19   1   68.49   13.80
   5 -19  -1   62.79   16.70
  -5  19  -1   61.29   14.20
   5 -19  -1   73.39   15.70
   5 -19   2   29.80   13.50
   0 -20   0  181.38   22.50
   0 -20  -1    3.90    7.40
   0 -20   1   -4.70    6.40
   0  20  -2  139.69   17.50
   0 -20   2  201.98   24.80
   0 -20  -2  143.09   22.90
   0 -20  -3   -6.20    7.60
   0  20  -3    5.50    7.20
   1 -20   0   29.30   12.20
  -1 -20   0   34.50   10.30
   1 -20   1    7.00    8.60
  -1 -20  -1   22.60    9.30
  -1 -20   1   13.80    8.60
   1 -20  -1    6.80    8.90
  -1 -20  -2   25.80   10.80
   1 -20   2   54.99   14.70
  -1  20  -2   24.40    9.60
   1 -20  -2   22.80   11.20
   1 -20   3    1.40    8.60
  -1 -20  -3    8.40    9.40
   1  20  -3   12.10    8.50
   1 -20  -3   25.40   12.30
  -1  20  -3    7.50    7.30
   2 -20   0   45.00   13.90
   2 -20   1  269.87   29.80
  -2 -20  -1  193.98   22.70
   2 -20  -1  195.98   26.30
  -2  20  -1  240.38   23.70
  -2 -20  -2   66.89   15.20
   2 -20   2   42.90   14.00
   2 -20  -2   46.80   13.90
  -2  20  -2   49.00   12.10
   2  20  -3  169.98   23.90
  -2 -20  -3  202.28   27.90
   2 -20   3  235.88   29.50
   2 -20  -3  174.38   26.20
   3 -20   0  103.79   20.00
   3 -20   1  793.12   46.70
  -3  20  -1  756.12   38.90
   3 -20  -1  757.82   45.20
   3 -20   2   92.69   19.50
  -3 -20  -2   84.89   16.40
   3 -20  -2  106.09   21.00
  -3  20  -2   72.09   14.50
   4 -20   0   53.39   15.80
  -4  20   0   36.30   10.20
   4 -20   0   69.19   15.00
   4 -20   1   36.70   14.60
  -4  20  -1   37.40   11.30
   4 -20  -1   30.70   13.10
   4 -20   2   15.90   12.10
  -4  20  -2   40.10   11.90
   4 -20  -2   38.30   13.70
   5 -20   0  228.38   31.20
  -5  20   0  177.38   21.50
   5 -20   0  168.68   22.90
   5 -20   1   95.89   20.90
  -5  20  -1   77.79   15.60
   5 -20  -1   75.09   18.50
   0 -21   0    1.60    6.70
   0 -21  -1  208.08   26.40
   0 -21   1  209.48   25.50
   0 -21  -2   -4.90    7.50
  -1 -21   0   12.70    7.80
   1 -21   0   12.30    9.60
  -1 -21  -1   47.30   12.80
   1 -21   1   48.50   15.40
   1 -21  -1   45.20   13.60
   1 -21   2    8.20    9.80
  -1 -21  -2   10.20    9.10
   1 -21  -2    8.30    9.60
  -1  21  -2   14.00    7.30
   2 -21   0  479.55   35.60
   2 -21   1    6.50    9.20
  -2 -21  -1    1.30    6.30
   2 -21  -1    4.50    8.50
   2 -21   2  360.46   36.70
  -2 -21  -2  357.26   28.90
  -2  21  -2  397.56   27.50
   2 -21  -2  438.16   34.00
   3 -21   0  522.85   37.70
   3 -21   1  303.47   33.60
   3 -21  -1  232.88   29.40
  -3  21  -1  273.27   26.50
   3 -21   2  465.25   36.90
   3 -21  -2  483.25   36.50
   4 -21   0  270.57   32.60
   4 -21   1  417.56   34.70
  -4  21  -1  330.47   26.80
   4 -21  -1  324.07   35.20
   0 -22   0   17.40    9.40
   0 -22  -1    2.10    7.20
   0 -22   1   -0.40    7.80
   0 -22  -2   11.20    9.60
   1 -22   0  686.63   42.00
  -1 -22   0  719.93   39.10
   1 -22   1  359.46   30.20
  -1 -22  -1  346.67   28.20
   1 -22  -1  377.66   30.80
  -1 -22  -2  614.44   39.50
   1 -22   2  660.43   41.00
   1 -22  -2  625.94   42.30
   2 -22   0  779.42   46.50
   2 -22   1   18.10   11.30
   2 -22  -1    0.20    8.50
   2 -22   2  619.24   41.90
   3 -22   0  170.18   26.00
   3 -22   1   35.80   14.30
   3 -22  -1   49.40   15.40
   0 -23   0    5.80    8.00
   0 -23  -1   72.39   16.60
   0 -23   1   75.69   17.50
   1 -23   0   15.20    9.80
  -1 -23  -1    2.20    8.20
   1 -23   1   21.40   11.10
   1 -23  -1   12.80   10.20
   2 -23   0   38.60   13.40
   0   0   0    0.00    0.00

_computing_structure_solution     'SHELXT 2018/2 (Sheldrick, 2018)'
;
_shelx_hkl_checksum              24602
loop_
_space_group_symop_operation_xyz
'x, y, z'
'-x, -y, z'
'-x+1/2, y+1/2, -z+1/2'
'x+1/2, -y+1/2, -z+1/2'
'-x, -y, -z'
'x, y, -z'
'x-1/2, -y-1/2, z-1/2'
'-x-1/2, y-1/2, z-1/2'
loop_
_atom_site_label
_atom_site_type_symbol
_atom_site_fract_x
_atom_site_fract_y
_atom_site_fract_z
_atom_site_U_iso_or_equiv
_atom_site_adp_type
_atom_site_occupancy
_atom_site_site_symmetry_order
_atom_site_calc_flag
_atom_site_refinement_flags_posn
_atom_site_refinement_flags_adp
_atom_site_refinement_flags_occupancy
_atom_site_disorder_assembly
_atom_site_disorder_group
Eu2 Eu 0.000000 0.000000 0.000000 0.00854(11) Uani 1 4 d S T P . .
Eu1 Eu 0.70776(5) 0.19827(2) 0.000000 0.00987(10) Uani 1 2 d S T P . .
In In 0.13988(6) 0.58644(3) 0.000000 0.00837(11) Uani 1 2 d S T P . .
As2 As 0.24593(9) 0.43022(4) 0.000000 0.00784(14) Uani 1 2 d S T P . .
As1 As 0.23311(10) 0.16852(4) 0.000000 0.00838(14) Uani 1 2 d S T P . .
loop_
_atom_site_aniso_label
_atom_site_aniso_U_11
_atom_site_aniso_U_22
_atom_site_aniso_U_33
_atom_site_aniso_U_23
_atom_site_aniso_U_13
_atom_site_aniso_U_12
Eu2 0.0092(2) 0.0095(2) 0.0070(2) 0.000 0.000 0.00090(16)
Eu1 0.01428(18) 0.00796(17) 0.00737(15) 0.000 0.000 -0.00073(12)
In 0.0098(2) 0.0075(2) 0.0079(2) 0.000 0.000 0.00021(16)
As2 0.0094(3) 0.0075(3) 0.0066(3) 0.000 0.000 -0.0005(2)
As1 0.0121(3) 0.0073(3) 0.0057(3) 0.000 0.000 0.0009(2)
loop_
_atom_type_symbol
_atom_type_description
_atom_type_scat_dispersion_real
_atom_type_scat_dispersion_imag
_atom_type_scat_source
As As 0.0499 2.0058 'International Tables Vol C Tables 4.2.6.8 and 6.1.1.4'
Eu Eu -0.1578 3.6682 'International Tables Vol C Tables 4.2.6.8 and 6.1.1.4'
In In -0.7276 1.3100 'International Tables Vol C Tables 4.2.6.8 and 6.1.1.4'
loop_
_geom_angle_atom_site_label_1
_geom_angle_atom_site_label_2
_geom_angle_atom_site_label_3
_geom_angle
_geom_angle_site_symmetry_1
_geom_angle_site_symmetry_3
Eu1 Eu2 Eu1 180.0 5_655 1_455
In Eu2 Eu1 89.042(10) 7_565 1_455
In Eu2 Eu1 89.042(10) 3_544 5_655
In Eu2 Eu1 90.958(10) 7_566 5_655
In Eu2 Eu1 89.042(10) 3_545 5_655
In Eu2 Eu1 90.958(10) 3_545 1_455
In Eu2 Eu1 90.958(10) 7_565 5_655
In Eu2 Eu1 89.042(10) 7_566 1_455
In Eu2 Eu1 90.958(10) 3_544 1_455
In Eu2 In 104.359(12) 3_545 7_566
In Eu2 In 75.641(11) 7_565 7_566
In Eu2 In 104.359(12) 7_565 3_544
In Eu2 In 75.641(11) 3_545 3_544
In Eu2 In 180.000(13) 3_544 7_566
In Eu2 In 180.000(16) 7_565 3_545
As2 Eu2 Eu1 128.446(11) 3_544 1_455
As2 Eu2 Eu1 51.554(11) 3_545 5_655
As2 Eu2 Eu1 128.446(11) 7_566 5_655
As2 Eu2 Eu1 51.554(11) 3_544 5_655
As2 Eu2 Eu1 51.554(11) 7_566 1_455
As2 Eu2 Eu1 128.446(11) 3_545 1_455
As2 Eu2 Eu1 51.554(11) 7_565 1_455
As2 Eu2 Eu1 128.446(11) 7_565 5_655
As2 Eu2 In 78.105(15) 3_544 7_565
As2 Eu2 In 133.301(15) 7_565 3_545
As2 Eu2 In 78.105(15) 7_566 3_545
As2 Eu2 In 46.699(15) 7_566 7_566
As2 Eu2 In 46.699(15) 3_545 3_545
As2 Eu2 In 101.895(14) 7_565 7_566
As2 Eu2 In 133.301(15) 3_544 7_566
As2 Eu2 In 78.105(14) 7_565 3_544
As2 Eu2 In 133.301(15) 7_566 3_544
As2 Eu2 In 46.699(15) 3_544 3_544
As2 Eu2 In 133.301(15) 3_545 7_565
As2 Eu2 In 78.105(14) 3_545 7_566
As2 Eu2 In 101.895(15) 3_544 3_545
As2 Eu2 In 101.895(15) 7_566 7_565
As2 Eu2 In 46.699(15) 7_565 7_565
As2 Eu2 In 101.895(14) 3_545 3_544
As2 Eu2 As2 86.678(19) 7_565 3_544
As2 Eu2 As2 180.0 7_566 3_544
As2 Eu2 As2 93.322(19) 3_545 3_544
As2 Eu2 As2 86.678(19) 3_545 7_566
As2 Eu2 As2 180.00(2) 7_565 3_545
As2 Eu2 As2 93.322(19) 7_565 7_566
As2 Eu2 As1 87.367(16) 3_544 5
As2 Eu2 As1 92.633(16) 3_544 .
As2 Eu2 As1 87.367(16) 7_565 .
As2 Eu2 As1 87.367(16) 3_545 5
As2 Eu2 As1 87.367(16) 7_566 .
As2 Eu2 As1 92.633(16) 7_566 5
As2 Eu2 As1 92.633(16) 7_565 5
As2 Eu2 As1 92.633(16) 3_545 .
As1 Eu2 Eu1 61.116(14) 5 5_655
As1 Eu2 Eu1 118.884(14) . 5_655
As1 Eu2 Eu1 61.116(14) . 1_455
As1 Eu2 Eu1 118.884(14) 5 1_455
As1 Eu2 In 133.113(9) . 7_566
As1 Eu2 In 46.887(9) 5 7_565
As1 Eu2 In 133.113(9) 5 3_544
As1 Eu2 In 133.113(9) . 7_565
As1 Eu2 In 133.113(9) 5 3_545
As1 Eu2 In 46.887(9) 5 7_566
As1 Eu2 In 46.887(9) . 3_544
As1 Eu2 In 46.887(9) . 3_545
As1 Eu2 As1 180.0 5 .
Eu2 Eu1 Eu1 137.200(9) 1_655 7_566
Eu2 Eu1 Eu1 137.200(9) 1_655 7_565
Eu1 Eu1 Eu1 60.067(8) 7_565 7_566
In Eu1 Eu2 132.339(13) 5_665 1_655
In Eu1 Eu2 84.735(11) 3_544 1_655
In Eu1 Eu2 84.735(10) 3_545 1_655
In Eu1 Eu1 53.357(9) 3_544 7_565
In Eu1 Eu1 81.110(12) 5_665 7_566
In Eu1 Eu1 89.737(11) 3_545 7_565
In Eu1 Eu1 53.357(9) 3_545 7_566
In Eu1 Eu1 89.737(11) 3_544 7_566
In Eu1 Eu1 81.110(12) 5_665 7_565
In Eu1 In 130.833(10) 5_665 3_544
In Eu1 In 72.545(12) 3_544 3_545
In Eu1 In 130.833(10) 5_665 3_545
As2 Eu1 Eu2 50.662(12) 7_666 1_655
As2 Eu1 Eu2 50.662(12) 7_665 1_655
As2 Eu1 Eu1 88.498(13) 7_665 7_565
As2 Eu1 Eu1 133.849(15) 7_666 7_565
As2 Eu1 Eu1 133.849(15) 7_665 7_566
As2 Eu1 Eu1 88.498(13) 7_666 7_566
As2 Eu1 In 97.871(15) 7_666 3_544
As2 Eu1 In 129.719(12) 7_666 5_665
As2 Eu1 In 129.719(12) 7_665 5_665
As2 Eu1 In 44.528(15) 7_665 3_544
As2 Eu1 In 44.528(15) 7_666 3_545
As2 Eu1 In 97.871(16) 7_665 3_545
As2 Eu1 As2 91.82(2) 7_665 7_666
As2 Eu1 As1 171.89(2) 7_665 7_666
As2 Eu1 As1 88.872(17) 7_665 .
As2 Eu1 As1 79.760(16) 7_666 1_655
As2 Eu1 As1 79.760(16) 7_665 1_655
As2 Eu1 As1 171.89(2) 7_666 7_665
As2 Eu1 As1 88.524(16) 7_666 7_666
As2 Eu1 As1 88.872(17) 7_666 .
As2 Eu1 As1 88.524(16) 7_665 7_665
As1 Eu1 Eu2 124.969(13) 7_665 1_655
As1 Eu1 Eu2 112.732(16) . 1_655
As1 Eu1 Eu2 50.845(12) 1_655 1_655
As1 Eu1 Eu2 124.969(13) 7_666 1_655
As1 Eu1 Eu1 145.045(8) 1_655 7_565
As1 Eu1 Eu1 44.982(10) . 7_566
As1 Eu1 Eu1 44.982(10) . 7_565
As1 Eu1 Eu1 54.257(14) 7_666 7_566
As1 Eu1 Eu1 97.105(16) 7_665 7_566
As1 Eu1 Eu1 54.257(14) 7_665 7_565
As1 Eu1 Eu1 145.045(9) 1_655 7_566
As1 Eu1 Eu1 97.105(16) 7_666 7_565
As1 Eu1 In 143.385(17) 7_666 3_544
As1 Eu1 In 114.929(17) . 5_665
As1 Eu1 In 124.275(13) 1_655 3_544
As1 Eu1 In 45.308(10) . 3_545
As1 Eu1 In 46.201(11) 7_666 5_665
As1 Eu1 In 88.049(14) 7_665 3_544
As1 Eu1 In 124.275(13) 1_655 3_545
As1 Eu1 In 46.201(11) 7_665 5_665
As1 Eu1 In 81.494(15) 1_655 5_665
As1 Eu1 In 45.308(10) . 3_544
As1 Eu1 In 143.385(17) 7_665 3_545
As1 Eu1 In 88.049(13) 7_666 3_545
As1 Eu1 As1 163.58(3) . 1_655
As1 Eu1 As1 92.335(18) 7_666 1_655
As1 Eu1 As1 99.236(17) 7_666 .
As1 Eu1 As1 92.335(18) 7_665 1_655
As1 Eu1 As1 90.00(2) 7_666 7_665
As1 Eu1 As1 99.236(17) 7_665 .
Eu2 In Eu2 75.642(12) 3 3_554
Eu2 In Eu1 100.888(11) 3_554 5_665
Eu2 In Eu1 100.888(11) 3 5_665
Eu2 In Eu1 105.561(8) 3 3
Eu2 In Eu1 173.626(14) 3 3_554
Eu2 In Eu1 105.561(8) 3_554 3_554
Eu2 In Eu1 173.626(14) 3_554 3
Eu1 In Eu1 72.748(9) 5_665 3_554
Eu1 In Eu1 72.748(9) 5_665 3
Eu1 In Eu1 72.544(12) 3_554 3
As2 In Eu2 55.496(11) . 3_554
As2 In Eu2 55.496(11) . 3
As2 In Eu2 129.660(14) 5_565 3
As2 In Eu2 129.660(14) 5_565 3_554
As2 In Eu1 130.438(14) . 3
As2 In Eu1 130.438(14) . 3_554
As2 In Eu1 148.02(2) . 5_665
As2 In Eu1 54.452(14) 5_565 3
As2 In Eu1 54.452(13) 5_565 3_554
As2 In Eu1 112.27(2) 5_565 5_665
As2 In As2 99.71(2) 5_565 .
As2 In As1 111.550(19) 5_565 3_554
As2 In As1 113.084(19) . 3_554
As2 In As1 113.084(19) . 3
As2 In As1 111.550(19) 5_565 3
As1 In Eu2 58.970(16) 3 3
As1 In Eu2 118.39(2) 3_554 3
As1 In Eu2 58.970(16) 3_554 3_554
As1 In Eu2 118.39(2) 3 3_554
As1 In Eu1 58.548(16) 3 3
As1 In Eu1 55.564(15) 3 5_665
As1 In Eu1 115.74(2) 3_554 3
As1 In Eu1 115.74(2) 3 3_554
As1 In Eu1 55.564(15) 3_554 5_665
As1 In Eu1 58.548(16) 3_554 3_554
As1 In As1 107.80(3) 3 3_554
Eu2 As2 Eu2 93.32(2) 3 3_554
Eu2 As2 Eu1 77.784(10) 3_554 7_565
Eu2 As2 Eu1 146.42(2) 3 7_565
Eu2 As2 Eu1 146.42(2) 3_554 7_566
Eu2 As2 Eu1 77.784(10) 3 7_566
Eu1 As2 Eu1 91.82(2) 7_565 7_566
In As2 Eu2 127.445(14) 5_565 3_554
In As2 Eu2 77.805(16) . 3
In As2 Eu2 127.445(14) 5_565 3
In As2 Eu2 77.805(16) . 3_554
In As2 Eu1 129.943(14) . 7_566
In As2 Eu1 81.021(17) 5_565 7_565
In As2 Eu1 81.021(17) 5_565 7_566
In As2 Eu1 129.943(14) . 7_565
In As2 In 80.29(2) 5_565 .
Eu2 As1 Eu1 68.039(14) . 1_455
Eu2 As1 Eu1 128.38(2) . .
Eu1 As1 Eu2 125.761(15) 7_566 .
Eu1 As1 Eu2 125.761(15) 7_565 .
Eu1 As1 Eu1 90.00(2) 7_566 7_565
Eu1 As1 Eu1 87.085(16) 7_565 .
Eu1 As1 Eu1 163.58(3) . 1_455
Eu1 As1 Eu1 81.337(15) 7_565 1_455
Eu1 As1 Eu1 81.337(15) 7_566 1_455
Eu1 As1 Eu1 87.085(16) 7_566 .
In As1 Eu2 74.142(18) 3_545 .
In As1 Eu2 74.142(18) 3_544 .
In As1 Eu1 112.452(18) 3_544 1_455
In As1 Eu1 78.234(13) 3_544 7_565
In As1 Eu1 78.234(13) 3_545 7_566
In As1 Eu1 76.144(17) 3_544 .
In As1 Eu1 159.86(3) 3_544 7_566
In As1 Eu1 76.144(17) 3_545 .
In As1 Eu1 159.86(3) 3_545 7_565
In As1 Eu1 112.452(18) 3_545 1_455
In As1 In 107.80(3) 3_544 3_545
loop_
_geom_bond_atom_site_label_1
_geom_bond_atom_site_label_2
_geom_bond_distance
_geom_bond_site_symmetry_2
Eu2 Eu1 3.8339(4) 1_455
Eu2 Eu1 3.8339(4) 5_655
Eu2 In 3.5985(4) 3_545
Eu2 In 3.5985(4) 3_544
Eu2 In 3.5985(4) 7_565
Eu2 In 3.5985(4) 7_566
Eu2 As2 3.0339(5) 7_566
Eu2 As2 3.0339(5) 3_544
Eu2 As2 3.0339(5) 3_545
Eu2 As2 3.0339(5) 7_565
Eu2 As1 3.2056(8) 5
Eu2 As1 3.2056(8) .
Eu1 Eu1 4.4087(4) 7_565
Eu1 Eu1 4.4087(4) 7_566
Eu1 In 3.7297(5) 3_544
Eu1 In 3.7041(6) 5_665
Eu1 In 3.7297(5) 3_545
Eu1 As2 3.0723(6) 7_666
Eu1 As2 3.0723(6) 7_665
Eu1 As1 3.6196(8) 1_655
Eu1 As1 3.2771(8) .
Eu1 As1 3.1206(6) 7_666
Eu1 As1 3.1206(6) 7_665
In As2 2.6480(8) 5_565
In As2 2.6793(8) .
In As1 2.7309(5) 3
In As1 2.7309(5) 3_554
