#------------------------------------------------------------------------------
#$Date: 2021-03-30 11:54:49 +0300 (Tue, 30 Mar 2021) $
#$Revision: 263438 $
#$URL: file:///home/coder/svn-repositories/cod/cif/1/56/13/1561360.cif $
#------------------------------------------------------------------------------
#
# This file is available in the Crystallography Open Database (COD),
# http://www.crystallography.net/
#
# All data on this site have been placed in the public domain by the
# contributors.
#
data_1561360
loop_
_publ_author_name
'Iyer, Abishek K.'
'Yin, Wenlong'
'Rudyk, Brent W.'
'Lin, Xinsong'
'Nilges, Tom'
'Mar, Arthur'
_publ_section_title
;
 Metal ion displacements in noncentrosymmetric chalcogenides La3Ga1.67S7,
 La3Ag0.6GaCh7 (Ch=S, Se), and La3MGaSe7 (M=Zn, Cd)
;
_journal_name_full               'Journal of Solid State Chemistry'
_journal_page_first              221
_journal_page_last               231
_journal_paper_doi               10.1016/j.jssc.2016.08.031
_journal_volume                  243
_journal_year                    2016
_chemical_absolute_configuration ad
_chemical_formula_structural     'La3 Ga1.67 S7'
_chemical_formula_sum            'Ga1.67 La3 S7'
_chemical_formula_weight         757.58
_chemical_name_common            'lanthanum gallium sulfide (3/1.67/7)'
_chemical_name_systematic        'lanthanum gallium sulfide (3/1.67/7)'
_space_group_crystal_system      hexagonal
_space_group_IT_number           173
_space_group_name_Hall           'P 6c'
_space_group_name_H-M_alt        'P 63'
_atom_sites_solution_hydrogens   .
_audit_creation_method           SHELXL-2014/7
_cell_angle_alpha                90
_cell_angle_beta                 90
_cell_angle_gamma                120
_cell_formula_units_Z            2
_cell_length_a                   10.1772(8)
_cell_length_b                   10.1772(8)
_cell_length_c                   6.0648(5)
_cell_measurement_reflns_used    7083
_cell_measurement_temperature    296(2)
_cell_measurement_theta_max      33.05
_cell_measurement_theta_min      4.08
_cell_volume                     544.01(8)
_computing_cell_refinement       'Bruker SAINT 8.34A (Bruker, 2013)'
_computing_data_collection       'Bruker APEX 2 (Bruker, 2008)'
_computing_data_reduction        'Bruker SAINT 8.34A'
_computing_molecular_graphics    'ATOMS 5.1 (Dowty, 1999)'
_computing_publication_material  'SHELXL-2014/7 (Sheldrick, 2014)'
_computing_structure_refinement  'SHELXL-2014/7 (Sheldrick, 2014)'
_computing_structure_solution    'SHELXS-97 (Sheldrick, 2008)'
_diffrn_ambient_temperature      296(2)
_diffrn_measured_fraction_theta_full 1.000
_diffrn_measured_fraction_theta_max 1.000
_diffrn_measurement_device_type  'Bruker PLATFORM/SMART APEX II CCD'
_diffrn_measurement_method       '\w and \f scans'
_diffrn_radiation_type           MoK\a
_diffrn_radiation_wavelength     0.71073
_diffrn_reflns_av_R_equivalents  0.0314
_diffrn_reflns_av_unetI/netI     0.0201
_diffrn_reflns_Laue_measured_fraction_full 1.000
_diffrn_reflns_Laue_measured_fraction_max 1.000
_diffrn_reflns_limit_h_max       15
_diffrn_reflns_limit_h_min       -15
_diffrn_reflns_limit_k_max       15
_diffrn_reflns_limit_k_min       -15
_diffrn_reflns_limit_l_max       9
_diffrn_reflns_limit_l_min       -9
_diffrn_reflns_number            7993
_diffrn_reflns_point_group_measured_fraction_full 1.000
_diffrn_reflns_point_group_measured_fraction_max 1.000
_diffrn_reflns_theta_full        25.242
_diffrn_reflns_theta_max         33.100
_diffrn_reflns_theta_min         2.311
_diffrn_source                   'fine-focus sealed tube'
_exptl_absorpt_coefficient_mu    16.892
_exptl_absorpt_correction_T_max  0.533
_exptl_absorpt_correction_T_min  0.383
_exptl_absorpt_correction_type   numerical
_exptl_absorpt_process_details   'SHELXL-2014/7 (Sheldrick, 2014)'
_exptl_crystal_colour            grey
_exptl_crystal_density_diffrn    4.625
_exptl_crystal_description       irregular
_exptl_crystal_F_000             670
_exptl_crystal_size_max          0.074
_exptl_crystal_size_mid          0.069
_exptl_crystal_size_min          0.061
_refine_diff_density_max         2.760
_refine_diff_density_min         -1.053
_refine_diff_density_rms         0.190
_refine_ls_abs_structure_details
;
 Refined as an inversion twin.
;
_refine_ls_abs_structure_Flack   -0.02(3)
_refine_ls_extinction_coef       0.0047(4)
_refine_ls_extinction_expression Fc^*^=kFc[1+0.001xFc^2^\l^3^/sin(2\q)]^-1/4^
_refine_ls_extinction_method     'SHELXL-2014/7 (Sheldrick 2014'
_refine_ls_goodness_of_fit_ref   1.124
_refine_ls_hydrogen_treatment    undef
_refine_ls_matrix_type           full
_refine_ls_number_parameters     41
_refine_ls_number_reflns         1385
_refine_ls_number_restraints     1
_refine_ls_restrained_S_all      1.124
_refine_ls_R_factor_all          0.0220
_refine_ls_R_factor_gt           0.0204
_refine_ls_shift/su_max          0.000
_refine_ls_shift/su_mean         0.000
_refine_ls_structure_factor_coef Fsqd
_refine_ls_weighting_details
'w=1/[\s^2^(Fo^2^)+(0.0170P)^2^+1.2741P] where P=(Fo^2^+2Fc^2^)/3'
_refine_ls_weighting_scheme      calc
_refine_ls_wR_factor_gt          0.0441
_refine_ls_wR_factor_ref         0.0448
_reflns_Friedel_coverage         0.851
_reflns_Friedel_fraction_full    1.000
_reflns_Friedel_fraction_max     1.000
_reflns_number_gt                1312
_reflns_number_total             1385
_reflns_threshold_expression     'I > 2\s(I)'
_cod_data_source_file            mmc7.cif
_cod_data_source_block           1
_cod_original_cell_volume        544.01(10)
_cod_database_code               1561360
_shelx_shelxl_version_number     2014/7
_shelx_space_group_comment
;
The symmetry employed for this shelxl refinement is uniquely defined
by the following loop, which should always be used as a source of
symmetry information in preference to the above space-group names.
They are only intended as comments.
;
_shelx_estimated_absorpt_t_min   0.368
_shelx_estimated_absorpt_t_max   0.426
_shelx_res_file
;

    p63.res created by SHELXL-2014/7

TITL La3Ga1.67S7 P6(3) lsf final refinement
CELL 0.71073  10.17720  10.17720   6.06480  90.0000  90.0000 120.0000
ZERR    2.00   0.00080   0.00080   0.00050   0.0000   0.0000   0.0000
LATT -1
SYMM -Y, X-Y, Z
SYMM -X+Y, -X, Z
SYMM -X, -Y, 0.5+Z
SYMM Y, -X+Y, 0.5+Z
SYMM X-Y, X, 0.5+Z
SFAC S GA LA
UNIT 14 3.34 6
TEMP 23
SIZE 0.061 0.069 0.074

L.S. 4
ACTA

TWIN

EADP GA2A GA2B
WGHT    0.017000    1.274100
EXTI    0.004719
BASF  -0.02128
FVAR       0.13228   0.47812
LA    3    0.142129    0.374251    0.401364    11.00000    0.01293    0.00932 =
         0.02205   -0.00144   -0.00218    0.00512
GA1   2    0.333333    0.666667    0.821220    10.33333    0.01580    0.01580 =
         0.00966    0.00000    0.00000    0.00790
GA2A  2    0.000000    0.000000    0.100998    20.22222    0.02042    0.02042 =
         0.04821    0.00000    0.00000    0.01021
GA2B  2    0.000000    0.000000    0.214613   -20.22222    0.02042    0.02042 =
         0.04821    0.00000    0.00000    0.01021
S1    1    0.237211    0.145815    0.439157    11.00000    0.02188    0.01523 =
         0.04376   -0.00745   -0.00499    0.01278
S2    1    0.518975    0.097480    0.174665    11.00000    0.01408    0.01234 =
         0.01393    0.00064    0.00166    0.00349
S3    1    0.333333    0.666667    0.188446    10.33333    0.01418    0.01418 =
         0.01011    0.00000    0.00000    0.00709
HKLF 4

REM  La3Ga1.67S7 P6(3) lsf final refinement
REM R1 =  0.0204 for    1312 Fo > 4sig(Fo)  and  0.0220 for all    1385 data
REM     41 parameters refined using      1 restraints

END

WGHT      0.0169      1.2802

REM Highest difference peak  2.760,  deepest hole -1.053,  1-sigma level  0.190
Q1    1   0.0000  0.0000  0.4016  10.33333  0.05    2.76
Q2    1   0.2824  0.7484  0.8996  11.00000  0.05    1.37
Q3    1   0.3333  0.6667  0.9979  10.33333  0.05    1.08
Q4    1   0.4741 -0.0964  0.1393  11.00000  0.05    0.75
Q5    1   0.3255  0.4319  0.1644  11.00000  0.05    0.70
Q6    1   0.3333  0.6667  0.5972  10.33333  0.05    0.66
Q7    1   0.4658  0.0389  0.3125  11.00000  0.05    0.65
Q8    1   0.0766  0.2432  0.3141  11.00000  0.05    0.64
Q9    1   0.1643  0.1016  0.4118  11.00000  0.05    0.64
Q10   1   0.0871  0.4830  0.3914  11.00000  0.05    0.63
Q11   1   0.2372  0.0039  0.4348  11.00000  0.05    0.62
Q12   1   0.2583  0.2404  0.3984  11.00000  0.05    0.62
Q13   1   0.2974  0.5309  0.3260  11.00000  0.05    0.60
Q14   1   0.3727  0.0445  0.3119  11.00000  0.05    0.60
Q15   1   0.2058  0.0680  0.6742  11.00000  0.05    0.59
Q16   1   0.6220  0.0884  0.4020  11.00000  0.05    0.59
Q17   1   0.6391  0.2263  0.0730  11.00000  0.05    0.59
Q18   1   0.1163  0.1657  0.3984  11.00000  0.05    0.57
Q19   1   0.1577  0.0154  0.3946  11.00000  0.05    0.55
Q20   1   0.2148  0.1962  0.5137  11.00000  0.05    0.55
;
_shelx_res_checksum              59969
_shelx_hkl_file
;
   2  -4  -9    1.59    1.53
   0  -3  -9   11.86    3.33
   2  -3  -9    9.27    2.92
   3  -3  -9   10.71    2.94
  -1  -2  -9   12.18    3.41
   1  -2  -9   10.70    3.28
   2  -2  -9   23.25    3.11
   3  -2  -9    7.45    1.80
   4  -2  -9    0.42    1.97
  -2  -1  -9    5.28    2.19
  -1  -1  -9    7.57    2.16
   0  -1  -9    4.15    1.95
   1  -1  -9    7.53    2.68
   2  -1  -9   10.82    2.07
   3  -1  -9   10.75    2.20
  -3   0  -9   15.84    3.77
  -2   0  -9   17.40    3.82
  -1   0  -9    5.56    2.46
   0   0  -9   -0.39    1.01
   1   0  -9    7.06    1.71
   2   0  -9   19.26    2.86
   3   0  -9   14.44    2.48
  -3   1  -9    5.74    2.48
  -2   1  -9    8.74    3.80
  -1   1  -9    3.59    2.08
   0   1  -9    6.56    2.65
   1   1  -9    7.06    1.77
   2   1  -9    5.51    1.65
  -4   2  -9    1.48    1.50
  -1   2  -9    4.35    2.45
   0   2  -9   17.30    4.63
   1   2  -9    9.83    2.40
   2   2  -9    0.25    1.85
   4  -8  -8   10.35    4.21
   2  -7  -8   12.75    2.02
   3  -7  -8    7.18    1.42
   4  -7  -8   43.18    3.40
   5  -7  -8    6.42    1.67
   6  -7  -8   13.92    3.49
   0  -6  -8    4.98    1.67
   1  -6  -8   62.61    4.61
   2  -6  -8    3.68    1.02
   3  -6  -8   31.14    2.83
   4  -6  -8    3.19    1.05
   5  -6  -8    2.83    1.19
   6  -6  -8    4.92    1.60
  -2  -5  -8    6.39    1.84
  -1  -5  -8    1.36    0.89
   0  -5  -8   13.27    2.34
   1  -5  -8   16.78    2.06
   2  -5  -8   18.40    2.12
   3  -5  -8    6.27    1.27
   4  -5  -8   50.90    4.43
   5  -5  -8   12.05    1.98
   6  -5  -8   62.05    4.51
   7  -5  -8   17.27    5.34
  -3  -4  -8   48.63    4.55
  -2  -4  -8    3.26    1.18
  -1  -4  -8   42.66    4.13
   0  -4  -8    9.28    1.92
   1  -4  -8   15.28    1.93
   2  -4  -8   14.11    1.85
   3  -4  -8   15.35    2.37
   4  -4  -8    8.16    1.80
   5  -4  -8   15.85    2.49
   6  -4  -8    6.12    1.65
   7  -4  -8    5.74    2.38
  -4  -3  -8    5.09    1.27
  -3  -3  -8   27.79    3.40
  -2  -3  -8    6.13    1.51
  -1  -3  -8   18.46    2.67
   0  -3  -8   12.33    2.02
   1  -3  -8    3.99    1.07
   2  -3  -8   58.62    3.54
   3  -3  -8   18.27    2.61
   4  -3  -8   10.93    1.92
   5  -3  -8   17.76    2.54
   6  -3  -8   24.88    4.52
   7  -3  -8   40.75    5.84
  -5  -2  -8   13.85    2.10
  -4  -2  -8    2.17    0.93
  -3  -2  -8   15.50    2.41
  -2  -2  -8   12.89    2.17
  -1  -2  -8   58.28    3.90
   0  -2  -8    6.36    1.50
   1  -2  -8   33.54    2.73
   2  -2  -8    7.96    1.65
   3  -2  -8    3.03    1.14
   4  -2  -8   13.52    2.22
   5  -2  -8    6.67    1.71
   6  -2  -8    2.46    1.63
   7  -2  -8    7.44    4.03
  -6  -1  -8    0.90    1.42
  -5  -1  -8   57.28    4.01
  -4  -1  -8   12.06    1.80
  -3  -1  -8    9.83    2.02
  -2  -1  -8    3.69    1.21
  -1  -1  -8   33.42    3.45
   0  -1  -8    3.67    0.99
   1  -1  -8    3.94    1.25
   2  -1  -8   29.98    3.24
   3  -1  -8   54.86    3.96
   4  -1  -8   18.00    2.54
   5  -1  -8   49.35    4.35
   6  -1  -8    1.73    1.62
  -6   0  -8    5.40    1.34
  -5   0  -8   15.89    2.11
  -4   0  -8   10.64    1.68
  -3   0  -8   13.24    2.28
  -2   0  -8    7.14    1.60
  -1   0  -8    5.16    1.42
   0   0  -8   97.32    5.04
   1   0  -8    4.57    1.42
   2   0  -8    5.30    1.35
   3   0  -8   13.82    2.17
   4   0  -8    8.19    1.70
   5   0  -8   15.89    3.59
   6   0  -8    7.28    2.65
  -7   1  -8   13.96    2.33
  -6   1  -8    2.62    0.99
  -5   1  -8   42.63    3.37
  -4   1  -8   17.09    2.04
  -3   1  -8   58.65    3.89
  -2   1  -8   39.23    3.81
  -1   1  -8    3.61    1.17
   0   1  -8    4.94    1.34
   1   1  -8   33.71    3.49
   2   1  -8    2.74    1.10
   3   1  -8   13.41    2.28
   4   1  -8    9.76    2.01
   5   1  -8   62.36    7.49
  -7   2  -8    4.16    1.26
  -6   2  -8    2.66    1.01
  -5   2  -8    5.32    1.45
  -4   2  -8   20.28    2.79
  -3   2  -8    2.22    1.08
  -2   2  -8    5.21    1.33
  -1   2  -8   24.24    4.32
   0   2  -8    5.26    1.38
   1   2  -8   58.20    3.87
   2   2  -8   13.89    2.31
   3   2  -8   15.44    2.35
   4   2  -8    5.64    1.65
   5   2  -8   16.92    4.67
  -7   3  -8   40.17    4.08
  -6   3  -8   31.52    3.54
  -5   3  -8   18.56    2.77
  -4   3  -8   10.63    1.99
  -3   3  -8   13.94    2.12
  -2   3  -8   62.07    5.80
  -1   3  -8    3.51    1.84
   0   3  -8   13.60    2.32
   1   3  -8   15.77    2.48
   2   3  -8    4.92    1.41
   3   3  -8   32.96    3.55
   4   3  -8    4.20    2.21
  -7   4  -8    6.93    1.81
  -6   4  -8    4.28    1.43
  -5   4  -8   12.98    2.24
  -4   4  -8    8.95    1.89
  -3   4  -8   19.58    3.78
  -2   4  -8   12.21    3.11
  -1   4  -8   13.16    2.24
   0   4  -8    7.27    1.73
   1   4  -8   51.81    4.50
   2   4  -8    2.63    1.30
   3   4  -8   43.40    4.24
  -7   5  -8   22.97    3.12
  -6   5  -8   58.93    4.98
  -5   5  -8   14.92    2.37
  -4   5  -8   45.34    6.04
  -3   5  -8    5.71    2.32
  -2   5  -8   18.28    3.82
  -1   5  -8   15.41    2.43
   0   5  -8   16.38    2.52
   1   5  -8    4.32    1.41
   2   5  -8    6.98    1.76
  -7   6  -8    1.08    1.05
  -6   6  -8    5.33    1.67
  -5   6  -8    1.80    1.50
  -4   6  -8    5.74    2.18
  -3   6  -8   23.44    4.31
  -2   6  -8    7.57    2.61
  -1   6  -8   54.95    4.73
   0   6  -8    6.54    1.68
   1   6  -8   14.62    2.41
  -6   7  -8   23.65    4.46
  -5   7  -8    3.28    2.04
  -4   7  -8   45.32    6.27
  -3   7  -8    6.19    2.31
  -2   7  -8   15.88    3.91
  -1   7  -8    3.03    1.88
   4 -10  -7   14.02    5.34
   6 -10  -7    2.28    2.84
   7 -10  -7    1.11    1.60
   2  -9  -7    6.21    1.39
   3  -9  -7    1.53    0.87
   4  -9  -7   30.03    2.81
   5  -9  -7   51.45    4.51
   6  -9  -7   31.80    3.53
   7  -9  -7    3.49    1.27
  -1  -8  -7    3.68    2.17
   0  -8  -7    1.69    0.97
   1  -8  -7   44.07    3.36
   2  -8  -7    2.83    0.94
   3  -8  -7   18.87    2.14
   4  -8  -7    1.10    0.74
   5  -8  -7    0.51    0.57
   6  -8  -7   36.56    3.72
   7  -8  -7   -0.01    0.60
   8  -8  -7    3.65    2.02
  -2  -7  -7    3.12    1.22
  -1  -7  -7   -0.36    0.64
   0  -7  -7    0.31    0.78
   1  -7  -7   26.17    2.54
   2  -7  -7   11.64    1.68
   3  -7  -7   23.34    2.35
   4  -7  -7    0.13    0.48
   5  -7  -7    3.59    0.95
   6  -7  -7   53.03    4.46
   7  -7  -7    0.77    0.84
   8  -7  -7   39.55    5.81
   9  -7  -7    5.60    2.22
  -4  -6  -7   -0.05    1.25
  -3  -6  -7   31.78    3.61
  -2  -6  -7   39.85    3.98
  -1  -6  -7   44.18    4.17
   0  -6  -7   29.64    3.30
   1  -6  -7    1.07    0.64
   2  -6  -7    7.22    1.31
   3  -6  -7   29.91    2.59
   4  -6  -7    4.98    1.09
   5  -6  -7    0.28    0.50
   6  -6  -7   33.12    3.45
   7  -6  -7   23.77    2.98
   8  -6  -7    4.90    2.12
   9  -6  -7    0.69    1.20
  -5  -5  -7    0.64    1.35
  -4  -5  -7   64.41    4.26
  -3  -5  -7    0.00    0.67
  -2  -5  -7    2.60    1.01
  -1  -5  -7    0.55    0.65
   0  -5  -7    7.25    1.23
   1  -5  -7    1.08    0.59
   2  -5  -7  105.80    4.15
   3  -5  -7    1.33    0.62
   4  -5  -7   67.43    3.25
   5  -5  -7    6.32    1.49
   6  -5  -7    1.79    0.96
   7  -5  -7   10.14    2.72
   8  -5  -7   19.15    3.94
   9  -5  -7   29.38    5.17
  -5  -4  -7   26.88    2.72
  -4  -4  -7    0.63    0.87
  -3  -4  -7    0.73    0.70
  -2  -4  -7    4.93    1.25
  -1  -4  -7   79.11    4.40
   0  -4  -7    7.47    1.20
   1  -4  -7   86.46    3.66
   2  -4  -7   -0.02    0.40
   3  -4  -7    0.39    0.46
   4  -4  -7    7.47    1.46
   5  -4  -7    2.30    0.95
   6  -4  -7   10.69    1.87
   7  -4  -7   26.20    4.58
   8  -4  -7    0.36    1.14
   9  -4  -7   54.11    6.73
  10  -4  -7    0.39    1.57
  -6  -3  -7    0.70    0.80
  -5  -3  -7   17.76    2.17
  -4  -3  -7   23.23    2.89
  -3  -3  -7   31.00    3.31
  -2  -3  -7    2.64    1.01
  -1  -3  -7    0.30    0.51
   0  -3  -7    8.71    1.33
   1  -3  -7    2.71    0.73
   2  -3  -7    1.37    0.61
   3  -3  -7    8.30    1.24
   4  -3  -7   89.88    4.59
   5  -3  -7  106.08    5.14
   6  -3  -7   32.81    3.31
   7  -3  -7    1.49    1.27
   8  -3  -7    0.20    0.93
   9  -3  -7   30.51    5.31
  10  -3  -7    0.05    1.26
  -7  -2  -7    4.66    1.59
  -6  -2  -7    5.59    1.29
  -5  -2  -7   10.10    1.54
  -4  -2  -7   12.95    2.19
  -3  -2  -7   99.36    5.10
  -2  -2  -7    0.33    0.65
  -1  -2  -7    0.62    0.49
   0  -2  -7   54.89    2.75
   1  -2  -7    9.78    1.34
   2  -2  -7   58.15    2.81
   3  -2  -7    5.19    1.35
   4  -2  -7    0.42    0.57
   5  -2  -7    2.68    1.10
   6  -2  -7    9.30    2.51
   7  -2  -7    3.00    1.54
   8  -2  -7   35.28    5.39
   9  -2  -7    3.12    1.34
  -7  -1  -7   39.64    4.21
  -6  -1  -7   28.07    2.65
  -5  -1  -7    0.69    0.58
  -4  -1  -7    0.34    0.63
  -3  -1  -7   91.60    4.73
  -2  -1  -7    1.57    0.73
  -1  -1  -7   10.58    1.41
   0  -1  -7   48.60    2.66
   1  -1  -7   46.02    2.49
   2  -1  -7   11.34    1.82
   3  -1  -7    0.19    0.55
   4  -1  -7   -0.45    0.49
   5  -1  -7   73.78    4.16
   6  -1  -7   -0.34    0.74
   7  -1  -7   45.58    6.14
   8  -1  -7    0.98    1.44
   9  -1  -7    3.80    1.73
  -8   0  -7    2.80    1.32
  -7   0  -7    1.95    0.84
  -6   0  -7   34.65    2.85
  -5   0  -7    7.72    1.32
  -4   0  -7    7.06    1.25
  -3   0  -7    7.30    1.51
  -2   0  -7   60.36    3.64
  -1   0  -7   49.93    2.55
   0   0  -7   -0.17    0.33
   1   0  -7   49.79    2.57
   2   0  -7   61.51    3.63
   3   0  -7    8.87    1.68
   4   0  -7   10.52    1.83
   5   0  -7    7.43    1.59
   6   0  -7   28.01    4.58
   7   0  -7    5.00    2.22
   8   0  -7    1.97    1.08
  -9   1  -7    2.54    2.14
  -8   1  -7   -0.07    0.78
  -7   1  -7   52.14    3.41
  -6   1  -7    0.47    0.59
  -5   1  -7   69.89    3.43
  -4   1  -7    0.77    0.55
  -3   1  -7    0.08    0.50
  -2   1  -7   12.19    1.95
  -1   1  -7   54.51    2.65
   0   1  -7   48.35    2.63
   1   1  -7   15.53    2.17
   2   1  -7    3.54    1.06
   3   1  -7   90.49    4.66
   4   1  -7    1.44    0.78
   5   1  -7    2.78    1.61
   6   1  -7   25.19    4.52
   7   1  -7   40.09    6.06
   8   1  -7   39.67    5.66
  -9   2  -7    2.76    1.27
  -8   2  -7   43.98    4.32
  -7   2  -7    4.15    1.05
  -6   2  -7    6.27    1.23
  -5   2  -7    1.20    0.66
  -4   2  -7   -0.31    0.40
  -3   2  -7    2.73    0.84
  -2   2  -7   64.98    3.73
  -1   2  -7   12.30    1.53
   0   2  -7   62.71    3.66
   1   2  -7    0.37    0.57
   2   2  -7   -0.10    0.53
   3   2  -7  114.81    5.37
   4   2  -7    6.52    1.57
   5   2  -7   14.89    3.58
   6   2  -7    4.39    2.16
   7   2  -7    5.67    1.63
  -9   3  -7   37.86    3.92
  -8   3  -7    0.62    0.71
  -7   3  -7    0.28    0.58
  -6   3  -7   32.23    2.77
  -5   3  -7  121.27    4.47
  -4   3  -7   90.01    4.69
  -3   3  -7    7.43    1.46
  -2   3  -7    0.56    0.50
  -1   3  -7    1.45    0.68
   0   3  -7    7.02    1.50
   1   3  -7    1.17    0.78
   2   3  -7    1.62    0.80
   3   3  -7   31.86    3.29
   4   3  -7   26.02    3.00
   5   3  -7   20.00    4.22
   6   3  -7    0.71    1.35
   7   3  -7   10.17    2.98
 -10   4  -7    0.05    1.35
  -9   4  -7   50.22    4.60
  -8   4  -7    0.37    0.67
  -7   4  -7   22.23    2.79
  -6   4  -7    5.58    1.44
  -5   4  -7    0.74    0.66
  -4   4  -7    8.03    1.57
  -3   4  -7    0.58    0.67
  -2   4  -7   -0.42    0.48
  -1   4  -7   98.32    4.81
   0   4  -7    7.98    1.64
   1   4  -7   74.95    4.27
   2   4  -7    5.63    1.39
   3   4  -7    0.52    0.73
   4   4  -7    0.79    0.98
   5   4  -7   31.61    5.24
 -10   5  -7    1.79    2.50
  -9   5  -7   28.70    5.12
  -8   5  -7   19.87    2.75
  -7   5  -7    8.43    1.79
  -6   5  -7    2.03    1.03
  -5   5  -7    5.32    1.43
  -4   5  -7   73.82    4.24
  -3   5  -7    1.65    0.87
  -2   5  -7  115.02    5.32
  -1   5  -7    0.55    0.66
   0   5  -7    5.96    1.54
   1   5  -7    0.00    0.63
   2   5  -7    3.80    1.28
   3   5  -7   -0.16    0.68
   4   5  -7   52.27    6.82
  -9   6  -7    0.49    0.79
  -8   6  -7    3.06    1.19
  -7   6  -7   26.51    3.11
  -6   6  -7   31.28    3.36
  -5   6  -7   -0.02    0.65
  -4   6  -7    5.01    1.31
  -3   6  -7   33.86    5.07
  -2   6  -7    8.10    1.69
  -1   6  -7   -0.17    0.60
   0   6  -7   31.14    3.32
   1   6  -7   54.14    4.02
   2   6  -7   40.23    3.66
   3   6  -7   29.82    5.03
  -9   7  -7    3.86    1.38
  -8   7  -7   49.25    4.44
  -7   7  -7    0.94    0.94
  -6   7  -7   52.44    4.54
  -5   7  -7    3.15    1.02
  -4   7  -7    0.28    0.74
  -3   7  -7   35.80    5.02
  -2   7  -7   12.53    2.11
  -1   7  -7   24.74    3.04
   0   7  -7    1.33    0.97
   1   7  -7    0.16    0.75
   2   7  -7    3.16    1.34
  -9   8  -7   30.98    3.61
  -8   8  -7    2.70    1.20
  -7   8  -7    0.29    0.72
  -6   8  -7   45.68    4.23
  -5   8  -7   -0.14    1.02
  -4   8  -7    0.56    0.96
  -3   8  -7   16.70    3.52
  -2   8  -7    3.59    1.34
  -1   8  -7   43.92    4.10
   0   8  -7    4.00    1.31
   1   8  -7    3.90    1.42
  -8   9  -7    2.56    1.30
  -7   9  -7    3.95    1.39
  -6   9  -7   28.88    4.85
  -5   9  -7   61.07    7.15
  -4   9  -7   21.21    4.23
  -3   9  -7    0.45    0.94
  -2   9  -7    4.81    1.46
  -1   9  -7   28.99    3.41
   2 -11  -6   35.26    5.35
   3 -11  -6    5.98    1.71
   4 -11  -6   46.73    4.41
   5 -11  -6    6.47    1.71
   6 -11  -6    2.47    1.11
   7 -11  -6   32.07    3.58
   8 -11  -6    3.17    1.42
   0 -10  -6   13.73    3.93
   1 -10  -6    1.38    0.71
   2 -10  -6   27.85    3.26
   3 -10  -6   20.82    2.80
   4 -10  -6    9.81    1.96
   5 -10  -6   16.07    2.45
   6 -10  -6   72.49    4.39
   7 -10  -6   15.08    2.37
   8 -10  -6   54.08    4.09
   9 -10  -6    5.86    2.39
  10 -10  -6   17.55    3.02
  -2  -9  -6    2.80    1.65
  -1  -9  -6    4.51    1.43
   0  -9  -6    4.64    1.13
   1  -9  -6    9.02    1.45
   2  -9  -6    2.48    1.05
   3  -9  -6   88.86    4.74
   4  -9  -6    1.30    0.80
   5  -9  -6    7.19    1.60
   6  -9  -6   25.08    2.93
   7  -9  -6    1.02    0.76
   8  -9  -6   53.35    3.90
   9  -9  -6    3.62    1.26
  10  -9  -6    2.21    1.16
  11  -9  -6   23.23    4.57
  -3  -8  -6    1.95    1.06
  -2  -8  -6   52.96    4.57
  -1  -8  -6   54.28    4.03
   0  -8  -6   94.92    4.03
   1  -8  -6   21.54    2.17
   2  -8  -6    2.64    0.98
   3  -8  -6   -0.05    0.50
   4  -8  -6   19.19    2.50
   5  -8  -6    5.05    1.25
   6  -8  -6    8.16    1.61
   7  -8  -6   18.43    2.45
   8  -8  -6   96.12    5.00
   9  -8  -6   10.38    1.91
  10  -8  -6   22.51    2.89
  11  -8  -6    7.68    1.99
  -4  -7  -6   32.08    2.99
  -3  -7  -6   12.60    2.16
  -2  -7  -6    0.34    0.67
  -1  -7  -6   15.79    2.36
   0  -7  -6    0.40    0.46
   1  -7  -6    7.55    1.21
   2  -7  -6   35.52    2.72
   3  -7  -6    6.08    1.37
   4  -7  -6  167.82    6.46
   5  -7  -6   16.26    2.16
   6  -7  -6    8.80    1.63
   7  -7  -6    0.00    0.56
   8  -7  -6   25.98    2.89
   9  -7  -6    3.34    1.20
  10  -7  -6   21.43    2.92
  11  -7  -6   56.18    4.35
  -5  -6  -6    2.70    1.35
  -4  -6  -6   72.15    4.43
  -3  -6  -6   26.33    3.05
  -2  -6  -6    5.13    1.34
  -1  -6  -6    9.31    1.46
   0  -6  -6    6.53    1.12
   1  -6  -6  185.38    5.59
   2  -6  -6    9.72    1.39
   3  -6  -6   51.01    3.22
   4  -6  -6   33.43    3.07
   5  -6  -6   16.38    2.17
   6  -6  -6    8.11    1.61
   7  -6  -6    5.66    1.04
   8  -6  -6    4.60    1.26
   9  -6  -6   89.50    4.82
  10  -6  -6   10.99    2.09
  11  -6  -6    8.76    1.95
  -6  -5  -6    8.49    2.07
  -5  -5  -6   20.42    2.30
  -4  -5  -6    9.43    1.87
  -3  -5  -6    6.23    1.46
  -2  -5  -6   17.68    2.36
  -1  -5  -6   17.87    1.82
   0  -5  -6   49.63    2.56
   1  -5  -6   14.53    1.64
   2  -5  -6   17.68    1.78
   3  -5  -6   11.87    1.44
   4  -5  -6   64.60    3.64
   5  -5  -6   41.08    3.14
   6  -5  -6  190.56    6.89
   7  -5  -6   36.90    2.71
   8  -5  -6    0.44    0.66
   9  -5  -6    2.08    0.93
  10  -5  -6   18.58    2.67
  11  -5  -6    4.02    1.39
  -7  -4  -6   58.96    5.23
  -6  -4  -6   11.26    2.21
  -5  -4  -6    1.48    0.70
  -4  -4  -6   14.75    2.17
  -3  -4  -6  154.28    6.40
  -2  -4  -6   32.45    3.10
  -1  -4  -6   73.74    3.07
   0  -4  -6    5.01    0.87
   1  -4  -6   16.08    1.67
   2  -4  -6   24.79    2.02
   3  -4  -6   38.15    2.25
   4  -4  -6    7.30    1.11
   5  -4  -6   15.24    1.59
   6  -4  -6   10.88    1.34
   7  -4  -6    4.10    1.03
   8  -4  -6   16.16    2.32
   9  -4  -6   10.27    1.88
  10  -4  -6   66.38    4.29
  11  -4  -6   31.78    3.70
  -8  -3  -6    4.13    1.58
  -7  -3  -6   15.04    2.52
  -6  -3  -6   84.93    3.90
  -5  -3  -6    0.28    0.49
  -4  -3  -6    5.81    1.36
  -3  -3  -6   43.37    3.28
  -2  -3  -6   14.32    2.05
  -1  -3  -6   40.03    2.27
   0  -3  -6   16.73    1.64
   1  -3  -6    4.82    0.88
   2  -3  -6  223.11    5.95
   3  -3  -6   19.47    1.76
   4  -3  -6   17.44    1.65
   5  -3  -6   11.51    1.80
   6  -3  -6   57.41    2.67
   7  -3  -6  167.21    6.54
   8  -3  -6    5.92    1.38
   9  -3  -6   31.61    3.31
  10  -3  -6   12.50    2.23
  11  -3  -6    1.38    1.07
  -9  -2  -6   29.85    5.44
  -8  -2  -6   27.68    3.41
  -7  -2  -6    2.41    1.16
  -6  -2  -6    2.73    0.86
  -5  -2  -6   33.97    2.72
  -4  -2  -6    8.98    1.65
  -3  -2  -6   17.83    2.25
  -2  -2  -6   31.64    2.42
  -1  -2  -6  216.12    5.86
   0  -2  -6   34.16    2.17
   1  -2  -6   59.26    2.64
   2  -2  -6   29.39    1.99
   3  -2  -6    3.45    0.73
   4  -2  -6   30.36    2.82
   5  -2  -6   15.80    1.61
   6  -2  -6   36.10    2.52
   7  -2  -6   22.47    2.62
   8  -2  -6    4.54    1.25
   9  -2  -6    0.99    0.96
  10  -2  -6   58.60    4.43
  11  -2  -6    4.10    1.57
  -9  -1  -6    1.37    1.17
  -8  -1  -6   12.90    2.37
  -7  -1  -6   26.70    3.20
  -6  -1  -6    7.29    1.26
  -5  -1  -6  183.88    5.73
  -4  -1  -6   18.38    2.28
  -3  -1  -6   20.08    2.30
  -2  -1  -6    3.07    0.72
  -1  -1  -6   63.61    2.70
   0  -1  -6   21.02    1.81
   1  -1  -6   25.08    1.94
   2  -1  -6   61.94    2.66
   3  -1  -6  215.60    7.33
   4  -1  -6   44.93    2.87
   5  -1  -6   75.97    3.08
   6  -1  -6   19.79    2.41
   7  -1  -6    9.76    1.79
   8  -1  -6   16.53    2.39
   9  -1  -6   52.29    4.63
  10  -1  -6    5.36    1.50
 -10   0  -6   10.95    3.33
  -9   0  -6    4.11    1.49
  -8   0  -6   90.36    5.30
  -7   0  -6    0.77    0.60
  -6   0  -6    5.90    1.13
  -5   0  -6   50.45    2.82
  -4   0  -6    5.93    1.35
  -3   0  -6   18.36    2.22
  -2   0  -6   33.94    2.11
  -1   0  -6   25.03    1.94
   0   0  -6  120.97    3.86
   1   0  -6   26.03    1.99
   2   0  -6   32.68    2.05
   3   0  -6   16.08    2.04
   4   0  -6    6.57    1.06
   5   0  -6   48.69    2.50
   6   0  -6    6.28    1.38
   7   0  -6   -0.10    0.54
   8   0  -6   98.48    5.18
   9   0  -6    3.16    1.29
  10   0  -6   17.46    2.78
 -10   1  -6    1.75    1.26
  -9   1  -6   50.01    4.60
  -8   1  -6   14.02    2.32
  -7   1  -6   11.47    1.62
  -6   1  -6   20.66    2.05
  -5   1  -6   68.12    3.14
  -4   1  -6   45.19    2.56
  -3   1  -6  215.77    7.40
  -2   1  -6   62.34    2.67
  -1   1  -6   25.33    1.97
   0   1  -6   27.16    2.02
   1   1  -6   59.49    2.60
   2   1  -6    3.09    0.95
   3   1  -6   18.89    2.18
   4   1  -6   14.74    1.60
   5   1  -6  183.52    5.47
   6   1  -6    7.45    1.61
   7   1  -6   22.75    2.80
   8   1  -6    8.01    1.73
   9   1  -6    0.53    0.85
 -10   2  -6   51.28    4.83
  -9   2  -6    0.15    0.77
  -8   2  -6    6.65    1.65
  -7   2  -6   19.83    2.04
  -6   2  -6   39.69    2.88
  -5   2  -6   12.64    1.50
  -4   2  -6   29.40    2.30
  -3   2  -6    3.43    0.78
  -2   2  -6   36.08    2.07
  -1   2  -6   63.11    2.70
   0   2  -6   34.63    2.14
   1   2  -6  219.87    7.43
   2   2  -6   25.38    2.60
   3   2  -6   17.14    1.72
   4   2  -6    9.08    1.28
   5   2  -6   40.88    3.58
   6   2  -6    4.31    1.29
   7   2  -6    1.61    0.92
   8   2  -6   24.66    3.17
   9   2  -6   40.67    5.71
 -11   3  -6    2.13    1.30
 -10   3  -6   12.76    2.30
  -9   3  -6   23.68    2.98
  -8   3  -6    5.48    1.14
  -7   3  -6  160.25    5.36
  -6   3  -6   50.64    2.68
  -5   3  -6   18.73    1.87
  -4   3  -6   15.92    1.68
  -3   3  -6   19.17    1.50
  -2   3  -6  230.24    6.01
  -1   3  -6    2.42    0.66
   0   3  -6   18.21    2.19
   1   3  -6   37.31    3.22
   2   3  -6   14.80    2.08
   3   3  -6   52.14    2.60
   4   3  -6    8.04    1.26
   5   3  -6    0.49    0.63
   6   3  -6   93.79    5.00
   7   3  -6   12.72    2.27
   8   3  -6    6.68    1.70
 -11   4  -6   29.83    3.67
 -10   4  -6   69.33    4.59
  -9   4  -6    5.67    1.48
  -8   4  -6   17.30    1.99
  -7   4  -6    6.01    1.13
  -6   4  -6    9.30    1.35
  -5   4  -6   16.31    1.70
  -4   4  -6    6.05    1.29
  -3   4  -6   42.53    2.34
  -2   4  -6   28.79    2.18
  -1   4  -6   16.70    1.68
   0   4  -6    6.74    1.34
   1   4  -6   79.02    4.03
   2   4  -6   39.77    2.51
   3   4  -6  157.90    5.14
   4   4  -6   11.15    1.55
   5   4  -6    0.40    0.65
   6   4  -6    6.91    1.72
   7   4  -6   53.78    4.92
 -11   5  -6    1.34    1.12
 -10   5  -6   19.93    2.79
  -9   5  -6    2.09    1.08
  -8   5  -6    0.70    0.57
  -7   5  -6   34.90    2.71
  -6   5  -6  183.97    7.05
  -5   5  -6   50.61    3.29
  -4   5  -6   67.11    3.76
  -3   5  -6   13.56    1.49
  -2   5  -6   17.52    1.72
  -1   5  -6   15.58    2.07
   0   5  -6   49.86    3.26
   1   5  -6   22.20    2.61
   2   5  -6   18.51    1.93
   3   5  -6    4.85    1.06
   4   5  -6    8.61    1.84
   5   5  -6   21.46    2.90
   6   5  -6   10.10    2.00
 -11   6  -6   11.46    2.28
 -10   6  -6   12.83    2.19
  -9   6  -6   84.77    4.35
  -8   6  -6    5.05    1.33
  -7   6  -6    6.70    1.47
  -6   6  -6    6.68    1.46
  -5   6  -6   20.44    2.44
  -4   6  -6   36.76    3.29
  -3   6  -6   51.17    2.68
  -2   6  -6   12.78    1.92
  -1   6  -6  174.58    6.79
   0   6  -6    4.14    1.15
   1   6  -6   13.81    1.80
   2   6  -6    7.83    1.30
   3   6  -6   30.03    2.59
   4   6  -6   69.14    4.48
   5   6  -6    2.46    1.19
 -11   7  -6   45.30    6.49
 -10   7  -6   13.87    3.46
  -9   7  -6    0.93    0.92
  -8   7  -6   21.57    2.72
  -7   7  -6    1.01    0.73
  -6   7  -6   10.17    1.88
  -5   7  -6   19.68    2.47
  -4   7  -6  159.80    6.30
  -3   7  -6   10.06    1.73
  -2   7  -6   32.97    3.27
  -1   7  -6    6.85    1.54
   0   7  -6    0.88    0.70
   1   7  -6   13.79    1.73
   2   7  -6    0.48    0.59
   3   7  -6   14.78    2.29
   4   7  -6   29.14    3.55
 -11   8  -6    3.97    2.15
 -10   8  -6   26.77    4.81
  -9   8  -6   10.91    2.03
  -8   8  -6   89.14    4.92
  -7   8  -6   13.53    2.12
  -6   8  -6    6.55    1.53
  -5   8  -6    7.03    1.52
  -4   8  -6   15.48    3.20
  -3   8  -6    0.55    0.56
  -2   8  -6    3.66    1.23
  -1   8  -6   27.09    3.11
   0   8  -6   99.78    5.19
   1   8  -6   56.27    3.44
   2   8  -6   62.23    3.50
   3   8  -6    3.11    1.25
 -10   9  -6    1.12    1.41
  -9   9  -6    6.51    1.73
  -8   9  -6   63.24    4.05
  -7   9  -6    0.47    0.66
  -6   9  -6   32.76    3.34
  -5   9  -6   10.20    1.86
  -4   9  -6    0.97    1.05
  -3   9  -6   85.02    4.72
  -2   9  -6    1.29    0.87
  -1   9  -6    9.57    1.89
   0   9  -6    3.76    1.32
   1   9  -6    7.30    1.45
   2   9  -6    7.73    2.69
 -10  10  -6   14.42    2.57
  -9  10  -6    4.60    1.36
  -8  10  -6   61.13    4.11
  -7  10  -6   13.89    2.27
  -6  10  -6   70.75    4.52
  -5  10  -6   19.55    3.89
  -4  10  -6   12.12    2.15
  -3  10  -6   13.10    2.17
  -2  10  -6   28.63    3.34
  -1  10  -6    1.11    0.95
   0  10  -6    9.04    1.97
  -9  11  -6    4.57    1.46
  -8  11  -6    2.90    1.19
  -7  11  -6   34.55    3.71
  -6  11  -6    2.35    1.60
  -5  11  -6    9.64    2.88
  -4  11  -6   49.17    4.87
  -3  11  -6    6.96    1.84
  -2  11  -6   28.53    4.91
   8 -13  -5   -0.22    1.60
   2 -12  -5   11.37    3.08
   3 -12  -5    5.49    1.52
   4 -12  -5   19.43    2.76
   5 -12  -5    1.50    1.01
   6 -12  -5   12.39    2.20
   7 -12  -5   96.32    5.17
   8 -12  -5   80.08    3.90
   9 -12  -5   18.87    2.20
  10 -12  -5    4.27    1.78
   0 -11  -5   40.75    3.26
   1 -11  -5    4.83    1.38
   2 -11  -5    2.90    1.08
   3 -11  -5   44.38    4.03
   4 -11  -5   10.69    1.96
   5 -11  -5   64.27    4.05
   6 -11  -5   15.01    2.28
   7 -11  -5    5.74    1.19
   8 -11  -5   11.49    1.68
   9 -11  -5    0.50    0.59
  10 -11  -5    6.03    1.55
  11 -11  -5   46.18    4.39
  -2 -10  -5    3.42    1.30
  -1 -10  -5    3.92    1.29
   0 -10  -5  127.12    4.85
   1 -10  -5   34.54    3.33
   2 -10  -5   23.59    2.79
   3 -10  -5   22.42    2.74
   4 -10  -5   27.37    2.98
   5 -10  -5    2.99    1.05
   6 -10  -5   11.19    1.51
   7 -10  -5    2.28    0.79
   8 -10  -5   81.93    3.72
   9 -10  -5    0.19    0.71
  10 -10  -5  118.33    5.94
  11 -10  -5    6.99    1.74
  12 -10  -5    4.99    1.48
  -3  -9  -5   19.77    2.73
  -2  -9  -5    1.26    0.87
  -1  -9  -5    1.12    0.63
   0  -9  -5   10.98    1.52
   1  -9  -5   26.54    2.89
   2  -9  -5   28.71    2.96
   3  -9  -5    0.21    0.54
   4  -9  -5   74.05    4.04
   5  -9  -5   23.10    2.67
   6  -9  -5   34.49    2.60
   7  -9  -5   22.40    2.11
   8  -9  -5    2.49    0.75
   9  -9  -5   13.15    2.07
  10  -9  -5   33.45    3.41
  11  -9  -5    4.95    1.44
  12  -9  -5    6.32    1.73
  -5  -8  -5    0.07    1.05
  -4  -8  -5   89.17    5.20
  -3  -8  -5   13.62    2.21
  -2  -8  -5   94.33    4.82
  -1  -8  -5    6.00    1.12
   0  -8  -5    5.76    1.03
   1  -8  -5   36.89    3.20
   2  -8  -5   94.04    4.53
   3  -8  -5  122.73    5.30
   4  -8  -5   32.61    3.03
   5  -8  -5    9.38    1.30
   6  -8  -5   91.24    3.51
   7  -8  -5    2.67    0.72
   8  -8  -5    8.21    1.28
   9  -8  -5   23.55    2.79
  10  -8  -5   20.28    2.68
  11  -8  -5   55.39    4.11
  12  -8  -5   17.70    2.71
  -6  -7  -5    3.15    1.44
  -5  -7  -5   77.03    4.86
  -4  -7  -5    5.10    1.06
  -3  -7  -5    1.39    0.90
  -2  -7  -5   23.85    2.74
  -1  -7  -5    1.20    0.56
   0  -7  -5    5.08    0.95
   1  -7  -5   34.12    3.07
   2  -7  -5   52.61    3.12
   3  -7  -5   56.54    3.28
   4  -7  -5   22.08    2.05
   5  -7  -5    5.97    0.97
   6  -7  -5  275.73    6.98
   7  -7  -5    7.17    1.06
   8  -7  -5   38.55    2.68
   9  -7  -5   27.31    2.93
  10  -7  -5   25.95    3.01
  11  -7  -5   14.42    2.20
  12  -7  -5    0.61    0.95
  -7  -6  -5    2.93    1.34
  -6  -6  -5   14.33    2.50
  -5  -6  -5    8.75    1.79
  -4  -6  -5   11.94    1.92
  -3  -6  -5   36.38    3.35
  -2  -6  -5   94.17    4.52
  -1  -6  -5  274.12    7.04
   0  -6  -5   20.44    1.80
   1  -6  -5   24.10    2.40
   2  -6  -5    5.08    1.09
   3  -6  -5   72.33    3.60
   4  -6  -5    0.40    0.36
   5  -6  -5   10.13    1.18
   6  -6  -5   19.38    1.76
   7  -6  -5   33.44    2.20
   8  -6  -5  100.73    4.70
   9  -6  -5    0.35    0.57
  10  -6  -5   28.58    3.12
  11  -6  -5   62.55    4.22
  12  -6  -5   12.73    2.22
  -8  -5  -5   -0.55    1.28
  -7  -5  -5    1.48    1.02
  -6  -5  -5   56.39    4.27
  -5  -5  -5    1.24    0.68
  -4  -5  -5   20.21    2.47
  -3  -5  -5    8.17    1.52
  -2  -5  -5    4.51    0.84
  -1  -5  -5    7.46    1.08
   0  -5  -5    3.91    0.79
   1  -5  -5    1.93    0.72
   2  -5  -5  179.79    6.12
   3  -5  -5    2.98    0.75
   4  -5  -5  254.57    6.19
   5  -5  -5    2.47    0.58
   6  -5  -5   30.00    2.14
   7  -5  -5   56.21    2.56
   8  -5  -5  128.47    5.43
   9  -5  -5   76.88    4.16
  10  -5  -5    0.38    0.63
  11  -5  -5   15.26    2.32
  12  -5  -5   82.25    4.81
  -8  -4  -5   18.73    2.84
  -7  -4  -5   14.98    2.48
  -6  -4  -5   24.12    3.03
  -5  -4  -5   71.48    3.29
  -4  -4  -5   33.32    3.05
  -3  -4  -5   21.38    2.34
  -2  -4  -5    0.85    0.44
  -1  -4  -5  254.26    6.31
   0  -4  -5   -0.10    0.23
   1  -4  -5  263.45    6.60
   2  -4  -5    4.27    0.97
   3  -4  -5    9.22    1.04
   4  -4  -5    0.30    0.30
   5  -4  -5    0.76    0.38
   6  -4  -5    6.83    0.99
   7  -4  -5   58.82    2.63
   8  -4  -5   26.01    2.72
   9  -4  -5   22.97    2.66
  10  -4  -5   12.93    2.12
  11  -4  -5    5.36    1.43
  12  -4  -5   84.36    4.92
  -9  -3  -5    6.43    1.45
  -8  -3  -5   56.08    4.79
  -7  -3  -5   23.52    3.01
  -6  -3  -5    0.33    0.48
  -5  -3  -5  118.73    4.35
  -4  -3  -5   57.82    3.33
  -3  -3  -5   78.02    3.81
  -2  -3  -5    2.34    0.57
  -1  -3  -5    6.80    0.97
   0  -3  -5  118.87    3.71
   1  -3  -5   36.69    1.85
   2  -3  -5   54.34    2.31
   3  -3  -5  115.97    3.04
   4  -3  -5  275.47    6.57
   5  -3  -5  177.18    4.89
   6  -3  -5   76.20    2.93
   7  -3  -5   20.42    2.30
   8  -3  -5    6.52    1.39
   9  -3  -5   33.59    3.29
  10  -3  -5    1.63    0.79
  11  -3  -5   13.34    2.26
  12  -3  -5   21.24    3.06
 -10  -2  -5   10.85    3.15
  -9  -2  -5    3.98    1.41
  -8  -2  -5   20.25    2.85
  -7  -2  -5   27.63    3.15
  -6  -2  -5  104.07    3.94
  -5  -2  -5   58.84    2.81
  -4  -2  -5    6.47    1.26
  -3  -2  -5  180.55    6.27
  -2  -2  -5    5.87    0.84
  -1  -2  -5   59.47    2.37
   0  -2  -5  103.48    3.31
   1  -2  -5   54.47    2.27
   2  -2  -5   99.72    2.66
   3  -2  -5   35.93    1.53
   4  -2  -5    5.00    0.67
   5  -2  -5    3.28    0.67
   6  -2  -5    0.97    0.45
   7  -2  -5    4.09    1.09
   8  -2  -5   91.63    4.48
   9  -2  -5   20.28    2.66
  10  -2  -5   89.15    4.84
  11  -2  -5    1.25    1.02
 -10  -1  -5    5.03    1.25
  -9  -1  -5   32.82    3.70
  -8  -1  -5   27.38    3.22
  -7  -1  -5   37.72    3.62
  -6  -1  -5   37.49    2.50
  -5  -1  -5   29.37    2.31
  -4  -1  -5    1.85    0.72
  -3  -1  -5  271.67    6.68
  -2  -1  -5   35.68    1.77
  -1  -1  -5   50.99    2.19
   0  -1  -5  105.30    3.34
   1  -1  -5  105.22    3.32
   2  -1  -5   55.33    1.85
   3  -1  -5   60.85    1.97
   4  -1  -5    7.83    1.03
   5  -1  -5  254.05    6.28
   6  -1  -5    9.03    1.18
   7  -1  -5  287.63    8.99
   8  -1  -5    1.35    0.79
   9  -1  -5    2.81    1.04
  10  -1  -5    1.83    0.97
  11  -1  -5    3.81    1.32
 -11   0  -5   44.95    4.20
 -10   0  -5  127.33    6.40
  -9   0  -5    9.33    1.92
  -8   0  -5    7.02    1.63
  -7   0  -5    5.56    1.01
  -6   0  -5   20.46    1.95
  -5   0  -5    2.53    0.70
  -4   0  -5    0.62    0.44
  -3   0  -5  125.42    3.67
  -2   0  -5   96.90    3.17
  -1   0  -5  102.19    3.29
   0   0  -5    0.39    0.28
   1   0  -5  103.20    2.73
   2   0  -5  101.31    2.70
   3   0  -5  119.40    3.65
   4   0  -5    0.19    0.32
   5   0  -5    3.78    0.66
   6   0  -5   21.27    1.83
   7   0  -5    8.54    1.21
   8   0  -5    8.12    1.30
   9   0  -5   11.33    1.61
  10   0  -5  132.08    6.27
  11   0  -5   46.32    4.63
 -11   1  -5    5.64    1.26
 -10   1  -5    1.21    0.94
  -9   1  -5    5.60    1.42
  -8   1  -5    0.57    0.69
  -7   1  -5  285.25    7.35
  -6   1  -5    7.91    1.17
  -5   1  -5  253.61    6.58
  -4   1  -5    8.05    1.07
  -3   1  -5   55.56    2.24
  -2   1  -5   52.21    2.19
  -1   1  -5  106.47    3.33
   0   1  -5  103.92    3.30
   1   1  -5   56.56    1.87
   2   1  -5   38.60    1.57
   3   1  -5  280.89    6.69
   4   1  -5    1.83    0.55
   5   1  -5   28.11    2.09
   6   1  -5   38.25    2.38
   7   1  -5   39.81    2.55
   8   1  -5   24.50    2.26
   9   1  -5   33.51    2.77
  10   1  -5    5.07    1.18
 -12   2  -5    4.43    1.80
 -11   2  -5    0.26    0.69
 -10   2  -5   96.33    5.26
  -9   2  -5   24.47    3.04
  -8   2  -5   90.80    4.77
  -7   2  -5    5.18    0.98
  -6   2  -5    0.68    0.45
  -5   2  -5    2.90    0.70
  -4   2  -5    4.70    0.83
  -3   2  -5   34.27    1.75
  -2   2  -5   95.49    3.19
  -1   2  -5   55.97    2.28
   0   2  -5  104.46    2.73
   1   2  -5   59.28    1.96
   2   2  -5    4.60    0.78
   3   2  -5  180.86    5.00
   4   2  -5    6.21    0.92
   5   2  -5   53.56    2.51
   6   2  -5  100.97    3.78
   7   2  -5   27.77    2.44
   8   2  -5   24.36    2.30
   9   2  -5    4.53    1.16
  10   2  -5    6.73    1.69
 -12   3  -5   17.34    2.30
 -11   3  -5    9.65    1.59
 -10   3  -5    0.96    0.89
  -9   3  -5   36.79    3.64
  -8   3  -5    6.40    1.14
  -7   3  -5   18.95    1.83
  -6   3  -5   68.28    2.99
  -5   3  -5  183.57    5.19
  -4   3  -5  286.67    6.87
  -3   3  -5  122.19    3.18
  -2   3  -5   59.35    2.41
  -1   3  -5   36.18    1.91
   0   3  -5  119.83    3.08
   1   3  -5   10.40    1.21
   2   3  -5    2.57    0.63
   3   3  -5   75.56    2.97
   4   3  -5   62.26    2.75
   5   3  -5  125.62    5.55
   6   3  -5    0.38    0.66
   7   3  -5   21.95    2.84
   8   3  -5   47.21    3.50
   9   3  -5    6.74    1.41
 -12   4  -5   90.04    4.30
 -11   4  -5    7.97    1.52
 -10   4  -5   11.28    2.12
  -9   4  -5   19.61    2.64
  -8   4  -5   36.56    2.68
  -7   4  -5   59.24    2.78
  -6   4  -5    7.40    1.11
  -5   4  -5    1.62    0.56
  -4   4  -5    0.67    0.34
  -3   4  -5    9.82    0.96
  -2   4  -5    5.11    0.79
  -1   4  -5  280.19    5.66
   0   4  -5    0.38    0.28
   1   4  -5  259.72    6.43
   2   4  -5    0.27    0.34
   3   4  -5   19.40    1.77
   4   4  -5   32.00    2.20
   5   4  -5   78.35    4.32
   6   4  -5   30.66    3.35
   7   4  -5   13.67    2.29
   8   4  -5   18.66    2.77
 -13   5  -5   -0.38    1.08
 -12   5  -5   81.43    4.09
 -11   5  -5   14.06    1.88
 -10   5  -5    1.99    0.95
  -9   5  -5   75.97    4.25
  -8   5  -5  128.80    4.41
  -7   5  -5   57.56    2.70
  -6   5  -5   28.48    2.20
  -5   5  -5    3.02    0.70
  -4   5  -5  260.14    6.38
  -3   5  -5    2.93    0.69
  -2   5  -5  173.24    4.92
  -1   5  -5    1.33    0.42
   0   5  -5    2.97    0.69
   1   5  -5    8.06    1.15
   2   5  -5    3.93    0.86
   3   5  -5    6.75    1.10
   4   5  -5   21.11    2.24
   5   5  -5    0.93    0.80
   6   5  -5   57.10    4.79
   7   5  -5    1.23    1.02
 -12   6  -5   14.68    2.49
 -11   6  -5   64.14    3.53
 -10   6  -5   30.04    3.23
  -9   6  -5    0.04    0.46
  -8   6  -5   99.22    3.77
  -7   6  -5   38.69    2.43
  -6   6  -5   20.49    2.34
  -5   6  -5    6.41    1.26
  -4   6  -5    0.94    0.45
  -3   6  -5   71.82    2.91
  -2   6  -5    5.74    0.77
  -1   6  -5   29.04    1.92
   0   6  -5   22.19    1.93
   1   6  -5  275.62    7.13
   2   6  -5   92.09    3.63
   3   6  -5   33.58    2.59
   4   6  -5   11.60    2.11
   5   6  -5   15.69    2.50
   6   6  -5    8.77    1.99
 -13   7  -5    2.94    1.82
 -12   7  -5    1.91    1.10
 -11   7  -5   15.56    2.40
 -10   7  -5   22.82    2.81
  -9   7  -5   30.07    2.43
  -8   7  -5   41.57    3.20
  -7   7  -5    9.81    1.64
  -6   7  -5  281.90    8.87
  -5   7  -5    5.25    1.20
  -4   7  -5   20.21    1.80
  -3   7  -5   61.45    2.72
  -2   7  -5   58.87    2.67
  -1   7  -5   35.69    2.55
   0   7  -5    7.24    1.11
   1   7  -5    1.41    0.64
   2   7  -5   18.23    1.86
   3   7  -5    1.44    0.68
   4   7  -5    3.35    1.30
   5   7  -5   83.94    5.12
 -13   8  -5    1.32    1.57
 -12   8  -5   24.09    3.14
 -11   8  -5   49.06    6.43
 -10   8  -5   24.99    4.49
  -9   8  -5   26.16    2.94
  -8   8  -5    6.98    1.53
  -7   8  -5    1.80    0.85
  -6   8  -5   83.23    4.29
  -5   8  -5    8.24    1.51
  -4   8  -5   34.45    2.43
  -3   8  -5  129.61    4.42
  -2   8  -5  104.93    4.84
  -1   8  -5   36.82    2.70
   0   8  -5    5.00    1.05
   1   8  -5    5.86    1.13
   2   8  -5   88.98    3.91
   3   8  -5   13.44    2.29
   4   8  -5   76.39    4.93
 -12   9  -5    2.14    1.63
 -11   9  -5    0.62    1.36
 -10   9  -5   24.84    4.39
  -9   9  -5   10.21    1.88
  -8   9  -5    4.85    1.30
  -7   9  -5   24.80    2.78
  -6   9  -5   39.29    3.50
  -5   9  -5   20.28    2.06
  -4   9  -5   72.12    3.16
  -3   9  -5    0.71    0.61
  -2   9  -5   32.47    3.30
  -1   9  -5   33.27    2.70
   0   9  -5   12.57    1.71
   1   9  -5    0.65    0.67
   2   9  -5    0.41    0.54
   3   9  -5   18.83    2.84
 -11  10  -5    6.56    2.42
 -10  10  -5  133.24    6.17
  -9  10  -5    1.20    0.89
  -8  10  -5  100.00    5.02
  -7  10  -5    1.52    0.77
  -6  10  -5   11.42    1.90
  -5  10  -5    1.62    0.73
  -4  10  -5   33.37    3.42
  -3  10  -5   20.28    2.62
  -2  10  -5   19.96    2.60
  -1  10  -5   29.01    3.23
   0  10  -5  133.48    5.08
   1  10  -5    6.06    1.38
   2  10  -5    3.11    1.79
 -11  11  -5   40.39    6.26
 -10  11  -5    8.24    1.83
  -9  11  -5    1.40    1.02
  -8  11  -5   13.98    2.28
  -7  11  -5    5.44    1.51
  -6  11  -5   18.74    2.58
  -5  11  -5   60.55    4.20
  -4  11  -5   11.51    2.11
  -3  11  -5   47.60    4.22
  -2  11  -5    3.99    1.34
  -1  11  -5    4.08    1.34
   0  11  -5   38.15    3.95
 -10  12  -5    3.63    1.38
  -9  12  -5   16.41    2.56
  -8  12  -5   88.96    4.98
  -7  12  -5   80.19    4.67
  -6  12  -5   13.57    3.45
  -5  12  -5    2.11    1.11
  -4  12  -5   19.50    2.74
  -3  12  -5    9.16    1.96
  -2  12  -5    5.61    1.73
  -8  13  -5    1.48    1.56
  -5  13  -5   -0.74    1.19
   6 -14  -4    6.86    3.29
   7 -14  -4   47.30    6.41
   8 -14  -4   21.90    4.52
   3 -13  -4   18.54    2.77
   4 -13  -4    6.66    1.70
   5 -13  -4   59.35    4.41
   6 -13  -4   31.63    2.84
   7 -13  -4   13.72    1.90
   8 -13  -4    3.18    0.97
   9 -13  -4    1.88    0.92
  10 -13  -4    8.55    1.92
  11 -13  -4    3.18    2.71
   0 -12  -4    4.04    1.40
   1 -12  -4    3.24    1.21
   2 -12  -4   40.81    3.82
   3 -12  -4    2.38    1.00
   4 -12  -4    2.34    0.96
   5 -12  -4   32.63    2.70
   6 -12  -4   13.15    1.76
   7 -12  -4   17.54    2.01
   8 -12  -4   13.22    1.80
   9 -12  -4    9.19    1.53
  10 -12  -4  173.29    7.42
  11 -12  -4    1.70    0.91
  12 -12  -4    1.54    1.60
  -2 -11  -4    3.01    1.24
  -1 -11  -4    2.84    0.94
   0 -11  -4   11.52    2.01
   1 -11  -4   35.53    3.42
   2 -11  -4   79.88    4.45
   3 -11  -4   36.14    3.40
   4 -11  -4    9.06    1.37
   5 -11  -4   48.74    3.08
   6 -11  -4   27.08    2.37
   7 -11  -4   71.05    3.39
   8 -11  -4    6.48    1.19
   9 -11  -4    0.62    0.62
  10 -11  -4    5.32    1.41
  11 -11  -4   10.29    2.04
  12 -11  -4    1.78    1.11
  -3 -10  -4    8.10    1.84
  -2 -10  -4  171.88    7.12
  -1 -10  -4    6.34    1.21
   0 -10  -4   18.44    2.38
   1 -10  -4    5.62    1.31
   2 -10  -4   19.27    2.37
   3 -10  -4    6.68    1.08
   4 -10  -4    0.39    0.39
   5 -10  -4   19.93    1.94
   6 -10  -4  136.72    4.61
   7 -10  -4   24.49    2.20
   8 -10  -4   30.45    2.49
   9 -10  -4   26.03    2.29
  10 -10  -4   18.54    2.53
  11 -10  -4   32.04    3.44
  12 -10  -4   34.15    3.65
  13 -10  -4   20.12    4.25
  -4  -9  -4    5.33    2.01
  -3  -9  -4    8.54    1.44
  -2  -9  -4    1.32    0.76
  -1  -9  -4   27.54    2.82
   0  -9  -4    0.17    0.49
   1  -9  -4   22.08    2.46
   2  -9  -4   36.79    3.19
   3  -9  -4  201.94    5.74
   4  -9  -4    1.08    0.51
   5  -9  -4   63.30    2.85
   6  -9  -4   28.85    2.24
   7  -9  -4   25.65    2.15
   8  -9  -4   40.26    2.53
   9  -9  -4    0.90    0.62
  10  -9  -4    6.37    1.49
  11  -9  -4   87.42    4.77
  12  -9  -4    2.21    1.09
  13  -9  -4    5.04    2.17
  -5  -8  -4    2.56    1.27
  -4  -8  -4   19.95    2.33
  -3  -8  -4    8.01    1.59
  -2  -8  -4   31.37    2.42
  -1  -8  -4   45.24    3.08
   0  -8  -4  172.11    6.21
   1  -8  -4   31.14    2.77
   2  -8  -4    3.27    0.73
   3  -8  -4    6.26    0.96
   4  -8  -4   43.53    2.20
   5  -8  -4   28.10    2.09
   6  -8  -4   47.56    2.34
   7  -8  -4   49.50    2.43
   8  -8  -4  181.93    5.21
   9  -8  -4   19.24    2.41
  10  -8  -4   28.59    2.98
  11  -8  -4   40.59    3.77
  12  -8  -4    1.14    0.91
  13  -8  -4   64.75    6.18
  -7  -7  -4   41.74    4.23
  -6  -7  -4   14.33    2.43
  -5  -7  -4   17.53    2.63
  -4  -7  -4   75.75    3.45
  -3  -7  -4   24.90    2.67
  -2  -7  -4   26.44    2.13
  -1  -7  -4   50.97    2.95
   0  -7  -4    5.50    1.11
   1  -7  -4   10.61    1.55
   2  -7  -4   35.36    1.89
   3  -7  -4   31.56    1.93
   4  -7  -4  247.68    6.28
   5  -7  -4   53.32    2.37
   6  -7  -4   91.21    3.26
   7  -7  -4    6.67    1.02
   8  -7  -4   33.32    2.28
   9  -7  -4   38.03    3.30
  10  -7  -4    5.42    1.33
  11  -7  -4    7.60    1.58
  12  -7  -4   35.67    3.56
  13  -7  -4   29.83    5.06
  -8  -6  -4    3.55    1.43
  -7  -6  -4   35.65    3.78
  -6  -6  -4   15.12    2.36
  -5  -6  -4   32.11    3.35
  -4  -6  -4  126.80    5.36
  -3  -6  -4   29.34    2.76
  -2  -6  -4   41.71    2.17
  -1  -6  -4   89.11    3.87
   0  -6  -4   26.84    2.27
   1  -6  -4  271.59    6.19
   2  -6  -4    2.62    0.56
   3  -6  -4    3.54    0.67
   4  -6  -4   24.72    1.65
   5  -6  -4   20.03    1.60
   6  -6  -4   25.65    1.71
   7  -6  -4   10.76    1.22
   8  -6  -4    2.39    0.81
   9  -6  -4  205.86    7.32
  10  -6  -4    0.25    0.50
  11  -6  -4   54.99    3.82
  12  -6  -4   11.98    2.09
  13  -6  -4   10.24    3.14
  -8  -5  -4   57.61    4.42
  -7  -5  -4   30.90    2.79
  -6  -5  -4   56.49    4.09
  -5  -5  -4   16.26    1.77
  -4  -5  -4   67.54    3.54
  -3  -5  -4   26.38    1.93
  -2  -5  -4   50.64    2.27
  -1  -5  -4   21.50    1.68
   0  -5  -4   29.66    2.10
   1  -5  -4   66.14    2.37
   2  -5  -4   85.21    2.78
   3  -5  -4   26.46    1.58
   4  -5  -4  122.20    3.50
   5  -5  -4   26.12    1.65
   6  -5  -4  268.94    6.31
   7  -5  -4   33.46    1.97
   8  -5  -4    5.81    1.18
   9  -5  -4    2.14    0.84
  10  -5  -4   20.27    2.44
  11  -5  -4   30.49    3.16
  12  -5  -4   24.69    4.33
  13  -5  -4    1.54    1.57
  -9  -4  -4    5.89    1.71
  -8  -4  -4    0.83    0.62
  -7  -4  -4    9.64    1.88
  -6  -4  -4    0.42    0.61
  -5  -4  -4    1.81    0.63
  -4  -4  -4   45.19    2.73
  -3  -4  -4  256.00    6.19
  -2  -4  -4   22.64    1.54
  -1  -4  -4  116.56    3.51
   0  -4  -4   55.63    2.23
   1  -4  -4   74.37    2.42
   2  -4  -4  145.43    3.87
   3  -4  -4  172.73    4.37
   4  -4  -4   50.76    2.07
   5  -4  -4   69.51    2.54
   6  -4  -4    2.77    0.60
   7  -4  -4   37.20    1.93
   8  -4  -4   46.28    2.87
   9  -4  -4   59.09    3.51
  10  -4  -4  124.65    5.53
  11  -4  -4   82.88    4.39
  12  -4  -4   13.56    3.24
  13  -4  -4    0.94    1.39
 -10  -3  -4   18.03    2.95
  -9  -3  -4    1.73    0.84
  -8  -3  -4   46.33    4.21
  -7  -3  -4    4.35    1.26
  -6  -3  -4  217.83    6.31
  -5  -3  -4    5.40    0.97
  -4  -3  -4   28.97    2.52
  -3  -3  -4    6.97    0.89
  -2  -3  -4   26.66    1.58
  -1  -3  -4  175.27    4.46
   0  -3  -4   85.61    2.17
   1  -3  -4    0.11    0.18
   2  -3  -4  241.77    5.30
   3  -3  -4   86.53    2.67
   4  -3  -4   70.98    2.52
   5  -3  -4   80.36    2.79
   6  -3  -4    5.92    0.69
   7  -3  -4  263.68    6.26
   8  -3  -4   26.92    1.98
   9  -3  -4   28.72    2.15
  10  -3  -4   21.07    2.00
  11  -3  -4    7.61    1.28
  12  -3  -4    8.50    2.17
  13  -3  -4    7.55    2.95
 -10  -2  -4   32.47    3.71
  -9  -2  -4   93.27    4.15
  -8  -2  -4   28.84    3.26
  -7  -2  -4   34.86    3.34
  -6  -2  -4    2.38    0.65
  -5  -2  -4   33.98    2.13
  -4  -2  -4    1.69    0.63
  -3  -2  -4   89.64    2.81
  -2  -2  -4  152.60    4.04
  -1  -2  -4  240.76    5.48
   0  -2  -4   47.78    1.45
   1  -2  -4   91.73    2.24
   2  -2  -4   47.04    1.78
   3  -2  -4    0.18    0.24
   4  -2  -4  149.44    3.29
   5  -2  -4   29.30    1.27
   6  -2  -4   26.86    1.34
   7  -2  -4   53.69    2.34
   8  -2  -4   42.92    2.32
   9  -2  -4   26.80    2.16
  10  -2  -4   31.25    2.46
  11  -2  -4    0.63    0.56
  12  -2  -4  169.22    7.25
  13  -2  -4    3.86    1.84
 -11  -1  -4    4.15    1.39
 -10  -1  -4   30.80    2.85
  -9  -1  -4    7.06    1.67
  -8  -1  -4   20.35    2.55
  -7  -1  -4   32.52    3.20
  -6  -1  -4   10.83    1.30
  -5  -1  -4  267.43    6.62
  -4  -1  -4   63.08    3.13
  -3  -1  -4   74.53    2.48
  -2  -1  -4    0.23    0.25
  -1  -1  -4   84.34    2.67
   0  -1  -4    6.91    0.58
   1  -1  -4    6.42    0.61
   2  -1  -4   88.06    2.26
   3  -1  -4  242.05    4.61
   4  -1  -4  176.65    3.26
   5  -1  -4  119.47    2.94
   6  -1  -4   20.51    1.33
   7  -1  -4   88.47    3.24
   8  -1  -4   48.05    2.43
   9  -1  -4   45.37    2.51
  10  -1  -4   31.08    2.54
  11  -1  -4    5.86    1.19
  12  -1  -4    1.42    0.91
 -11   0  -4   10.87    1.75
 -10   0  -4   16.09    1.95
  -9   0  -4    0.30    0.59
  -8   0  -4  168.12    6.82
  -7   0  -4    5.71    0.98
  -6   0  -4   26.53    2.03
  -5   0  -4   29.08    1.85
  -4   0  -4   50.24    2.25
  -3   0  -4   83.48    2.60
  -2   0  -4   49.80    1.91
  -1   0  -4    6.31    0.45
   0   0  -4  883.97   14.04
   1   0  -4    6.05    0.60
   2   0  -4   49.43    1.58
   3   0  -4   86.92    2.24
   4   0  -4   50.96    1.76
   5   0  -4   30.21    1.38
   6   0  -4   26.36    1.74
   7   0  -4    6.07    0.98
   8   0  -4  170.57    5.19
   9   0  -4    0.11    0.36
  10   0  -4   18.97    2.06
  11   0  -4    8.29    1.83
  12   0  -4    3.46    2.05
 -12   1  -4    0.91    0.94
 -11   1  -4    7.17    1.47
 -10   1  -4   27.22    2.62
  -9   1  -4   40.16    3.70
  -8   1  -4   51.61    3.44
  -7   1  -4   93.25    3.45
  -6   1  -4   21.55    1.79
  -5   1  -4  114.69    3.67
  -4   1  -4  176.89    3.81
  -3   1  -4  245.22    5.41
  -2   1  -4   88.22    2.71
  -1   1  -4    6.34    0.57
   0   1  -4    6.03    0.60
   1   1  -4   89.09    2.27
   2   1  -4    0.43    0.21
   3   1  -4   73.02    2.60
   4   1  -4   64.05    2.10
   5   1  -4  269.75    5.45
   6   1  -4   11.79    1.33
   7   1  -4   29.43    2.23
   8   1  -4   21.84    2.04
   9   1  -4    5.72    1.12
  10   1  -4   32.88    2.79
  11   1  -4    3.83    1.30
 -12   2  -4  171.78    6.22
 -11   2  -4    1.23    0.69
 -10   2  -4   26.77    2.50
  -9   2  -4   29.97    3.22
  -8   2  -4   46.83    3.42
  -7   2  -4   50.01    2.42
  -6   2  -4   26.85    1.99
  -5   2  -4   29.47    1.87
  -4   2  -4  152.46    3.47
  -3   2  -4   -0.22    0.14
  -2   2  -4   46.03    1.87
  -1   2  -4   90.99    2.26
   0   2  -4   48.28    1.59
   1   2  -4  242.53    4.65
   2   2  -4  151.52    3.34
   3   2  -4   85.30    2.93
   4   2  -4    2.03    0.46
   5   2  -4   33.00    1.62
   6   2  -4    3.09    0.71
   7   2  -4   37.43    2.46
   8   2  -4   24.06    2.19
   9   2  -4   81.27    3.76
  10   2  -4   35.58    2.97
  11   2  -4   24.63    6.81
 -13   3  -4    4.29    1.26
 -12   3  -4    9.04    1.56
 -11   3  -4    9.76    1.59
 -10   3  -4   26.53    3.06
  -9   3  -4   28.65    2.99
  -8   3  -4   28.27    2.15
  -7   3  -4  261.55    6.60
  -6   3  -4    5.14    0.85
  -5   3  -4   86.14    3.03
  -4   3  -4   77.57    2.25
  -3   3  -4   82.71    2.31
  -2   3  -4  242.72    4.09
  -1   3  -4    0.52    0.23
   0   3  -4   82.47    2.27
   1   3  -4  169.98    3.71
   2   3  -4   25.02    1.76
   3   3  -4    5.38    0.80
   4   3  -4   31.56    1.93
   5   3  -4    6.59    1.06
   6   3  -4  204.76    5.97
   7   3  -4    5.44    1.09
   8   3  -4   33.52    2.73
   9   3  -4    2.29    0.82
  10   3  -4   18.87    2.95
 -13   4  -4    1.41    0.82
 -12   4  -4   12.66    1.77
 -11   4  -4   76.60    3.66
 -10   4  -4  120.61    5.75
  -9   4  -4   61.57    3.77
  -8   4  -4   48.84    2.50
  -7   4  -4   34.77    2.14
  -6   4  -4    1.32    0.44
  -5   4  -4   67.02    2.63
  -4   4  -4   54.57    1.85
  -3   4  -4  177.72    3.84
  -2   4  -4  149.74    3.01
  -1   4  -4   75.08    2.21
   0   4  -4   53.19    1.79
   1   4  -4  117.15    3.61
   2   4  -4   25.35    1.72
   3   4  -4  252.10    6.39
   4   4  -4   47.84    2.27
   5   4  -4    0.43    0.54
   6   4  -4    0.44    0.44
   7   4  -4    8.96    1.39
   8   4  -4    0.90    0.67
   9   4  -4    6.66    1.41
 -13   5  -4    4.05    1.12
 -12   5  -4   15.11    1.96
 -11   5  -4   33.05    2.73
 -10   5  -4   17.48    2.35
  -9   5  -4    0.65    0.62
  -8   5  -4    4.90    0.88
  -7   5  -4   36.35    2.17
  -6   5  -4  270.28    6.48
  -5   5  -4   30.64    1.46
  -4   5  -4  122.95    2.99
  -3   5  -4   27.09    1.30
  -2   5  -4   85.21    2.46
  -1   5  -4   65.46    2.12
   0   5  -4   29.10    1.34
   1   5  -4   22.23    1.75
   2   5  -4   50.29    2.37
   3   5  -4   28.15    2.11
   4   5  -4   68.79    2.91
   5   5  -4   14.79    2.13
   6   5  -4   44.05    4.02
   7   5  -4   31.71    3.52
   8   5  -4   57.96    4.99
 -14   6  -4   22.61    3.52
 -13   6  -4   16.46    2.13
 -12   6  -4    8.23    1.33
 -11   6  -4   50.46    3.24
 -10   6  -4   -0.08    0.43
  -9   6  -4  201.08    5.83
  -8   6  -4    3.81    0.83
  -7   6  -4   11.43    1.35
  -6   6  -4   26.55    1.78
  -5   6  -4   22.49    1.32
  -4   6  -4   26.91    1.91
  -3   6  -4    4.76    0.78
  -2   6  -4    1.89    0.45
  -1   6  -4  270.46    5.48
   0   6  -4   25.44    1.94
   1   6  -4   89.57    3.38
   2   6  -4   43.81    2.41
   3   6  -4   32.62    2.19
   4   6  -4  129.17    5.84
   5   6  -4   25.73    3.06
   6   6  -4    9.70    1.98
   7   6  -4   27.60    3.34
   8   6  -4    3.62    2.08
 -14   7  -4   42.73    8.57
 -13   7  -4   31.68    3.70
 -12   7  -4   32.79    3.51
 -11   7  -4    9.72    1.83
 -10   7  -4    6.75    1.46
  -9   7  -4   43.81    2.42
  -8   7  -4   33.90    2.19
  -7   7  -4    6.30    0.98
  -6   7  -4   88.11    4.13
  -5   7  -4   51.44    2.35
  -4   7  -4  261.99    6.41
  -3   7  -4   34.00    2.01
  -2   7  -4   32.23    1.67
  -1   7  -4    9.69    1.24
   0   7  -4    7.02    1.05
   1   7  -4   51.90    2.62
   2   7  -4   27.95    2.29
   3   7  -4   26.76    2.31
   4   7  -4   78.26    4.61
   5   7  -4   16.56    2.54
   6   7  -4   14.62    2.46
   7   7  -4   33.21    6.18
 -13   8  -4   62.93    4.68
 -12   8  -4    0.43    0.80
 -11   8  -4   37.60    3.57
 -10   8  -4   29.52    3.03
  -9   8  -4   23.14    2.02
  -8   8  -4  166.98    6.41
  -7   8  -4   51.60    3.16
  -6   8  -4   42.42    2.84
  -5   8  -4   27.93    2.08
  -4   8  -4   44.90    2.24
  -3   8  -4    6.17    0.94
  -2   8  -4    2.58    0.57
  -1   8  -4   34.26    2.48
   0   8  -4  167.27    5.27
   1   8  -4   41.94    2.65
   2   8  -4   28.45    2.39
   3   8  -4    5.37    1.12
   4   8  -4   14.88    2.53
   5   8  -4    4.84    1.52
 -13   9  -4    5.79    1.58
 -12   9  -4    3.59    1.38
 -11   9  -4   88.21    7.16
 -10   9  -4    7.77    2.41
  -9   9  -4   -0.14    0.56
  -8   9  -4   41.85    3.51
  -7   9  -4   24.32    2.61
  -6   9  -4   25.96    2.62
  -5   9  -4   64.25    2.86
  -4   9  -4    1.53    0.53
  -3   9  -4  204.34    5.74
  -2   9  -4   35.94    3.22
  -1   9  -4   19.93    2.05
   0   9  -4    0.00    0.38
   1   9  -4   27.08    2.49
   2   9  -4    0.84    0.60
   3   9  -4    9.20    2.05
   4   9  -4    0.96    0.89
 -13  10  -4   21.26    4.35
 -12  10  -4   35.86    5.44
 -11  10  -4   37.89    5.59
 -10  10  -4   20.49    2.63
  -9  10  -4   29.10    3.09
  -8  10  -4   26.66    2.90
  -7  10  -4   26.05    2.76
  -6  10  -4  134.71    4.55
  -5  10  -4   18.50    1.84
  -4  10  -4   -0.24    0.35
  -3  10  -4    8.91    1.72
  -2  10  -4   25.02    2.83
  -1  10  -4    5.88    1.09
   0  10  -4   20.71    2.21
   1  10  -4    5.33    1.17
   2  10  -4  166.26    5.91
   3  10  -4    7.51    1.92
 -12  11  -4    1.24    1.28
 -11  11  -4   11.83    3.20
 -10  11  -4    6.20    1.45
  -9  11  -4    0.99    0.70
  -8  11  -4    8.02    1.61
  -7  11  -4   76.12    4.24
  -6  11  -4   29.61    2.45
  -5  11  -4   53.65    3.12
  -4  11  -4   11.97    2.01
  -3  11  -4   40.88    3.79
  -2  11  -4   90.55    4.87
  -1  11  -4   31.20    3.41
   0  11  -4   10.81    1.71
   1  11  -4    2.20    0.89
 -11  12  -4    1.52    1.34
 -10  12  -4  158.10    7.05
  -9  12  -4   10.40    1.95
  -8  12  -4   13.81    2.21
  -7  12  -4   17.82    2.51
  -6  12  -4   12.66    1.73
  -5  12  -4   42.23    3.95
  -4  12  -4    1.09    0.86
  -3  12  -4    2.26    1.07
  -2  12  -4   37.20    3.84
  -1  12  -4    5.24    1.51
   0  12  -4    5.43    2.10
 -10  13  -4    6.34    1.72
  -9  13  -4    1.95    1.04
  -8  13  -4    2.99    1.25
  -7  13  -4   11.67    2.09
  -6  13  -4   32.12    3.56
  -5  13  -4   61.85    4.47
  -4  13  -4    6.14    1.53
  -3  13  -4   17.05    2.70
  -8  14  -4   21.66    4.14
  -6  14  -4    4.34    2.23
   4 -14  -3    3.22    1.70
   5 -14  -3   28.87    2.74
   6 -14  -3   11.97    1.83
   7 -14  -3  119.77    5.02
   8 -14  -3   10.24    1.73
   9 -14  -3   -0.14    0.65
  10 -14  -3   67.79    4.10
  11 -14  -3   21.80    5.13
   1 -13  -3    6.79    1.59
   2 -13  -3   83.26    4.77
   3 -13  -3   49.43    3.61
   4 -13  -3   60.14    3.68
   5 -13  -3    0.87    0.64
   6 -13  -3    4.17    1.06
   7 -13  -3   55.81    3.45
   8 -13  -3    0.50    0.60
   9 -13  -3   10.00    1.62
  10 -13  -3   71.91    3.80
  11 -13  -3    8.96    1.95
  12 -13  -3   47.88    6.22
  -1 -12  -3   48.47    4.21
   0 -12  -3   50.77    4.30
   1 -12  -3   18.69    2.58
   2 -12  -3   14.92    1.85
   3 -12  -3    9.17    1.45
   4 -12  -3   20.48    2.18
   5 -12  -3    0.32    0.47
   6 -12  -3   31.44    2.64
   7 -12  -3   44.52    3.17
   8 -12  -3   69.17    3.39
   9 -12  -3   47.82    3.36
  10 -12  -3    4.28    1.36
  11 -12  -3   28.48    3.34
  12 -12  -3   56.27    4.79
  -2 -11  -3   10.94    1.92
  -1 -11  -3   20.94    2.63
   0 -11  -3   28.13    2.99
   1 -11  -3    3.05    0.84
   2 -11  -3    3.07    0.82
   3 -11  -3  149.50    5.06
   4 -11  -3   24.34    2.23
   5 -11  -3  127.96    4.56
   6 -11  -3    7.74    1.18
   7 -11  -3    3.36    0.82
   8 -11  -3    8.51    1.35
   9 -11  -3   43.00    2.75
  10 -11  -3   24.05    2.91
  11 -11  -3   22.13    2.86
  12 -11  -3   16.83    2.56
  13 -11  -3   71.57    6.64
  -3 -10  -3   61.80    5.59
  -2 -10  -3    4.03    1.01
  -1 -10  -3   24.67    2.69
   0 -10  -3  138.76    4.70
   1 -10  -3   26.93    2.28
   2 -10  -3   52.58    2.64
   3 -10  -3   16.29    1.69
   4 -10  -3   25.49    2.22
   5 -10  -3    8.10    1.18
   6 -10  -3   17.02    1.75
   7 -10  -3    9.07    1.27
   8 -10  -3  151.35    4.88
   9 -10  -3   21.33    2.00
  10 -10  -3  131.18    5.85
  11 -10  -3    3.07    1.07
  12 -10  -3   18.77    2.60
  13 -10  -3   48.17    6.35
  -3  -9  -3   44.14    3.31
  -2  -9  -3   36.22    2.61
  -1  -9  -3   22.18    2.42
   0  -9  -3   14.94    1.57
   1  -9  -3  182.72    5.30
   2  -9  -3   18.12    1.70
   3  -9  -3    3.25    0.71
   4  -9  -3   32.98    2.32
   5  -9  -3  251.33    6.47
   6  -9  -3   94.33    3.46
   7  -9  -3   25.62    2.02
   8  -9  -3    1.77    0.58
   9  -9  -3   14.15    1.52
  10  -9  -3   27.29    2.94
  11  -9  -3    2.39    0.97
  12  -9  -3    7.40    2.31
  13  -9  -3   67.13    6.24
  14  -9  -3   30.65    5.13
  -4  -8  -3   73.57    4.17
  -3  -8  -3   10.12    1.32
  -2  -8  -3  159.01    5.77
  -1  -8  -3    2.19    0.60
   0  -8  -3    5.71    0.89
   1  -8  -3  148.98    4.39
   2  -8  -3   65.69    2.68
   3  -8  -3  132.91    4.11
   4  -8  -3    0.79    0.33
   5  -8  -3   22.45    1.77
   6  -8  -3   49.47    2.28
   7  -8  -3    4.23    0.81
   8  -8  -3    5.16    0.90
   9  -8  -3  188.62    6.76
  10  -8  -3   56.92    3.40
  11  -8  -3  153.78    6.26
  12  -8  -3   19.83    3.77
  13  -8  -3   -0.17    0.81
  14  -8  -3   11.98    3.14
  -7  -7  -3  116.20    8.11
  -6  -7  -3   51.69    3.87
  -5  -7  -3   49.64    2.85
  -4  -7  -3    4.84    0.97
  -3  -7  -3   10.52    1.28
  -2  -7  -3   26.61    2.35
  -1  -7  -3    4.16    0.75
   0  -7  -3   18.97    1.58
   1  -7  -3  233.26    5.81
   2  -7  -3   53.68    2.24
   3  -7  -3  220.68    5.52
   4  -7  -3   32.00    1.69
   5  -7  -3   21.01    1.61
   6  -7  -3  278.28    6.63
   7  -7  -3   20.09    1.59
   8  -7  -3  149.44    4.30
   9  -7  -3   21.33    2.35
  10  -7  -3   17.00    2.17
  11  -7  -3   29.78    2.97
  12  -7  -3   -0.03    0.72
  13  -7  -3    7.35    2.53
  14  -7  -3  130.44    9.13
  -8  -6  -3   14.37    2.28
  -7  -6  -3    4.43    1.09
  -6  -6  -3   29.53    2.76
  -5  -6  -3    9.98    1.71
  -4  -6  -3   14.76    1.57
  -3  -6  -3   98.48    3.32
  -2  -6  -3   48.45    2.08
  -1  -6  -3  277.02    6.38
   0  -6  -3   77.46    2.62
   1  -6  -3   46.14    1.91
   2  -6  -3   12.10    1.15
   3  -6  -3  141.31    3.90
   4  -6  -3   96.21    3.01
   5  -6  -3   34.30    1.67
   6  -6  -3   78.91    2.69
   7  -6  -3  243.56    4.89
   8  -6  -3   67.57    2.17
   9  -6  -3    2.12    0.55
  10  -6  -3   24.39    1.92
  11  -6  -3  131.96    4.36
  12  -6  -3   35.40    3.31
  13  -6  -3   59.90    4.17
  14  -6  -3   12.16    3.40
  -9  -5  -3   26.37    2.66
  -8  -5  -3    0.34    0.63
  -7  -5  -3   -0.10    0.62
  -6  -5  -3  133.74    4.65
  -5  -5  -3   10.32    1.22
  -4  -5  -3  260.42    6.49
  -3  -5  -3   25.96    1.64
  -2  -5  -3   23.31    1.05
  -1  -5  -3   35.90    1.34
   0  -5  -3  107.24    3.05
   1  -5  -3    2.79    0.52
   2  -5  -3  266.65    5.82
   3  -5  -3   31.85    1.49
   4  -5  -3  392.16    6.68
   5  -5  -3  107.61    2.55
   6  -5  -3   43.13    1.51
   7  -5  -3   58.38    1.87
   8  -5  -3  132.58    3.95
   9  -5  -3   31.81    1.96
  10  -5  -3   11.58    1.38
  11  -5  -3    8.84    1.27
  12  -5  -3   42.17    3.72
  13  -5  -3    0.22    0.71
  14  -5  -3    0.79    0.85
 -10  -4  -3    3.60    1.37
  -9  -4  -3   64.56    4.23
  -8  -4  -3   19.10    2.68
  -7  -4  -3   31.05    2.56
  -6  -4  -3   26.41    2.79
  -5  -4  -3   35.22    2.12
  -4  -4  -3    1.07    0.38
  -3  -4  -3   33.09    1.37
  -2  -4  -3   98.60    2.47
  -1  -4  -3  386.12    6.55
   0  -4  -3  143.79    2.83
   1  -4  -3  393.09    7.80
   2  -4  -3    1.10    0.32
   3  -4  -3   61.17    1.50
   4  -4  -3  139.91    2.92
   5  -4  -3    3.48    0.45
   6  -4  -3   13.63    0.96
   7  -4  -3  220.23    4.53
   8  -4  -3    1.06    0.39
   9  -4  -3  259.53    6.35
  10  -4  -3   16.64    1.64
  11  -4  -3    5.13    0.96
  12  -4  -3   70.71    4.11
  13  -4  -3   10.80    1.96
  14  -4  -3   57.19    5.64
 -11  -3  -3    8.58    3.13
 -10  -3  -3   49.11    4.49
  -9  -3  -3    8.29    1.77
  -8  -3  -3  155.46    5.30
  -7  -3  -3   18.83    2.31
  -6  -3  -3    3.37    1.01
  -5  -3  -3  132.91    4.08
  -4  -3  -3  224.71    5.22
  -3  -3  -3  148.32    3.17
  -2  -3  -3   31.04    1.16
  -1  -3  -3   65.34    1.89
   0  -3  -3  194.43    3.42
   1  -3  -3   42.79    1.57
   2  -3  -3  108.55    2.87
   3  -3  -3  187.57    3.55
   4  -3  -3  395.72    6.67
   5  -3  -3  275.28    4.96
   6  -3  -3  155.98    3.32
   7  -3  -3   34.46    1.70
   8  -3  -3   24.61    1.82
   9  -3  -3   99.85    3.43
  10  -3  -3   13.00    1.84
  11  -3  -3    9.86    1.71
  12  -3  -3   40.32    3.74
  13  -3  -3   65.39    4.57
  14  -3  -3   27.38    4.69
 -11  -2  -3   82.07    5.04
 -10  -2  -3   12.44    2.16
  -9  -2  -3    1.69    0.73
  -8  -2  -3   53.01    2.97
  -7  -2  -3   23.70    2.60
  -6  -2  -3   59.26    2.57
  -5  -2  -3   55.54    2.32
  -4  -2  -3   11.64    0.99
  -3  -2  -3  274.55    4.79
  -2  -2  -3    0.41    0.23
  -1  -2  -3  112.51    2.36
   0  -2  -3  458.54    8.18
   1  -2  -3   77.38    2.11
   2  -2  -3  440.38    8.34
   3  -2  -3   46.72    1.34
   4  -2  -3    0.35    0.17
   5  -2  -3   30.83    1.23
   6  -2  -3   93.75    2.43
   7  -2  -3   21.82    1.65
   8  -2  -3   49.01    2.21
   9  -2  -3   27.24    2.03
  10  -2  -3  153.78    4.86
  11  -2  -3   37.84    3.44
  12  -2  -3    1.47    0.96
  13  -2  -3   12.97    2.30
 -12  -1  -3    2.31    1.85
 -11  -1  -3   17.25    2.68
 -10  -1  -3    3.23    1.10
  -9  -1  -3   29.00    2.55
  -8  -1  -3  188.44    7.01
  -7  -1  -3  133.51    5.61
  -6  -1  -3  239.32    5.96
  -5  -1  -3   47.12    2.04
  -4  -1  -3    2.99    0.44
  -3  -1  -3  401.60    6.48
  -2  -1  -3   44.72    1.63
  -1  -1  -3   75.81    1.64
   0  -1  -3  104.97    2.18
   1  -1  -3  103.07    2.24
   2  -1  -3   75.54    1.77
   3  -1  -3  108.28    2.43
   4  -1  -3   61.10    1.73
   5  -1  -3  382.56    6.79
   6  -1  -3   32.66    1.37
   7  -1  -3  275.03    6.62
   8  -1  -3    3.00    0.67
   9  -1  -3    0.78    0.45
  10  -1  -3   24.00    2.13
  11  -1  -3   26.38    3.04
  12  -1  -3   30.30    3.42
  13  -1  -3   53.59    6.51
 -12   0  -3   45.52    4.45
 -11   0  -3   33.50    3.66
 -10   0  -3  141.72    5.09
  -9   0  -3   11.81    1.52
  -8   0  -3    4.36    1.12
  -7   0  -3   19.44    2.24
  -6   0  -3   78.81    2.79
  -5   0  -3  109.43    3.34
  -4   0  -3  142.48    3.04
  -3   0  -3  186.72    4.28
  -2   0  -3  439.23    8.38
  -1   0  -3  104.41    2.08
   0   0  -3    0.27    0.15
   1   0  -3  104.55    2.27
   2   0  -3  446.85    6.40
   3   0  -3  192.88    3.29
   4   0  -3  139.73    2.58
   5   0  -3  106.71    2.65
   6   0  -3   74.28    2.69
   7   0  -3   21.88    1.76
   8   0  -3    3.92    0.81
   9   0  -3   16.26    1.72
  10   0  -3  132.08    4.69
  11   0  -3   28.51    3.16
  12   0  -3   50.61    4.54
 -12   1  -3   22.54    3.14
 -11   1  -3   24.85    2.48
 -10   1  -3   22.96    2.23
  -9   1  -3    0.97    0.56
  -8   1  -3    4.79    1.08
  -7   1  -3  280.00    6.70
  -6   1  -3   35.23    1.83
  -5   1  -3  382.24    8.21
  -4   1  -3   63.58    1.70
  -3   1  -3  107.08    2.82
  -2   1  -3   74.40    2.19
  -1   1  -3  105.44    2.20
   0   1  -3  102.14    2.26
   1   1  -3   72.42    1.83
   2   1  -3   44.85    1.21
   3   1  -3  396.98    5.94
   4   1  -3    3.11    0.48
   5   1  -3   44.78    1.59
   6   1  -3  238.08    5.99
   7   1  -3  151.91    4.53
   8   1  -3  182.12    5.40
   9   1  -3   29.36    2.47
  10   1  -3    2.20    1.03
  11   1  -3   19.11    2.78
  12   1  -3    6.05    2.50
 -13   2  -3   14.63    2.61
 -12   2  -3    2.33    1.09
 -11   2  -3   36.69    2.95
 -10   2  -3  160.59    5.28
  -9   2  -3   21.17    1.96
  -8   2  -3   46.36    2.97
  -7   2  -3   23.94    1.61
  -6   2  -3   94.34    3.09
  -5   2  -3   31.94    1.60
  -4   2  -3    1.06    0.28
  -3   2  -3   46.35    1.46
  -2   2  -3  432.25    8.44
  -1   2  -3   71.16    2.07
   0   2  -3  438.80    7.25
   1   2  -3  109.67    2.47
   2   2  -3    1.34    0.26
   3   2  -3  268.96    5.12
   4   2  -3   12.50    0.99
   5   2  -3   57.70    1.92
   6   2  -3   57.94    2.62
   7   2  -3   21.51    1.92
   8   2  -3   56.93    2.78
   9   2  -3    1.89    0.72
  10   2  -3   17.86    2.46
  11   2  -3   74.94    4.71
 -13   3  -3   63.77    4.77
 -12   3  -3   45.09    3.35
 -11   3  -3   13.06    1.69
 -10   3  -3   10.84    1.53
  -9   3  -3   90.29    3.59
  -8   3  -3   23.39    2.36
  -7   3  -3   35.08    1.97
  -6   3  -3  146.90    4.08
  -5   3  -3  280.50    5.00
  -4   3  -3  397.55    6.85
  -3   3  -3  183.27    3.81
  -2   3  -3  106.91    2.18
  -1   3  -3   43.74    1.22
   0   3  -3  186.27    3.79
   1   3  -3   59.03    1.67
   2   3  -3   34.15    1.12
   3   3  -3  148.78    3.46
   4   3  -3  222.73    4.74
   5   3  -3  138.37    3.51
   6   3  -3    3.22    0.73
   7   3  -3   18.01    1.84
   8   3  -3  151.75    5.16
   9   3  -3    8.84    1.42
  10   3  -3   54.35    4.79
 -14   4  -3   65.77    7.84
 -13   4  -3   10.57    1.67
 -12   4  -3   75.88    3.64
 -11   4  -3    5.14    1.12
 -10   4  -3   15.76    1.74
  -9   4  -3  270.18    6.82
  -8   4  -3    0.58    0.36
  -7   4  -3  223.73    5.63
  -6   4  -3   12.03    1.22
  -5   4  -3    3.24    0.45
  -4   4  -3  141.29    3.14
  -3   4  -3   61.28    1.77
  -2   4  -3    0.87    0.22
  -1   4  -3  402.58    5.98
   0   4  -3  140.79    3.12
   1   4  -3  386.68    6.81
   2   4  -3   93.52    3.06
   3   4  -3   32.65    1.52
   4   4  -3    0.87    0.33
   5   4  -3   31.59    2.37
   6   4  -3   25.38    2.18
   7   4  -3   28.78    2.52
   8   4  -3   23.37    2.27
   9   4  -3   67.00    3.47
  10   4  -3    2.23    1.50
 -14   5  -3   -0.28    0.81
 -13   5  -3    0.49    0.63
 -12   5  -3   51.25    3.07
 -11   5  -3    8.55    1.39
 -10   5  -3    9.64    1.38
  -9   5  -3   29.96    2.24
  -8   5  -3  134.14    4.09
  -7   5  -3   57.95    2.37
  -6   5  -3   42.25    1.93
  -5   5  -3  107.99    2.69
  -4   5  -3  391.00    6.87
  -3   5  -3   34.06    1.25
  -2   5  -3  269.31    4.36
  -1   5  -3    3.08    0.45
   0   5  -3  107.09    2.69
   1   5  -3   34.94    1.51
   2   5  -3   23.41    1.62
   3   5  -3   25.72    1.94
   4   5  -3  259.81    5.60
   5   5  -3    9.36    1.32
   6   5  -3  131.65    4.70
   7   5  -3   -0.33    0.43
   8   5  -3    0.69    0.62
   9   5  -3   34.18    3.82
 -14   6  -3    9.71    1.64
 -13   6  -3   56.74    3.55
 -12   6  -3   29.55    2.57
 -11   6  -3  125.30    4.54
 -10   6  -3   24.75    2.13
  -9   6  -3    3.44    0.77
  -8   6  -3   67.24    2.71
  -7   6  -3  238.15    5.92
  -6   6  -3   78.76    2.24
  -5   6  -3   35.13    1.40
  -4   6  -3   93.72    2.46
  -3   6  -3  146.76    4.00
  -2   6  -3   11.25    0.95
  -1   6  -3   43.03    1.62
   0   6  -3   80.44    2.29
   1   6  -3  277.22    6.77
   2   6  -3   50.41    2.34
   3   6  -3   96.43    3.48
   4   6  -3   15.86    1.61
   5   6  -3    7.92    1.54
   6   6  -3   33.21    2.77
   7   6  -3    4.48    1.16
   8   6  -3   13.55    1.89
 -14   7  -3  132.60    6.56
 -13   7  -3    2.42    1.10
 -12   7  -3   -0.25    0.52
 -11   7  -3   29.40    3.11
 -10   7  -3   17.62    2.22
  -9   7  -3   17.08    1.66
  -8   7  -3  152.86    4.47
  -7   7  -3   20.08    1.68
  -6   7  -3  276.63    5.55
  -5   7  -3   22.52    1.26
  -4   7  -3   34.52    1.75
  -3   7  -3  219.70    5.52
  -2   7  -3   54.05    1.95
  -1   7  -3  230.22    5.02
   0   7  -3   20.66    1.73
   1   7  -3    4.37    0.83
   2   7  -3   25.90    2.06
   3   7  -3    9.80    1.30
   4   7  -3    3.41    1.18
   5   7  -3   50.65    4.32
   6   7  -3   57.74    4.27
   7   7  -3  131.46    6.46
 -14   8  -3   11.80    2.23
 -13   8  -3    0.39    0.73
 -12   8  -3   17.42    2.50
 -11   8  -3  151.50    6.40
 -10   8  -3   54.75    3.66
  -9   8  -3  194.96    5.40
  -8   8  -3    4.76    0.89
  -7   8  -3    3.95    0.69
  -6   8  -3   53.61    2.31
  -5   8  -3   26.31    1.91
  -4   8  -3    1.01    0.44
  -3   8  -3  131.29    4.04
  -2   8  -3   67.08    2.64
  -1   8  -3  153.51    3.87
   0   8  -3    4.20    0.85
   1   8  -3    1.08    0.48
   2   8  -3  155.12    5.02
   3   8  -3    8.74    1.36
   4   8  -3   74.32    4.51
   5   8  -3    0.24    0.69
   6   8  -3    7.98    1.94
 -14   9  -3   30.38    3.61
 -13   9  -3   63.88    4.25
 -12   9  -3   11.77    2.01
 -11   9  -3    2.29    1.07
 -10   9  -3   24.41    2.66
  -9   9  -3   16.17    1.63
  -8   9  -3    1.34    0.68
  -7   9  -3   23.79    2.44
  -6   9  -3  100.91    3.51
  -5   9  -3  258.51    6.48
  -4   9  -3   29.90    2.17
  -3   9  -3    4.12    0.76
  -2   9  -3   20.64    1.71
  -1   9  -3  185.93    5.56
   0   9  -3   17.23    1.73
   1   9  -3   20.76    2.04
   2   9  -3   36.36    2.82
   3   9  -3   36.37    3.77
   4   9  -3    6.56    1.69
   5   9  -3    0.77    0.91
 -14  10  -3    2.42    1.29
 -13  10  -3   55.07    4.70
 -12  10  -3   13.20    2.24
 -11  10  -3    3.23    1.19
 -10  10  -3  149.66    6.06
  -9  10  -3   25.97    2.73
  -8  10  -3  155.29    6.10
  -7  10  -3   11.24    1.40
  -6  10  -3   15.80    1.62
  -5  10  -3    9.69    1.24
  -4  10  -3   24.61    2.06
  -3  10  -3   17.27    1.69
  -2  10  -3   54.97    3.42
  -1  10  -3   27.95    3.00
   0  10  -3  135.33    4.87
   1  10  -3   20.02    2.14
   2  10  -3    2.92    0.93
   3  10  -3   58.98    5.11
   4  10  -3   55.19    7.20
 -13  11  -3   78.87    7.05
 -12  11  -3   16.90    3.75
 -11  11  -3   30.22    4.81
 -10  11  -3   20.82    2.64
  -9  11  -3   36.62    3.40
  -8  11  -3    7.74    1.54
  -7  11  -3    5.68    1.02
  -6  11  -3   11.41    1.48
  -5  11  -3  129.37    4.47
  -4  11  -3   26.58    2.22
  -3  11  -3  149.13    6.36
  -2  11  -3    1.32    0.76
  -1  11  -3    2.93    1.12
   0  11  -3   29.05    3.14
   1  11  -3   25.84    2.52
   2  11  -3    9.48    2.05
 -12  12  -3   51.21    6.74
 -11  12  -3   28.68    4.90
 -10  12  -3    2.47    1.05
  -9  12  -3   50.50    3.75
  -8  12  -3   64.10    3.99
  -7  12  -3   49.51    2.92
  -6  12  -3   32.16    2.61
  -5  12  -3    0.43    0.50
  -4  12  -3   25.03    2.99
  -3  12  -3   10.19    1.86
  -2  12  -3   13.63    2.31
  -1  12  -3   10.33    1.98
   0  12  -3   48.67    3.83
   1  12  -3   44.50    5.53
 -11  13  -3    9.55    3.01
 -10  13  -3   64.02    4.62
  -9  13  -3    8.33    1.87
  -8  13  -3    1.42    0.84
  -7  13  -3   58.04    3.10
  -6  13  -3    4.20    1.02
  -5  13  -3    0.38    0.69
  -4  13  -3   62.64    4.14
  -3  13  -3   52.82    4.63
  -2  13  -3   73.37    4.62
  -1  13  -3    4.50    1.92
 -10  14  -3   63.27    4.69
  -9  14  -3   -0.52    0.67
  -8  14  -3    6.01    1.65
  -7  14  -3  119.39    4.89
  -6  14  -3   13.40    2.35
  -5  14  -3   25.31    3.27
  -4  14  -3    1.72    1.48
   7 -15  -2   12.11    5.41
   9 -15  -2    6.15    3.73
   2 -14  -2   13.99    3.58
   3 -14  -2    0.27    0.91
   4 -14  -2   10.70    2.20
   5 -14  -2   11.41    2.02
   6 -14  -2    6.04    1.64
   7 -14  -2   30.77    3.45
   8 -14  -2   12.99    2.34
   9 -14  -2  115.81    6.01
  10 -14  -2   50.41    4.59
  11 -14  -2   12.81    2.36
   0 -13  -2   86.39    4.08
   1 -13  -2    1.08    0.90
   2 -13  -2   62.43    4.56
   3 -13  -2   22.26    2.98
   4 -13  -2   34.43    3.69
   5 -13  -2   95.09    5.16
   6 -13  -2    4.04    1.30
   7 -13  -2   37.03    3.72
   8 -13  -2    6.58    1.64
   9 -13  -2    7.75    1.77
  10 -13  -2    8.79    1.84
  11 -13  -2    1.82    0.98
  12 -13  -2    9.38    2.85
  -2 -12  -2   14.01    3.35
  -1 -12  -2   11.11    1.62
   0 -12  -2   29.42    3.30
   1 -12  -2   12.91    1.96
   2 -12  -2   37.45    3.61
   3 -12  -2   11.23    2.02
   4 -12  -2    0.97    0.76
   5 -12  -2   51.26    4.23
   6 -12  -2   22.54    2.71
   7 -12  -2   18.25    2.46
   8 -12  -2   65.67    4.04
   9 -12  -2   10.52    1.93
  10 -12  -2   84.07    4.65
  11 -12  -2   10.30    1.95
  12 -12  -2   29.37    4.82
  13 -12  -2    0.69    1.40
  -2 -11  -2    1.59    0.85
  -1 -11  -2    7.92    1.32
   0 -11  -2   32.02    3.22
   1 -11  -2   69.73    4.06
   2 -11  -2   31.90    3.19
   3 -11  -2   49.49    3.34
   4 -11  -2  147.29    6.17
   5 -11  -2   69.90    3.92
   6 -11  -2    7.30    1.48
   7 -11  -2  186.86    7.26
   8 -11  -2   22.99    2.71
   9 -11  -2    0.22    0.45
  10 -11  -2   17.14    2.30
  11 -11  -2   32.40    3.31
  12 -11  -2   15.49    3.48
  13 -11  -2   55.08    6.66
  14 -11  -2    0.86    1.28
  -3 -10  -2    9.80    2.51
  -2 -10  -2   79.78    3.43
  -1 -10  -2   21.07    2.52
   0 -10  -2  107.39    4.95
   1 -10  -2    5.43    1.27
   2 -10  -2   32.33    3.01
   3 -10  -2   14.72    2.03
   4 -10  -2    2.56    0.87
   5 -10  -2   36.71    3.15
   6 -10  -2  154.26    5.97
   7 -10  -2   18.31    2.17
   8 -10  -2  162.55    6.24
   9 -10  -2   64.44    3.65
  10 -10  -2  104.01    4.91
  11 -10  -2   79.91    4.22
  12 -10  -2   37.20    5.17
  13 -10  -2   17.56    3.80
  14 -10  -2    9.48    3.04
  -3  -9  -2    6.62    1.15
  -2  -9  -2    0.52    0.46
  -1  -9  -2   68.24    3.67
   0  -9  -2    7.30    1.39
   1  -9  -2   36.29    2.98
   2  -9  -2    2.73    0.84
   3  -9  -2  341.43    9.96
   4  -9  -2   53.78    3.04
   5  -9  -2   81.80    3.34
   6  -9  -2   72.40    2.77
   7  -9  -2   41.51    2.05
   8  -9  -2   84.68    3.14
   9  -9  -2    8.01    1.14
  10  -9  -2    7.90    1.17
  11  -9  -2   33.43    2.42
  12  -9  -2   11.59    1.84
  13  -9  -2   46.82    4.02
  14  -9  -2   16.40    3.78
  -4  -8  -2   67.13    4.14
  -3  -8  -2   19.52    1.31
  -2  -8  -2  169.75    4.21
  -1  -8  -2   84.03    3.11
   0  -8  -2  213.42    5.52
   1  -8  -2   15.20    1.40
   2  -8  -2    6.81    0.87
   3  -8  -2   64.38    2.42
   4  -8  -2   42.56    1.91
   5  -8  -2    7.31    0.92
   6  -8  -2  116.35    3.57
   7  -8  -2   42.58    1.97
   8  -8  -2  222.94    5.61
   9  -8  -2   34.15    2.09
  10  -8  -2   28.51    2.10
  11  -8  -2   57.31    2.67
  12  -8  -2    0.27    0.49
  13  -8  -2   87.80    4.73
  14  -8  -2    7.01    1.62
  15  -8  -2    9.78    2.87
  -8  -7  -2    9.11    2.77
  -7  -7  -2   34.69    3.45
  -6  -7  -2   35.89    2.72
  -5  -7  -2   18.91    1.79
  -4  -7  -2  202.84    3.44
  -3  -7  -2   15.86    0.90
  -2  -7  -2   40.69    1.50
  -1  -7  -2   42.39    1.62
   0  -7  -2   32.31    1.62
   1  -7  -2  145.54    3.88
   2  -7  -2  113.98    3.26
   3  -7  -2  110.87    3.18
   4  -7  -2  381.67    7.90
   5  -7  -2  161.43    4.13
   6  -7  -2  148.90    4.00
   7  -7  -2   29.95    1.64
   8  -7  -2   18.72    1.27
   9  -7  -2    4.07    0.75
  10  -7  -2   14.02    1.42
  11  -7  -2  162.01    6.06
  12  -7  -2   47.69    3.20
  13  -7  -2    7.77    1.64
  14  -7  -2   38.84    3.83
  15  -7  -2   18.53    3.67
  -9  -6  -2   14.30    2.41
  -8  -6  -2    5.25    1.41
  -7  -6  -2    5.65    1.40
  -6  -6  -2   23.64    2.11
  -5  -6  -2    6.48    0.83
  -4  -6  -2  161.48    3.23
  -3  -6  -2   70.51    2.05
  -2  -6  -2  118.71    3.04
  -1  -6  -2  151.66    3.98
   0  -6  -2   33.25    1.51
   1  -6  -2  296.95    5.32
   2  -6  -2   11.50    0.97
   3  -6  -2   75.99    2.30
   4  -6  -2   92.42    2.65
   5  -6  -2  218.22    5.00
   6  -6  -2   31.60    1.50
   7  -6  -2  142.29    3.28
   8  -6  -2    8.94    0.82
   9  -6  -2  352.01    7.85
  10  -6  -2    2.28    0.66
  11  -6  -2   63.96    3.58
  12  -6  -2   23.15    2.64
  13  -6  -2   32.79    3.25
  14  -6  -2   14.14    2.32
  15  -6  -2    0.78    1.45
  -9  -5  -2   17.59    2.62
  -8  -5  -2   97.46    4.07
  -7  -5  -2   52.19    3.64
  -6  -5  -2   70.62    3.79
  -5  -5  -2   40.70    1.84
  -4  -5  -2   84.73    2.51
  -3  -5  -2    6.42    0.72
  -2  -5  -2  151.99    4.03
  -1  -5  -2  210.69    4.25
   0  -5  -2   56.79    1.87
   1  -5  -2   72.29    2.04
   2  -5  -2  124.30    2.31
   3  -5  -2   54.46    2.28
   4  -5  -2  117.69    2.94
   5  -5  -2   53.94    1.88
   6  -5  -2  301.70    5.48
   7  -5  -2  112.91    2.70
   8  -5  -2   61.69    2.38
   9  -5  -2   51.53    2.26
  10  -5  -2   40.45    2.07
  11  -5  -2    4.40    1.10
  12  -5  -2   18.26    2.32
  13  -5  -2    7.27    1.50
  14  -5  -2  111.73    5.68
 -10  -4  -2   11.60    1.79
  -9  -4  -2   38.69    3.05
  -8  -4  -2    0.65    0.69
  -7  -4  -2  146.90    6.07
  -6  -4  -2    2.38    0.69
  -5  -4  -2   51.79    2.24
  -4  -4  -2   45.23    1.64
  -3  -4  -2  378.82    7.77
  -2  -4  -2   93.94    2.64
  -1  -4  -2  117.31    2.98
   0  -4  -2  173.54    3.30
   1  -4  -2  316.50    5.26
   2  -4  -2  258.92    4.45
   3  -4  -2   34.02    1.06
   4  -4  -2  168.90    3.32
   5  -4  -2   75.14    1.81
   6  -4  -2   10.43    0.78
   7  -4  -2  112.18    2.63
   8  -4  -2   45.80    1.97
   9  -4  -2   86.77    2.55
  10  -4  -2  154.72    4.57
  11  -4  -2  198.48    7.17
  12  -4  -2   65.85    3.87
  13  -4  -2   11.12    1.97
  14  -4  -2   41.09    4.00
 -11  -3  -2    0.72    0.74
 -10  -3  -2   21.32    2.78
  -9  -3  -2   11.33    2.00
  -8  -3  -2   52.21    3.67
  -7  -3  -2   16.66    1.72
  -6  -3  -2  358.58    8.19
  -5  -3  -2   66.07    2.01
  -4  -3  -2  114.70    2.74
  -3  -3  -2   69.71    2.19
  -2  -3  -2   53.75    1.48
  -1  -3  -2   34.23    1.26
   0  -3  -2   91.21    1.89
   1  -3  -2   39.13    1.10
   2  -3  -2  467.47    7.21
   3  -3  -2   93.18    1.95
   4  -3  -2  313.28    5.29
   5  -3  -2  119.16    2.55
   6  -3  -2   76.27    1.93
   7  -3  -2  377.86    7.93
   8  -3  -2    6.61    0.86
   9  -3  -2   72.37    2.72
  10  -3  -2   14.96    1.47
  11  -3  -2   20.42    2.43
  12  -3  -2    8.43    1.68
  13  -3  -2    8.30    1.74
  14  -3  -2   14.21    2.42
 -12  -2  -2   14.46    3.59
 -11  -2  -2   67.68    4.37
 -10  -2  -2   30.87    3.34
  -9  -2  -2   25.48    2.89
  -8  -2  -2   28.62    2.28
  -7  -2  -2    1.83    0.60
  -6  -2  -2    7.48    1.25
  -5  -2  -2  112.97    2.67
  -4  -2  -2   10.57    0.79
  -3  -2  -2  120.93    2.93
  -2  -2  -2  262.77    4.47
  -1  -2  -2  470.37    8.31
   0  -2  -2  506.96    9.07
   1  -2  -2  209.15    4.18
   2  -2  -2  507.78    7.83
   3  -2  -2   39.49    1.11
   4  -2  -2  255.48    4.48
   5  -2  -2   52.53    1.43
   6  -2  -2   94.70    2.18
   7  -2  -2  153.07    4.16
   8  -2  -2  120.45    3.61
   9  -2  -2   40.04    2.01
  10  -2  -2  161.52    6.15
  11  -2  -2   -0.15    0.52
  12  -2  -2   79.30    4.43
  13  -2  -2    1.77    1.02
 -12  -1  -2    1.72    1.09
 -11  -1  -2   16.67    2.52
 -10  -1  -2   73.87    4.35
  -9  -1  -2    6.61    1.39
  -8  -1  -2   39.97    2.48
  -7  -1  -2   17.72    1.64
  -6  -1  -2  145.63    3.90
  -5  -1  -2  309.84    5.43
  -4  -1  -2   72.87    1.74
  -3  -1  -2  301.11    6.00
  -2  -1  -2   37.37    1.27
  -1  -1  -2  211.80    3.51
   0  -1  -2   62.32    1.49
   1  -1  -2   60.33    1.58
   2  -1  -2  210.37    3.58
   3  -1  -2  450.90    7.29
   4  -1  -2   33.77    1.22
   5  -1  -2  116.82    2.50
   6  -1  -2  215.80    4.12
   7  -1  -2  145.64    4.06
   8  -1  -2   40.64    1.96
   9  -1  -2   84.58    3.15
  10  -1  -2   60.57    3.56
  11  -1  -2   17.69    2.46
  12  -1  -2    8.45    1.73
  13  -1  -2   11.54    2.10
 -13   0  -2   76.36    7.26
 -12   0  -2   25.95    3.25
 -11   0  -2   30.36    3.34
 -10   0  -2  100.39    5.05
  -9   0  -2    8.74    1.26
  -8   0  -2  209.04    5.81
  -7   0  -2   27.78    2.03
  -6   0  -2   32.84    1.53
  -5   0  -2   55.19    1.40
  -4   0  -2  174.00    3.25
  -3   0  -2   89.35    1.96
  -2   0  -2  496.87    9.15
  -1   0  -2   61.40    1.63
   0   0  -2  863.59   12.96
   1   0  -2   61.56    1.37
   2   0  -2  499.61    7.03
   3   0  -2   90.01    2.03
   4   0  -2  175.06    3.80
   5   0  -2   55.99    1.57
   6   0  -2   34.68    1.65
   7   0  -2   27.98    1.65
   8   0  -2  214.12    5.63
   9   0  -2    6.51    1.04
  10   0  -2  109.51    5.08
  11   0  -2   30.20    3.18
  12   0  -2   23.62    3.13
  13   0  -2   85.88   10.62
 -13   1  -2    9.95    1.85
 -12   1  -2   10.38    2.06
 -11   1  -2   20.74    2.74
 -10   1  -2   65.61    3.07
  -9   1  -2   90.57    3.47
  -8   1  -2   44.27    2.20
  -7   1  -2  138.16    5.20
  -6   1  -2  216.63    5.10
  -5   1  -2  111.37    3.07
  -4   1  -2   36.97    2.24
  -3   1  -2  462.69    7.34
  -2   1  -2  209.03    4.20
  -1   1  -2   61.79    1.33
   0   1  -2   62.61    1.40
   1   1  -2  209.56    3.22
   2   1  -2   39.52    0.94
   3   1  -2  299.75    5.36
   4   1  -2   68.10    1.79
   5   1  -2  310.98    5.53
   6   1  -2  135.38    4.00
   7   1  -2   16.54    1.52
   8   1  -2   32.59    2.09
   9   1  -2    4.85    0.94
  10   1  -2   77.44    4.37
  11   1  -2   17.79    2.51
  12   1  -2    0.81    0.85
 -13   2  -2    2.03    0.99
 -12   2  -2   72.67    4.50
 -11   2  -2    0.40    0.50
 -10   2  -2  169.53    5.24
  -9   2  -2   42.23    2.49
  -8   2  -2  123.27    3.92
  -7   2  -2  162.37    4.15
  -6   2  -2   92.96    2.78
  -5   2  -2   56.20    1.90
  -4   2  -2  258.63    4.46
  -3   2  -2   39.02    1.15
  -2   2  -2  510.79    9.20
  -1   2  -2  208.66    3.67
   0   2  -2  504.60    8.00
   1   2  -2  457.62    7.32
   2   2  -2  259.11    3.96
   3   2  -2  117.12    2.66
   4   2  -2   12.73    0.81
   5   2  -2  113.32    2.75
   6   2  -2    5.59    0.86
   7   2  -2    2.46    0.64
   8   2  -2   29.93    2.25
   9   2  -2   31.24    2.59
  10   2  -2   34.79    3.61
  11   2  -2   60.70    5.01
 -14   3  -2   16.71    2.77
 -13   3  -2    8.65    1.90
 -12   3  -2    7.71    1.69
 -11   3  -2   18.18    1.95
 -10   3  -2   16.47    1.72
  -9   3  -2   70.35    2.93
  -8   3  -2    7.45    1.06
  -7   3  -2  377.87    7.96
  -6   3  -2   76.11    2.44
  -5   3  -2  124.39    2.46
  -4   3  -2  318.26    5.35
  -3   3  -2   92.03    2.06
  -2   3  -2  462.72    7.36
  -1   3  -2   39.07    0.99
   0   3  -2   91.35    2.06
   1   3  -2   33.45    1.06
   2   3  -2   53.22    1.22
   3   3  -2   75.07    2.08
   4   3  -2  110.78    2.78
   5   3  -2   62.17    2.01
   6   3  -2  342.71    8.07
   7   3  -2   17.18    1.66
   8   3  -2   56.73    2.79
   9   3  -2   12.08    2.08
  10   3  -2   18.11    2.64
  11   3  -2    0.24    0.83
 -14   4  -2   51.86    4.75
 -13   4  -2    8.34    1.82
 -12   4  -2   70.74    3.36
 -11   4  -2  206.95    6.13
 -10   4  -2  153.21    4.87
  -9   4  -2   83.40    3.20
  -8   4  -2   46.37    2.14
  -7   4  -2  112.50    3.25
  -6   4  -2   10.89    1.03
  -5   4  -2   69.33    1.75
  -4   4  -2  170.44    3.39
  -3   4  -2   33.62    1.12
  -2   4  -2  260.67    4.04
  -1   4  -2  300.79    5.42
   0   4  -2  167.43    3.40
   1   4  -2  114.61    2.54
   2   4  -2   93.62    1.99
   3   4  -2  379.71    6.96
   4   4  -2   43.08    1.67
   5   4  -2   55.20    2.49
   6   4  -2    1.13    0.43
   7   4  -2  154.56    5.01
   8   4  -2   -0.11    0.38
   9   4  -2   40.84    3.95
  10   4  -2   12.91    2.26
 -14   5  -2  106.00    5.74
 -13   5  -2    5.93    1.25
 -12   5  -2   17.96    2.00
 -11   5  -2    6.75    1.16
 -10   5  -2   42.00    2.25
  -9   5  -2   53.67    2.43
  -8   5  -2   62.36    2.08
  -7   5  -2  114.34    2.87
  -6   5  -2  307.93    5.48
  -5   5  -2   53.60    1.62
  -4   5  -2  109.92    2.54
  -3   5  -2   51.84    1.44
  -2   5  -2  119.70    2.24
  -1   5  -2   67.60    2.11
   0   5  -2   52.11    1.64
   1   5  -2  222.67    4.34
   2   5  -2  160.29    4.32
   3   5  -2    6.79    0.76
   4   5  -2   83.68    2.60
   5   5  -2   43.77    2.46
   6   5  -2   65.47    3.07
   7   5  -2   51.51    3.16
   8   5  -2   94.71    4.07
   9   5  -2   13.82    2.46
 -15   6  -2    3.00    1.81
 -14   6  -2   12.19    2.17
 -13   6  -2   38.17    3.02
 -12   6  -2   28.57    2.43
 -11   6  -2   73.64    3.18
 -10   6  -2    2.18    0.63
  -9   6  -2  351.83    8.04
  -8   6  -2    8.47    0.87
  -7   6  -2  144.21    3.36
  -6   6  -2   30.95    1.26
  -5   6  -2  215.41    4.31
  -4   6  -2   91.57    2.27
  -3   6  -2   72.92    1.88
  -2   6  -2   11.29    0.54
  -1   6  -2  302.90    5.69
   0   6  -2   30.78    1.34
   1   6  -2  147.26    3.80
   2   6  -2  121.51    3.76
   3   6  -2   69.03    2.76
   4   6  -2  154.79    4.04
   5   6  -2    4.15    0.92
   6   6  -2   21.21    2.09
   7   6  -2    5.00    1.15
   8   6  -2    5.36    1.55
 -14   7  -2   39.77    4.00
 -13   7  -2    2.43    0.93
 -12   7  -2   50.90    2.87
 -11   7  -2  155.93    4.93
 -10   7  -2   14.32    1.54
  -9   7  -2    3.00    0.57
  -8   7  -2   18.02    1.26
  -7   7  -2   28.23    1.31
  -6   7  -2  150.68    3.43
  -5   7  -2  157.60    3.51
  -4   7  -2  370.40    6.69
  -3   7  -2  108.01    3.27
  -2   7  -2  109.47    3.31
  -1   7  -2  144.58    3.46
   0   7  -2   30.99    1.48
   1   7  -2   45.58    2.17
   2   7  -2   39.92    2.31
   3   7  -2   16.68    1.65
   4   7  -2  190.39    7.39
   5   7  -2   18.46    2.52
   6   7  -2   36.19    2.91
   7   7  -2   38.85    3.21
 -14   8  -2    6.57    1.77
 -13   8  -2   92.83    5.05
 -12   8  -2    0.92    0.84
 -11   8  -2   54.90    3.47
 -10   8  -2   31.16    2.89
  -9   8  -2   34.77    2.01
  -8   8  -2  219.28    5.57
  -7   8  -2   43.18    1.65
  -6   8  -2  118.38    3.03
  -5   8  -2    6.15    0.67
  -4   8  -2   44.24    2.02
  -3   8  -2   62.45    2.46
  -2   8  -2    6.55    0.91
  -1   8  -2   17.96    1.35
   0   8  -2  209.55    4.96
   1   8  -2   84.94    3.30
   2   8  -2  155.16    4.93
   3   8  -2   17.90    1.79
   4   8  -2   65.62    4.11
   5   8  -2    5.77    1.48
   6   8  -2   17.55    2.64
   7   8  -2   15.85    3.61
 -15   9  -2   14.86    3.83
 -14   9  -2   19.10    2.81
 -13   9  -2   36.98    3.85
 -12   9  -2   13.09    2.16
 -11   9  -2   28.93    3.00
 -10   9  -2    8.79    1.61
  -9   9  -2    6.17    1.01
  -8   9  -2   87.10    3.14
  -7   9  -2   37.21    1.63
  -6   9  -2   70.16    2.79
  -5   9  -2   80.67    3.01
  -4   9  -2   50.20    2.32
  -3   9  -2  339.64    7.90
  -2   9  -2    2.41    0.63
  -1   9  -2   34.30    1.79
   0   9  -2    7.57    1.18
   1   9  -2   63.18    2.98
   2   9  -2   -0.24    0.41
   3   9  -2    8.00    1.27
   4   9  -2    6.37    1.57
   5   9  -2  111.94    5.85
   6   9  -2    3.06    1.76
 -14  10  -2   10.98    2.12
 -13  10  -2   25.27    3.11
 -12  10  -2   32.96    3.36
 -11  10  -2   79.52    4.33
 -10  10  -2  108.26    3.91
  -9  10  -2   64.46    2.82
  -8  10  -2  164.32    6.16
  -7  10  -2   15.03    1.56
  -6  10  -2  153.97    4.72
  -5  10  -2   44.35    2.40
  -4  10  -2    2.43    0.65
  -3  10  -2   12.82    1.41
  -2  10  -2   27.34    2.12
  -1  10  -2    4.57    1.16
   0  10  -2   96.62    3.95
   1  10  -2   18.09    1.97
   2  10  -2   73.36    3.48
   3  10  -2    7.04    1.67
   4  10  -2   45.20    4.43
 -14  11  -2    1.08    0.95
 -13  11  -2   62.43    4.22
 -12  11  -2   15.16    2.35
 -11  11  -2   38.60    3.63
 -10  11  -2   14.30    2.09
  -9  11  -2    0.26    0.53
  -8  11  -2   18.91    1.87
  -7  11  -2  200.28    5.85
  -6  11  -2    6.77    1.10
  -5  11  -2   67.39    3.00
  -4  11  -2  148.02    4.81
  -3  11  -2   52.34    2.61
  -2  11  -2   26.72    2.86
  -1  11  -2   83.29    4.42
   0  11  -2   36.07    3.45
   1  11  -2    9.61    1.48
   2  11  -2    3.31    0.99
   3  11  -2   17.87    2.89
 -13  12  -2   -0.70    1.14
 -12  12  -2   28.35    4.99
 -11  12  -2    9.09    2.62
 -10  12  -2   84.58    4.51
  -9  12  -2    7.25    1.59
  -8  12  -2   63.50    3.08
  -7  12  -2   21.90    2.14
  -6  12  -2   21.57    2.11
  -5  12  -2   51.91    3.07
  -4  12  -2    0.42    0.46
  -3  12  -2   12.41    2.04
  -2  12  -2   34.95    3.57
  -1  12  -2   13.36    2.13
   0  12  -2   30.34    3.29
   1  12  -2   13.11    3.05
 -12  13  -2    8.91    2.83
 -11  13  -2    1.05    1.26
 -10  13  -2   10.25    2.06
  -9  13  -2    8.93    1.77
  -8  13  -2    4.81    1.14
  -7  13  -2   35.31    2.83
  -6  13  -2    5.90    1.20
  -5  13  -2   95.33    3.98
  -4  13  -2   34.53    3.70
  -3  13  -2   20.64    2.77
  -2  13  -2   59.51    4.36
  -1  13  -2    1.06    0.78
   0  13  -2   87.68    6.88
 -11  14  -2    9.28    2.78
 -10  14  -2   42.72    4.10
  -9  14  -2  108.42    5.60
  -8  14  -2   12.73    1.74
  -7  14  -2   36.02    3.03
  -6  14  -2    4.87    1.14
  -5  14  -2   20.21    2.39
  -4  14  -2   10.12    2.11
  -3  14  -2   -0.10    0.68
  -9  15  -2    0.86    1.44
  -8  15  -2    9.14    2.19
  -7  15  -2    8.57    1.91
  -6  15  -2   11.87    2.62
   6 -15  -1   47.96    4.71
   7 -15  -1   19.31    2.83
   8 -15  -1    0.37    0.80
   9 -15  -1    4.07    1.58
  10 -15  -1   44.22    6.02
   2 -14  -1    5.20    1.74
   3 -14  -1   17.95    2.82
   4 -14  -1    9.43    2.14
   5 -14  -1   39.21    4.01
   6 -14  -1    1.58    1.04
   7 -14  -1  139.68    6.82
   8 -14  -1   19.24    2.81
   9 -14  -1    7.87    1.83
  10 -14  -1   90.69    5.20
  11 -14  -1   20.62    4.25
  12 -14  -1   39.31    9.48
   0 -13  -1    2.79    1.13
   1 -13  -1   24.65    3.14
   2 -13  -1   83.06    4.90
   3 -13  -1   60.22    4.40
   4 -13  -1   64.07    4.12
   5 -13  -1    0.46    0.68
   6 -13  -1    3.95    1.37
   7 -13  -1   40.43    3.90
   8 -13  -1    0.15    0.60
   9 -13  -1    5.69    1.43
  10 -13  -1   88.12    4.87
  11 -13  -1   13.27    3.39
  12 -13  -1   79.42    7.01
  13 -13  -1    2.20    1.66
  -2 -12  -1   33.78    3.71
  -1 -12  -1   70.61    4.51
   0 -12  -1   70.46    4.42
   1 -12  -1   34.68    3.57
   2 -12  -1    1.04    0.81
   3 -12  -1   15.38    2.26
   4 -12  -1   16.17    2.36
   5 -12  -1    5.98    1.43
   6 -12  -1   28.60    3.10
   7 -12  -1   58.46    3.09
   8 -12  -1   76.81    3.44
   9 -12  -1   48.75    3.00
  10 -12  -1    4.04    1.02
  11 -12  -1   11.47    2.12
  12 -12  -1   77.56    6.73
  13 -12  -1   23.80    4.58
  14 -12  -1    5.59    2.53
  -4 -11  -1    1.17    1.90
  -3 -11  -1   15.49    2.39
  -2 -11  -1    9.57    1.90
  -1 -11  -1    8.79    1.74
   0 -11  -1   32.66    2.63
   1 -11  -1    6.25    1.07
   2 -11  -1    3.52    0.88
   3 -11  -1  247.10    6.86
   4 -11  -1   43.37    2.62
   5 -11  -1  229.46    6.26
   6 -11  -1    0.87    0.52
   7 -11  -1    9.93    1.34
   8 -11  -1    0.83    0.50
   9 -11  -1   16.71    1.77
  10 -11  -1   32.21    2.49
  11 -11  -1   34.35    3.26
  12 -11  -1   33.48    3.40
  13 -11  -1   78.85    4.63
  14 -11  -1   22.79    2.95
  15 -11  -1    1.89    1.52
  -4 -10  -1   87.55    4.51
  -3 -10  -1   86.49    3.79
  -2 -10  -1    3.49    0.90
  -1 -10  -1   29.58    2.43
   0 -10  -1  160.19    5.08
   1 -10  -1    9.65    1.30
   2 -10  -1   63.69    2.84
   3 -10  -1    9.37    1.21
   4 -10  -1   16.09    1.59
   5 -10  -1   13.05    1.46
   6 -10  -1    1.89    0.59
   7 -10  -1   28.83    2.16
   8 -10  -1  190.34    5.47
   9 -10  -1   56.65    2.67
  10 -10  -1  167.58    5.02
  11 -10  -1    6.68    1.32
  12 -10  -1    1.32    0.75
  13 -10  -1   55.39    4.03
  14 -10  -1    3.86    1.17
  15 -10  -1   21.15    3.08
  -6  -9  -1    4.47    2.00
  -5  -9  -1   11.21    2.02
  -4  -9  -1    5.15    1.11
  -3  -9  -1   44.38    2.84
  -2  -9  -1   14.26    1.63
  -1  -9  -1   59.09    2.77
   0  -9  -1   30.09    2.23
   1  -9  -1  224.82    6.02
   2  -9  -1    6.32    0.94
   3  -9  -1    2.31    0.57
   4  -9  -1   19.02    1.62
   5  -9  -1  225.29    5.85
   6  -9  -1   83.66    3.09
   7  -9  -1   77.33    2.90
   8  -9  -1   35.39    2.01
   9  -9  -1   26.81    2.05
  10  -9  -1   10.67    1.20
  11  -9  -1    3.94    1.04
  12  -9  -1   14.72    2.09
  13  -9  -1   55.12    3.71
  14  -9  -1   46.40    4.25
  15  -9  -1   58.74    4.89
  -7  -8  -1   -0.28    0.65
  -6  -8  -1   24.08    2.36
  -5  -8  -1    1.01    0.55
  -4  -8  -1   81.15    3.34
  -3  -8  -1    0.60    0.39
  -2  -8  -1  198.40    5.40
  -1  -8  -1   36.31    1.93
   0  -8  -1    7.38    1.02
   1  -8  -1  145.40    4.35
   2  -8  -1   44.04    2.03
   3  -8  -1  128.53    3.77
   4  -8  -1   30.08    1.74
   5  -8  -1    9.76    1.08
   6  -8  -1   30.25    1.69
   7  -8  -1    7.04    0.96
   8  -8  -1    7.89    1.04
   9  -8  -1  229.58    5.93
  10  -8  -1   64.91    2.69
  11  -8  -1  249.54    8.28
  12  -8  -1   16.78    2.25
  13  -8  -1    0.11    0.58
  14  -8  -1    0.36    0.78
  15  -8  -1   22.57    3.08
  -8  -7  -1   24.36    3.05
  -7  -7  -1  149.35    6.49
  -6  -7  -1   44.02    2.80
  -5  -7  -1   65.59    2.85
  -4  -7  -1    9.77    1.21
  -3  -7  -1   28.95    1.49
  -2  -7  -1   75.64    2.35
  -1  -7  -1    7.89    0.79
   0  -7  -1    8.66    0.93
   1  -7  -1  389.15    7.00
   2  -7  -1   99.94    2.38
   3  -7  -1  410.52    8.53
   4  -7  -1    1.63    0.42
   5  -7  -1   30.52    1.69
   6  -7  -1  337.34    7.18
   7  -7  -1    8.26    0.96
   8  -7  -1  144.49    4.20
   9  -7  -1    6.81    0.87
  10  -7  -1   10.70    1.24
  11  -7  -1   48.41    3.01
  12  -7  -1    8.16    1.59
  13  -7  -1    3.43    1.15
  14  -7  -1  146.24    6.62
  15  -7  -1    0.51    0.91
  -9  -6  -1   49.77    4.43
  -8  -6  -1    2.12    0.93
  -7  -6  -1    3.28    1.08
  -6  -6  -1   32.53    3.01
  -5  -6  -1    0.61    0.44
  -4  -6  -1    1.71    0.39
  -3  -6  -1   89.59    2.58
  -2  -6  -1   30.33    1.32
  -1  -6  -1  332.99    7.05
   0  -6  -1   54.08    1.90
   1  -6  -1   11.99    0.76
   2  -6  -1  121.10    2.54
   3  -6  -1  206.49    4.80
   4  -6  -1   80.16    2.53
   5  -6  -1   19.71    0.77
   6  -6  -1   50.67    1.50
   7  -6  -1  391.54    6.89
   8  -6  -1   46.40    1.60
   9  -6  -1    2.93    0.50
  10  -6  -1   15.61    1.48
  11  -6  -1  228.31    7.53
  12  -6  -1   34.59    3.20
  13  -6  -1   41.35    3.72
  14  -6  -1   19.84    2.69
  15  -6  -1    4.95    1.53
 -10  -5  -1   19.12    3.03
  -9  -5  -1   35.32    3.60
  -8  -5  -1    0.55    0.57
  -7  -5  -1    7.01    1.19
  -6  -5  -1  217.97    5.96
  -5  -5  -1   13.06    1.36
  -4  -5  -1  224.78    4.87
  -3  -5  -1    8.82    0.98
  -2  -5  -1   30.01    1.73
  -1  -5  -1   18.20    1.13
   0  -5  -1  152.47    3.63
   1  -5  -1    0.53    0.19
   2  -5  -1  242.48    4.28
   3  -5  -1   72.17    2.16
   4  -5  -1  620.41    9.53
   5  -5  -1  153.30    3.05
   6  -5  -1   11.09    0.72
   7  -5  -1  101.03    2.45
   8  -5  -1  129.89    3.05
   9  -5  -1   18.80    1.26
  10  -5  -1   11.92    1.29
  11  -5  -1    0.49    0.42
  12  -5  -1   57.07    2.80
  13  -5  -1    1.51    0.64
  14  -5  -1    9.66    1.87
  15  -5  -1   40.36    4.50
 -10  -4  -1    7.25    1.68
  -9  -4  -1   51.90    3.59
  -8  -4  -1   17.23    1.85
  -7  -4  -1   44.67    2.38
  -6  -4  -1   14.03    1.81
  -5  -4  -1   20.93    1.23
  -4  -4  -1   29.63    1.53
  -3  -4  -1    1.54    0.42
  -1  -4  -1  602.19   13.84
   0  -4  -1  195.06    5.24
   1  -4  -1  460.94    7.28
   2  -4  -1    9.01    0.69
   3  -4  -1   35.94    1.29
   4  -4  -1  194.33    3.54
   5  -4  -1    0.43    0.18
   6  -4  -1  121.00    2.62
   7  -4  -1  427.51    6.29
   8  -4  -1   28.64    1.23
   9  -4  -1  221.04    4.78
  10  -4  -1    1.54    0.53
  11  -4  -1   11.55    1.42
  12  -4  -1   76.77    3.35
  13  -4  -1    6.39    1.13
  14  -4  -1   91.55    4.11
 -11  -3  -1   17.03    2.62
 -10  -3  -1   52.58    3.33
  -9  -3  -1   12.88    1.60
  -8  -3  -1  257.80    8.44
  -7  -3  -1    8.17    1.44
  -6  -3  -1    3.13    0.64
  -5  -3  -1  129.59    3.06
  -4  -3  -1  420.92    7.24
  -3  -3  -1  216.13    5.97
   0  -3  -1  458.30    8.17
   1  -3  -1   87.81    2.07
   2  -3  -1   61.54    1.63
   3  -3  -1  461.88    6.97
   4  -3  -1  464.41    7.32
   5  -3  -1  253.42    3.89
   6  -3  -1  218.66    3.50
   7  -3  -1    1.35    0.32
   8  -3  -1    9.17    0.86
   9  -3  -1   85.20    2.53
  10  -3  -1   23.69    1.91
  11  -3  -1    0.68    0.45
  12  -3  -1   45.39    2.73
  13  -3  -1   84.12    3.84
  14  -3  -1   22.13    2.44
 -12  -2  -1    4.02    1.52
 -11  -2  -1   84.09    3.95
 -10  -2  -1    1.32    0.61
  -9  -2  -1    3.23    1.01
  -8  -2  -1   61.69    3.48
  -7  -2  -1    8.05    0.92
  -6  -2  -1   48.30    2.08
  -5  -2  -1  104.91    2.51
  -4  -2  -1  120.84    3.03
  -3  -2  -1  244.12    5.15
  -2  -2  -1    8.47    0.77
  -1  -2  -1   61.21    2.82
   0  -2  -1  609.97   10.63
   1  -2  -1  154.49    2.93
   2  -2  -1  611.86   10.68
   3  -2  -1   85.43    1.55
   4  -2  -1    9.02    0.44
   5  -2  -1   75.89    1.52
   6  -2  -1   85.75    2.18
   7  -2  -1   30.17    1.26
   8  -2  -1   31.30    1.35
   9  -2  -1   81.22    2.55
  10  -2  -1  199.35    5.58
  11  -2  -1   15.32    1.72
  12  -2  -1    3.09    0.88
  13  -2  -1   13.16    1.83
  14  -2  -1   33.93    3.92
 -12  -1  -1   20.78    2.30
 -11  -1  -1   33.29    3.47
 -10  -1  -1    6.24    1.46
  -9  -1  -1   11.27    1.78
  -8  -1  -1  229.70    6.49
  -7  -1  -1  155.98    4.40
  -6  -1  -1  379.42    8.30
  -5  -1  -1   11.55    0.74
  -4  -1  -1    0.98    0.26
  -3  -1  -1  462.66    8.55
  -2  -1  -1   84.49    2.51
  -1  -1  -1  152.80    3.57
   0  -1  -1   77.36    1.61
   1  -1  -1   77.64    1.40
   2  -1  -1  155.89    2.58
   3  -1  -1   61.43    1.23
   4  -1  -1   35.17    0.88
   5  -1  -1  625.68    9.81
   6  -1  -1   18.81    1.05
   7  -1  -1  340.32    6.18
   8  -1  -1    6.15    0.75
   9  -1  -1   36.33    2.12
  10  -1  -1   58.14    2.78
  11  -1  -1   28.10    2.43
  12  -1  -1    9.93    1.50
  13  -1  -1   68.25    4.44
 -13   0  -1    3.40    1.09
 -12   0  -1   69.68    4.39
 -11   0  -1   32.79    3.44
 -10   0  -1  146.33    6.18
  -9   0  -1   27.79    2.77
  -8   0  -1    7.84    1.08
  -7   0  -1    7.08    0.95
  -6   0  -1   51.38    1.72
  -5   0  -1  151.03    3.16
  -4   0  -1  198.04    4.24
  -3   0  -1  460.40    8.26
  -2   0  -1  618.62    9.26
  -1   0  -1   77.62    1.64
   0   0  -1    0.75    0.11
   1   0  -1   75.03    1.43
   2   0  -1  611.21    9.27
   3   0  -1  450.45    6.28
   4   0  -1  197.61    3.20
   5   0  -1  150.24    2.68
   6   0  -1   51.04    1.72
   7   0  -1    7.35    0.81
   8   0  -1    8.76    0.93
   9   0  -1   31.88    2.34
  10   0  -1  155.47    5.04
  11   0  -1   29.73    2.54
  12   0  -1   73.17    4.48
  13   0  -1    3.79    1.36
 -13   1  -1   74.07    4.74
 -12   1  -1   10.45    2.01
 -11   1  -1   31.98    3.19
 -10   1  -1   60.39    3.59
  -9   1  -1   32.71    2.12
  -8   1  -1    5.70    0.86
  -7   1  -1  341.11    7.37
  -6   1  -1   18.12    0.90
  -5   1  -1  628.99    9.79
  -4   1  -1   35.83    1.25
  -3   1  -1   61.10    1.70
  -2   1  -1  151.07    3.11
  -1   1  -1   76.40    1.46
   0   1  -1   75.80    1.45
   1   1  -1  149.66    2.65
   2   1  -1   83.38    1.80
   3   1  -1  464.98    6.61
   4   1  -1    0.69    0.17
   5   1  -1   11.23    0.58
   6   1  -1  394.43    7.18
   7   1  -1  149.63    3.73
   8   1  -1  226.56    5.14
   9   1  -1   10.89    1.41
  10   1  -1    6.66    1.16
  11   1  -1   38.14    3.74
  12   1  -1   25.13    3.08
 -14   2  -1   36.79    4.38
 -13   2  -1   13.56    2.35
 -12   2  -1    3.09    1.09
 -11   2  -1   11.01    1.87
 -10   2  -1  191.15    5.53
  -9   2  -1   78.27    2.98
  -8   2  -1   28.32    1.80
  -7   2  -1   28.55    1.99
  -6   2  -1   85.21    2.10
  -5   2  -1   74.82    1.85
  -4   2  -1    9.24    0.65
  -3   2  -1   85.83    1.74
  -2   2  -1  616.04    9.29
  -1   2  -1  153.76    2.32
   0   2  -1  594.29   10.75
   1   2  -1   59.82    1.24
   2   2  -1    9.24    0.43
   3   2  -1  243.13    4.46
   4   2  -1  117.30    2.36
   5   2  -1  102.38    2.19
   6   2  -1   45.77    1.76
   7   2  -1    5.94    0.79
   8   2  -1   59.20    2.33
   9   2  -1    3.97    1.13
  10   2  -1    0.70    0.76
  11   2  -1   90.80    5.03
  12   2  -1    2.88    1.61
 -14   3  -1   20.21    2.94
 -13   3  -1   75.90    4.68
 -12   3  -1   47.06    4.06
 -11   3  -1    0.78    0.58
 -10   3  -1   25.34    2.03
  -9   3  -1   82.63    3.12
  -8   3  -1    8.43    1.01
  -7   3  -1    1.78    0.34
  -6   3  -1  210.88    4.06
  -5   3  -1  249.38    4.48
  -4   3  -1  469.91    7.31
  -3   3  -1  461.59    7.07
  -2   3  -1   59.64    1.40
  -1   3  -1   82.79    1.55
   0   3  -1  433.38    7.10
   1   3  -1   36.31    0.98
   2   3  -1   74.88    1.59
   3   3  -1  216.63    3.57
   4   3  -1  421.66    7.26
   5   3  -1  131.57    3.04
   6   3  -1    2.96    0.68
   7   3  -1   11.90    1.36
   8   3  -1  259.18    7.02
   9   3  -1   16.29    2.33
  10   3  -1   53.87    4.53
  11   3  -1   14.79    2.53
 -14   4  -1   85.91    5.15
 -13   4  -1    4.76    1.32
 -12   4  -1   73.99    4.20
 -11   4  -1   10.67    1.38
 -10   4  -1    1.67    0.58
  -9   4  -1  226.60    5.85
  -8   4  -1   28.80    1.64
  -7   4  -1  426.08    7.22
  -6   4  -1  119.94    2.65
  -5   4  -1    0.98    0.24
  -4   4  -1  195.37    3.65
  -3   4  -1   37.32    1.10
  -2   4  -1    9.04    0.52
  -1   4  -1  461.78    6.57
   0   4  -1  196.64    3.20
   1   4  -1  610.29    8.75
   2   4  -1   83.32    1.90
   3   4  -1    1.08    0.25
   4   4  -1   28.68    1.29
   5   4  -1   18.11    1.56
   6   4  -1   17.89    1.68
   7   4  -1   45.42    2.63
   8   4  -1   18.02    2.39
   9   4  -1   64.66    4.04
  10   4  -1    8.99    1.92
 -15   5  -1   38.67    5.86
 -14   5  -1    9.86    2.01
 -13   5  -1    0.75    0.73
 -12   5  -1   62.07    2.96
 -11   5  -1    0.92    0.50
 -10   5  -1   10.97    1.29
  -9   5  -1   17.42    1.53
  -8   5  -1  132.87    3.06
  -7   5  -1  104.39    2.51
  -6   5  -1   10.59    0.78
  -5   5  -1  152.51    2.76
  -4   5  -1  624.03    8.58
  -3   5  -1   73.51    1.81
  -2   5  -1  243.97    4.37
  -1   5  -1    0.73    0.18
   0   5  -1  153.57    2.76
   1   5  -1   18.12    1.00
   2   5  -1   32.12    1.15
   3   5  -1    9.14    0.76
   4   5  -1  230.44    4.95
   5   5  -1   11.41    1.35
   6   5  -1  218.11    6.11
   7   5  -1    6.46    1.14
   8   5  -1    0.98    0.80
   9   5  -1   42.09    4.10
  10   5  -1   19.36    4.26
 -15   6  -1    5.47    1.81
 -14   6  -1   23.83    3.10
 -13   6  -1   38.25    3.04
 -12   6  -1   33.88    2.60
 -11   6  -1  218.44    6.08
 -10   6  -1   16.65    1.54
  -9   6  -1    3.80    0.71
  -8   6  -1   46.96    1.64
  -7   6  -1  404.34    6.97
  -6   6  -1   51.39    1.57
  -5   6  -1   18.71    0.75
  -4   6  -1   81.58    2.11
  -3   6  -1  207.63    4.01
  -2   6  -1  119.15    2.57
  -1   6  -1   12.46    0.66
   0   6  -1   49.40    1.37
   1   6  -1  342.00    6.19
   2   6  -1   31.87    1.36
   3   6  -1   84.88    2.64
   4   6  -1    2.06    0.49
   5   6  -1    0.38    0.41
   6   6  -1   35.73    2.66
   7   6  -1    3.43    0.90
   8   6  -1    0.88    0.92
   9   6  -1   58.68    5.01
 -15   7  -1    0.89    1.41
 -14   7  -1  151.03    6.71
 -13   7  -1    2.61    0.80
 -12   7  -1   10.95    1.44
 -11   7  -1   43.28    2.54
 -10   7  -1   10.63    1.25
  -9   7  -1    5.73    0.89
  -8   7  -1  155.36    3.54
  -7   7  -1    8.12    0.75
  -6   7  -1  340.91    6.10
  -5   7  -1   29.09    1.22
  -4   7  -1    1.31    0.31
  -3   7  -1  409.28    7.16
  -2   7  -1  101.39    2.42
  -1   7  -1  381.68    7.14
   0   7  -1    7.43    0.79
   1   7  -1    7.78    0.82
   2   7  -1   77.29    2.92
   3   7  -1   29.48    1.93
   4   7  -1    9.20    1.05
   5   7  -1   58.09    2.93
   6   7  -1   36.43    2.87
   7   7  -1  136.45    6.57
   8   7  -1   22.99    3.14
 -15   8  -1   28.12    4.91
 -14   8  -1    2.94    1.15
 -13   8  -1    0.77    0.70
 -12   8  -1   16.14    2.27
 -11   8  -1  266.19    8.64
 -10   8  -1   62.26    3.46
  -9   8  -1  230.79    5.85
  -8   8  -1    7.39    0.97
  -7   8  -1    6.62    0.88
  -6   8  -1   30.51    1.36
  -5   8  -1    7.46    0.74
  -4   8  -1   28.33    1.25
  -3   8  -1  131.76    3.06
  -2   8  -1   45.34    2.00
  -1   8  -1  142.83    3.69
   0   8  -1    7.46    0.83
   1   8  -1   35.41    1.84
   2   8  -1  198.03    5.54
   3   8  -1    1.63    0.60
   4   8  -1   72.36    4.16
   5   8  -1   -0.11    0.63
   6   8  -1   22.69    2.95
   7   8  -1   -0.28    1.08
 -15   9  -1   56.67    7.16
 -14   9  -1   37.39    3.78
 -13   9  -1   61.27    4.25
 -12   9  -1   13.61    2.12
 -11   9  -1    5.06    1.29
 -10   9  -1    8.62    1.52
  -9   9  -1   31.54    1.97
  -8   9  -1   36.63    1.89
  -7   9  -1   76.15    2.40
  -6   9  -1   84.47    2.53
  -5   9  -1  215.86    4.78
  -4   9  -1   15.30    1.43
  -3   9  -1    3.05    0.64
  -2   9  -1    5.40    0.87
  -1   9  -1  220.36    5.83
   0   9  -1   29.64    1.73
   1   9  -1   56.91    2.74
   2   9  -1   12.45    1.53
   3   9  -1   51.86    2.80
   4   9  -1    5.43    1.47
   5   9  -1    3.54    1.35
   6   9  -1    5.90    1.69
 -15  10  -1   21.14    3.44
 -14  10  -1   10.17    2.01
 -13  10  -1   58.57    4.31
 -12  10  -1    0.53    0.64
 -11  10  -1    9.79    1.79
 -10  10  -1  163.04    6.16
  -9  10  -1   61.70    2.68
  -8  10  -1  191.73    5.28
  -7  10  -1   27.66    1.60
  -6  10  -1    1.12    0.46
  -5  10  -1   11.39    1.32
  -4  10  -1   16.02    1.57
  -3  10  -1    9.50    1.22
  -2  10  -1   61.99    2.69
  -1  10  -1    9.77    1.20
   0  10  -1  150.59    5.98
   1  10  -1   27.88    2.37
   2  10  -1    3.22    0.90
   3  10  -1   76.53    4.69
   4  10  -1   91.75    5.21
   5  10  -1   41.70    4.57
 -15  11  -1    1.15    1.51
 -14  11  -1   17.68    2.77
 -13  11  -1   88.61    4.94
 -12  11  -1   40.35    3.70
 -11  11  -1   36.93    3.42
 -10  11  -1   29.68    2.30
  -9  11  -1   12.25    1.48
  -8  11  -1    1.43    0.74
  -7  11  -1    7.92    1.18
  -6  11  -1    1.44    0.53
  -5  11  -1  218.51    6.10
  -4  11  -1   44.88    2.49
  -3  11  -1  257.95    6.81
  -2  11  -1    2.08    0.64
  -1  11  -1    8.29    1.50
   0  11  -1   31.93    3.18
   1  11  -1    8.93    1.78
   2  11  -1   11.93    1.72
   3  11  -1   23.27    3.16
 -14  12  -1    5.25    1.66
 -13  12  -1   19.98    2.78
 -12  12  -1   75.79    4.45
 -11  12  -1    9.29    2.61
 -10  12  -1    2.40    0.92
  -9  12  -1   50.30    3.27
  -8  12  -1   77.55    4.11
  -7  12  -1   57.78    2.86
  -6  12  -1   32.78    2.57
  -5  12  -1    7.39    1.20
  -4  12  -1   15.04    1.70
  -3  12  -1   12.19    1.40
  -2  12  -1    0.49    0.58
  -1  12  -1   36.96    3.46
   0  12  -1   67.47    4.40
   1  12  -1   75.86    4.51
   2  12  -1   41.52    6.14
 -13  13  -1    4.08    2.04
 -12  13  -1   68.20    6.41
 -11  13  -1   12.17    3.19
 -10  13  -1   80.04    4.52
  -9  13  -1    5.57    1.46
  -8  13  -1    0.68    0.64
  -7  13  -1   37.90    2.91
  -6  13  -1    3.25    0.83
  -5  13  -1    0.57    0.51
  -4  13  -1   65.14    3.19
  -3  13  -1   49.41    4.32
  -2  13  -1   81.67    4.76
  -1  13  -1   23.02    3.01
   0  13  -1    3.89    1.33
 -12  14  -1   24.78    5.54
 -11  14  -1   18.53    3.92
 -10  14  -1   89.23    4.96
  -9  14  -1    9.03    1.88
  -8  14  -1   22.46    2.92
  -7  14  -1  147.65    6.53
  -6  14  -1    2.87    0.87
  -5  14  -1   40.39    3.13
  -4  14  -1    7.93    1.47
  -3  14  -1   17.20    2.63
  -2  14  -1    4.01    1.63
 -10  15  -1   49.65    6.41
  -9  15  -1    5.01    1.44
  -8  15  -1    0.99    0.94
  -7  15  -1   25.35    3.18
  -6  15  -1   45.96    3.57
  -5  15  -1   23.43    3.84
   5 -15   0    3.00    2.82
   6 -15   0    0.23    0.88
   7 -15   0    0.32    0.97
   8 -15   0   20.11    3.02
   9 -15   0   30.85    3.74
  10 -15   0   14.37    3.46
   2 -14   0   19.46    2.91
   3 -14   0   10.38    2.12
   4 -14   0   24.65    3.24
   5 -14   0    8.38    1.58
   6 -14   0   16.63    2.06
   7 -14   0   20.33    2.28
   8 -14   0   35.82    3.05
   9 -14   0   86.20    4.02
  10 -14   0   -0.37    0.57
  11 -14   0   19.06    2.77
  12 -14   0    0.89    0.95
  13 -14   0   12.94    3.41
   0 -13   0   83.35    4.17
   1 -13   0    1.34    0.81
   2 -13   0    5.35    1.25
   3 -13   0   44.18    3.30
   4 -13   0    6.73    1.25
   5 -13   0  196.52    6.36
   6 -13   0   37.30    3.03
   7 -13   0   28.01    2.57
   8 -13   0   39.59    3.02
   9 -13   0   13.48    1.73
  10 -13   0   29.47    2.60
  11 -13   0    2.94    1.16
  12 -13   0    5.08    1.48
  13 -13   0   88.73    5.06
  14 -13   0  102.60    8.03
  -2 -12   0    0.30    0.70
  -1 -12   0    7.53    1.43
   0 -12   0    1.38    0.74
   1 -12   0   11.77    1.71
   2 -12   0   31.60    2.70
   3 -12   0    3.88    0.95
   4 -12   0    3.35    0.88
   5 -12   0   37.56    2.82
   6 -12   0    0.54    0.54
   7 -12   0   25.14    2.27
   8 -12   0   11.26    1.53
   9 -12   0    1.36    0.60
  10 -12   0  256.07    7.13
  11 -12   0    1.03    0.70
  12 -12   0    1.08    0.85
  13 -12   0    2.15    1.08
  14 -12   0   28.29    3.43
  -4 -11   0    0.67    1.10
  -3 -11   0   19.80    2.73
  -2 -11   0    3.17    1.09
  -1 -11   0    1.34    0.97
   0 -11   0   29.20    3.14
   1 -11   0  125.15    5.72
   2 -11   0  136.10    4.80
   3 -11   0   93.90    3.80
   4 -11   0    1.69    0.59
   5 -11   0  116.24    4.17
   6 -11   0   49.13    2.68
   7 -11   0  369.95    8.83
   8 -11   0   22.75    2.03
   9 -11   0    0.97    0.56
  10 -11   0   45.17    3.20
  11 -11   0   33.21    3.33
  12 -11   0   13.30    2.19
  13 -11   0    9.06    1.92
  14 -11   0   15.19    2.37
  15 -11   0  119.03    7.07
  -5 -10   0   12.56    2.35
  -4 -10   0   -0.21    0.63
  -3 -10   0   27.26    3.16
  -2 -10   0  243.75    8.75
  -1 -10   0   43.43    3.77
   0 -10   0   35.68    3.32
   1 -10   0   11.43    1.78
   2 -10   0    0.59    0.52
   3 -10   0    4.58    0.92
   4 -10   0    1.63    0.52
   5 -10   0    2.21    0.62
   6 -10   0  235.15    6.31
   7 -10   0   31.39    2.06
   8 -10   0    1.89    0.59
   9 -10   0   76.61    3.14
  10 -10   0   45.96    3.31
  11 -10   0  139.39    5.86
  12 -10   0   36.32    3.35
  13 -10   0   44.55    4.02
  14 -10   0   30.39    3.47
  15 -10   0    1.70    1.14
  -6  -9   0   41.58    3.27
  -5  -9   0   80.96    3.79
  -4  -9   0   13.40    1.69
  -3  -9   0    1.63    0.70
  -2  -9   0    0.78    0.47
  -1  -9   0   79.89    3.35
   0  -9   0   55.30    3.27
   1  -9   0    8.48    1.38
   2  -9   0   61.46    3.31
   3  -9   0  644.40   16.41
   4  -9   0    1.92    0.56
   5  -9   0  161.30    4.63
   6  -9   0   -0.18    0.27
   7  -9   0   80.89    3.04
   8  -9   0   47.12    2.24
   9  -9   0   56.32    2.51
  10  -9   0   12.17    1.81
  11  -9   0  137.88    5.70
  12  -9   0    1.80    0.84
  13  -9   0    5.21    1.41
  14  -9   0    9.08    1.85
  15  -9   0   -0.32    0.78
  -7  -8   0   25.06    3.19
  -6  -8   0   34.57    3.43
  -5  -8   0   43.05    3.30
  -4  -8   0   13.38    1.93
  -3  -8   0   17.99    1.79
  -2  -8   0    0.89    0.48
  -1  -8   0   48.27    2.22
   0  -8   0  292.94    6.88
   1  -8   0    1.71    0.50
   2  -8   0   15.93    1.31
   3  -8   0   33.12    1.57
   4  -8   0    0.22    0.30
   5  -8   0   27.72    1.76
   6  -8   0  131.82    3.87
   7  -8   0  299.99    6.94
   8  -8   0  301.19    6.92
   9  -8   0    7.85    1.01
  10  -8   0   -0.11    0.37
  11  -8   0   97.66    4.55
  12  -8   0    4.22    1.15
  13  -8   0  200.18    7.54
  14  -8   0   18.65    2.61
  15  -8   0   -0.22    0.78
  -8  -7   0   -0.55    0.79
  -7  -7   0   17.28    2.45
  -6  -7   0   39.76    3.59
  -5  -7   0   25.18    2.34
  -4  -7   0  363.51    8.31
  -3  -7   0   34.65    1.79
  -2  -7   0   84.39    2.80
  -1  -7   0  308.93    5.84
   0  -7   0   19.89    1.37
   1  -7   0   26.57    1.43
   2  -7   0    2.05    0.43
   3  -7   0   87.10    2.53
   4  -7   0  478.75    8.16
   5  -7   0  383.01    6.63
   6  -7   0  239.79    4.61
   7  -7   0   23.95    1.18
   8  -7   0    3.34    0.52
   9  -7   0   67.14    2.15
  10  -7   0    4.48    0.81
  11  -7   0    0.46    0.51
  12  -7   0   38.59    3.38
  13  -7   0   36.58    3.49
  14  -7   0   21.51    2.80
  15  -7   0   23.09    2.95
  -9  -6   0    0.85    0.71
  -8  -6   0   14.90    1.86
  -7  -6   0   39.38    2.89
  -6  -6   0    0.96    0.49
  -5  -6   0   51.17    2.42
  -4  -6   0  240.52    6.04
  -3  -6   0    0.30    0.24
  -2  -6   0  134.15    3.09
  -1  -6   0  234.25    5.18
   0  -6   0   17.67    0.88
   1  -6   0  399.84    6.76
   2  -6   0   14.88    0.95
   3  -6   0  179.97    4.02
   4  -6   0   61.51    1.68
   5  -6   0    4.23    0.49
   6  -6   0   16.10    0.93
   7  -6   0   27.53    1.20
   8  -6   0   15.72    1.08
   9  -6   0  674.01   13.13
  10  -6   0    1.98    0.58
  11  -6   0  118.38    3.98
  12  -6   0    0.97    0.53
  13  -6   0   30.91    2.56
  14  -6   0   38.90    3.72
  15  -6   0   35.07    3.63
 -10  -5   0    2.56    1.19
  -9  -5   0   10.15    1.91
  -8  -5   0  195.50    7.43
  -7  -5   0   33.29    3.04
  -6  -5   0  115.45    4.78
  -5  -5   0    2.94    0.65
  -4  -5   0  160.60    4.29
  -3  -5   0   29.03    1.26
  -2  -5   0  376.82    6.57
  -1  -5   0    4.01    0.54
   0  -5   0   29.53    1.02
   1  -5   0  517.24    8.19
   2  -5   0  190.76    4.97
   3  -5   0   11.91    0.69
   4  -5   0    3.86    0.41
   5  -5   0   28.10    1.03
   6  -5   0  420.75    6.94
   7  -5   0    1.42    0.32
   8  -5   0   31.63    1.28
   9  -5   0    1.86    0.52
  10  -5   0    1.83    0.55
  11  -5   0   50.24    2.47
  12  -5   0   29.02    2.35
  13  -5   0   45.25    3.18
  14  -5   0   79.26    3.74
  15  -5   0   12.24    2.00
 -10  -4   0   35.12    3.67
  -9  -4   0    5.30    1.36
  -8  -4   0    4.45    1.15
  -7  -4   0    1.48    0.60
  -6  -4   0    3.75    0.71
  -5  -4   0    2.56    0.60
  -4  -4   0    0.13    0.21
  -3  -4   0  491.42    9.39
  -2  -4   0   63.32    1.94
  -1  -4   0    4.22    0.49
   0  -4   0  186.51    3.38
   1  -4   0  251.70    4.21
   2  -4   0  836.93   15.69
   3  -4   0  344.53    5.64
   4  -4   0  188.01    3.40
   5  -4   0  529.57    8.31
   6  -4   0   15.34    0.80
   7  -4   0   81.73    2.11
   8  -4   0   -0.02    0.17
   9  -4   0  164.51    4.52
  10  -4   0  242.31    6.18
  11  -4   0  364.69    8.61
  12  -4   0   11.59    1.52
  13  -4   0   11.80    1.60
  14  -4   0    0.05    0.53
  15  -4   0    0.32    1.09
 -11  -3   0   16.27    2.50
 -10  -3   0   47.67    4.19
  -9  -3   0    2.89    0.88
  -8  -3   0   94.93    3.60
  -7  -3   0    6.68    1.00
  -6  -3   0  682.61   13.19
  -5  -3   0   31.82    1.31
  -4  -3   0   82.52    2.17
  -3  -3   0  176.52    3.47
  -2  -3   0   11.36    0.83
  -1  -3   0  347.29    7.87
   0  -3   0    0.08    0.11
   1  -3   0   17.19    0.69
   2  -3   0  371.48    6.84
   3  -3   0    0.21    0.12
   4  -3   0  255.68    4.31
   5  -3   0  201.66    3.63
   6  -3   0  176.30    3.45
   7  -3   0  489.71    8.07
   8  -3   0   30.02    1.24
   9  -3   0    0.14    0.25
  10  -3   0   30.63    2.20
  11  -3   0   16.78    1.73
  12  -3   0    1.92    0.71
  13  -3   0   27.13    2.48
  14  -3   0   18.54    2.19
 -12  -2   0   23.13    3.11
 -11  -2   0    9.05    1.86
 -10  -2   0   39.63    2.92
  -9  -2   0  137.97    4.63
  -8  -2   0    1.20    0.53
  -7  -2   0   66.53    2.68
  -6  -2   0   17.22    1.33
  -5  -2   0    0.99    0.33
  -4  -2   0   14.88    0.93
  -3  -2   0  195.38    4.16
  -2  -2   0  934.41   19.31
  -1  -2   0  388.93    8.38
   0  -2   0  159.19    3.73
   1  -2   0    3.78    0.30
   2  -2   0  162.24    2.65
   3  -2   0   17.71    0.60
   4  -2   0  925.63   13.63
   5  -2   0   11.46    0.63
   6  -2   0   63.21    1.68
   7  -2   0  379.14    6.59
   8  -2   0  132.00    3.83
   9  -2   0   84.76    3.08
  10  -2   0    0.87    0.49
  11  -2   0    1.29    0.54
  12  -2   0  246.65    7.05
  13  -2   0    3.48    0.98
  14  -2   0    1.63    0.81
 -12  -1   0    1.82    0.81
 -11  -1   0   12.17    1.68
 -10  -1   0  133.90    4.67
  -9  -1   0    9.42    1.26
  -8  -1   0   11.24    1.61
  -7  -1   0    1.67    0.57
  -6  -1   0   27.07    1.42
  -5  -1   0  407.27    6.71
  -4  -1   0  516.30    9.61
  -3  -1   0  251.32    4.99
  -2  -1   0   17.66    0.69
  -1  -1   0    3.84    0.40
   0  -1   0    3.29    0.22
   1  -1   0    3.24    0.27
   2  -1   0    4.22    0.27
   3  -1   0  391.31    5.94
   4  -1   0  346.96    5.64
   5  -1   0    4.04    0.44
   6  -1   0    3.58    0.44
   7  -1   0  241.16    4.64
   8  -1   0  304.08    7.02
   9  -1   0   41.43    2.14
  10  -1   0   76.44    3.17
  11  -1   0   42.10    2.97
  12  -1   0    1.35    0.67
  13  -1   0    5.02    1.21
 -13   0   0   78.72    3.99
 -12   0   0    1.77    0.77
 -11   0   0   29.40    2.54
 -10   0   0   38.64    3.35
  -9   0   0   61.33    3.32
  -8   0   0  302.19    8.70
  -7   0   0   23.29    1.47
  -6   0   0   16.78    1.12
  -5   0   0   28.47    1.25
  -4   0   0  191.25    3.30
  -3   0   0    0.24    0.15
  -2   0   0  159.35    3.09
  -1   0   0    3.04    0.20
   1   0   0    3.44    0.19
   2   0   0  157.82    2.39
   3   0   0    0.28    0.13
   4   0   0  189.95    3.44
   5   0   0   27.99    1.06
   6   0   0   16.69    0.95
   7   0   0   23.88    1.26
   8   0   0  296.55    7.04
   9   0   0   56.82    2.61
  10   0   0   43.98    2.66
  11   0   0   31.12    2.57
  12   0   0    1.69    0.80
  13   0   0   73.79    3.85
 -14   1   0   10.34    3.15
 -13   1   0    6.59    1.32
 -12   1   0    1.46    0.70
 -11   1   0   44.77    3.81
 -10   1   0   68.86    3.79
  -9   1   0   40.38    2.63
  -8   1   0  303.31    6.85
  -7   1   0  232.70    5.42
  -6   1   0    3.50    0.53
  -5   1   0    4.15    0.54
  -4   1   0  357.19    6.62
  -3   1   0  390.72    6.94
  -2   1   0    4.01    0.25
  -1   1   0    3.96    0.20
   0   1   0    3.79    0.19
   1   1   0    3.88    0.21
   2   1   0   17.48    0.49
   3   1   0  259.98    3.85
   4   1   0  536.84    7.39
   5   1   0  417.78    6.10
   6   1   0   26.63    1.22
   7   1   0    2.73    0.50
   8   1   0    8.61    1.12
   9   1   0   12.23    1.44
  10   1   0  127.11    4.62
  11   1   0    9.77    1.44
  12   1   0    1.56    0.86
 -14   2   0    0.69    0.76
 -13   2   0    3.67    1.00
 -12   2   0  226.61    8.59
 -11   2   0    0.59    0.60
 -10   2   0    0.47    0.49
  -9   2   0   87.69    3.03
  -8   2   0  131.89    3.76
  -7   2   0  379.35    7.78
  -6   2   0   60.90    2.04
  -5   2   0   12.61    0.52
  -4   2   0  969.59   13.57
  -3   2   0   16.90    0.57
  -2   2   0  160.40    2.60
  -1   2   0    3.43    0.25
   0   2   0  158.59    2.00
   1   2   0  379.60    4.20
   2   2   0  927.24    9.64
   3   2   0  200.31    2.95
   4   2   0   14.19    0.71
   5   2   0    0.77    0.21
   6   2   0   14.90    1.13
   7   2   0   68.31    2.27
   8   2   0    0.65    0.42
   9   2   0  146.28    4.81
  10   2   0   42.56    3.05
  11   2   0    6.76    1.27
  12   2   0   26.32    3.20
 -14   3   0   20.96    2.38
 -13   3   0   22.62    2.88
 -12   3   0    1.92    0.87
 -11   3   0   19.78    2.37
 -10   3   0   33.21    2.33
  -9   3   0   -0.14    0.22
  -8   3   0   28.46    1.60
  -7   3   0  493.68    9.56
  -6   3   0  182.27    3.37
  -5   3   0  199.75    3.57
  -4   3   0  258.50    4.27
  -3   3   0    0.13    0.11
  -2   3   0  385.78    5.25
  -1   3   0   17.66    0.61
   0   3   0    0.20    0.09
   1   3   0  345.12    3.98
   2   3   0   11.84    0.49
   3   3   0  176.93    2.84
   4   3   0   82.10    1.93
   5   3   0   32.59    1.17
   6   3   0  684.39   11.44
   7   3   0    6.19    0.84
   8   3   0   96.12    3.75
   9   3   0    2.81    0.85
  10   3   0   47.33    3.17
  11   3   0   10.64    1.99
 -15   4   0    1.29    1.61
 -14   4   0    0.56    0.66
 -13   4   0    9.45    1.88
 -12   4   0   13.64    2.10
 -11   4   0  370.46   10.85
 -10   4   0  250.19    6.23
  -9   4   0  159.36    4.44
  -8   4   0    0.10    0.23
  -7   4   0   84.81    2.04
  -6   4   0   15.45    0.80
  -5   4   0  536.17    9.46
  -4   4   0  184.56    3.32
  -3   4   0  352.17    4.96
  -2   4   0  897.09   13.65
  -1   4   0  255.69    3.78
   0   4   0  180.03    2.74
   1   4   0    4.52    0.36
   2   4   0   61.21    1.28
   3   4   0  490.34    6.65
   4   4   0    0.16    0.16
   5   4   0    1.96    0.39
   6   4   0    1.87    0.47
   7   4   0    0.99    0.51
   8   4   0    5.50    1.09
   9   4   0    5.08    1.38
  10   4   0   34.81    3.58
  11   4   0  129.49    9.20
 -15   5   0   10.89    1.88
 -14   5   0   78.20    4.77
 -13   5   0   41.56    3.80
 -12   5   0   23.20    2.70
 -11   5   0   53.30    2.53
 -10   5   0    1.64    0.54
  -9   5   0    2.91    0.66
  -8   5   0   29.20    1.62
  -7   5   0    1.25    0.30
  -6   5   0  416.42    6.86
  -5   5   0   28.10    0.99
  -4   5   0    4.52    0.37
  -3   5   0   13.34    0.75
  -2   5   0  196.39    3.66
  -1   5   0  500.53    8.30
   0   5   0   26.39    0.93
   1   5   0    3.48    0.38
   2   5   0  375.63    5.41
   3   5   0   30.92    1.19
   4   5   0  166.01    3.33
   5   5   0    2.55    0.63
   6   5   0  120.95    4.03
   7   5   0   33.46    3.19
   8   5   0  200.21    7.65
   9   5   0    7.09    1.68
  10   5   0    1.33    1.03
 -15   6   0   34.86    3.93
 -14   6   0   32.61    3.56
 -13   6   0   30.14    3.19
 -12   6   0    0.92    0.54
 -11   6   0  120.67    4.05
 -10   6   0    2.06    0.60
  -9   6   0  675.17   13.11
  -8   6   0   16.07    0.99
  -7   6   0   26.21    1.13
  -6   6   0   15.72    0.84
  -5   6   0    4.10    0.44
  -4   6   0   61.33    1.34
  -3   6   0  176.51    3.53
  -2   6   0   14.56    0.85
  -1   6   0  398.44    6.92
   0   6   0   15.25    0.85
   1   6   0  232.05    4.13
   2   6   0  136.12    2.61
   3   6   0    0.05    0.20
   4   6   0  250.22    5.29
   5   6   0   54.73    2.60
   6   6   0    1.37    0.56
   7   6   0   34.04    3.42
   8   6   0   18.77    2.66
   9   6   0   -0.07    0.87
 -15   7   0   21.51    2.99
 -14   7   0   18.40    2.63
 -13   7   0   29.96    3.13
 -12   7   0   32.89    2.52
 -11   7   0    0.91    0.47
 -10   7   0    6.72    0.98
  -9   7   0   68.65    2.58
  -8   7   0    2.03    0.41
  -7   7   0   21.20    1.07
  -6   7   0  238.03    4.43
  -5   7   0  376.17    6.68
  -4   7   0  473.47    8.15
  -3   7   0   80.29    2.18
  -2   7   0    1.07    0.32
  -1   7   0   27.43    1.16
   0   7   0   21.73    1.12
   1   7   0  309.30    5.28
   2   7   0   82.06    2.50
   3   7   0   35.24    1.86
   4   7   0  362.75    7.31
   5   7   0   27.29    2.27
   6   7   0   25.45    2.33
   7   7   0   22.99    2.97
   8   7   0    1.04    1.00
 -15   8   0    0.21    1.23
 -14   8   0   13.37    3.16
 -13   8   0  203.22    7.67
 -12   8   0    4.28    1.18
 -11   8   0  106.15    4.74
 -10   8   0    0.47    0.51
  -9   8   0    7.47    0.95
  -8   8   0  294.91    6.76
  -7   8   0  302.03    6.79
  -6   8   0  130.20    3.68
  -5   8   0   28.63    1.33
  -4   8   0    0.02    0.17
  -3   8   0   32.11    1.36
  -2   8   0   16.21    1.12
  -1   8   0    2.20    0.45
   0   8   0  294.71    5.99
   1   8   0   46.79    1.88
   2   8   0    1.75    0.47
   3   8   0   18.01    1.72
   4   8   0   16.43    2.26
   5   8   0   35.62    3.44
   6   8   0   25.74    3.13
   7   8   0   29.09    3.53
 -15   9   0   -0.52    1.15
 -14   9   0    9.79    1.98
 -13   9   0    5.32    1.37
 -12   9   0    2.64    0.99
 -11   9   0  141.20    5.78
 -10   9   0    9.80    1.60
  -9   9   0   57.63    2.47
  -8   9   0   45.85    2.12
  -7   9   0   81.02    2.87
  -6   9   0    0.00    0.23
  -5   9   0  158.59    3.77
  -4   9   0    1.41    0.40
  -3   9   0  655.59   11.25
  -2   9   0   65.88    2.63
  -1   9   0    9.67    1.16
   0   9   0   57.55    2.50
   1   9   0   80.07    2.73
   2   9   0    2.07    0.70
   3   9   0    1.05    0.54
   4   9   0    9.90    1.88
   5   9   0   93.07    5.01
   6   9   0   32.59    5.49
 -15  10   0   -0.09    1.39
 -14  10   0   39.69    3.92
 -13  10   0   51.60    4.39
 -12  10   0   34.41    3.36
 -11  10   0  128.95    5.61
 -10  10   0   45.38    2.97
  -9  10   0   78.88    3.06
  -8  10   0    1.69    0.55
  -7  10   0   31.71    1.98
  -6  10   0  240.59    5.98
  -5  10   0    2.06    0.48
  -4  10   0    1.81    0.56
  -3  10   0    4.40    0.84
  -2  10   0    0.63    0.44
  -1  10   0   11.58    1.38
   0  10   0   40.13    2.31
   1  10   0   45.33    3.21
   2  10   0  254.45    7.03
   3  10   0   26.57    3.05
   4  10   0    0.35    0.67
   5  10   0   11.04    2.25
 -15  11   0  126.43    8.92
 -14  11   0   14.21    2.37
 -13  11   0    8.76    1.68
 -12  11   0   12.58    1.97
 -11  11   0   23.44    2.70
 -10  11   0   42.74    2.66
  -9  11   0    0.79    0.45
  -8  11   0   21.60    1.86
  -7  11   0  354.32    8.33
  -6  11   0   54.35    3.14
  -5  11   0  110.60    3.97
  -4  11   0    1.35    0.52
  -3  11   0   97.82    3.70
  -2  11   0  133.61    4.53
  -1  11   0  133.45    4.53
   0  11   0   33.09    3.22
   1  11   0    0.82    0.71
   2  11   0    3.65    1.18
   3  11   0   17.25    3.86
   4  11   0    1.63    1.46
 -14  12   0   23.19    3.07
 -13  12   0    1.33    0.97
 -12  12   0    2.19    1.03
 -11  12   0    1.23    0.81
 -10  12   0  251.07    6.91
  -9  12   0    1.42    0.57
  -8  12   0   11.31    1.82
  -7  12   0   21.68    2.49
  -6  12   0    1.00    0.65
  -5  12   0   34.85    2.63
  -4  12   0    3.43    0.84
  -3  12   0    2.26    0.73
  -2  12   0   37.84    2.82
  -1  12   0   11.33    1.98
   0  12   0    1.74    0.99
   1  12   0    4.67    1.36
   2  12   0    1.11    1.32
 -14  13   0  106.22    8.30
 -13  13   0   82.02    4.89
 -12  13   0    6.26    1.62
 -11  13   0    1.23    1.18
 -10  13   0   21.24    2.74
  -9  13   0   16.95    2.32
  -8  13   0   36.15    3.46
  -7  13   0   30.50    3.15
  -6  13   0   38.46    3.48
  -5  13   0  199.86    6.22
  -4  13   0    4.33    1.04
  -3  13   0   47.09    3.31
  -2  13   0    9.06    1.84
  -1  13   0    1.34    0.89
   0  13   0   76.28    4.65
   1  13   0   11.59    2.91
 -12  14   0    0.97    1.30
 -11  14   0   19.82    4.04
 -10  14   0   -0.11    0.65
  -9  14   0   86.67    4.83
  -8  14   0   33.38    3.53
  -7  14   0   22.51    2.86
  -6  14   0   14.47    2.28
  -5  14   0    8.61    1.81
  -4  14   0   33.19    2.94
  -3  14   0   12.82    2.22
  -2  14   0   30.35    3.41
 -10  15   0   13.85    3.46
  -9  15   0   47.92    4.46
  -8  15   0   21.09    2.86
  -7  15   0    0.05    0.76
  -6  15   0    0.13    0.81
  -5  15   0    2.42    1.65
   4 -15   1    2.21    1.87
   5 -15   1   20.38    4.05
   6 -15   1   49.13    3.91
   7 -15   1   26.19    2.68
   8 -15   1    0.16    0.72
   9 -15   1    5.75    1.36
  10 -15   1   32.87    5.43
  11 -15   1    0.14    1.73
   2 -14   1    4.34    1.42
   3 -14   1   17.86    2.25
   4 -14   1    5.78    1.29
   5 -14   1   35.64    3.10
   6 -14   1    2.62    0.94
   7 -14   1  153.56    5.65
   8 -14   1   25.60    2.60
   9 -14   1   13.98    1.92
  10 -14   1   85.24    5.05
  11 -14   1   20.38    2.93
  12 -14   1   35.95    3.96
   0 -13   1    1.03    1.14
   1 -13   1   20.48    2.87
   2 -13   1   84.42    4.96
   3 -13   1   55.77    4.22
   4 -13   1   53.76    3.46
   5 -13   1    0.45    0.54
   6 -13   1    4.42    1.01
   7 -13   1   43.04    3.20
   8 -13   1    1.50    0.69
   9 -13   1    4.22    1.05
  10 -13   1   85.67    4.86
  11 -13   1   12.13    2.23
  12 -13   1   76.10    4.73
  13 -13   1    2.01    1.22
  -2 -12   1   33.63    3.86
  -1 -12   1   79.06    5.24
   0 -12   1   75.39    4.63
   1 -12   1   35.81    3.65
   2 -12   1    0.44    0.62
   3 -12   1   15.22    2.36
   4 -12   1   16.62    2.28
   5 -12   1    8.11    1.32
   6 -12   1   34.30    2.67
   7 -12   1   50.32    2.93
   8 -12   1   73.21    3.37
   9 -12   1   50.48    3.07
  10 -12   1    3.55    1.10
  11 -12   1   11.92    2.02
  12 -12   1   70.73    4.44
  13 -12   1   24.84    3.02
  14 -12   1    3.28    1.36
  -3 -11   1   23.96    3.14
  -2 -11   1   12.48    2.24
  -1 -11   1    9.24    1.86
   0 -11   1   28.58    3.11
   1 -11   1    8.00    1.68
   2 -11   1    5.89    1.34
   3 -11   1  265.56    8.87
   4 -11   1   41.31    3.48
   5 -11   1  219.98    6.33
   6 -11   1    0.16    0.35
   7 -11   1    7.63    1.20
   8 -11   1    1.27    0.57
   9 -11   1   13.95    1.61
  10 -11   1   33.50    3.26
  11 -11   1   28.37    3.12
  12 -11   1   36.60    3.61
  13 -11   1   84.36    4.84
  14 -11   1   19.98    2.83
  15 -11   1    0.14    1.29
  -5 -10   1   49.94    4.79
  -4 -10   1   81.56    4.95
  -3 -10   1   89.74    4.97
  -2 -10   1    3.79    1.24
  -1 -10   1   33.05    3.28
   0 -10   1  156.22    6.41
   1 -10   1   10.71    1.74
   2 -10   1   62.61    3.58
   3 -10   1    6.54    1.36
   4 -10   1   12.78    1.78
   5 -10   1   14.75    1.87
   6 -10   1    1.77    0.62
   7 -10   1   28.38    2.19
   8 -10   1  198.74    5.55
   9 -10   1   59.02    2.86
  10 -10   1  160.02    6.30
  11 -10   1    6.90    1.44
  12 -10   1    1.47    0.82
  13 -10   1   67.54    4.08
  14 -10   1    6.78    1.64
  15 -10   1   18.53    3.34
  -6  -9   1    5.66    1.62
  -5  -9   1   10.67    1.91
  -4  -9   1    4.95    1.09
  -3  -9   1   48.20    2.99
  -2  -9   1   16.91    1.81
  -1  -9   1   64.76    2.89
   0  -9   1   27.77    2.14
   1  -9   1  238.45    6.09
   2  -9   1    4.22    0.78
   3  -9   1    3.88    0.73
   4  -9   1   16.45    1.93
   5  -9   1  237.82    7.44
   6  -9   1   88.87    3.21
   7  -9   1   76.49    2.94
   8  -9   1   35.23    2.12
   9  -9   1   28.79    2.72
  10  -9   1    9.52    1.60
  11  -9   1    3.57    1.04
  12  -9   1   14.40    2.05
  13  -9   1   60.98    3.81
  14  -9   1   47.65    4.14
  15  -9   1   51.96    6.59
  -7  -8   1    0.04    0.73
  -6  -8   1   26.47    3.05
  -5  -8   1    0.76    0.73
  -4  -8   1   69.75    3.90
  -3  -8   1    1.84    0.74
  -2  -8   1  181.58    6.58
  -1  -8   1   32.82    2.09
   0  -8   1    7.23    1.01
   1  -8   1  164.78    4.50
   2  -8   1   42.59    1.97
   3  -8   1  123.65    3.68
   4  -8   1   23.27    1.51
   5  -8   1   10.55    1.10
   6  -8   1   29.17    1.38
   7  -8   1    7.52    0.81
   8  -8   1    8.22    0.86
   9  -8   1  242.26    6.01
  10  -8   1   65.21    3.50
  11  -8   1  263.35    8.48
  12  -8   1   21.12    2.52
  13  -8   1    0.32    0.60
  14  -8   1    4.12    1.27
  15  -8   1   18.04    3.99
  -8  -7   1   25.78    3.21
  -7  -7   1  160.99    6.79
  -6  -7   1   42.42    3.71
  -5  -7   1   47.42    3.15
  -4  -7   1    8.92    1.55
  -3  -7   1   31.07    2.67
  -2  -7   1   73.07    3.44
  -1  -7   1    5.62    1.04
   0  -7   1    9.34    1.04
   1  -7   1  391.67    8.34
   2  -7   1   96.44    3.01
   3  -7   1  410.71    8.53
   4  -7   1    3.62    0.61
   5  -7   1   33.78    1.57
   6  -7   1  331.83    6.15
   7  -7   1    7.86    0.78
   8  -7   1  164.37    3.66
   9  -7   1    5.50    0.85
  10  -7   1    9.05    1.17
  11  -7   1   44.61    2.43
  12  -7   1    6.42    1.11
  13  -7   1    4.84    1.04
  14  -7   1  155.82    6.59
  15  -7   1    0.23    1.18
  -9  -6   1   48.67    3.77
  -8  -6   1    3.94    0.99
  -7  -6   1    3.81    0.92
  -6  -6   1   34.00    2.49
  -5  -6   1   -0.11    0.29
  -4  -6   1    2.14    0.57
  -3  -6   1   92.26    3.01
  -2  -6   1   27.77    1.50
  -1  -6   1  323.38    6.89
   0  -6   1   54.75    1.79
   1  -6   1    8.59    0.57
   2  -6   1  118.23    3.22
   3  -6   1  213.47    4.87
   4  -6   1   92.32    2.66
   5  -6   1   22.03    1.08
   6  -6   1   54.00    1.68
   7  -6   1  405.23    7.00
   8  -6   1   40.00    1.89
   9  -6   1    3.71    0.71
  10  -6   1   17.45    1.62
  11  -6   1  218.22    5.97
  12  -6   1   34.55    2.50
  13  -6   1   44.40    3.10
  14  -6   1   21.81    2.85
  15  -6   1    4.48    1.51
 -10  -5   1   15.70    3.53
  -9  -5   1   33.54    3.53
  -8  -5   1   -0.48    0.53
  -7  -5   1    4.99    1.24
  -6  -5   1  217.83    7.28
  -5  -5   1   14.07    1.74
  -4  -5   1  249.68    5.84
  -3  -5   1    9.16    0.98
  -2  -5   1   31.80    1.16
  -1  -5   1   19.51    0.83
   0  -5   1  165.86    3.60
   1  -5   1    0.62    0.17
   2  -5   1  242.76    5.27
   3  -5   1   76.74    2.26
   4  -5   1  615.68   11.38
   5  -5   1  162.38    3.24
   6  -5   1    7.66    0.67
   7  -5   1   94.63    2.36
   8  -5   1  122.54    3.64
   9  -5   1   14.96    1.38
  10  -5   1   12.79    1.33
  11  -5   1    0.63    0.45
  12  -5   1   52.91    2.71
  13  -5   1    0.86    0.61
  14  -5   1   11.43    2.05
  15  -5   1   45.83    6.17
 -10  -4   1    6.48    1.60
  -9  -4   1   57.08    3.73
  -8  -4   1   12.72    1.88
  -7  -4   1   41.16    2.79
  -6  -4   1   14.87    1.81
  -5  -4   1   16.05    1.36
  -4  -4   1   24.99    1.36
  -3  -4   1    2.99    0.49
  -2  -4   1   90.91    2.08
  -1  -4   1  606.32    9.52
   0  -4   1  211.49    4.20
   1  -4   1  464.95    7.34
   2  -4   1    7.91    0.43
   3  -4   1   39.04    1.18
   4  -4   1  208.80    3.70
   5  -4   1    0.66    0.18
   6  -4   1  116.69    2.27
   7  -4   1  419.12    7.06
   8  -4   1   23.42    1.51
   9  -4   1  244.16    5.84
  10  -4   1    2.42    0.60
  11  -4   1    8.44    1.19
  12  -4   1   67.78    3.14
  13  -4   1    5.64    1.16
  14  -4   1   81.08    4.83
 -11  -3   1   19.69    2.85
 -10  -3   1   61.39    3.96
  -9  -3   1   17.25    2.31
  -8  -3   1  242.90    8.29
  -7  -3   1   12.11    1.30
  -6  -3   1    2.88    0.56
  -5  -3   1  121.65    3.49
  -4  -3   1  427.52    7.06
  -3  -3   1  212.33    3.83
  -2  -3   1   74.92    1.97
  -1  -3   1   38.80    1.00
   0  -3   1  457.46    8.13
   1  -3   1   91.44    1.80
   2  -3   1   67.24    1.43
   3  -3   1  456.76    7.10
   4  -3   1  474.62    6.55
   5  -3   1  253.06    4.29
   6  -3   1  213.86    3.51
   7  -3   1    2.95    0.45
   8  -3   1    8.82    1.00
   9  -3   1   86.47    3.07
  10  -3   1   28.37    2.10
  11  -3   1    1.19    0.55
  12  -3   1   47.99    2.73
  13  -3   1   92.83    4.90
  14  -3   1   21.14    2.88
 -12  -2   1    4.53    1.68
 -11  -2   1   82.81    4.82
 -10  -2   1    0.23    0.54
  -9  -2   1    4.74    0.94
  -8  -2   1   67.10    2.78
  -7  -2   1    4.42    0.74
  -6  -2   1   40.87    1.86
  -5  -2   1   90.29    2.82
  -4  -2   1  115.81    2.43
  -3  -2   1  256.69    4.25
  -2  -2   1    8.33    0.56
  -1  -2   1   67.78    1.51
   0  -2   1  630.83   10.73
   1  -2   1  150.52    2.62
   2  -2   1  639.61    9.33
   3  -2   1   93.98    1.87
   4  -2   1    8.03    0.43
   5  -2   1   73.29    1.89
   6  -2   1   91.59    2.30
   7  -2   1   31.11    1.34
   8  -2   1   26.18    1.58
   9  -2   1   72.76    2.82
  10  -2   1  198.29    5.54
  11  -2   1   19.34    1.90
  12  -2   1    3.76    0.93
  13  -2   1   11.20    2.11
  14  -2   1   34.68    4.34
 -12  -1   1   23.56    3.15
 -11  -1   1   38.47    3.63
 -10  -1   1    6.49    1.13
  -9  -1   1    9.01    1.25
  -8  -1   1  236.63    6.02
  -7  -1   1  154.15    4.30
  -6  -1   1  395.67    8.21
  -5  -1   1    8.13    0.56
  -4  -1   1    0.68    0.16
  -3  -1   1  468.21    8.50
  -2  -1   1   87.25    2.04
  -1  -1   1  152.14    2.92
   0  -1   1   78.24    1.42
   1  -1   1   78.37    1.29
   2  -1   1  151.38    2.62
   3  -1   1   67.55    1.49
   4  -1   1   36.42    1.14
   5  -1   1  629.82    8.62
   6  -1   1   20.86    0.74
   7  -1   1  326.31    7.18
   8  -1   1    6.80    0.93
   9  -1   1   32.06    2.06
  10  -1   1   60.82    2.77
  11  -1   1   30.78    2.46
  12  -1   1   12.10    2.06
  13  -1   1   69.14    4.49
 -13   0   1    2.67    1.26
 -12   0   1   75.27    3.63
 -11   0   1   27.75    2.40
 -10   0   1  149.53    4.89
  -9   0   1   25.81    2.03
  -8   0   1    5.98    0.89
  -7   0   1    8.37    0.99
  -6   0   1   52.73    1.55
  -5   0   1  165.32    3.12
  -4   0   1  204.65    3.56
  -3   0   1  454.83    6.94
  -2   0   1  649.10   10.75
  -1   0   1   76.71    1.39
   0   0   1    0.59    0.12
   1   0   1   76.51    1.49
   2   0   1  635.11    8.37
   3   0   1  452.31    6.27
   4   0   1  206.41    3.25
   5   0   1  163.36    2.82
   6   0   1   53.24    1.42
   7   0   1   11.13    1.00
   8   0   1    7.83    1.03
   9   0   1   29.88    2.19
  10   0   1  146.02    4.85
  11   0   1   30.83    2.58
  12   0   1   70.77    4.37
  13   0   1    2.65    1.17
 -13   1   1   70.48    3.66
 -12   1   1   12.14    1.69
 -11   1   1   32.86    2.62
 -10   1   1   61.56    2.82
  -9   1   1   31.89    2.23
  -8   1   1    7.54    1.00
  -7   1   1  328.98    5.99
  -6   1   1   20.30    0.96
  -5   1   1  629.28    9.66
  -4   1   1   37.08    1.05
  -3   1   1   65.85    1.39
  -2   1   1  149.23    2.55
  -1   1   1   76.77    1.42
   0   1   1   77.83    1.48
   1   1   1  149.59    2.13
   2   1   1   93.35    1.40
   3   1   1  467.29    6.05
   4   1   1    0.40    0.15
   5   1   1    8.44    0.63
   6   1   1  405.99    6.28
   7   1   1  163.69    4.44
   8   1   1  245.00    6.14
   9   1   1    9.73    1.28
  10   1   1    7.49    1.21
  11   1   1   33.31    3.41
  12   1   1   22.71    2.98
 -14   2   1   34.98    3.37
 -13   2   1   12.38    1.79
 -12   2   1    3.04    0.90
 -11   2   1   19.03    1.91
 -10   2   1  192.98    5.53
  -9   2   1   70.58    2.83
  -8   2   1   23.47    1.46
  -7   2   1   33.47    1.45
  -6   2   1   91.43    2.49
  -5   2   1   76.34    2.09
  -4   2   1    6.77    0.58
  -3   2   1   91.89    1.71
  -2   2   1  637.82    8.23
  -1   2   1  153.63    2.30
   0   2   1  618.72    7.56
   1   2   1   68.91    1.04
   2   2   1    7.20    0.37
   3   2   1  254.76    3.16
   4   2   1  116.76    2.12
   5   2   1   96.35    2.22
   6   2   1   40.08    1.39
   7   2   1    5.26    0.85
   8   2   1   65.26    2.82
   9   2   1    4.55    0.88
  10   2   1    1.43    0.63
  11   2   1   86.57    4.90
  12   2   1    3.44    1.60
 -14   3   1   19.88    2.34
 -13   3   1   85.72    3.90
 -12   3   1   48.82    3.02
 -11   3   1    1.96    0.62
 -10   3   1   26.89    2.06
  -9   3   1   82.01    3.75
  -8   3   1    9.23    0.97
  -7   3   1    2.05    0.42
  -6   3   1  213.17    4.69
  -5   3   1  258.62    4.34
  -4   3   1  476.97    7.31
  -3   3   1  460.52    6.21
  -2   3   1   65.30    1.44
  -1   3   1   92.24    1.55
   0   3   1  441.43    5.31
   1   3   1   38.95    0.80
   2   3   1   77.84    1.33
   3   3   1  213.83    2.89
   4   3   1  422.55    5.88
   5   3   1  128.14    2.47
   6   3   1    3.21    0.51
   7   3   1    8.71    1.15
   8   3   1  271.70    6.95
   9   3   1   13.15    1.62
  10   3   1   61.04    3.97
  11   3   1   17.87    2.66
 -15   4   1    0.12    1.31
 -14   4   1   92.58    4.22
 -13   4   1    5.16    1.11
 -12   4   1   74.79    3.34
 -11   4   1    8.90    1.23
 -10   4   1    1.99    0.76
  -9   4   1  242.51    5.74
  -8   4   1   22.91    1.45
  -7   4   1  425.40    7.03
  -6   4   1  116.47    2.53
  -5   4   1    0.64    0.20
  -4   4   1  207.56    3.64
  -3   4   1   38.27    1.08
  -2   4   1    7.83    0.55
  -1   4   1  459.94    5.95
   0   4   1  206.53    3.00
   1   4   1  612.63    6.89
   2   4   1   93.75    1.58
   3   4   1    2.37    0.30
   4   4   1   24.47    0.90
   5   4   1   14.47    0.89
   6   4   1   17.36    1.33
   7   4   1   46.35    2.55
   8   4   1   18.59    1.81
   9   4   1   61.74    3.15
  10   4   1    8.42    1.86
 -15   5   1   42.28    4.99
 -14   5   1   10.56    1.65
 -13   5   1    1.10    0.59
 -12   5   1   51.12    2.82
 -11   5   1    0.76    0.60
 -10   5   1   13.59    1.38
  -9   5   1   16.80    1.45
  -8   5   1  122.14    3.57
  -7   5   1   92.79    2.33
  -6   5   1    7.47    0.65
  -5   5   1  157.63    3.12
  -4   5   1  621.89    9.67
  -3   5   1   76.80    1.79
  -2   5   1  252.91    4.43
  -1   5   1    1.02    0.17
   0   5   1  165.57    2.61
   1   5   1   20.35    0.70
   2   5   1   33.19    0.92
   3   5   1   10.30    0.63
   4   5   1  245.91    3.71
   5   5   1   15.23    1.07
   6   5   1  219.55    6.05
   7   5   1    7.26    1.15
   8   5   1    1.46    0.62
   9   5   1   35.58    3.64
  10   5   1   16.23    3.61
 -15   6   1    7.05    1.80
 -14   6   1   24.84    3.10
 -13   6   1   39.95    3.62
 -12   6   1   37.57    2.87
 -11   6   1  217.69    5.91
 -10   6   1   16.54    1.48
  -9   6   1    4.15    0.75
  -8   6   1   39.40    1.48
  -7   6   1  407.76    6.93
  -6   6   1   54.76    1.61
  -5   6   1   20.72    0.92
  -4   6   1   92.70    2.12
  -3   6   1  217.23    3.98
  -2   6   1  114.46    2.31
  -1   6   1    8.75    0.65
   0   6   1   54.12    1.48
   1   6   1  326.85    4.97
   2   6   1   26.61    0.91
   3   6   1   92.33    1.84
   4   6   1    2.64    0.44
   5   6   1    0.48    0.35
   6   6   1   36.26    2.65
   7   6   1    3.49    0.92
   8   6   1    4.87    1.53
   9   6   1   60.71    5.74
 -15   7   1    0.71    0.92
 -14   7   1  157.69    6.86
 -13   7   1    4.69    1.37
 -12   7   1    9.65    1.65
 -11   7   1   46.59    2.47
 -10   7   1    7.43    1.04
  -9   7   1    5.90    0.85
  -8   7   1  163.60    3.56
  -7   7   1    9.91    0.82
  -6   7   1  324.93    5.92
  -5   7   1   32.46    1.19
  -4   7   1    2.09    0.34
  -3   7   1  409.47    6.37
  -2   7   1   97.18    2.14
  -1   7   1  405.14    6.24
   0   7   1    9.11    0.73
   1   7   1    6.10    0.57
   2   7   1   70.32    1.89
   3   7   1   29.54    1.39
   4   7   1    8.47    1.00
   5   7   1   53.00    2.79
   6   7   1   49.85    3.67
   7   7   1  154.99    6.68
   8   7   1   29.15    4.69
 -15   8   1   27.92    4.93
 -14   8   1    2.45    1.65
 -13   8   1   -0.03    0.88
 -12   8   1   16.16    2.19
 -11   8   1  264.49    8.42
 -10   8   1   64.68    3.42
  -9   8   1  234.07    7.34
  -8   8   1    7.13    0.92
  -7   8   1    6.32    0.88
  -6   8   1   28.18    1.60
  -5   8   1    8.41    0.97
  -4   8   1   24.87    1.58
  -3   8   1  125.48    3.17
  -2   8   1   41.42    1.65
  -1   8   1  160.56    3.74
   0   8   1    6.78    0.81
   1   8   1   32.36    1.67
   2   8   1  195.87    4.65
   3   8   1    2.36    0.62
   4   8   1   71.86    3.95
   5   8   1    1.06    0.66
   6   8   1   22.38    2.89
   7   8   1    0.13    1.23
 -15   9   1   42.58    7.08
 -14   9   1   30.56    4.99
 -13   9   1   62.46    3.86
 -12   9   1   11.21    1.82
 -11   9   1    4.49    1.15
 -10   9   1   11.51    1.72
  -9   9   1   27.68    1.99
  -8   9   1   32.51    1.88
  -7   9   1   67.16    2.67
  -6   9   1   90.13    3.06
  -5   9   1  245.25    5.82
  -4   9   1   17.86    1.50
  -3   9   1    2.18    0.49
  -2   9   1    4.72    0.71
  -1   9   1  238.84    5.14
   0   9   1   28.43    2.06
   1   9   1   63.30    2.69
   2   9   1   19.70    1.84
   3   9   1   51.86    2.77
   4   9   1    5.23    1.40
   5   9   1    7.71    2.77
   6   9   1    3.23    2.31
 -14  10   1    5.20    2.24
 -13  10   1   67.46    4.40
 -12  10   1    0.81    0.62
 -11  10   1    7.59    1.49
 -10  10   1  151.30    6.01
  -9  10   1   59.60    2.61
  -8  10   1  199.14    5.40
  -7  10   1   27.41    2.02
  -6  10   1    2.40    0.63
  -5  10   1   11.77    1.25
  -4  10   1   17.41    1.57
  -3  10   1    9.70    1.02
  -2  10   1   64.19    2.78
  -1  10   1    8.75    1.20
   0  10   1  148.26    4.75
   1  10   1   31.85    2.42
   2  10   1    2.77    0.94
   3  10   1   84.61    4.39
   4  10   1   90.24    6.77
   5  10   1   36.02    5.56
 -14  11   1   21.80    2.91
 -13  11   1   81.55    4.75
 -12  11   1   36.34    3.58
 -11  11   1   27.61    2.90
 -10  11   1   29.15    2.95
  -9  11   1   17.97    1.72
  -8  11   1    1.17    0.52
  -7  11   1   10.13    1.26
  -6  11   1    0.06    0.33
  -5  11   1  224.75    5.92
  -4  11   1   45.58    2.88
  -3  11   1  246.06    6.79
  -2  11   1    4.57    0.96
  -1  11   1    7.44    1.20
   0  11   1   28.44    2.36
   1  11   1   14.51    2.23
   2  11   1   13.15    2.10
   3  11   1   19.72    3.87
 -14  12   1    3.49    1.37
 -13  12   1   21.02    2.85
 -12  12   1   71.53    4.35
 -11  12   1   14.47    1.97
 -10  12   1    4.10    0.96
  -9  12   1   45.08    2.60
  -8  12   1   68.94    3.10
  -7  12   1   49.45    2.55
  -6  12   1   38.76    3.37
  -5  12   1    6.37    1.37
  -4  12   1   16.19    2.13
  -3  12   1   13.28    1.54
  -2  12   1    0.71    0.51
  -1  12   1   40.11    2.94
   0  12   1   70.07    4.22
   1  12   1   80.60    4.55
   2  12   1   33.29    3.49
 -13  13   1    3.23    1.29
 -12  13   1   80.26    4.67
 -11  13   1   14.82    2.26
 -10  13   1   91.41    3.83
  -9  13   1    3.61    1.04
  -8  13   1    0.69    0.70
  -7  13   1   45.92    3.85
  -6  13   1    3.54    1.21
  -5  13   1    0.55    0.52
  -4  13   1   61.30    3.81
  -3  13   1   55.29    3.62
  -2  13   1   82.33    3.84
  -1  13   1   23.86    3.02
   0  13   1    2.35    1.17
 -12  14   1   28.96    3.56
 -11  14   1   17.27    3.94
 -10  14   1   82.37    4.81
  -9  14   1    5.43    1.45
  -8  14   1   26.26    2.99
  -7  14   1  154.44    6.66
  -6  14   1    1.31    0.81
  -5  14   1   38.51    3.77
  -4  14   1    5.61    1.50
  -3  14   1   19.81    2.76
  -2  14   1    4.91    2.04
 -10  15   1   41.09    5.84
  -9  15   1    2.55    1.23
  -8  15   1    0.79    0.92
  -7  15   1   32.75    3.61
  -6  15   1   45.06    4.28
  -5  15   1   22.21    4.25
  -4  15   1    2.04    1.61
   6 -15   2    6.66    1.98
   7 -15   2    5.98    1.62
   8 -15   2   19.70    2.69
   9 -15   2    3.57    2.21
   3 -14   2    0.56    0.90
   4 -14   2   14.53    2.55
   5 -14   2   13.86    1.97
   6 -14   2    7.90    1.48
   7 -14   2   37.17    3.18
   8 -14   2   14.50    1.92
   9 -14   2   95.68    5.49
  10 -14   2   48.19    4.46
  11 -14   2   18.62    2.82
  12 -14   2   12.99    3.36
   0 -13   2   96.45    8.41
   1 -13   2    0.99    1.08
   2 -13   2   61.89    4.64
   3 -13   2   23.97    3.02
   4 -13   2   38.64    3.77
   5 -13   2   89.79    5.04
   6 -13   2    3.72    1.00
   7 -13   2   36.95    2.96
   8 -13   2    7.29    1.34
   9 -13   2    9.27    1.88
  10 -13   2    7.23    1.53
  11 -13   2    0.97    1.00
  12 -13   2    8.80    1.91
  13 -13   2  103.21    7.87
  -1 -12   2    7.40    1.71
   0 -12   2   31.05    3.61
   1 -12   2   13.49    2.17
   2 -12   2   30.72    3.35
   3 -12   2   10.37    1.90
   4 -12   2   -0.06    0.49
   5 -12   2   48.63    3.71
   6 -12   2   21.58    2.67
   7 -12   2   13.51    1.75
   8 -12   2   70.75    3.34
   9 -12   2    8.61    1.70
  10 -12   2   75.52    4.43
  11 -12   2   10.39    1.99
  12 -12   2   28.83    3.34
  13 -12   2    1.14    0.93
  -3 -11   2   18.83    2.82
  -2 -11   2    1.70    0.97
  -1 -11   2    7.30    1.72
   0 -11   2   29.26    3.33
   1 -11   2   76.25    4.43
   2 -11   2   25.03    2.83
   3 -11   2   56.17    3.89
   4 -11   2  147.78    6.17
   5 -11   2   68.59    3.90
   6 -11   2    5.99    1.33
   7 -11   2  214.03    6.11
   8 -11   2   15.37    1.74
   9 -11   2   -0.32    0.43
  10 -11   2   14.82    2.20
  11 -11   2   34.42    3.41
  12 -11   2   20.28    2.70
  13 -11   2   58.45    4.83
  14 -11   2    0.98    1.47
  -5 -10   2    2.82    1.79
  -4 -10   2   45.75    3.50
  -3 -10   2    9.76    1.51
  -2 -10   2   77.92    3.64
  -1 -10   2   19.68    2.01
   0 -10   2  102.57    4.04
   1 -10   2    5.83    1.04
   2 -10   2   27.92    2.23
   3 -10   2   15.31    1.63
   4 -10   2    1.72    0.76
   5 -10   2   40.82    3.00
   6 -10   2  154.79    6.02
   7 -10   2   13.93    1.51
   8 -10   2  170.15    5.01
   9 -10   2   68.94    3.78
  10 -10   2   98.37    4.84
  11 -10   2   79.16    4.28
  12 -10   2   35.89    3.52
  13 -10   2   22.54    4.25
  14 -10   2   13.32    3.34
  -6  -9   2    0.64    1.36
  -5  -9   2  102.01    5.48
  -4  -9   2   10.68    1.91
  -3  -9   2    6.70    1.48
  -2  -9   2    0.05    0.42
  -1  -9   2   62.39    2.97
   0  -9   2    8.44    1.22
   1  -9   2   25.29    2.07
   2  -9   2    1.81    0.57
   3  -9   2  353.11    8.16
   4  -9   2   54.37    2.43
   5  -9   2   82.97    3.08
   6  -9   2   70.65    2.80
   7  -9   2   43.36    1.89
   8  -9   2   84.07    3.19
   9  -9   2    7.61    1.13
  10  -9   2    3.94    1.12
  11  -9   2   29.49    2.95
  12  -9   2   10.83    1.83
  13  -9   2   40.89    5.36
  14  -9   2   14.56    3.33
  -7  -8   2    6.69    2.44
  -6  -8   2   13.63    2.29
  -5  -8   2    6.86    1.61
  -4  -8   2   68.14    3.99
  -3  -8   2   14.77    2.03
  -2  -8   2  153.23    6.02
  -1  -8   2   84.98    3.93
   0  -8   2  203.84    5.72
   1  -8   2   18.47    1.64
   2  -8   2    3.73    0.72
   3  -8   2   61.27    2.53
   4  -8   2   43.12    2.04
   5  -8   2    6.32    0.90
   6  -8   2  116.14    3.69
   7  -8   2   37.85    1.62
   8  -8   2  223.66    5.70
   9  -8   2   30.65    2.02
  10  -8   2   27.16    2.11
  11  -8   2   56.88    2.74
  12  -8   2    0.58    0.49
  13  -8   2   96.14    7.15
  14  -8   2    8.21    2.53
  -8  -7   2   12.17    4.87
  -7  -7   2   30.20    3.40
  -6  -7   2   35.89    3.49
  -5  -7   2   11.40    1.89
  -4  -7   2  207.02    7.36
  -3  -7   2   14.29    1.91
  -2  -7   2   38.39    2.72
  -1  -7   2   30.70    2.33
   0  -7   2   25.05    2.20
   1  -7   2  142.87    4.14
   2  -7   2  115.70    3.50
   3  -7   2  114.12    3.42
   4  -7   2  386.59    8.14
   5  -7   2  164.37    4.36
   6  -7   2  150.05    4.14
   7  -7   2   28.32    1.34
   8  -7   2   17.87    1.56
   9  -7   2    3.38    0.73
  10  -7   2   14.55    1.52
  11  -7   2  154.21    4.82
  12  -7   2   52.19    3.72
  13  -7   2    4.14    1.18
  14  -7   2   35.96    3.73
  15  -7   2   13.13    3.68
  -8  -6   2    5.69    1.53
  -7  -6   2    4.03    1.00
  -6  -6   2   23.65    2.12
  -5  -6   2    5.96    0.98
  -4  -6   2  154.83    4.57
  -3  -6   2   70.07    2.68
  -2  -6   2  117.41    3.51
  -1  -6   2  148.85    3.91
   0  -6   2   29.26    1.36
   1  -6   2  304.34    5.55
   2  -6   2    9.07    0.64
   3  -6   2   70.80    1.87
   4  -6   2   89.71    2.22
   5  -6   2  227.55    4.33
   6  -6   2   29.05    1.23
   7  -6   2  144.86    2.89
   8  -6   2    5.78    0.72
   9  -6   2  340.30    7.86
  10  -6   2    0.95    0.41
  11  -6   2   69.14    2.96
  12  -6   2   23.52    2.68
  13  -6   2   35.54    3.57
  14  -6   2   12.03    2.16
  15  -6   2    1.17    1.53
 -10  -5   2    1.59    1.54
  -9  -5   2   12.65    1.77
  -8  -5   2   90.68    3.91
  -7  -5   2   52.60    2.73
  -6  -5   2   66.90    2.97
  -5  -5   2   38.46    2.17
  -4  -5   2   76.71    2.90
  -3  -5   2    8.09    0.98
  -2  -5   2  163.56    4.16
  -1  -5   2  219.05    5.01
   0  -5   2   51.11    1.79
   1  -5   2   60.46    1.72
   2  -5   2  115.47    2.58
   3  -5   2   43.39    1.39
   4  -5   2  113.31    2.56
   5  -5   2   50.26    1.61
   6  -5   2  301.86    4.87
   7  -5   2  106.58    2.80
   8  -5   2   65.78    2.13
   9  -5   2   58.21    2.08
  10  -5   2   37.79    2.12
  11  -5   2    6.56    1.06
  12  -5   2   17.49    2.37
  13  -5   2    5.44    1.44
  14  -5   2  104.77    5.61
 -10  -4   2   13.63    2.37
  -9  -4   2   35.98    3.52
  -8  -4   2    0.17    0.57
  -7  -4   2  156.92    6.05
  -6  -4   2    1.29    0.61
  -5  -4   2   57.78    2.97
  -4  -4   2   41.69    1.93
  -3  -4   2  375.91    7.93
  -2  -4   2   91.39    2.72
  -1  -4   2  110.11    2.97
   0  -4   2  173.39    3.91
   1  -4   2  314.82    6.16
   2  -4   2  263.26    4.62
   3  -4   2   33.96    1.15
   4  -4   2  173.32    3.42
   5  -4   2   58.15    1.74
   6  -4   2    8.33    0.51
   7  -4   2  105.78    2.75
   8  -4   2   42.27    1.68
   9  -4   2   82.59    2.58
  10  -4   2  155.80    4.61
  11  -4   2  210.16    7.40
  12  -4   2   69.45    4.05
  13  -4   2   11.07    2.02
  14  -4   2   45.68    4.26
 -11  -3   2    0.66    0.91
 -10  -3   2   19.20    2.63
  -9  -3   2    9.25    1.70
  -8  -3   2   54.68    3.40
  -7  -3   2   13.13    1.79
  -6  -3   2  347.52    9.78
  -5  -3   2   64.35    3.05
  -4  -3   2  109.61    2.99
  -3  -3   2   72.33    1.86
  -2  -3   2   44.31    1.26
  -1  -3   2   32.25    1.31
   0  -3   2   88.56    2.35
   1  -3   2   43.20    1.42
   2  -3   2  465.40    7.39
   3  -3   2   89.04    2.04
   4  -3   2  314.46    5.38
   5  -3   2  114.36    2.15
   6  -3   2   71.49    2.01
   7  -3   2  387.16    6.92
   8  -3   2    7.54    0.82
   9  -3   2   71.50    2.39
  10  -3   2   14.61    1.48
  11  -3   2   14.40    2.09
  12  -3   2    8.28    1.67
  13  -3   2    8.81    1.82
  14  -3   2   13.24    2.37
 -11  -2   2   66.87    4.29
 -10  -2   2   37.60    3.62
  -9  -2   2   29.23    2.99
  -8  -2   2   28.49    2.71
  -7  -2   2    1.90    0.53
  -6  -2   2    4.67    0.72
  -5  -2   2  107.39    3.70
  -4  -2   2    6.79    0.74
  -3  -2   2  109.77    2.82
  -2  -2   2  255.55    4.46
  -1  -2   2  460.91    7.23
   0  -2   2  514.48    7.88
   1  -2   2  207.30    3.64
   2  -2   2  525.58    7.14
   3  -2   2   40.13    1.13
   4  -2   2  254.20    4.54
   5  -2   2   42.35    1.40
   6  -2   2   88.33    2.33
   7  -2   2  163.66    3.66
   8  -2   2  116.79    3.14
   9  -2   2   41.47    1.80
  10  -2   2  163.38    6.26
  11  -2   2    0.23    0.55
  12  -2   2   68.24    4.18
  13  -2   2    2.26    0.93
 -12  -1   2    0.21    0.72
 -11  -1   2   13.51    2.18
 -10  -1   2   82.63    4.44
  -9  -1   2    5.30    1.00
  -8  -1   2   31.98    2.18
  -7  -1   2   17.24    1.49
  -6  -1   2  139.66    3.85
  -5  -1   2  289.08    6.36
  -4  -1   2   58.37    1.95
  -3  -1   2  318.40    6.13
  -2  -1   2   41.09    1.30
  -1  -1   2  206.99    3.57
   0  -1   2   56.86    1.35
   1  -1   2   53.74    1.37
   2  -1   2  207.13    3.20
   3  -1   2  465.79    6.59
   4  -1   2   33.50    1.22
   5  -1   2  113.73    2.60
   6  -1   2  222.74    4.44
   7  -1   2  154.23    4.06
   8  -1   2   35.18    1.71
   9  -1   2   84.21    2.79
  10  -1   2   72.42    3.85
  11  -1   2   18.82    3.39
  12  -1   2    8.80    1.87
  13  -1   2    7.78    1.80
 -13   0   2   94.80   13.27
 -12   0   2   28.55    3.30
 -11   0   2   33.14    3.44
 -10   0   2  111.86    4.02
  -9   0   2    5.09    0.91
  -8   0   2  213.52    5.56
  -7   0   2   25.44    1.61
  -6   0   2   30.42    1.49
  -5   0   2   52.97    1.90
  -4   0   2  173.72    3.12
  -3   0   2   90.90    1.86
  -2   0   2  527.85    7.88
  -1   0   2   54.69    1.15
   0   0   2  896.23   13.01
   1   0   2   53.19    1.36
   2   0   2  513.49    8.10
   3   0   2   89.96    1.80
   4   0   2  175.13    3.10
   5   0   2   55.56    1.68
   6   0   2   29.67    1.35
   7   0   2   27.14    1.47
   8   0   2  211.17    4.86
   9   0   2    7.18    1.16
  10   0   2  100.70    4.84
  11   0   2   35.88    3.42
  12   0   2   32.40    3.45
 -13   1   2   11.33    2.22
 -12   1   2    9.18    1.45
 -11   1   2   20.12    1.99
 -10   1   2   67.08    2.97
  -9   1   2   81.56    3.15
  -8   1   2   35.98    1.86
  -7   1   2  147.61    4.06
  -6   1   2  225.12    4.15
  -5   1   2  110.41    2.38
  -4   1   2   33.26    1.14
  -3   1   2  481.01    7.28
  -2   1   2  208.05    3.58
  -1   1   2   56.54    1.13
   0   1   2   56.49    1.15
   1   1   2  210.22    3.30
   2   1   2   42.06    1.01
   3   1   2  315.20    4.82
   4   1   2   58.55    1.59
   5   1   2  300.49    5.61
   6   1   2  148.82    3.47
   7   1   2   16.80    1.28
   8   1   2   28.65    1.73
   9   1   2    5.24    1.00
  10   1   2   68.47    4.05
  11   1   2   16.48    2.37
  12   1   2    0.75    0.92
 -14   2   2   11.17    3.11
 -13   2   2    1.92    0.86
 -12   2   2   75.69    3.53
 -11   2   2    0.45    0.43
 -10   2   2  156.30    4.89
  -9   2   2   44.50    2.15
  -8   2   2  115.05    3.59
  -7   2   2  166.86    3.53
  -6   2   2   89.50    2.19
  -5   2   2   44.52    1.35
  -4   2   2  255.98    4.45
  -3   2   2   41.25    1.13
  -2   2   2  514.51    7.93
  -1   2   2  204.83    3.65
   0   2   2  520.11    7.08
   1   2   2  458.82    6.60
   2   2   2  255.55    3.74
   3   2   2  114.27    2.36
   4   2   2    8.89    0.70
   5   2   2  113.27    2.44
   6   2   2    5.17    0.70
   7   2   2    2.97    0.61
   8   2   2   27.40    2.20
   9   2   2   31.96    3.08
  10   2   2   35.25    3.45
  11   2   2   62.71    4.40
  12   2   2    9.12    3.81
 -14   3   2   12.98    1.87
 -13   3   2    8.43    1.45
 -12   3   2    7.18    1.27
 -11   3   2   16.74    1.75
 -10   3   2   15.25    1.55
  -9   3   2   70.53    2.74
  -8   3   2    7.33    0.94
  -7   3   2  393.35    6.72
  -6   3   2   74.05    1.93
  -5   3   2  114.37    2.51
  -4   3   2  313.68    5.24
  -3   3   2   91.50    1.94
  -2   3   2  458.43    6.51
  -1   3   2   42.45    1.15
   0   3   2   91.89    1.61
   1   3   2   33.72    0.92
   2   3   2   42.04    1.06
   3   3   2   71.16    1.51
   4   3   2  110.54    2.24
   5   3   2   67.09    1.84
   6   3   2  351.38    6.87
   7   3   2   15.77    1.39
   8   3   2   54.81    2.76
   9   3   2    9.80    1.73
  10   3   2   19.92    2.70
  11   3   2    0.52    0.91
 -14   4   2   46.77    3.53
 -13   4   2    8.73    1.35
 -12   4   2   69.22    3.20
 -11   4   2  211.62    5.89
 -10   4   2  160.75    4.70
  -9   4   2   83.24    2.97
  -8   4   2   43.40    1.58
  -7   4   2  113.24    2.68
  -6   4   2    8.50    0.71
  -5   4   2   57.68    1.43
  -4   4   2  171.02    2.88
  -3   4   2   36.04    0.89
  -2   4   2  257.05    3.96
  -1   4   2  316.74    4.76
   0   4   2  172.85    3.05
   1   4   2  111.92    2.09
   2   4   2   90.80    1.64
   3   4   2  385.76    4.83
   4   4   2   40.85    1.32
   5   4   2   57.03    1.64
   6   4   2    1.77    0.50
   7   4   2  147.21    4.82
   8   4   2   -0.19    0.43
   9   4   2   40.75    3.72
  10   4   2   16.76    2.59
 -14   5   2  107.87    5.68
 -13   5   2    7.96    1.70
 -12   5   2   14.65    1.71
 -11   5   2    5.70    0.95
 -10   5   2   38.07    2.11
  -9   5   2   54.49    1.92
  -8   5   2   65.00    1.99
  -7   5   2  110.01    2.66
  -6   5   2  300.82    5.25
  -5   5   2   57.27    1.33
  -4   5   2  111.80    2.55
  -3   5   2   42.65    1.41
  -2   5   2  116.77    2.16
  -1   5   2   60.72    1.48
   0   5   2   53.18    1.44
   1   5   2  222.79    3.28
   2   5   2  163.78    2.53
   3   5   2    7.53    0.55
   4   5   2   82.34    1.77
   5   5   2   39.70    1.59
   6   5   2   67.26    2.53
   7   5   2   49.63    3.19
   8   5   2  103.64    5.01
   9   5   2   14.44    2.34
  10   5   2    2.56    1.79
 -15   6   2    1.10    1.36
 -14   6   2   12.59    2.18
 -13   6   2   37.49    3.57
 -12   6   2   20.48    2.47
 -11   6   2   73.77    3.86
 -10   6   2    2.61    0.61
  -9   6   2  363.54    7.85
  -8   6   2    4.30    0.60
  -7   6   2  143.02    3.26
  -6   6   2   30.55    1.23
  -5   6   2  215.90    4.28
  -4   6   2   86.48    2.26
  -3   6   2   72.43    2.00
  -2   6   2    9.00    0.79
  -1   6   2  304.02    4.87
   0   6   2   32.58    1.13
   1   6   2  147.85    2.79
   2   6   2  121.01    2.16
   3   6   2   70.99    1.63
   4   6   2  160.32    2.79
   5   6   2    5.50    0.81
   6   6   2   26.78    2.75
   7   6   2    3.32    1.08
   8   6   2    5.70    1.50
   9   6   2    9.28    1.90
 -15   7   2   15.92    3.61
 -14   7   2   40.71    3.98
 -13   7   2    4.87    1.34
 -12   7   2   52.60    3.38
 -11   7   2  160.53    5.26
 -10   7   2   14.41    1.46
  -9   7   2    2.59    0.63
  -8   7   2   18.44    1.23
  -7   7   2   27.33    1.27
  -6   7   2  154.45    3.41
  -5   7   2  158.09    3.50
  -4   7   2  383.96    6.78
  -3   7   2  106.42    2.71
  -2   7   2  115.52    2.82
  -1   7   2  139.83    3.32
   0   7   2   28.85    1.08
   1   7   2   34.46    1.23
   2   7   2   38.72    1.35
   3   7   2   15.96    0.93
   4   7   2  214.15    3.49
   5   7   2   14.26    1.59
   6   7   2   40.53    3.52
   7   7   2   40.10    3.73
 -14   8   2    4.47    2.01
 -13   8   2   93.05    4.96
 -12   8   2    1.20    0.68
 -11   8   2   57.30    2.66
 -10   8   2   25.61    1.98
  -9   8   2   29.71    1.89
  -8   8   2  220.80    4.63
  -7   8   2   34.56    1.48
  -6   8   2  123.97    3.24
  -5   8   2    6.85    0.89
  -4   8   2   47.63    2.07
  -3   8   2   63.27    2.50
  -2   8   2    4.12    0.76
  -1   8   2   15.79    1.44
   0   8   2  210.33    4.85
   1   8   2   83.31    2.72
   2   8   2  165.09    4.18
   3   8   2   16.76    1.45
   4   8   2   63.01    2.86
 -14   9   2   12.14    3.20
 -13   9   2   39.14    5.38
 -12   9   2    9.60    1.77
 -11   9   2   27.40    2.72
 -10   9   2    5.22    1.15
  -9   9   2    7.55    1.06
  -8   9   2   85.68    3.12
  -7   9   2   36.07    1.94
  -6   9   2   69.37    2.72
  -5   9   2   82.26    3.02
  -4   9   2   52.58    2.34
  -3   9   2  343.52    7.94
  -2   9   2    2.61    0.64
  -1   9   2   25.35    1.94
   0   9   2    6.52    0.99
   1   9   2   64.18    2.47
   2   9   2    0.40    0.44
   3   9   2    8.41    1.27
 -14  10   2   15.14    3.52
 -13  10   2   18.08    3.69
 -12  10   2   31.06    3.17
 -11  10   2   74.94    4.10
 -10  10   2  102.96    4.82
  -9  10   2   67.71    2.89
  -8  10   2  159.04    4.83
  -7  10   2   13.28    1.41
  -6  10   2  149.09    4.59
  -5  10   2   40.43    2.13
  -4  10   2    1.86    0.58
  -3  10   2   17.03    1.70
  -2  10   2   28.28    2.12
  -1  10   2    4.91    0.96
   0  10   2  112.78    4.83
   1  10   2   18.79    2.29
   2  10   2   75.03    4.07
   3  10   2    9.41    2.37
 -14  11   2    0.50    1.39
 -13  11   2   68.99    4.26
 -12  11   2   13.42    2.23
 -11  11   2   37.99    3.57
 -10  11   2   16.92    2.32
  -9  11   2    0.24    0.38
  -8  11   2   13.11    1.49
  -7  11   2  208.05    5.83
  -6  11   2    4.88    0.95
  -5  11   2   68.16    2.98
  -4  11   2  157.76    4.91
  -3  11   2   51.94    2.63
  -2  11   2   28.82    2.90
  -1  11   2   75.91    4.07
   0  11   2   34.64    3.28
   1  11   2   10.02    1.78
   2  11   2    1.43    1.34
 -13  12   2    0.92    0.91
 -12  12   2   32.67    3.51
 -11  12   2    8.72    1.78
 -10  12   2   77.96    4.34
  -9  12   2    8.43    1.28
  -8  12   2   72.64    3.19
  -7  12   2   13.40    1.62
  -6  12   2   22.10    2.04
  -5  12   2   47.51    2.87
  -4  12   2    0.12    0.54
  -3  12   2    9.03    1.72
  -2  12   2   35.36    3.43
  -1  12   2   16.72    2.33
   0  12   2   25.60    2.99
   1  12   2    8.75    2.52
   2  12   2   15.48    3.33
 -13  13   2  102.94    7.88
 -12  13   2    7.92    1.76
 -11  13   2    1.10    0.86
 -10  13   2    9.49    1.47
  -9  13   2    8.58    1.36
  -8  13   2    5.91    1.21
  -7  13   2   37.44    2.97
  -6  13   2    4.76    1.28
  -5  13   2   87.86    4.78
  -4  13   2   37.98    3.68
  -3  13   2   18.93    2.58
  -2  13   2   64.29    4.09
  -1  13   2    1.33    1.00
   0  13   2   85.38    6.92
 -12  14   2   11.77    3.22
 -11  14   2   17.84    2.59
 -10  14   2   43.46    3.20
  -9  14   2  113.85    5.64
  -8  14   2   12.75    2.26
  -7  14   2   41.34    4.00
  -6  14   2    6.40    1.61
  -5  14   2   14.30    2.40
  -4  14   2   11.68    2.08
  -3  14   2    0.95    0.89
  -2  14   2   15.05    3.58
  -9  15   2   -0.30    1.15
  -8  15   2   15.01    3.69
   4 -14   3    3.93    1.43
   5 -14   3   31.59    3.65
   6 -14   3   13.73    2.46
   7 -14   3  126.06    5.16
   8 -14   3   11.57    2.18
   9 -14   3    0.51    0.81
  10 -14   3   66.56    5.16
   2 -13   3   66.88    4.98
   3 -13   3   61.31    4.53
   4 -13   3   61.24    4.52
   5 -13   3    0.30    0.65
   6 -13   3    2.99    1.19
   7 -13   3   52.50    3.62
   8 -13   3    0.56    0.76
   9 -13   3    8.06    1.83
  10 -13   3   68.16    4.39
  11 -13   3    9.28    2.95
   0 -12   3   45.38    4.44
   1 -12   3   19.36    2.85
   2 -12   3   16.69    2.57
   3 -12   3    9.19    1.80
   4 -12   3   24.34    2.93
   5 -12   3    0.20    0.54
   6 -12   3   29.98    3.17
   7 -12   3   50.19    4.15
   8 -12   3   68.01    4.17
   9 -12   3   36.86    3.62
  10 -12   3    4.58    1.34
  11 -12   3   30.89    4.84
  12 -12   3   52.50    6.74
  -3 -11   3   18.29    3.72
  -2 -11   3   13.04    1.88
  -1 -11   3   21.54    2.32
   0 -11   3   34.01    2.86
   1 -11   3    3.98    1.00
   2 -11   3    2.65    0.75
   3 -11   3  151.09    6.45
   4 -11   3   30.67    3.14
   5 -11   3  137.81    5.83
   6 -11   3    8.10    1.57
   7 -11   3    3.96    1.17
   8 -11   3   10.72    1.74
   9 -11   3   36.93    3.44
  10 -11   3   28.14    3.06
  11 -11   3   37.52    5.30
  12 -11   3   23.49    4.43
  13 -11   3   75.14    6.85
  -4 -10   3   62.92    6.08
  -3 -10   3   66.92    3.71
  -2 -10   3    2.70    0.86
  -1 -10   3   23.57    2.36
   0 -10   3  141.40    5.00
   1 -10   3   29.80    2.52
   2 -10   3   56.42    2.84
   3 -10   3   15.92    1.71
   4 -10   3   26.34    2.20
   5 -10   3   11.55    1.41
   6 -10   3   20.70    1.91
   7 -10   3   11.26    1.72
   8 -10   3  157.22    4.99
   9 -10   3   25.95    2.72
  10 -10   3  143.78    5.97
  11 -10   3    1.41    1.18
  12 -10   3   18.06    3.74
  13 -10   3   71.83    6.35
  -5  -9   3    1.84    1.05
  -4  -9   3    7.15    1.68
  -3  -9   3   39.60    3.75
  -2  -9   3   29.58    3.08
  -1  -9   3   23.01    1.99
   0  -9   3   16.56    1.81
   1  -9   3  178.30    5.48
   2  -9   3   23.79    2.01
   3  -9   3    3.90    0.81
   4  -9   3   30.21    2.04
   5  -9   3  242.05    6.41
   6  -9   3   88.62    3.40
   7  -9   3   26.59    2.07
   8  -9   3    2.43    0.65
   9  -9   3   16.79    1.70
  10  -9   3   29.42    3.00
  11  -9   3    3.78    1.23
  12  -9   3    8.74    1.80
  13  -9   3   69.91    6.23
  14  -9   3   36.46    5.58
  -6  -8   3   10.91    2.17
  -5  -8   3    0.41    0.72
  -4  -8   3   69.47    4.19
  -3  -8   3    9.72    1.75
  -2  -8   3  149.77    6.06
  -1  -8   3    1.83    0.73
   0  -8   3    5.15    0.95
   1  -8   3  145.78    4.57
   2  -8   3   74.44    2.95
   3  -8   3  137.43    4.23
   4  -8   3    1.65    0.53
   5  -8   3   27.03    1.98
   6  -8   3   47.44    2.26
   7  -8   3    4.33    0.84
   8  -8   3    5.46    0.93
   9  -8   3  186.44    5.36
  10  -8   3   57.39    3.45
  11  -8   3  167.04    6.56
  12  -8   3   24.06    2.94
  13  -8   3    0.38    0.61
  14  -8   3   12.70    2.28
  -7  -7   3  124.93    6.23
  -6  -7   3   45.12    4.10
  -5  -7   3   52.95    3.84
  -4  -7   3    4.20    1.17
  -3  -7   3   10.80    1.67
  -2  -7   3   24.71    2.47
  -1  -7   3    4.93    1.08
   0  -7   3   21.13    2.14
   1  -7   3  241.67    6.10
   2  -7   3   59.40    2.46
   3  -7   3  225.36    5.65
   4  -7   3   35.00    1.88
   5  -7   3   23.06    1.73
   6  -7   3  288.47    6.71
   7  -7   3   23.30    1.76
   8  -7   3  146.60    4.37
   9  -7   3   20.55    1.77
  10  -7   3   16.35    2.16
  11  -7   3   30.19    3.00
  12  -7   3    0.25    0.62
  13  -7   3    3.78    1.28
  14  -7   3  123.13    6.19
  -8  -6   3   12.14    2.18
  -7  -6   3    3.87    1.22
  -6  -6   3   30.73    2.50
  -5  -6   3    8.33    1.25
  -4  -6   3   15.25    1.45
  -3  -6   3   92.38    3.31
  -2  -6   3   47.06    2.12
  -1  -6   3  290.34    6.52
   0  -6   3   70.75    2.50
   1  -6   3   42.14    1.59
   2  -6   3   16.57    1.03
   3  -6   3  150.64    3.37
   4  -6   3   99.52    2.55
   5  -6   3   34.81    1.40
   6  -6   3   70.85    2.20
   7  -6   3  246.38    5.02
   8  -6   3   72.44    2.32
   9  -6   3    3.68    0.76
  10  -6   3   25.34    2.06
  11  -6   3  124.18    5.57
  12  -6   3   31.84    3.29
  13  -6   3   53.09    4.01
  14  -6   3   14.50    2.48
  -9  -5   3   33.41    2.94
  -8  -5   3    0.20    0.50
  -7  -5   3    0.14    0.52
  -6  -5   3  120.84    4.37
  -5  -5   3    9.53    1.26
  -4  -5   3  247.23    6.34
  -3  -5   3   25.45    1.68
  -2  -5   3   20.23    1.57
  -1  -5   3   33.64    1.61
   0  -5   3  116.47    3.21
   1  -5   3    2.25    0.47
   2  -5   3  261.57    5.06
   3  -5   3   33.76    1.31
   4  -5   3  400.75    6.92
   5  -5   3  110.75    2.73
   6  -5   3   43.13    1.60
   7  -5   3   57.63    1.95
   8  -5   3  140.24    3.61
   9  -5   3   29.50    2.17
  10  -5   3    8.99    1.27
  11  -5   3    9.50    1.39
  12  -5   3   48.40    3.70
  13  -5   3    1.20    0.84
  14  -5   3   -0.24    0.81
 -10  -4   3    4.21    1.62
  -9  -4   3   60.46    3.24
  -8  -4   3   22.63    2.25
  -7  -4   3   32.63    2.51
  -6  -4   3   25.82    2.09
  -5  -4   3   32.32    2.08
  -4  -4   3    2.35    0.57
  -3  -4   3   30.98    1.70
  -2  -4   3   97.43    2.99
  -1  -4   3  382.64    7.98
   0  -4   3  141.59    3.65
   1  -4   3  396.28    7.95
   2  -4   3    0.85    0.25
   3  -4   3   60.55    1.77
   4  -4   3  139.86    3.09
   5  -4   3    2.18    0.41
   6  -4   3   18.64    1.07
   7  -4   3  228.68    4.70
   8  -4   3    1.77    0.52
   9  -4   3  243.47    6.51
  10  -4   3   15.56    1.67
  11  -4   3    2.97    0.80
  12  -4   3   68.57    4.12
  13  -4   3    8.02    1.81
  14  -4   3   64.17    4.77
 -10  -3   3   54.63    4.18
  -9  -3   3    8.46    1.65
  -8  -3   3  153.34    6.27
  -7  -3   3   10.32    1.69
  -6  -3   3    4.70    1.05
  -5  -3   3  142.32    4.17
  -4  -3   3  226.16    5.55
  -3  -3   3  143.39    3.92
  -2  -3   3   34.66    1.14
  -1  -3   3   61.84    1.59
   0  -3   3  208.68    3.72
   1  -3   3   50.24    1.43
   2  -3   3  113.40    2.22
   3  -3   3  205.19    3.82
   4  -3   3  402.63    6.79
   5  -3   3  259.06    4.94
   6  -3   3  145.75    3.29
   7  -3   3   32.94    1.95
   8  -3   3   27.26    2.01
   9  -3   3   91.72    3.50
  10  -3   3   10.93    1.43
  11  -3   3    9.55    1.36
  12  -3   3   37.79    3.68
  13  -3   3   65.98    4.27
 -11  -2   3   72.92    4.65
 -10  -2   3   17.17    2.46
  -9  -2   3    2.84    0.97
  -8  -2   3   50.16    3.21
  -7  -2   3   22.72    2.39
  -6  -2   3   73.99    3.47
  -5  -2   3   58.59    2.44
  -4  -2   3   15.79    0.95
  -3  -2   3  262.73    4.91
  -2  -2   3    1.13    0.24
  -1  -2   3  114.67    2.44
   0  -2   3  441.72    7.19
   1  -2   3   75.42    1.88
   2  -2   3  444.39    6.42
   3  -2   3   50.89    1.33
   4  -2   3    0.87    0.21
   5  -2   3   33.51    1.18
   6  -2   3   96.60    2.55
   7  -2   3   21.12    1.71
   8  -2   3   44.70    2.26
   9  -2   3   24.11    2.00
  10  -2   3  148.68    5.00
  11  -2   3   32.93    2.74
  12  -2   3    2.85    1.08
  13  -2   3   10.22    2.03
 -12  -1   3    4.77    2.22
 -11  -1   3   22.21    2.88
 -10  -1   3    3.13    1.09
  -9  -1   3   31.49    3.08
  -8  -1   3  177.71    6.53
  -7  -1   3  140.36    4.16
  -6  -1   3  241.34    5.70
  -5  -1   3   40.80    1.75
  -4  -1   3    2.55    0.48
  -3  -1   3  396.33    6.74
  -2  -1   3   51.45    1.44
  -1  -1   3   75.01    1.83
   0  -1   3  100.11    2.25
   1  -1   3   95.60    2.26
   2  -1   3   74.01    1.93
   3  -1   3  111.42    2.63
   4  -1   3   61.92    1.41
   5  -1   3  403.31    6.78
   6  -1   3   30.28    1.73
   7  -1   3  279.05    6.79
   8  -1   3    3.79    0.78
   9  -1   3    2.75    0.79
  10  -1   3   25.07    2.27
  11  -1   3   21.77    2.22
  12  -1   3   25.36    3.07
  13  -1   3   54.84    6.72
 -12   0   3   56.88    4.32
 -11   0   3   26.80    3.11
 -10   0   3  135.23    5.92
  -9   0   3   16.05    1.63
  -8   0   3    3.70    0.74
  -7   0   3   22.73    1.71
  -6   0   3   69.58    2.51
  -5   0   3  108.45    3.09
  -4   0   3  139.63    3.56
  -3   0   3  202.42    4.41
  -2   0   3  434.27    7.13
  -1   0   3   97.08    2.19
   0   0   3    0.14    0.13
   1   0   3  100.00    2.26
   2   0   3  433.03    7.32
   3   0   3  199.31    4.54
   4   0   3  143.22    2.65
   5   0   3  104.71    2.86
   6   0   3   67.53    2.64
   7   0   3   22.45    1.77
   8   0   3    3.83    0.79
   9   0   3   19.67    1.89
  10   0   3  135.93    4.87
  11   0   3   33.41    3.43
  12   0   3   59.40    4.38
 -13   1   3   45.14    6.06
 -12   1   3   20.69    2.77
 -11   1   3   21.71    2.62
 -10   1   3   25.61    2.16
  -9   1   3    2.28    0.65
  -8   1   3    3.38    0.69
  -7   1   3  298.86    6.61
  -6   1   3   36.39    1.67
  -5   1   3  396.00    6.66
  -4   1   3   60.40    1.65
  -3   1   3  116.72    2.47
  -2   1   3   76.65    1.59
  -1   1   3  103.92    1.94
   0   1   3  101.77    1.96
   1   1   3   76.63    1.82
   2   1   3   50.15    1.48
   3   1   3  396.72    6.97
   4   1   3    2.88    0.35
   5   1   3   40.96    1.69
   6   1   3  245.39    6.02
   7   1   3  135.22    4.34
   8   1   3  185.63    5.48
   9   1   3   29.78    2.44
  10   1   3    2.88    0.81
  11   1   3   21.45    2.85
  12   1   3    6.63    2.44
 -13   2   3   12.35    2.21
 -12   2   3    4.20    0.97
 -11   2   3   43.88    2.79
 -10   2   3  149.87    4.80
  -9   2   3   27.75    2.04
  -8   2   3   45.02    2.12
  -7   2   3   21.12    1.45
  -6   2   3   99.61    2.47
  -5   2   3   35.29    1.23
  -4   2   3    0.82    0.23
  -3   2   3   51.30    1.45
  -2   2   3  436.90    6.29
  -1   2   3   76.52    1.93
   0   2   3  432.22    7.37
   1   2   3  114.26    2.21
   2   2   3    0.85    0.22
   3   2   3  255.93    5.09
   4   2   3   16.45    0.88
   5   2   3   55.40    2.03
   6   2   3   71.86    2.78
   7   2   3   20.05    1.82
   8   2   3   55.35    2.75
   9   2   3    2.74    0.79
  10   2   3   16.66    2.35
  11   2   3   76.27    4.67
 -13   3   3   63.33    3.38
 -12   3   3   44.81    3.14
 -11   3   3   11.09    1.43
 -10   3   3   12.40    1.44
  -9   3   3   90.03    3.28
  -8   3   3   25.19    1.79
  -7   3   3   35.64    1.68
  -6   3   3  149.35    3.24
  -5   3   3  267.36    4.93
  -4   3   3  403.11    6.74
  -3   3   3  200.00    3.77
  -2   3   3  111.91    2.50
  -1   3   3   51.56    1.51
   0   3   3  199.83    3.94
   1   3   3   63.75    1.68
   2   3   3   34.78    1.18
   3   3   3  145.97    3.08
   4   3   3  229.87    4.85
   5   3   3  138.90    3.62
   6   3   3    4.04    0.80
   7   3   3   16.87    1.71
   8   3   3  157.94    5.16
   9   3   3    6.91    1.27
  10   3   3   58.57    4.29
  11   3   3   11.65    3.17
 -14   4   3   59.25    4.59
 -13   4   3    7.60    1.68
 -12   4   3   78.05    3.80
 -11   4   3    3.22    0.84
 -10   4   3   16.23    1.59
  -9   4   3  251.91    6.27
  -8   4   3    0.87    0.40
  -7   4   3  232.38    4.57
  -6   4   3   15.85    0.97
  -5   4   3    2.12    0.37
  -4   4   3  141.98    2.99
  -3   4   3   60.66    1.66
  -2   4   3    1.17    0.28
  -1   4   3  396.52    6.83
   0   4   3  143.09    3.59
   1   4   3  405.05    6.15
   2   4   3   94.51    2.26
   3   4   3   35.24    1.37
   4   4   3    1.03    0.38
   5   4   3   30.01    1.72
   6   4   3   23.30    1.95
   7   4   3   29.82    2.39
   8   4   3   20.67    2.07
   9   4   3   62.93    4.00
  10   4   3    3.41    1.73
 -14   5   3    0.76    0.94
 -13   5   3    0.50    0.67
 -12   5   3   52.98    3.84
 -11   5   3   11.44    1.83
 -10   5   3   10.88    1.65
  -9   5   3   26.98    2.48
  -8   5   3  149.53    4.05
  -7   5   3   54.42    2.17
  -6   5   3   41.95    1.83
  -5   5   3  109.92    3.16
  -4   5   3  389.58    8.02
  -3   5   3   33.81    1.11
  -2   5   3  262.11    4.40
  -1   5   3    2.29    0.35
   0   5   3  110.13    2.72
   1   5   3   35.49    1.23
   2   5   3   22.09    1.15
   3   5   3   25.84    1.29
   4   5   3  251.28    5.48
   5   5   3   10.05    1.13
   6   5   3  136.12    4.47
   7   5   3    1.14    0.78
   8   5   3    1.05    0.79
   9   5   3   32.98    5.19
 -14   6   3    8.09    1.77
 -13   6   3   49.96    4.29
 -12   6   3   28.35    3.09
 -11   6   3  129.64    5.53
 -10   6   3   24.95    2.58
  -9   6   3    2.44    0.60
  -8   6   3   67.06    2.58
  -7   6   3  247.06    5.82
  -6   6   3   69.62    2.52
  -5   6   3   32.99    1.39
  -4   6   3   91.60    2.53
  -3   6   3  142.96    3.39
  -2   6   3   17.51    1.19
  -1   6   3   44.79    1.70
   0   6   3   70.13    1.94
   1   6   3  289.35    5.09
   2   6   3   45.26    1.86
   3   6   3   90.42    2.90
   4   6   3   18.83    1.54
   5   6   3   10.61    1.43
   6   6   3   29.25    2.97
   7   6   3    4.63    1.30
   8   6   3   12.69    3.29
 -14   7   3  129.03    6.31
 -13   7   3    3.66    1.27
 -12   7   3   -0.26    0.59
 -11   7   3   25.25    2.66
 -10   7   3   14.78    1.57
  -9   7   3   21.35    1.79
  -8   7   3  147.77    4.26
  -7   7   3   21.64    1.65
  -6   7   3  279.96    5.59
  -5   7   3   22.77    1.34
  -4   7   3   33.68    1.45
  -3   7   3  230.99    4.79
  -2   7   3   56.51    1.99
  -1   7   3  242.57    5.11
   0   7   3   21.23    1.47
   1   7   3    3.59    0.63
   2   7   3   26.99    1.79
   3   7   3   14.36    1.62
   4   7   3    5.77    0.92
   5   7   3   57.58    2.89
   6   7   3   50.01    3.72
   7   7   3  148.61   12.12
 -14   8   3   13.85    2.47
 -13   8   3    0.01    0.72
 -12   8   3   22.68    2.68
 -11   8   3  169.67    6.34
 -10   8   3   51.94    2.51
  -9   8   3  186.62    5.20
  -8   8   3    5.00    0.85
  -7   8   3    4.89    0.69
  -6   8   3   48.01    1.84
  -5   8   3   27.15    1.51
  -4   8   3    1.18    0.31
  -3   8   3  140.83    3.53
  -2   8   3   70.45    2.35
  -1   8   3  139.68    3.68
   0   8   3    4.78    0.74
   1   8   3    1.70    0.49
   2   8   3  151.02    4.13
   3   8   3   11.16    1.45
   4   8   3   75.75    6.15
 -14   9   3   28.02    4.79
 -13   9   3   65.78    6.05
 -12   9   3    7.60    2.37
 -11   9   3    3.84    1.04
 -10   9   3   33.53    3.03
  -9   9   3   17.88    2.17
  -8   9   3    1.12    0.48
  -7   9   3   26.51    2.01
  -6   9   3   91.64    3.36
  -5   9   3  238.61    6.37
  -4   9   3   32.20    2.28
  -3   9   3    3.52    0.76
  -2   9   3   20.94    1.83
  -1   9   3  176.60    5.28
   0   9   3   16.98    1.71
   1   9   3   25.21    2.17
   2   9   3   36.13    2.72
   3   9   3   39.66    3.68
 -13  10   3   47.70    6.28
 -12  10   3   12.57    3.06
 -11  10   3    3.27    1.06
 -10  10   3  137.45    5.79
  -9  10   3   26.12    2.16
  -8  10   3  153.81    4.80
  -7  10   3   12.98    1.49
  -6  10   3   13.66    1.50
  -5  10   3    8.03    1.17
  -4  10   3   29.68    2.28
  -3  10   3   16.30    1.72
  -2  10   3   56.56    2.76
  -1  10   3   30.27    2.37
   0  10   3  147.27    4.89
   1  10   3   21.04    2.09
   2  10   3    5.89    1.41
   3  10   3   67.80    9.32
 -13  11   3   78.33    6.88
 -12  11   3   18.46    2.56
 -11  11   3   35.66    3.47
 -10  11   3   21.85    2.66
  -9  11   3   34.72    2.59
  -8  11   3   10.89    1.46
  -7  11   3    4.16    0.94
  -6  11   3   10.52    1.44
  -5  11   3  132.18    4.53
  -4  11   3   29.08    2.38
  -3  11   3  162.33    5.20
  -2  11   3    3.23    0.87
  -1  11   3    3.64    0.97
   0  11   3   33.47    3.37
   1  11   3   23.39    2.86
   2  11   3   10.87    1.97
 -13  12   3    7.78    2.76
 -12  12   3   57.06    4.24
 -11  12   3   25.99    3.08
 -10  12   3    3.45    1.10
  -9  12   3   35.68    2.77
  -8  12   3   70.23    3.32
  -7  12   3   57.60    3.07
  -6  12   3   25.94    2.36
  -5  12   3    0.19    0.51
  -4  12   3   20.37    2.08
  -3  12   3   11.24    1.62
  -2  12   3   17.09    2.46
  -1  12   3   20.53    2.70
   0  12   3   57.58    4.23
   1  12   3   44.20    4.04
 -12  13   3   50.97    4.51
 -11  13   3   13.57    2.14
 -10  13   3   66.71    4.21
  -9  13   3    8.17    1.37
  -8  13   3    0.49    0.52
  -7  13   3   51.13    3.29
  -6  13   3    5.80    1.25
  -5  13   3    0.31    0.61
  -4  13   3   61.33    4.06
  -3  13   3   58.00    4.31
  -2  13   3   65.65    4.29
  -1  13   3    6.85    1.69
 -11  14   3   25.91    5.16
 -10  14   3   52.45    4.72
  -9  14   3    1.26    0.84
  -8  14   3   11.74    1.70
  -7  14   3  130.56    6.28
  -6  14   3   11.54    2.13
  -5  14   3   27.09    3.29
  -4  14   3    6.53    2.30
   6 -14   4    5.70    2.27
   7 -14   4   39.44    5.73
   8 -14   4   24.72    5.50
   3 -13   4   24.09    3.34
   4 -13   4    3.53    1.36
   5 -13   4   67.37    4.79
   6 -13   4   26.50    3.27
   7 -13   4   11.43    2.11
   8 -13   4    3.28    1.32
   9 -13   4    4.67    2.18
  10 -13   4    2.60    1.78
   1 -12   4    2.48    1.15
   2 -12   4   31.10    3.59
   3 -12   4    3.01    1.18
   4 -12   4    0.22    0.71
   5 -12   4   29.09    3.23
   6 -12   4   12.86    2.22
   7 -12   4   18.00    2.45
   8 -12   4   15.75    3.64
   9 -12   4    7.54    2.53
  10 -12   4  170.94   10.61
  11 -12   4    2.04    1.58
  -2 -11   4    2.77    1.79
  -1 -11   4    1.97    0.92
   0 -11   4   12.02    1.77
   1 -11   4   34.16    2.91
   2 -11   4   92.46    4.05
   3 -11   4   47.74    3.26
   4 -11   4    9.61    1.44
   5 -11   4   57.01    2.95
   6 -11   4   33.28    2.64
   7 -11   4   83.70    3.94
   8 -11   4   11.30    2.86
   9 -11   4   -0.04    0.89
  10 -11   4    3.23    1.70
  11 -11   4   13.84    3.42
  12 -11   4    3.45    1.95
  -3 -10   4    7.76    1.58
  -2 -10   4  168.83    6.08
  -1 -10   4    5.45    1.23
   0 -10   4   22.96    2.31
   1 -10   4    6.11    1.17
   2 -10   4   23.79    2.27
   3 -10   4    4.94    1.02
   4 -10   4    0.27    0.48
   5 -10   4   18.79    1.94
   6 -10   4  131.52    4.57
   7 -10   4   27.10    2.30
   8 -10   4   27.98    3.08
   9 -10   4   33.95    3.35
  10 -10   4   15.35    2.35
  11 -10   4   33.69    3.62
  12 -10   4   34.19    5.30
  13 -10   4   25.12    4.63
  -4  -9   4    3.95    1.29
  -3  -9   4    7.47    1.69
  -2  -9   4   -0.41    0.57
  -1  -9   4   26.89    2.47
   0  -9   4    0.67    0.52
   1  -9   4   18.27    1.89
   2  -9   4   38.50    2.77
   3  -9   4  213.78    6.02
   4  -9   4    1.46    0.57
   5  -9   4   66.66    2.94
   6  -9   4   29.07    2.26
   7  -9   4   31.73    2.39
   8  -9   4   38.95    3.58
   9  -9   4   -0.40    0.49
  10  -9   4    9.68    1.76
  11  -9   4   86.01    4.79
  12  -9   4    4.19    1.36
  13  -9   4    5.61    1.59
  -5  -8   4    3.20    1.25
  -4  -8   4   11.59    2.11
  -3  -8   4    8.82    1.75
  -2  -8   4   26.80    2.93
  -1  -8   4   41.82    3.61
   0  -8   4  163.98    5.26
   1  -8   4   29.22    2.31
   2  -8   4    4.93    0.95
   3  -8   4    5.08    0.90
   4  -8   4   43.87    2.26
   5  -8   4   27.20    2.05
   6  -8   4   52.79    2.44
   7  -8   4   51.34    3.23
   8  -8   4  174.67    6.60
   9  -8   4   19.96    2.50
  10  -8   4   21.28    2.62
  11  -8   4   44.22    3.92
  12  -8   4    0.74    0.78
  13  -8   4   57.72    4.89
  14  -8   4    2.21    1.80
  -6  -7   4   13.11    2.34
  -5  -7   4   17.19    2.52
  -4  -7   4   86.00    4.57
  -3  -7   4   22.48    2.62
  -2  -7   4   29.26    2.89
  -1  -7   4   54.65    3.28
   0  -7   4    6.74    1.24
   1  -7   4    9.30    1.22
   2  -7   4   32.50    2.06
   3  -7   4   39.22    2.01
   4  -7   4  266.61    6.48
   5  -7   4   56.64    2.44
   6  -7   4  104.43    3.42
   7  -7   4    6.23    1.25
   8  -7   4   30.24    2.90
   9  -7   4   39.92    3.48
  10  -7   4    4.03    1.15
  11  -7   4    6.62    1.46
  12  -7   4   31.06    3.35
  13  -7   4   29.13    3.36
  14  -7   4   40.42    6.30
  -7  -6   4   31.46    3.55
  -6  -6   4    6.99    1.58
  -5  -6   4   28.17    3.09
  -4  -6   4  127.53    5.60
  -3  -6   4   26.37    2.08
  -2  -6   4   53.00    2.39
  -1  -6   4   95.16    3.28
   0  -6   4   22.56    1.71
   1  -6   4  262.49    5.49
   2  -6   4    2.76    0.50
   3  -6   4    2.55    0.49
   4  -6   4   25.40    1.35
   5  -6   4   17.53    1.24
   6  -6   4   24.29    1.69
   7  -6   4   10.79    1.28
   8  -6   4    4.41    0.87
   9  -6   4  217.05    6.05
  10  -6   4   -0.05    0.37
  11  -6   4   59.40    3.04
  12  -6   4    9.05    1.49
  13  -6   4   13.06    2.30
  -8  -5   4   63.29    3.58
  -7  -5   4   27.86    2.59
  -6  -5   4   52.90    2.79
  -5  -5   4   15.01    1.65
  -4  -5   4   73.49    2.99
  -3  -5   4   27.53    2.05
  -2  -5   4   55.11    2.38
  -1  -5   4   15.74    1.41
   0  -5   4   25.45    1.61
   1  -5   4   71.32    2.56
   2  -5   4   90.94    2.50
   3  -5   4   25.78    1.31
   4  -5   4  117.43    2.95
   5  -5   4   24.55    1.80
   6  -5   4  266.94    6.50
   7  -5   4   32.12    2.25
   8  -5   4    5.25    0.95
   9  -5   4    1.61    0.59
  10  -5   4   16.21    1.79
  11  -5   4   29.87    2.57
  12  -5   4   19.20    2.15
  13  -5   4    4.41    1.39
  -9  -4   4    4.30    1.18
  -8  -4   4    0.93    0.64
  -7  -4   4    8.73    1.38
  -6  -4   4   -0.05    0.36
  -5  -4   4    1.55    0.57
  -4  -4   4   43.72    2.19
  -3  -4   4  267.78    6.44
  -2  -4   4   25.89    1.69
  -1  -4   4  114.55    3.48
   0  -4   4   54.33    2.15
   1  -4   4   76.66    2.62
   2  -4   4  159.00    3.49
   3  -4   4  169.41    3.72
   4  -4   4   58.40    1.80
   5  -4   4   71.46    2.67
   6  -4   4    2.07    0.59
   7  -4   4   30.79    2.03
   8  -4   4   45.90    2.34
   9  -4   4   65.95    2.99
  10  -4   4  137.49    4.70
  11  -4   4   75.69    3.55
  12  -4   4   11.90    1.66
  13  -4   4    3.04    1.25
 -10  -3   4   24.66    2.60
  -9  -3   4    1.80    0.74
  -8  -3   4   39.20    2.90
  -7  -3   4    4.37    0.99
  -6  -3   4  210.65    5.89
  -5  -3   4    7.82    1.09
  -4  -3   4   34.88    1.93
  -3  -3   4    2.87    0.63
  -2  -3   4   27.62    1.57
  -1  -3   4  170.17    4.44
   0  -3   4   82.17    2.19
   1  -3   4    0.08    0.18
   2  -3   4  235.44    4.06
   3  -3   4   82.57    1.94
   4  -3   4   78.50    2.71
   5  -3   4   87.79    3.01
   6  -3   4    1.63    0.49
   7  -3   4  254.39    6.52
   8  -3   4   26.09    2.10
   9  -3   4   25.84    2.20
  10  -3   4   24.00    2.20
  11  -3   4   10.45    1.54
  12  -3   4    8.53    1.46
  13  -3   4    8.02    1.78
 -10  -2   4   33.75    2.93
  -9  -2   4   88.14    3.82
  -8  -2   4   19.37    1.97
  -7  -2   4   42.24    2.40
  -6  -2   4    3.81    0.79
  -5  -2   4   31.52    1.99
  -4  -2   4    3.84    0.68
  -3  -2   4   90.64    2.93
  -2  -2   4  152.81    3.34
  -1  -2   4  231.54    4.53
   0  -2   4   48.37    1.57
   1  -2   4   88.63    2.30
   2  -2   4   48.06    1.32
   3  -2   4    0.20    0.21
   4  -2   4  155.67    3.62
   5  -2   4   22.33    1.53
   6  -2   4   22.49    1.75
   7  -2   4   51.77    2.42
   8  -2   4   47.15    2.50
   9  -2   4   30.78    2.40
  10  -2   4   24.36    2.27
  11  -2   4    0.52    0.56
  12  -2   4  167.42    5.98
  13  -2   4    2.82    1.70
 -11  -1   4    2.35    1.16
 -10  -1   4   34.41    3.59
  -9  -1   4    5.91    1.44
  -8  -1   4   18.07    2.22
  -7  -1   4   34.40    2.63
  -6  -1   4   11.17    1.58
  -5  -1   4  266.67    5.35
  -4  -1   4   72.69    2.11
  -3  -1   4   79.93    2.17
  -2  -1   4    0.02    0.16
  -1  -1   4   88.98    2.26
   0  -1   4    5.86    0.61
   1  -1   4    6.63    0.62
   2  -1   4   82.95    2.28
   3  -1   4  222.83    4.69
   4  -1   4  169.58    3.90
   5  -1   4  106.21    3.04
   6  -1   4   14.81    1.41
   7  -1   4   90.27    3.35
   8  -1   4   55.45    2.65
   9  -1   4   31.12    2.56
  10  -1   4   29.83    2.55
  11  -1   4    4.87    1.10
  12  -1   4    2.06    0.83
 -12   0   4    4.34    2.14
 -11   0   4    7.93    1.75
 -10   0   4   16.88    2.41
  -9   0   4    0.34    0.50
  -8   0   4  163.45    6.27
  -7   0   4    9.38    1.15
  -6   0   4   22.71    1.70
  -5   0   4   24.73    1.56
  -4   0   4   56.78    1.80
  -3   0   4   81.67    2.19
  -2   0   4   46.74    1.51
  -1   0   4    6.09    0.60
   0   0   4  944.16   14.15
   1   0   4    5.86    0.60
   2   0   4   49.46    1.61
   3   0   4   80.73    2.31
   4   0   4   59.49    1.97
   5   0   4   21.31    1.36
   6   0   4   22.76    1.78
   7   0   4    6.17    1.00
   8   0   4  165.76    5.16
   9   0   4   -0.15    0.42
  10   0   4   19.44    2.08
  11   0   4   10.85    1.66
  12   0   4    3.38    1.73
 -12   1   4    2.63    1.21
 -11   1   4    4.05    1.29
 -10   1   4   33.99    3.26
  -9   1   4   40.80    2.50
  -8   1   4   57.46    2.52
  -7   1   4   93.34    3.23
  -6   1   4   16.79    1.44
  -5   1   4  113.60    3.39
  -4   1   4  179.11    3.24
  -3   1   4  230.13    3.97
  -2   1   4   86.61    1.92
  -1   1   4    7.29    0.50
   0   1   4    6.53    0.54
   1   1   4   85.14    2.16
   2   1   4    0.39    0.20
   3   1   4   77.59    2.23
   4   1   4   74.75    2.30
   5   1   4  261.14    5.58
   6   1   4   11.72    1.15
   7   1   4   29.52    2.07
   8   1   4   20.25    1.95
   9   1   4    6.70    1.26
  10   1   4   35.67    2.95
  11   1   4    4.43    1.46
 -13   2   4    0.30    1.48
 -12   2   4  163.60    7.13
 -11   2   4    0.57    0.73
 -10   2   4   24.24    2.12
  -9   2   4   32.48    2.35
  -8   2   4   50.17    2.32
  -7   2   4   54.28    2.34
  -6   2   4   28.96    1.65
  -5   2   4   26.14    1.36
  -4   2   4  160.01    3.43
  -3   2   4    0.10    0.14
  -2   2   4   47.10    1.60
  -1   2   4   83.56    2.33
   0   2   4   46.85    1.68
   1   2   4  228.40    4.83
   2   2   4  160.59    3.42
   3   2   4   91.92    2.49
   4   2   4    2.23    0.47
   5   2   4   33.26    1.76
   6   2   4    3.23    0.66
   7   2   4   42.35    2.49
   8   2   4   23.25    2.24
   9   2   4   88.13    4.90
  10   2   4   24.45    3.12
 -13   3   4    9.14    2.88
 -12   3   4    8.97    1.75
 -11   3   4    9.69    1.37
 -10   3   4   26.85    2.19
  -9   3   4   26.19    2.04
  -8   3   4   27.18    2.00
  -7   3   4  266.46    6.28
  -6   3   4    2.72    0.58
  -5   3   4   87.57    2.38
  -4   3   4   78.31    2.18
  -3   3   4   79.81    2.23
  -2   3   4  229.12    4.65
  -1   3   4    0.26    0.21
   0   3   4   79.41    2.34
   1   3   4  174.39    4.00
   2   3   4   24.75    1.45
   3   3   4    2.34    0.63
   4   3   4   31.89    2.09
   5   3   4    6.86    1.13
   6   3   4  208.42    6.14
   7   3   4    3.03    1.00
   8   3   4   47.93    4.17
   9   3   4    1.03    0.88
  10   3   4   25.51    3.29
 -13   4   4    4.16    1.48
 -12   4   4   12.86    2.10
 -11   4   4   76.70    4.24
 -10   4   4  136.41    5.57
  -9   4   4   66.12    3.55
  -8   4   4   43.44    2.16
  -7   4   4   34.71    1.84
  -6   4   4    3.15    0.52
  -5   4   4   71.97    2.10
  -4   4   4   55.10    1.77
  -3   4   4  175.64    3.76
  -2   4   4  158.16    3.48
  -1   4   4   83.30    2.32
   0   4   4   57.28    1.94
   1   4   4  110.36    3.06
   2   4   4   25.53    1.62
   3   4   4  263.79    6.56
   4   4   4   44.16    2.45
   5   4   4    1.35    0.61
   6   4   4   -0.10    0.41
   7   4   4    7.59    1.64
   8   4   4    0.43    0.67
   9   4   4    5.86    1.60
 -13   5   4    6.70    1.62
 -12   5   4   18.96    2.56
 -11   5   4   30.31    3.10
 -10   5   4   17.13    2.18
  -9   5   4    0.81    0.56
  -8   5   4    5.66    1.12
  -7   5   4   32.26    1.81
  -6   5   4  260.11    6.26
  -5   5   4   24.37    1.75
  -4   5   4  111.68    3.49
  -3   5   4   24.38    1.73
  -2   5   4   83.43    2.96
  -1   5   4   75.02    2.22
   0   5   4   23.95    1.38
   1   5   4   16.27    1.29
   2   5   4   60.30    2.22
   3   5   4   28.14    1.86
   4   5   4   73.49    3.12
   5   5   4   16.92    1.84
   6   5   4   55.96    3.10
   7   5   4   32.76    3.42
   8   5   4   62.96    4.21
 -13   6   4   15.48    2.43
 -12   6   4    9.69    1.83
 -11   6   4   61.60    3.72
 -10   6   4    0.39    0.54
  -9   6   4  209.93    7.22
  -8   6   4    5.47    0.92
  -7   6   4   12.69    1.30
  -6   6   4   25.36    1.84
  -5   6   4   12.91    1.31
  -4   6   4   27.74    1.92
  -3   6   4    2.31    0.61
  -2   6   4    3.37    0.67
  -1   6   4  256.31    6.50
   0   6   4   26.81    2.03
   1   6   4   97.53    3.55
   2   6   4   50.85    2.64
   3   6   4   27.69    1.93
   4   6   4  135.63    4.58
   5   6   4   35.53    2.77
   6   6   4    8.17    1.69
   7   6   4   31.43    3.51
   8   6   4    3.31    1.51
 -14   7   4   39.53    5.78
 -13   7   4   29.08    3.35
 -12   7   4   28.54    3.19
 -11   7   4    8.78    1.66
 -10   7   4    3.95    1.01
  -9   7   4   40.44    2.75
  -8   7   4   27.21    2.05
  -7   7   4    7.81    1.02
  -6   7   4   90.43    3.23
  -5   7   4   53.09    2.35
  -4   7   4  253.05    6.35
  -3   7   4   36.94    1.95
  -2   7   4   30.15    1.97
  -1   7   4   11.58    1.34
   0   7   4    5.29    0.97
   1   7   4   61.42    2.79
   2   7   4   32.52    2.52
   3   7   4   25.02    2.27
   4   7   4   75.08    4.33
   5   7   4   18.39    2.44
   6   7   4   10.96    2.89
   7   7   4   29.27    4.94
 -14   8   4    2.57    1.74
 -13   8   4   64.33    4.23
 -12   8   4    1.52    0.93
 -11   8   4   40.48    3.58
 -10   8   4   22.55    2.58
  -9   8   4   22.08    1.94
  -8   8   4  173.78    5.04
  -7   8   4   60.37    2.62
  -6   8   4   47.78    2.30
  -5   8   4   26.80    2.05
  -4   8   4   50.13    2.35
  -3   8   4    5.76    0.95
  -2   8   4    4.47    0.87
  -1   8   4   31.96    2.40
   0   8   4  166.50    5.17
   1   8   4   37.35    2.72
   2   8   4   28.45    2.42
   3   8   4   12.68    1.68
   4   8   4   16.65    2.37
   5   8   4    1.07    1.57
 -13   9   4    2.79    1.83
 -12   9   4    4.88    2.12
 -11   9   4   91.70    6.90
 -10   9   4    8.23    1.59
  -9   9   4    0.83    0.63
  -8   9   4   36.59    2.92
  -7   9   4   31.68    2.98
  -6   9   4   24.32    2.62
  -5   9   4   65.17    3.66
  -4   9   4    1.21    0.69
  -3   9   4  208.04    6.01
  -2   9   4   34.10    3.21
  -1   9   4   15.82    2.21
   0   9   4    0.96    0.72
   1   9   4   27.82    3.02
   2   9   4    0.13    0.64
   3   9   4    8.20    1.83
   4   9   4    3.52    2.09
 -13  10   4   15.68    4.06
 -12  10   4   36.23    5.25
 -11  10   4   31.80    4.80
 -10  10   4   21.36    2.61
  -9  10   4   30.57    3.06
  -8  10   4   28.22    2.91
  -7  10   4   27.77    2.90
  -6  10   4  123.87    5.52
  -5  10   4   12.77    1.57
  -4  10   4   -0.15    0.33
  -3  10   4    5.59    1.06
  -2  10   4   22.58    2.18
  -1  10   4    5.85    1.41
   0  10   4   17.95    2.58
   1  10   4    8.75    1.79
   2  10   4  182.52    7.52
   3  10   4   13.39    3.51
 -12  11   4    2.69    1.83
 -11  11   4   13.57    2.26
 -10  11   4    5.82    1.51
  -9  11   4    0.26    0.53
  -8  11   4    9.59    1.82
  -7  11   4   77.69    4.31
  -6  11   4   28.83    2.48
  -5  11   4   56.78    2.95
  -4  11   4    9.13    1.42
  -3  11   4   45.15    2.93
  -2  11   4   89.13    3.92
  -1  11   4   29.18    3.32
   0  11   4   12.07    2.17
   1  11   4    2.15    1.75
   2  11   4    3.65    2.04
 -12  12   4    2.15    2.17
 -11  12   4    4.09    1.47
 -10  12   4  172.07    7.29
  -9  12   4    9.57    1.84
  -8  12   4   15.54    2.35
  -7  12   4   20.94    2.25
  -6  12   4    9.91    1.51
  -5  12   4   29.07    2.61
  -4  12   4    1.51    0.75
  -3  12   4    2.94    0.96
  -2  12   4   38.66    3.16
  -1  12   4    5.18    2.11
   0  12   4    4.93    2.04
 -11  13   4    2.96    1.71
 -10  13   4    8.76    1.88
  -9  13   4    3.31    1.16
  -8  13   4    3.42    1.20
  -7  13   4   18.97    2.19
  -6  13   4   29.85    2.75
  -5  13   4   58.64    3.70
  -4  13   4    6.77    1.39
  -3  13   4   16.61    2.67
  -8  14   4   21.78    4.00
  -7  14   4   44.28    6.01
   2 -12   5    4.34    1.48
   3 -12   5    5.50    1.28
   4 -12   5   24.35    3.08
   5 -12   5    1.10    1.37
   6 -12   5   11.98    3.20
   7 -12   5   80.44    6.84
   8 -12   5   79.67    6.95
   9 -12   5   16.67    3.77
   0 -11   5   48.82    3.80
   1 -11   5    4.12    1.18
   2 -11   5    2.65    0.95
   3 -11   5   55.90    3.47
   4 -11   5   16.95    2.02
   5 -11   5   65.76    4.17
   6 -11   5   11.96    2.06
   7 -11   5    3.44    1.22
   8 -11   5   10.70    2.04
   9 -11   5    2.10    1.08
  10 -11   5    7.01    2.56
  11 -11   5   52.64    6.74
  -2 -10   5    2.83    1.31
  -1 -10   5    5.62    1.29
   0 -10   5  122.48    4.94
   1 -10   5   26.68    2.56
   2 -10   5   25.82    2.42
   3 -10   5   24.89    2.38
   4 -10   5   29.69    2.52
   5 -10   5    2.99    1.11
   6 -10   5    9.01    1.74
   7 -10   5    2.06    1.01
   8 -10   5   94.86    5.03
   9 -10   5    1.74    0.98
  10 -10   5  130.07    6.26
  11 -10   5    4.60    1.47
  12 -10   5    5.76    2.00
  -3  -9   5   19.64    2.92
  -2  -9   5    2.12    0.78
  -1  -9   5    0.56    0.65
   0  -9   5   10.90    1.59
   1  -9   5   32.07    2.64
   2  -9   5   31.68    2.59
   3  -9   5    0.23    0.45
   4  -9   5   71.52    3.43
   5  -9   5   25.08    2.81
   6  -9   5   37.58    3.49
   7  -9   5   20.89    2.64
   8  -9   5    5.07    1.33
   9  -9   5   15.28    2.39
  10  -9   5   28.06    3.23
  11  -9   5    2.91    1.13
  12  -9   5    8.00    1.93
  -4  -8   5   71.70    4.63
  -3  -8   5   11.08    2.06
  -2  -8   5   85.76    4.76
  -1  -8   5    7.33    1.58
   0  -8   5    6.28    1.12
   1  -8   5   43.55    2.74
   2  -8   5   92.03    3.67
   3  -8   5  124.46    4.30
   4  -8   5   34.28    3.18
   5  -8   5    7.21    1.51
   6  -8   5   80.18    4.31
   7  -8   5    1.65    0.80
   8  -8   5    8.68    1.69
   9  -8   5   35.14    3.46
  10  -8   5   26.64    3.04
  11  -8   5   58.43    4.21
  12  -8   5   23.06    3.12
  13  -8   5   -0.37    1.88
  -5  -7   5   81.47    4.79
  -4  -7   5    4.92    1.37
  -3  -7   5    1.23    0.83
  -2  -7   5   24.28    2.76
  -1  -7   5    1.25    0.67
   0  -7   5    7.40    1.49
   1  -7   5   40.75    2.37
   2  -7   5   54.15    2.57
   3  -7   5   64.64    2.76
   4  -7   5   12.19    1.82
   5  -7   5    8.73    1.56
   6  -7   5  271.50    8.90
   7  -7   5    5.66    1.29
   8  -7   5   38.06    3.39
   9  -7   5   35.31    3.42
  10  -7   5   21.48    2.75
  11  -7   5   11.75    2.09
  12  -7   5    1.56    1.03
  13  -7   5    2.08    1.61
  -6  -6   5   12.22    2.21
  -5  -6   5   17.44    2.50
  -4  -6   5   10.22    1.83
  -3  -6   5   35.84    3.30
  -2  -6   5   84.38    4.33
  -1  -6   5  268.75    8.72
   0  -6   5   18.01    2.11
   1  -6   5   33.86    2.11
   2  -6   5    8.12    1.03
   3  -6   5   71.15    3.67
   4  -6   5    0.91    0.48
   5  -6   5    7.09    1.13
   6  -6   5   22.36    1.96
   7  -6   5   36.35    2.61
   8  -6   5   94.08    3.70
   9  -6   5    0.48    0.50
  10  -6   5   26.88    2.92
  11  -6   5   62.83    4.02
  12  -6   5   11.22    2.05
  13  -6   5    2.52    1.51
  -7  -5   5    0.70    0.68
  -6  -5   5   59.96    3.29
  -5  -5   5    1.60    0.67
  -4  -5   5   22.26    2.04
  -3  -5   5    7.53    1.13
  -2  -5   5    5.50    0.94
  -1  -5   5    7.95    1.10
   0  -5   5    3.38    0.72
   1  -5   5    1.03    0.47
   2  -5   5  184.65    4.21
   3  -5   5    2.89    0.67
   4  -5   5  255.90    6.41
   5  -5   5    3.31    0.71
   6  -5   5   27.09    2.11
   7  -5   5   48.14    2.47
   8  -5   5  121.78    4.32
   9  -5   5   69.11    3.21
  10  -5   5    2.30    0.76
  11  -5   5   14.52    1.71
  12  -5   5   76.73    3.83
  13  -5   5    0.24    0.95
  -8  -4   5   17.70    2.08
  -7  -4   5   13.13    1.69
  -6  -4   5   30.52    2.51
  -5  -4   5   65.07    3.06
  -4  -4   5   29.12    2.30
  -3  -4   5   18.98    1.71
  -2  -4   5    0.60    0.36
  -1  -4   5  243.04    6.21
   0  -4   5    0.75    0.38
   1  -4   5  285.91    6.69
   2  -4   5    4.59    0.75
   3  -4   5    7.85    1.02
   4  -4   5    0.68    0.40
   5  -4   5    0.85    0.43
   6  -4   5    8.35    1.14
   7  -4   5   60.66    2.74
   8  -4   5   33.74    2.55
   9  -4   5   21.83    2.10
  10  -4   5    8.40    1.35
  11  -4   5    5.32    1.18
  12  -4   5   85.09    4.04
  -9  -3   5    6.12    1.26
  -8  -3   5   50.69    3.47
  -7  -3   5   24.41    2.24
  -6  -3   5    0.32    0.43
  -5  -3   5  120.93    4.19
  -4  -3   5   59.91    2.68
  -3  -3   5   77.83    2.96
  -2  -3   5    4.53    0.77
  -1  -3   5    9.05    1.09
   0  -3   5  117.95    3.64
   1  -3   5   29.59    1.77
   2  -3   5   51.93    1.89
   3  -3   5  114.38    3.11
   4  -3   5  281.13    5.79
   5  -3   5  175.35    4.98
   6  -3   5   70.21    2.90
   7  -3   5   16.24    1.64
   8  -3   5    6.49    1.12
   9  -3   5   35.77    2.70
  10  -3   5    2.48    0.79
  11  -3   5   11.80    1.72
  12  -3   5   19.49    2.27
 -10  -2   5    5.23    1.29
  -9  -2   5    3.57    0.96
  -8  -2   5   23.70    2.24
  -7  -2   5   22.42    2.02
  -6  -2   5   90.16    3.56
  -5  -2   5   54.02    2.53
  -4  -2   5    6.86    0.92
  -3  -2   5  178.08    4.88
  -2  -2   5    5.01    0.78
  -1  -2   5   52.62    2.20
   0  -2   5   99.95    2.68
   1  -2   5   52.48    1.84
   2  -2   5   97.75    2.70
   3  -2   5   28.98    1.48
   4  -2   5    5.77    0.76
   5  -2   5    2.04    0.49
   6  -2   5    0.71    0.42
   7  -2   5    3.54    0.78
   8  -2   5   88.61    3.55
   9  -2   5   23.34    2.17
  10  -2   5   84.25    3.82
  11  -2   5   -0.10    0.60
  12  -2   5    5.15    2.78
 -10  -1   5    6.72    1.33
  -9  -1   5   26.72    2.47
  -8  -1   5   27.42    2.36
  -7  -1   5   39.31    2.48
  -6  -1   5   43.30    2.22
  -5  -1   5   33.10    2.03
  -4  -1   5    0.41    0.34
  -3  -1   5  281.20    5.57
  -2  -1   5   29.23    1.37
  -1  -1   5   52.94    1.80
   0  -1   5  107.16    2.75
   1  -1   5  109.39    2.78
   2  -1   5   50.15    1.81
   3  -1   5   53.21    1.92
   4  -1   5    7.59    0.87
   5  -1   5  246.66    5.48
   6  -1   5    8.19    1.12
   7  -1   5  271.06    7.04
   8  -1   5    1.57    0.61
   9  -1   5    6.77    1.51
  10  -1   5    1.43    0.97
  11  -1   5    5.56    1.59
 -11   0   5   39.67    3.49
 -10   0   5  129.03    4.85
  -9   0   5   10.91    1.43
  -8   0   5    6.50    1.14
  -7   0   5    6.92    1.01
  -6   0   5   20.60    1.72
  -5   0   5    4.07    0.63
  -4   0   5    0.68    0.31
  -3   0   5  122.45    3.01
  -2   0   5   99.15    2.70
  -1   0   5  104.10    3.32
   0   0   5    0.15    0.27
   1   0   5  105.19    3.44
   2   0   5   96.43    3.37
   3   0   5  115.38    3.86
   4   0   5    0.56    0.43
   5   0   5    3.12    0.81
   6   0   5   20.65    1.95
   7   0   5    5.82    1.41
   8   0   5    5.87    1.40
   9   0   5   13.05    2.21
  10   0   5  129.28    6.30
  11   0   5   45.23    5.02
 -11   1   5    5.87    1.52
 -10   1   5    0.99    0.77
  -9   1   5    4.61    1.25
  -8   1   5    1.70    0.78
  -7   1   5  272.76    6.87
  -6   1   5    6.41    0.98
  -5   1   5  255.14    6.23
  -4   1   5    9.05    1.09
  -3   1   5   51.88    2.23
  -2   1   5   53.16    2.22
  -1   1   5  107.59    3.38
   0   1   5  101.06    3.34
   1   1   5   45.73    2.18
   2   1   5   24.88    1.93
   3   1   5  277.37    6.94
   4   1   5    2.03    0.66
   5   1   5   29.71    2.31
   6   1   5   35.34    2.67
   7   1   5   42.26    3.83
   8   1   5   25.21    2.94
   9   1   5   33.85    3.64
  10   1   5    8.04    1.85
 -11   2   5    1.23    0.94
 -10   2   5   87.53    4.65
  -9   2   5   19.00    2.34
  -8   2   5   87.12    3.38
  -7   2   5    7.07    1.06
  -6   2   5    0.39    0.34
  -5   2   5    3.69    0.75
  -4   2   5    5.00    0.67
  -3   2   5   29.13    1.41
  -2   2   5   98.31    2.76
  -1   2   5   54.07    1.95
   0   2   5   97.95    3.29
   1   2   5   47.89    2.29
   2   2   5    6.15    0.97
   3   2   5  176.84    5.17
   4   2   5    6.62    1.08
   5   2   5   47.01    2.87
   6   2   5   87.43    3.78
   7   2   5   29.39    3.11
   8   2   5   23.59    2.90
   9   2   5    1.37    0.96
  10   2   5    6.25    2.38
 -12   3   5   16.54    3.68
 -11   3   5   14.09    3.17
 -10   3   5    1.92    0.84
  -9   3   5   34.38    3.11
  -8   3   5    8.69    1.20
  -7   3   5   18.11    1.62
  -6   3   5   77.39    2.90
  -5   3   5  181.91    4.16
  -4   3   5  286.00    5.66
  -3   3   5  116.86    3.10
  -2   3   5   50.89    1.90
  -1   3   5   27.93    1.57
   0   3   5  120.46    3.27
   1   3   5    7.24    1.03
   2   3   5    2.84    0.70
   3   3   5   79.35    3.17
   4   3   5   53.37    2.71
   5   3   5  123.09    4.52
   6   3   5    0.40    0.52
   7   3   5   25.80    2.98
   8   3   5   49.14    4.32
   9   3   5    4.03    1.48
 -12   4   5   81.46    4.96
 -11   4   5    4.57    1.30
 -10   4   5    9.38    1.71
  -9   4   5   26.92    2.79
  -8   4   5   31.41    2.87
  -7   4   5   63.25    3.40
  -6   4   5    6.15    1.25
  -5   4   5    0.78    0.39
  -4   4   5    0.31    0.32
  -3   4   5    7.08    0.98
  -2   4   5    5.87    0.75
  -1   4   5  286.52    5.80
   0   4   5    0.82    0.36
   1   4   5  250.18    5.56
   2   4   5    0.15    0.31
   3   4   5   18.44    1.80
   4   4   5   29.39    2.36
   5   4   5   64.88    3.20
   6   4   5   26.26    2.50
   7   4   5   11.17    2.07
   8   4   5   23.58    3.06
 -13   5   5   -0.94    1.26
 -12   5   5   77.11    4.62
 -11   5   5    9.78    1.82
 -10   5   5    1.61    0.88
  -9   5   5   65.21    3.81
  -8   5   5  125.69    5.26
  -7   5   5   52.24    3.14
  -6   5   5   32.57    2.04
  -5   5   5    4.16    0.81
  -4   5   5  256.67    6.43
  -3   5   5    2.73    0.65
  -2   5   5  178.51    5.10
  -1   5   5    2.21    0.64
   0   5   5    2.39    0.66
   1   5   5    7.71    1.15
   2   5   5    6.90    1.14
   3   5   5    7.00    1.13
   4   5   5   23.69    2.17
   5   5   5    2.15    0.79
   6   5   5   57.20    3.33
   7   5   5    1.51    0.99
   8   5   5    0.38    1.38
 -13   6   5    5.85    1.96
 -12   6   5   11.30    2.07
 -11   6   5   57.56    3.83
 -10   6   5   32.76    3.24
  -9   6   5    0.63    0.61
  -8   6   5   84.71    4.34
  -7   6   5   41.30    2.30
  -6   6   5   20.70    1.81
  -5   6   5    6.66    1.05
  -4   6   5    0.19    0.35
  -3   6   5   72.12    2.99
  -2   6   5    6.68    1.04
  -1   6   5   29.36    2.27
   0   6   5   19.77    1.90
   1   6   5  269.42    7.31
   2   6   5   82.98    3.62
   3   6   5   38.49    3.64
   4   6   5   10.96    1.98
   5   6   5   13.69    2.23
   6   6   5   12.07    2.26
   7   6   5    2.85    1.85
 -13   7   5    2.53    1.51
 -12   7   5    1.83    1.07
 -11   7   5   14.66    2.30
 -10   7   5   25.06    2.83
  -9   7   5   28.15    2.89
  -8   7   5   42.01    3.14
  -7   7   5    4.66    0.89
  -6   7   5  263.05    6.98
  -5   7   5    6.75    1.07
  -4   7   5   18.68    1.79
  -3   7   5   59.38    2.76
  -2   7   5   53.33    2.65
  -1   7   5   37.51    2.63
   0   7   5    5.54    1.08
   1   7   5    3.37    0.90
   2   7   5   22.85    2.30
   3   7   5    2.30    1.03
   4   7   5    6.77    1.77
   5   7   5   72.31    4.68
   6   7   5    6.73    2.51
 -13   8   5    1.23    1.62
 -12   8   5   21.73    2.92
 -11   8   5   54.30    3.97
 -10   8   5   26.96    2.94
  -9   8   5   30.22    3.05
  -8   8   5    5.74    1.08
  -7   8   5    1.40    0.58
  -6   8   5   88.30    3.52
  -5   8   5    4.87    0.92
  -4   8   5   36.34    2.40
  -3   8   5  119.11    4.30
  -2   8   5   87.74    3.61
  -1   8   5   43.94    2.75
   0   8   5    6.03    1.13
   1   8   5    5.51    1.16
   2   8   5   82.55    3.83
   3   8   5   13.83    2.34
   4   8   5   80.74    4.90
   5   8   5   -0.14    2.10
 -12   9   5    6.04    2.38
 -11   9   5    1.64    1.41
 -10   9   5   26.76    4.38
  -9   9   5   12.30    1.95
  -8   9   5    6.20    1.44
  -7   9   5   22.90    2.64
  -6   9   5   34.62    3.35
  -5   9   5   23.84    2.71
  -4   9   5   64.26    3.93
  -3   9   5    0.94    0.83
  -2   9   5   26.19    2.99
  -1   9   5   28.96    3.16
   0   9   5   10.96    1.98
   1   9   5    1.49    0.93
   2   9   5    0.48    0.80
   3   9   5   16.62    3.84
 -11  10   5    1.72    1.52
 -10  10   5  126.40    8.67
  -9  10   5    1.57    0.93
  -8  10   5   83.43    4.64
  -7  10   5    0.87    0.75
  -6  10   5    9.74    1.84
  -5  10   5    1.71    0.85
  -4  10   5   31.11    3.28
  -3  10   5   24.59    2.98
  -2  10   5   24.97    2.95
  -1  10   5   21.24    2.82
   0  10   5  123.86    6.23
   1  10   5    3.44    1.34
   2  10   5    2.75    1.35
 -10  11   5    9.83    1.93
  -9  11   5    0.63    0.75
  -8  11   5   12.32    2.16
  -7  11   5    3.87    1.27
  -6  11   5   15.21    2.40
  -5  11   5   59.39    3.98
  -4  11   5   11.12    2.10
  -3  11   5   47.49    4.32
  -2  11   5    2.15    1.04
  -1  11   5    3.64    1.33
   0  11   5   46.42    4.39
 -10  12   5    1.69    1.63
  -9  12   5   14.99    2.43
  -8  12   5   80.41    4.92
  -7  12   5   73.42    4.65
  -6  12   5    9.60    1.85
  -5  12   5    1.60    1.06
  -4  12   5   19.53    2.81
  -3  12   5    7.10    1.75
  -2  12   5    7.61    2.45
  -6  13   5    1.69    2.02
  -5  13   5    0.37    1.64
   2 -11   6   20.05    4.37
   3 -11   6    3.76    1.35
   4 -11   6   67.14    4.36
   5 -11   6    4.22    1.40
   6 -11   6    4.55    1.37
   7 -11   6   35.39    3.88
   8 -11   6    3.21    1.30
   9 -11   6    3.55    1.91
   0 -10   6   17.05    2.17
   1 -10   6    2.73    1.13
   2 -10   6   27.64    3.31
   3 -10   6   17.64    2.65
   4 -10   6    9.21    1.84
   5 -10   6   21.48    2.88
   6 -10   6   78.08    4.61
   7 -10   6   12.93    2.21
   8 -10   6   68.43    4.43
   9 -10   6    5.23    1.47
  10 -10   6   11.91    2.32
  -2  -9   6    3.82    1.49
  -1  -9   6    5.68    1.28
   0  -9   6    4.73    1.16
   1  -9   6    7.19    1.55
   2  -9   6    1.03    0.79
   3  -9   6   90.11    4.87
   4  -9   6    0.47    0.69
   5  -9   6    7.77    1.75
   6  -9   6   25.99    3.01
   7  -9   6    0.75    0.79
   8  -9   6   58.86    4.03
   9  -9   6    5.49    1.55
  10  -9   6    1.11    0.99
  11  -9   6   28.07    3.46
  -3  -8   6    2.37    1.19
  -2  -8   6   58.46    4.37
  -1  -8   6   61.57    3.41
   0  -8   6   97.81    4.12
   1  -8   6   22.42    2.76
   2  -8   6    2.50    0.98
   3  -8   6    0.02    0.51
   4  -8   6   14.62    2.18
   5  -8   6    2.44    0.94
   6  -8   6    7.68    1.62
   7  -8   6   10.57    1.94
   8  -8   6   92.90    5.05
   9  -8   6    4.93    1.38
  10  -8   6   24.47    3.13
  11  -8   6    4.79    1.40
  -4  -7   6   39.31    3.97
  -3  -7   6   14.41    2.28
  -2  -7   6    0.69    0.78
  -1  -7   6   13.02    2.09
   0  -7   6    0.16    0.57
   1  -7   6    9.66    1.75
   2  -7   6   35.13    3.28
   3  -7   6    5.90    1.41
   4  -7   6  164.06    6.53
   5  -7   6   19.89    2.44
   6  -7   6   12.23    2.09
   7  -7   6    0.68    0.72
   8  -7   6   27.29    3.06
   9  -7   6    1.77    0.93
  10  -7   6   15.56    2.38
  11  -7   6   51.47    4.06
  -5  -6   6    2.44    1.19
  -4  -6   6   74.90    4.48
  -3  -6   6   31.53    3.29
  -2  -6   6    5.41    1.38
  -1  -6   6    8.99    1.66
   0  -6   6    7.41    1.43
   1  -6   6  179.72    6.73
   2  -6   6    9.33    1.61
   3  -6   6   51.77    3.24
   4  -6   6   46.12    3.30
   5  -6   6   23.93    2.59
   6  -6   6    6.96    1.45
   7  -6   6    7.36    1.51
   8  -6   6    4.35    1.23
   9  -6   6   82.62    4.63
  10  -6   6    5.58    1.43
  11  -6   6    9.59    1.94
  -6  -5   6    7.82    1.89
  -5  -5   6   20.83    2.18
  -4  -5   6    7.16    1.30
  -3  -5   6    3.65    0.93
  -2  -5   6   15.55    1.67
  -1  -5   6   22.95    2.02
   0  -5   6   56.35    2.65
   1  -5   6   15.00    1.53
   2  -5   6   17.97    1.75
   3  -5   6   10.85    1.36
   4  -5   6   72.19    3.03
   5  -5   6   52.84    2.61
   6  -5   6  179.54    5.49
   7  -5   6   37.42    2.50
   8  -5   6    0.41    0.51
   9  -5   6    1.25    0.66
  10  -5   6   19.19    2.04
  11  -5   6    3.27    1.34
  -7  -4   6   62.44    3.37
  -6  -4   6    9.26    1.41
  -5  -4   6    0.65    0.61
  -4  -4   6   13.69    1.69
  -3  -4   6  165.73    5.17
  -2  -4   6   41.99    2.40
  -1  -4   6   69.43    2.94
   0  -4   6    6.52    1.04
   1  -4   6   16.48    1.60
   2  -4   6   28.95    1.96
   3  -4   6   40.21    2.24
   4  -4   6    6.60    1.03
   5  -4   6   14.12    1.55
   6  -4   6   11.98    1.48
   7  -4   6    6.54    1.15
   8  -4   6   15.14    1.82
   9  -4   6    7.86    1.78
  10  -4   6   73.35    4.60
  11  -4   6   37.81    5.74
  -8  -3   6    2.90    1.18
  -7  -3   6   17.81    2.10
  -6  -3   6   78.75    3.61
  -5  -3   6    1.44    0.61
  -4  -3   6    5.60    1.01
  -3  -3   6   52.90    2.57
  -2  -3   6   14.63    1.51
  -1  -3   6   44.10    2.31
   0  -3   6   19.48    1.69
   1  -3   6    3.24    0.70
   2  -3   6  228.15    7.55
   3  -3   6   19.92    1.89
   4  -3   6   16.75    1.68
   5  -3   6   17.70    2.33
   6  -3   6   52.92    3.44
   7  -3   6  161.56    6.67
   8  -3   6    3.34    1.11
   9  -3   6   28.86    3.27
  10  -3   6   15.28    2.45
  11  -3   6    1.24    1.04
  -9  -2   6   35.62    5.10
  -8  -2   6   23.46    3.00
  -7  -2   6    0.56    0.76
  -6  -2   6    3.22    1.02
  -5  -2   6   41.60    3.56
  -4  -2   6    8.60    1.57
  -3  -2   6   15.72    2.09
  -2  -2   6   24.20    2.57
  -1  -2   6  225.00    7.51
   0  -2   6   37.35    3.14
   1  -2   6   66.87    2.78
   2  -2   6   38.01    2.18
   3  -2   6    3.09    0.74
   4  -2   6   25.19    2.15
   5  -2   6   10.71    1.45
   6  -2   6   41.50    3.69
   7  -2   6   17.51    2.46
   8  -2   6   10.54    1.85
   9  -2   6    0.50    0.73
  10  -2   6   65.42    4.79
  -9  -1   6    1.56    0.91
  -8  -1   6    9.20    1.77
  -7  -1   6   21.14    2.72
  -6  -1   6    8.26    1.65
  -5  -1   6  179.99    6.82
  -4  -1   6   16.15    2.12
  -3  -1   6   18.98    2.23
  -2  -1   6    4.21    1.07
  -1  -1   6   62.23    2.67
   0  -1   6   30.17    1.99
   1  -1   6   27.93    2.14
   2  -1   6   65.47    2.83
   3  -1   6  218.68    6.09
   4  -1   6   36.95    2.65
   5  -1   6   68.63    3.17
   6  -1   6   22.37    2.69
   7  -1   6   12.17    2.07
   8  -1   6   11.41    2.02
   9  -1   6   45.22    4.26
  10  -1   6    7.40    1.97
 -10   0   6   12.42    3.32
  -9   0   6    4.58    1.38
  -8   0   6   87.03    4.81
  -7   0   6    0.50    0.53
  -6   0   6    6.74    1.40
  -5   0   6   52.56    3.28
  -4   0   6    5.75    1.19
  -3   0   6   18.26    1.68
  -2   0   6   32.84    2.10
  -1   0   6   26.61    2.02
   0   0   6  106.30    3.73
   1   0   6   23.17    1.94
   2   0   6   35.76    2.30
   3   0   6   20.06    1.89
   4   0   6    5.97    0.99
   5   0   6   55.75    2.88
   6   0   6    7.64    1.29
   7   0   6    0.31    0.53
   8   0   6   95.14    5.23
   9   0   6    6.16    1.67
  10   0   6   14.62    4.21
 -10   1   6    4.68    1.46
  -9   1   6   56.42    4.11
  -8   1   6   13.03    2.10
  -7   1   6    9.25    1.61
  -6   1   6   20.48    2.29
  -5   1   6   68.96    2.93
  -4   1   6   42.71    2.29
  -3   1   6  223.61    5.90
  -2   1   6   65.15    2.75
  -1   1   6   26.25    1.99
   0   1   6   24.07    1.93
   1   1   6   64.76    2.82
   2   1   6    3.30    0.73
   3   1   6   15.58    1.70
   4   1   6   14.80    1.73
   5   1   6  170.62    5.63
   6   1   6    9.44    1.47
   7   1   6   21.73    2.82
   8   1   6    8.69    1.83
   9   1   6    3.33    1.28
 -10   2   6   52.87    6.58
  -9   2   6   -0.26    0.82
  -8   2   6    2.51    1.17
  -7   2   6   18.63    2.06
  -6   2   6   43.02    2.40
  -5   2   6   13.70    1.48
  -4   2   6   25.65    2.03
  -3   2   6    2.91    0.70
  -2   2   6   33.28    2.09
  -1   2   6   64.30    2.74
   0   2   6   37.58    2.31
   1   2   6  221.36    6.08
   2   2   6   25.28    2.14
   3   2   6   14.64    1.70
   4   2   6   10.48    1.41
   5   2   6   39.30    2.70
   6   2   6    4.23    1.06
   7   2   6    2.88    1.09
   8   2   6   26.35    3.27
   9   2   6   24.87    4.48
 -11   3   6    5.58    2.49
 -10   3   6   12.40    3.10
  -9   3   6   39.24    5.40
  -8   3   6    3.12    1.02
  -7   3   6  168.85    6.42
  -6   3   6   50.52    3.42
  -5   3   6   14.21    1.89
  -4   3   6   15.71    1.59
  -3   3   6   18.83    1.45
  -2   3   6  216.76    5.05
  -1   3   6    2.56    0.65
   0   3   6   18.19    1.71
   1   3   6   40.35    2.45
   2   3   6   13.96    1.63
   3   3   6   53.64    2.75
   4   3   6    6.44    1.16
   5   3   6    0.31    0.60
   6   3   6   83.59    3.94
   7   3   6   21.22    2.90
   8   3   6    4.69    1.51
 -11   4   6   28.27    4.83
 -10   4   6   72.52    4.30
  -9   4   6    5.10    1.36
  -8   4   6   15.95    2.20
  -7   4   6    9.38    1.70
  -6   4   6   12.90    1.94
  -5   4   6   13.91    1.96
  -4   4   6    5.20    0.92
  -3   4   6   38.62    2.42
  -2   4   6   26.70    2.17
  -1   4   6   14.97    1.62
   0   4   6    5.32    1.32
   1   4   6   65.07    3.86
   2   4   6   42.86    3.30
   3   4   6  158.72    5.28
   4   4   6   17.93    1.98
   5   4   6    0.47    0.65
   6   4   6    9.33    1.58
   7   4   6   64.59    4.64
 -11   5   6    4.03    1.35
 -10   5   6   24.24    2.87
  -9   5   6    0.98    0.72
  -8   5   6    0.99    0.71
  -7   5   6   34.28    3.19
  -6   5   6  178.23    6.80
  -5   5   6   52.08    2.60
  -4   5   6   66.53    2.99
  -3   5   6   11.91    1.46
  -2   5   6   14.53    1.67
  -1   5   6   14.61    1.66
   0   5   6   51.76    2.86
   1   5   6   21.59    2.63
   2   5   6   13.83    2.09
   3   5   6    3.61    1.24
   4   5   6    4.49    1.38
   5   5   6   19.83    2.85
   6   5   6    9.08    2.17
 -11   6   6   11.05    2.14
 -10   6   6    7.99    1.70
  -9   6   6   89.75    4.75
  -8   6   6    4.04    1.21
  -7   6   6    7.32    1.59
  -6   6   6    7.07    1.19
  -5   6   6   21.35    2.04
  -4   6   6   43.86    2.53
  -3   6   6   52.33    2.70
  -2   6   6   10.31    1.43
  -1   6   6  184.99    5.72
   0   6   6    5.87    1.13
   1   6   6   10.37    1.53
   2   6   6    4.86    1.45
   3   6   6   30.93    3.43
   4   6   6   75.27    4.71
   5   6   6    5.86    1.71
 -11   7   6   60.89    4.47
 -10   7   6   18.56    2.57
  -9   7   6    3.67    1.28
  -8   7   6   18.79    2.49
  -7   7   6    0.00    0.64
  -6   7   6   12.50    1.62
  -5   7   6   16.45    1.84
  -4   7   6  159.21    5.23
  -3   7   6    5.91    1.14
  -2   7   6   36.49    2.79
  -1   7   6    8.37    1.36
   0   7   6    0.35    0.51
   1   7   6   11.86    1.63
   2   7   6    0.71    0.79
   3   7   6   13.88    2.39
   4   7   6   31.50    3.69
 -11   8   6    4.18    1.43
 -10   8   6   23.96    3.05
  -9   8   6    9.41    1.85
  -8   8   6  104.41    5.24
  -7   8   6   11.72    1.61
  -6   8   6    7.60    1.22
  -5   8   6    4.08    0.99
  -4   8   6   15.19    1.78
  -3   8   6    1.05    0.65
  -2   8   6    6.49    1.25
  -1   8   6   21.61    2.26
   0   8   6  105.19    4.38
   1   8   6   58.53    3.59
   2   8   6   62.45    4.61
   3   8   6    2.83    1.36
 -10   9   6    2.87    1.87
  -9   9   6    8.29    2.69
  -8   9   6   56.39    4.07
  -7   9   6    2.02    0.91
  -6   9   6   29.64    3.22
  -5   9   6    6.50    1.56
  -4   9   6    1.11    0.82
  -3   9   6   84.46    4.82
  -2   9   6    2.63    1.19
  -1   9   6    9.66    1.97
   0   9   6    6.02    1.69
   1   9   6    3.84    1.39
  -9  10   6    2.67    1.82
  -8  10   6   67.24    4.29
  -7  10   6   13.69    2.21
  -6  10   6   71.18    4.49
  -5  10   6   21.16    2.87
  -4  10   6    8.06    1.80
  -3  10   6   17.11    2.69
  -2  10   6   26.43    3.26
  -1  10   6    1.41    1.04
   0  10   6   19.21    4.22
  -9  11   6    3.31    1.75
  -8  11   6    1.31    1.17
  -7  11   6   29.84    3.33
  -6  11   6    1.85    1.13
  -5  11   6    6.90    1.79
  -4  11   6   58.46    5.06
  -3  11   6    3.33    1.41
   3 -10   7    9.82    2.95
   4 -10   7   12.81    3.31
   5 -10   7    2.67    1.48
   6 -10   7    0.30    1.08
   7 -10   7    0.40    1.24
   1  -9   7   30.07    4.77
   2  -9   7    5.36    1.50
   3  -9   7    0.32    0.83
   4  -9   7   28.68    3.38
   5  -9   7   59.49    4.28
   6  -9   7   27.11    3.29
   7  -9   7    1.85    1.15
   8  -9   7    3.10    1.38
  -1  -8   7    3.00    1.71
   0  -8   7    2.13    1.20
   1  -8   7   35.93    3.73
   2  -8   7    4.46    1.31
   3  -8   7   22.51    2.83
   4  -8   7    0.57    0.75
   5  -8   7   -0.47    0.61
   6  -8   7   41.73    3.94
   7  -8   7   -0.03    0.78
   8  -8   7    1.89    1.08
   9  -8   7   39.90    9.20
  -3  -7   7    0.81    1.64
  -2  -7   7    3.47    1.30
  -1  -7   7   -0.06    0.71
   0  -7   7    0.12    0.76
   1  -7   7   19.49    2.59
   2  -7   7   14.32    2.26
   3  -7   7   30.41    3.23
   4  -7   7    0.59    0.67
   5  -7   7    4.62    1.31
   6  -7   7   70.98    6.36
   7  -7   7    0.51    1.31
   8  -7   7   38.83    5.75
   9  -7   7    6.40    2.42
  -3  -6   7   25.41    4.60
  -2  -6   7   42.28    6.00
  -1  -6   7   54.75    6.81
   0  -6   7   21.87    4.07
   1  -6   7    0.18    0.84
   2  -6   7    8.79    2.67
   3  -6   7   29.42    4.89
   4  -6   7    4.18    1.91
   5  -6   7    0.05    0.84
   6  -6   7   24.43    4.46
   7  -6   7   29.16    4.87
   8  -6   7    3.13    1.81
   9  -6   7    2.04    1.70
  -4  -5   7   46.96    6.41
  -3  -5   7    0.27    0.80
  -2  -5   7    1.58    1.55
  -1  -5   7    0.33    0.64
   0  -5   7    7.12    1.48
   1  -5   7    0.29    0.67
   2  -5   7  111.39    5.24
   3  -5   7    1.07    0.74
   4  -5   7   73.70    4.24
   5  -5   7    4.54    1.33
   6  -5   7    2.45    1.11
   7  -5   7   10.63    2.01
   8  -5   7   26.91    3.37
   9  -5   7   28.27    3.67
  -6  -4   7   18.74    3.92
  -5  -4   7   27.69    3.30
  -4  -4   7   -0.06    0.61
  -3  -4   7    0.04    0.62
  -2  -4   7    5.27    1.41
  -1  -4   7   77.28    4.30
   0  -4   7    5.50    1.34
   1  -4   7   85.13    4.60
   2  -4   7    0.04    0.50
   3  -4   7    0.62    0.68
   4  -4   7    5.03    1.32
   5  -4   7    1.04    0.72
   6  -4   7    7.85    1.71
   7  -4   7   27.30    3.18
   8  -4   7   -0.49    0.66
   9  -4   7   51.58    4.61
  10  -4   7    0.20    1.42
  -7  -3   7   17.26    4.61
  -6  -3   7    1.25    0.93
  -5  -3   7   22.94    2.93
  -4  -3   7   31.07    3.40
  -3  -3   7   35.71    3.52
  -2  -3   7    1.06    0.68
  -1  -3   7    0.45    0.59
   0  -3   7   10.09    1.76
   1  -3   7    1.62    0.76
   2  -3   7    0.99    0.70
   3  -3   7    8.49    1.63
   4  -3   7   94.50    4.83
   5  -3   7  110.00    5.42
   6  -3   7   34.84    3.59
   7  -3   7    1.00    0.86
   8  -3   7   -0.23    0.70
   9  -3   7   31.83    3.75
  -7  -2   7    4.56    1.32
  -6  -2   7    6.14    1.53
  -5  -2   7   13.58    2.17
  -4  -2   7    6.96    1.57
  -3  -2   7  110.18    5.29
  -2  -2   7   -0.08    0.44
  -1  -2   7    0.43    0.50
   0  -2   7   58.70    3.62
   1  -2   7    9.77    1.77
   2  -2   7   55.44    3.58
   3  -2   7    0.72    0.59
   4  -2   7    0.32    0.49
   5  -2   7    1.66    0.69
   6  -2   7    1.73    0.87
   7  -2   7    4.58    1.29
   8  -2   7   35.31    3.82
   9  -2   7    4.21    1.55
  -8  -1   7   31.49    3.86
  -7  -1   7   41.98    4.10
  -6  -1   7   26.68    3.04
  -5  -1   7    1.82    0.94
  -4  -1   7    2.13    0.96
  -3  -1   7  105.05    4.97
  -2  -1   7    1.62    0.81
  -1  -1   7   12.55    2.01
   0  -1   7   43.22    3.35
   1  -1   7   41.83    3.65
   2  -1   7   12.82    1.65
   3  -1   7    0.07    0.44
   4  -1   7    0.19    0.46
   5  -1   7   75.81    3.56
   6  -1   7    0.48    0.65
   7  -1   7   53.66    4.15
   8  -1   7   -0.56    0.64
   9  -1   7    2.99    1.57
  -8   0   7    1.56    1.06
  -7   0   7    1.03    0.86
  -6   0   7   34.40    3.44
  -5   0   7    7.44    1.61
  -4   0   7   11.46    1.92
  -3   0   7   14.88    2.02
  -2   0   7   62.76    3.71
  -1   0   7   52.73    3.02
   0   0   7    0.26    0.39
   1   0   7   47.11    2.70
   2   0   7   57.40    2.90
   3   0   7   10.44    1.46
   4   0   7    7.20    1.30
   5   0   7    3.59    0.91
   6   0   7   27.14    2.58
   7   0   7    1.32    0.97
   8   0   7    1.35    1.06
  -8   1   7    0.25    1.04
  -7   1   7   61.32    3.95
  -6   1   7   -0.06    0.58
  -5   1   7   71.57    4.13
  -4   1   7    0.47    0.57
  -3   1   7    0.41    0.53
  -2   1   7   14.03    1.54
  -1   1   7   50.08    2.58
   0   1   7   47.59    2.57
   1   1   7   10.71    1.44
   2   1   7    1.69    0.69
   3   1   7   84.40    3.75
   4   1   7    1.74    0.76
   5   1   7    1.80    0.85
   6   1   7   24.89    2.53
   7   1   7   43.86    4.27
   8   1   7   31.32    5.05
  -9   2   7    6.09    2.30
  -8   2   7   36.50    5.28
  -7   2   7    4.31    1.88
  -6   2   7    4.16    1.74
  -5   2   7    1.29    1.21
  -4   2   7   -0.19    0.56
  -3   2   7    0.69    0.47
  -2   2   7   58.08    2.82
  -1   2   7   12.19    1.49
   0   2   7   51.56    2.74
   1   2   7    0.50    0.52
   2   2   7    0.06    0.43
   3   2   7  103.07    4.23
   4   2   7    6.41    1.26
   5   2   7    9.26    1.53
   6   2   7    3.67    1.06
   7   2   7    5.76    1.57
  -9   3   7   29.56    4.65
  -8   3   7    0.24    0.82
  -7   3   7    0.16    0.87
  -6   3   7   35.81    3.46
  -5   3   7  107.04    5.12
  -4   3   7   97.13    4.77
  -3   3   7   12.05    1.93
  -2   3   7    0.01    0.54
  -1   3   7    1.73    0.80
   0   3   7   13.23    2.11
   1   3   7   -0.13    0.57
   2   3   7    1.48    0.94
   3   3   7   32.56    2.79
   4   3   7   31.78    2.79
   5   3   7   21.15    2.31
   6   3   7    0.35    0.74
   7   3   7    7.49    2.58
  -9   4   7   42.67    6.02
  -8   4   7    0.29    0.67
  -7   4   7   25.68    2.91
  -6   4   7    5.50    1.36
  -5   4   7    1.08    0.74
  -4   4   7    5.52    1.38
  -3   4   7   -0.40    0.47
  -2   4   7   -0.33    0.48
  -1   4   7   94.74    4.86
   0   4   7    6.02    1.46
   1   4   7   80.04    4.58
   2   4   7    3.48    1.20
   3   4   7   -0.16    0.68
   4   4   7    0.24    0.73
   5   4   7   22.01    3.13
  -9   5   7   23.45    3.04
  -8   5   7   23.05    2.89
  -7   5   7   12.20    2.11
  -6   5   7    1.41    0.77
  -5   5   7    3.45    1.18
  -4   5   7   68.22    3.27
  -3   5   7    2.86    0.83
  -2   5   7   97.29    4.12
  -1   5   7    0.90    0.78
   0   5   7    3.57    1.22
   1   5   7   -0.17    0.57
   2   5   7    3.81    1.28
   3   5   7   -0.09    0.85
   4   5   7   48.96    4.48
 -10   6   7   14.98    3.62
  -9   6   7   -0.15    0.85
  -8   6   7    5.84    1.52
  -7   6   7   23.80    3.00
  -6   6   7   26.74    3.19
  -5   6   7    0.40    0.60
  -4   6   7    5.42    1.12
  -3   6   7   32.07    2.69
  -2   6   7    7.39    1.36
  -1   6   7    1.51    0.74
   0   6   7   25.23    3.06
   1   6   7   62.93    4.53
   2   6   7   37.02    3.91
   3   6   7   28.18    3.49
   4   6   7    0.13    1.61
  -9   7   7    6.98    1.75
  -8   7   7   51.76    4.55
  -7   7   7    0.06    0.66
  -6   7   7   56.53    4.15
  -5   7   7    3.45    0.99
  -4   7   7    1.08    0.68
  -3   7   7   25.12    2.45
  -2   7   7   10.32    1.60
  -1   7   7   30.54    2.76
   0   7   7    0.73    0.81
   1   7   7   -0.07    0.78
   2   7   7    3.93    1.41
   3   7   7   -0.37    1.74
  -9   8   7   25.17    3.47
  -8   8   7    5.13    1.56
  -7   8   7    0.56    0.75
  -6   8   7   33.23    2.87
  -5   8   7    0.16    0.56
  -4   8   7    1.05    0.75
  -3   8   7   19.07    2.18
  -2   8   7    5.08    1.17
  -1   8   7   40.89    3.35
   0   8   7    1.51    1.05
   1   8   7    1.86    1.54
  -7   9   7    0.78    1.42
  -6   9   7   30.15    3.50
  -5   9   7   50.86    4.61
  -4   9   7   25.02    3.22
  -3   9   7    0.73    0.83
  -2   9   7    5.12    1.60
  -7  10   7    1.64    1.47
  -6  10   7   -0.10    1.29
  -5  10   7    0.55    1.27
   2  -7   8   16.49    6.20
   3  -7   8    7.13    2.65
   4  -7   8   50.41    6.82
   5  -7   8    3.09    3.13
   0  -6   8    6.20    2.41
   2  -6   8    3.90    2.07
   3  -6   8   19.38    4.12
   4  -6   8    2.18    1.80
   5  -6   8    0.11    1.33
   6  -6   8    7.28    2.73
  -2  -5   8    6.84    2.77
  -1  -5   8    0.88    1.33
   0  -5   8   11.70    3.15
   1  -5   8   16.19    3.84
   2  -5   8   16.02    3.75
   3  -5   8    6.57    2.54
   4  -5   8   43.47    6.10
   5  -5   8   16.49    4.05
   6  -5   8   64.95    6.39
   7  -5   8   19.11    6.16
  -4  -4   8   16.13    3.80
  -3  -4   8   42.32    4.22
  -2  -4   8    1.63    1.05
  -1  -4   8   42.60    4.06
   0  -4   8    9.93    1.96
   1  -4   8    9.88    1.97
   2  -4   8   14.03    2.31
   3  -4   8   19.11    2.51
   4  -4   8   10.87    2.01
   5  -4   8   10.82    2.17
   6  -4   8    4.09    1.34
   7  -4   8    9.83    2.07
   8  -4   8   11.62    3.39
  -4  -3   8    6.45    1.74
  -3  -3   8   22.58    3.02
  -2  -3   8    4.45    1.39
  -1  -3   8   21.33    2.79
   0  -3   8   16.57    2.49
   1  -3   8    2.63    1.01
   2  -3   8   58.45    4.26
   3  -3   8   17.54    2.51
   4  -3   8   10.43    1.98
   5  -3   8   16.28    2.46
   6  -3   8   32.44    3.72
   7  -3   8   41.54    4.24
  -5  -2   8   13.95    2.36
  -4  -2   8    2.15    1.05
  -3  -2   8   16.76    2.58
  -2  -2   8   17.49    2.56
  -1  -2   8   57.07    3.87
   0  -2   8    5.33    1.38
   1  -2   8   32.32    3.49
   2  -2   8    8.82    1.92
   3  -2   8    1.70    0.89
   4  -2   8   12.11    2.16
   5  -2   8    5.19    1.52
   6  -2   8    2.31    1.17
   7  -2   8    5.45    1.67
  -6  -1   8    0.91    1.60
  -5  -1   8   57.39    4.86
  -4  -1   8   13.78    2.38
  -3  -1   8   15.60    2.40
  -2  -1   8    4.58    1.30
  -1  -1   8   32.69    3.47
   0  -1   8    3.74    1.22
   1  -1   8    3.93    1.24
   2  -1   8   29.38    3.26
   3  -1   8   47.45    4.28
   4  -1   8   20.46    2.20
   5  -1   8   47.22    3.47
   6  -1   8    1.60    1.03
   7  -1   8   18.99    4.65
  -6   0   8    4.25    1.65
  -5   0   8   12.55    2.20
  -4   0   8    9.35    1.87
  -3   0   8   16.39    2.44
  -2   0   8    3.61    1.24
  -1   0   8    5.20    1.45
   0   0   8  106.65    5.27
   1   0   8    2.92    1.14
   2   0   8    3.96    0.92
   3   0   8   16.57    2.02
   4   0   8    9.47    1.57
   5   0   8   15.22    2.05
   6   0   8    4.64    1.48
  -6   1   8    0.15    1.20
  -5   1   8   41.16    6.08
  -4   1   8   21.09    4.10
  -3   1   8   60.51    5.76
  -2   1   8   27.64    3.08
  -1   1   8    4.42    1.26
   0   1   8    3.93    0.99
   1   1   8   29.40    2.65
   2   1   8    3.16    0.95
   3   1   8    8.84    1.50
   4   1   8   12.93    1.86
   5   1   8   63.42    3.90
   6   1   8    2.02    1.19
  -7   2   8    8.93    4.37
  -6   2   8    3.97    2.03
  -5   2   8    1.91    1.44
  -4   2   8   18.59    3.81
  -3   2   8    3.90    1.88
  -2   2   8    4.76    1.46
  -1   2   8   30.68    3.36
   0   2   8    4.22    1.33
   1   2   8   52.99    4.55
   2   2   8   13.94    2.27
   3   2   8   12.93    2.23
   4   2   8    0.99    1.01
   5   2   8   17.16    3.12
  -7   3   8   39.43    5.75
  -6   3   8   27.48    4.97
  -5   3   8   17.74    3.77
  -4   3   8   10.93    1.96
  -3   3   8   17.60    2.51
  -2   3   8   52.79    3.99
  -1   3   8    2.26    1.14
   0   3   8   18.77    2.63
   1   3   8   20.40    2.74
   2   3   8    5.28    1.52
   3   3   8   26.93    3.35
   4   3   8    4.82    1.55
  -7   4   8    7.37    2.78
  -6   4   8    4.74    1.63
  -5   4   8   15.06    2.44
  -4   4   8   10.51    1.99
  -3   4   8   24.48    3.03
  -2   4   8   14.60    2.34
  -1   4   8   11.71    2.14
   0   4   8   12.55    2.28
   1   4   8   44.42    4.27
   2   4   8    4.87    1.55
   3   4   8   42.73    4.32
  -7   5   8   15.51    2.51
  -6   5   8   62.31    5.04
  -5   5   8   14.67    2.53
  -4   5   8   50.22    4.47
  -3   5   8    4.88    1.43
  -2   5   8   18.11    2.71
  -1   5   8   10.79    2.09
   0   5   8   11.49    2.18
   1   5   8    1.31    1.01
   2   5   8    2.06    1.27
  -7   6   8    1.27    1.23
  -6   6   8    5.19    1.55
  -5   6   8    0.94    0.93
  -4   6   8    3.98    1.37
  -3   6   8   28.22    3.36
  -2   6   8    7.05    1.81
  -1   6   8   56.06    4.93
   0   6   8    6.27    1.71
   1   6   8   15.81    4.52
  -6   7   8   15.46    2.89
  -5   7   8    2.23    1.32
  -4   7   8   38.95    3.27
  -3   7   8    4.51    1.48
  -2   7   8   12.74    2.54
  -1   7   8    0.72    1.32
  -4   8   8    8.38    2.06
   2  -4   9    1.14    1.49
   0  -3   9   15.06    3.52
   1  -3   9    8.72    2.07
   2  -3   9   11.03    2.27
   3  -3   9   15.63    3.75
  -2  -2   9    3.54    2.97
  -1  -2   9    8.15    1.92
   0  -2   9   12.38    2.24
   1  -2   9    7.08    1.85
   2  -2   9   21.32    3.05
   3  -2   9    6.18    1.63
  -2  -1   9    6.54    2.05
  -1  -1   9    5.24    1.57
   0  -1   9    9.12    2.01
   1  -1   9    9.44    1.99
   2  -1   9    7.58    1.89
   3  -1   9   10.06    2.45
  -2   0   9   19.93    4.39
  -1   0   9    6.35    2.26
   0   0   9   -0.09    0.81
   1   0   9    7.09    1.79
   2   0   9   19.51    2.99
   3   0   9   14.65    3.46
  -2   1   9    8.21    3.41
  -1   1   9    8.69    2.97
   0   1   9    6.02    2.46
   1   1   9    4.61    2.55
  -1   2   9   12.16    5.20
   1   2   9    9.45    3.02
   2   2   9   -1.11    1.33
  -1   3   9    6.58    2.52
   0   3   9   16.08    3.60
  -2   4   9    1.03    1.67
   0   0   0    0.00    0.00
;
_shelx_hkl_checksum              87395
loop_
_space_group_symop_operation_xyz
'x, y, z'
'-y, x-y, z'
'-x+y, -x, z'
'-x, -y, z+1/2'
'y, -x+y, z+1/2'
'x-y, x, z+1/2'
loop_
_atom_site_label
_atom_site_type_symbol
_atom_site_fract_x
_atom_site_fract_y
_atom_site_fract_z
_atom_site_U_iso_or_equiv
_atom_site_adp_type
_atom_site_occupancy
_atom_site_site_symmetry_order
_atom_site_calc_flag
_atom_site_refinement_flags_posn
_atom_site_refinement_flags_adp
_atom_site_refinement_flags_occupancy
_atom_site_disorder_assembly
_atom_site_disorder_group
La La 0.14213(3) 0.37425(3) 0.40136(9) 0.01496(9) Uani 1 1 d . . . . .
Ga1 Ga 0.3333 0.6667 0.82122(18) 0.0138(2) Uani 1 3 d S T P . .
Ga2A Ga 0.0000 0.0000 0.1010(15) 0.0297(7) Uani 0.319(6) 3 d S T P . .
Ga2B Ga 0.0000 0.0000 0.2146(15) 0.0297(7) Uani 0.348(6) 3 d S T P . .
S1 S 0.23721(18) 0.14581(16) 0.4392(3) 0.0254(4) Uani 1 1 d . . . . .
S2 S 0.51897(16) 0.09748(16) 0.1747(2) 0.0148(2) Uani 1 1 d . . . . .
S3 S 0.3333 0.6667 0.1884(4) 0.0128(4) Uani 1 3 d S T P . .
loop_
_atom_site_aniso_label
_atom_site_aniso_U_11
_atom_site_aniso_U_22
_atom_site_aniso_U_33
_atom_site_aniso_U_23
_atom_site_aniso_U_13
_atom_site_aniso_U_12
La 0.01293(13) 0.00932(12) 0.02205(15) -0.00144(15) -0.00218(16) 0.00512(9)
Ga1 0.0158(3) 0.0158(3) 0.0097(4) 0.000 0.000 0.00790(15)
Ga2A 0.0204(5) 0.0204(5) 0.048(2) 0.000 0.000 0.0102(3)
Ga2B 0.0204(5) 0.0204(5) 0.048(2) 0.000 0.000 0.0102(3)
S1 0.0219(6) 0.0152(5) 0.0438(12) -0.0075(6) -0.0050(6) 0.0128(5)
S2 0.0141(6) 0.0123(5) 0.0139(6) 0.0006(5) 0.0017(5) 0.0035(5)
S3 0.0142(6) 0.0142(6) 0.0101(9) 0.000 0.000 0.0071(3)
loop_
_atom_type_symbol
_atom_type_description
_atom_type_scat_dispersion_real
_atom_type_scat_dispersion_imag
_atom_type_scat_source
S S 0.1246 0.1234 'International Tables Vol C Tables 4.2.6.8 and 6.1.1.4'
Ga Ga 0.2307 1.6083 'International Tables Vol C Tables 4.2.6.8 and 6.1.1.4'
La La -0.2871 2.4523 'International Tables Vol C Tables 4.2.6.8 and 6.1.1.4'
loop_
_geom_angle_atom_site_label_1
_geom_angle_atom_site_label_2
_geom_angle_atom_site_label_3
_geom_angle
_geom_angle_site_symmetry_1
_geom_angle_site_symmetry_3
S2 La S1 103.01(4) 5_565 2
S2 La S3 77.47(4) 5_565 .
S1 La S3 150.52(5) 2 .
S2 La S1 139.68(5) 5_565 .
S1 La S1 77.22(6) 2 .
S3 La S1 121.70(4) . .
S2 La S2 77.12(6) 5_565 6
S1 La S2 133.38(5) 2 6
S3 La S2 75.89(4) . 6
S1 La S2 74.73(4) . 6
S2 La S2 73.52(2) 5_565 2
S1 La S2 72.65(4) 2 2
S3 La S2 79.47(3) . 2
S1 La S2 140.14(4) . 2
S2 La S2 144.99(4) 6 2
S2 La S1 143.99(4) 5_565 6_554
S1 La S1 76.38(4) 2 6_554
S3 La S1 86.21(5) . 6_554
S1 La S1 76.00(4) . 6_554
S2 La S1 129.76(4) 6 6_554
S2 La S1 72.04(4) 2 6_554
S2 La Ga2B 147.44(9) 5_565 .
S1 La Ga2B 44.74(7) 2 .
S3 La Ga2B 131.69(14) . .
S1 La Ga2B 44.65(7) . .
S2 La Ga2B 119.36(7) 6 .
S2 La Ga2B 95.60(8) 2 .
S1 La Ga2B 47.68(14) 6_554 .
S2 La Ga2A 117.02(13) 5_565 4
S1 La Ga2A 40.79(5) 2 4
S3 La Ga2A 162.33(6) . 4
S1 La Ga2A 40.73(5) . 4
S2 La Ga2A 96.75(10) 6 4
S2 La Ga2A 113.32(6) 2 4
S1 La Ga2A 86.44(15) 6_554 4
Ga2B La Ga2A 38.76(8) . 4
S3 Ga1 S2 112.93(4) 1_556 5_565
S3 Ga1 S2 112.93(4) 1_556 4_665
S2 Ga1 S2 105.80(5) 5_565 4_665
S3 Ga1 S2 112.93(4) 1_556 6
S2 Ga1 S2 105.80(5) 5_565 6
S2 Ga1 S2 105.80(5) 4_665 6
Ga2B Ga2A S1 115.0(2) . 4_554
Ga2B Ga2A S1 115.0(2) . 6_554
S1 Ga2A S1 103.5(3) 4_554 6_554
Ga2B Ga2A S1 115.0(2) . 5_554
S1 Ga2A S1 103.5(3) 4_554 5_554
S1 Ga2A S1 103.5(3) 6_554 5_554
Ga2B Ga2A Ga2B 180.0 . 4_554
S1 Ga2A Ga2B 65.0(2) 4_554 4_554
S1 Ga2A Ga2B 65.0(2) 6_554 4_554
S1 Ga2A Ga2B 65.0(2) 5_554 4_554
Ga2B Ga2A La 109.98(14) . 4_554
S1 Ga2A La 55.56(8) 4_554 4_554
S1 Ga2A La 135.1(4) 6_554 4_554
S1 Ga2A La 54.91(8) 5_554 4_554
Ga2B Ga2A La 70.02(14) 4_554 4_554
Ga2B Ga2A La 109.98(14) . 5_554
S1 Ga2A La 135.1(4) 4_554 5_554
S1 Ga2A La 54.91(8) 6_554 5_554
S1 Ga2A La 55.56(8) 5_554 5_554
Ga2B Ga2A La 70.02(14) 4_554 5_554
La Ga2A La 108.96(15) 4_554 5_554
Ga2B Ga2A La 109.98(14) . 6_554
S1 Ga2A La 54.91(8) 4_554 6_554
S1 Ga2A La 55.56(8) 6_554 6_554
S1 Ga2A La 135.1(4) 5_554 6_554
Ga2B Ga2A La 70.02(14) 4_554 6_554
La Ga2A La 108.96(15) 4_554 6_554
La Ga2A La 108.96(15) 5_554 6_554
Ga2A Ga2B Ga2A 180.0 . 4
Ga2A Ga2B S1 122.85(18) . .
Ga2A Ga2B S1 57.15(18) 4 .
Ga2A Ga2B S1 122.85(18) . 2
Ga2A Ga2B S1 57.15(18) 4 2
S1 Ga2B S1 93.4(2) . 2
Ga2A Ga2B S1 122.85(18) . 3
Ga2A Ga2B S1 57.15(18) 4 3
S1 Ga2B S1 93.4(2) . 3
S1 Ga2B S1 93.4(2) 2 3
Ga2A Ga2B S1 51.62(16) . 4_554
Ga2A Ga2B S1 128.38(16) 4 4_554
S1 Ga2B S1 174.5(3) . 4_554
S1 Ga2B S1 90.43(4) 2 4_554
S1 Ga2B S1 90.43(4) 3 4_554
Ga2A Ga2B S1 51.62(16) . 5_554
Ga2A Ga2B S1 128.38(16) 4 5_554
S1 Ga2B S1 90.43(4) . 5_554
S1 Ga2B S1 174.5(3) 2 5_554
S1 Ga2B S1 90.43(4) 3 5_554
S1 Ga2B S1 85.5(2) 4_554 5_554
Ga2A Ga2B S1 51.62(16) . 6_554
Ga2A Ga2B S1 128.38(16) 4 6_554
S1 Ga2B S1 90.43(4) . 6_554
S1 Ga2B S1 90.43(4) 2 6_554
S1 Ga2B S1 174.5(3) 3 6_554
S1 Ga2B S1 85.5(2) 4_554 6_554
S1 Ga2B S1 85.5(2) 5_554 6_554
Ga2A Ga2B La 108.78(14) . .
Ga2A Ga2B La 71.22(14) 4 .
S1 Ga2B La 55.39(7) . .
S1 Ga2B La 54.78(7) 2 .
S1 Ga2B La 128.4(3) 3 .
S1 Ga2B La 124.54(9) 4_554 .
S1 Ga2B La 125.10(9) 5_554 .
S1 Ga2B La 57.17(4) 6_554 .
Ga2A Ga2B La 108.78(14) . 2
Ga2A Ga2B La 71.22(14) 4 2
S1 Ga2B La 128.4(3) . 2
S1 Ga2B La 55.39(7) 2 2
S1 Ga2B La 54.78(7) 3 2
S1 Ga2B La 57.17(4) 4_554 2
S1 Ga2B La 124.54(9) 5_554 2
S1 Ga2B La 125.10(9) 6_554 2
La Ga2B La 110.15(14) . 2
Ga2A Ga2B La 108.78(14) . 3
Ga2A Ga2B La 71.22(14) 4 3
S1 Ga2B La 54.78(7) . 3
S1 Ga2B La 128.4(3) 2 3
S1 Ga2B La 55.39(7) 3 3
S1 Ga2B La 125.10(9) 4_554 3
S1 Ga2B La 57.17(4) 5_554 3
S1 Ga2B La 124.54(9) 6_554 3
La Ga2B La 110.15(14) . 3
La Ga2B La 110.15(14) 2 3
Ga2A S1 Ga2B 57.81(12) 4 .
Ga2A S1 Ga2B 13.43(12) 4 4
Ga2B S1 Ga2B 71.24(5) . 4
Ga2A S1 La 84.30(5) 4 3
Ga2B S1 La 80.48(4) . 3
Ga2B S1 La 86.23(5) 4 3
Ga2A S1 La 83.71(5) 4 .
Ga2B S1 La 79.96(4) . .
Ga2B S1 La 85.71(5) 4 .
La S1 La 160.35(6) 3 .
Ga2A S1 La 88.6(2) 4 5
Ga2B S1 La 146.39(19) . 5
Ga2B S1 La 75.16(16) 4 5
La S1 La 97.89(5) 3 5
La S1 La 97.33(5) . 5
Ga1 S2 La 89.62(5) 4_664 6_654
Ga1 S2 La 87.12(5) 4_664 5_554
La S2 La 101.95(5) 6_654 5_554
Ga1 S2 La 122.08(6) 4_664 3
La S2 La 143.77(5) 6_654 3
La S2 La 97.11(4) 5_554 3
Ga1 S3 La 116.26(4) 1_554 3_565
Ga1 S3 La 116.26(4) 1_554 .
La S3 La 101.91(5) 3_565 .
Ga1 S3 La 116.26(4) 1_554 2_665
La S3 La 101.91(5) 3_565 2_665
La S3 La 101.91(5) . 2_665
loop_
_geom_bond_atom_site_label_1
_geom_bond_atom_site_label_2
_geom_bond_distance
_geom_bond_site_symmetry_2
La S2 2.8670(14) 5_565
La S1 2.9139(14) 2
La S3 2.9188(11) .
La S1 2.9400(14) .
La S2 2.9686(15) 6
La S2 3.0398(15) 2
La S1 3.0577(19) 6_554
La Ga2B 3.518(3) .
La Ga2A 3.543(3) 4
Ga1 S3 2.227(3) 1_556
Ga1 S2 2.2810(15) 5_565
Ga1 S2 2.2810(15) 4_665
Ga1 S2 2.2810(15) 6
Ga2A Ga2B 0.689(5) .
Ga2A S1 2.326(4) 4_554
Ga2A S1 2.326(4) 6_554
Ga2A S1 2.326(4) 5_554
Ga2A Ga2B 2.343(5) 4_554
Ga2A La 3.543(3) 4_554
Ga2A La 3.543(3) 5_554
Ga2A La 3.543(3) 6_554
Ga2B Ga2A 2.343(5) 4
Ga2B S1 2.510(5) .
Ga2B S1 2.510(5) 2
Ga2B S1 2.510(5) 3
Ga2B S1 2.690(6) 4_554
Ga2B S1 2.690(6) 5_554
Ga2B S1 2.690(6) 6_554
Ga2B La 3.518(3) 2
Ga2B La 3.518(3) 3
S1 Ga2A 2.326(4) 4
S1 Ga2B 2.690(6) 4
S1 La 2.9139(14) 3
S1 La 3.0577(19) 5
S2 Ga1 2.2810(15) 4_664
S2 La 2.8670(14) 6_654
S2 La 2.9686(15) 5_554
S2 La 3.0398(14) 3
S3 Ga1 2.227(3) 1_554
S3 La 2.9188(11) 3_565
S3 La 2.9188(11) 2_665
