#------------------------------------------------------------------------------
#$Date: 2021-04-01 10:59:22 +0300 (Thu, 01 Apr 2021) $
#$Revision: 263517 $
#$URL: file:///home/coder/svn-repositories/cod/cif/1/56/14/1561402.cif $
#------------------------------------------------------------------------------
#
# This file is available in the Crystallography Open Database (COD),
# http://www.crystallography.net/
#
# All data on this site have been placed in the public domain by the
# contributors.
#
data_1561402
loop_
_publ_author_name
'Sanjeewa, Liurukara D.'
'McGuire, Michael A.'
'Smith Pellizzeri, Tiffany M.'
'McMillen, Colin D.'
'Ovidiu Garlea, V.'
'Willett, Daniel'
'Chumanov, George'
'Kolis, Joseph W.'
_publ_section_title
;
 Synthesis and characterization of new fluoride-containing manganese
 vanadates A2Mn2V2O7F2 (A=Rb, Cs) and Mn2VO4F
;
_journal_name_full               'Journal of Solid State Chemistry'
_journal_page_first              30
_journal_page_last               37
_journal_paper_doi               10.1016/j.jssc.2016.05.008
_journal_volume                  241
_journal_year                    2016
_chemical_formula_sum            'F Mn2 O4 V'
_chemical_formula_weight         243.82
_space_group_crystal_system      monoclinic
_space_group_IT_number           15
_space_group_name_Hall           '-C 2yc'
_space_group_name_H-M_alt        'C 1 2/c 1'
_atom_sites_solution_hydrogens   .
_atom_sites_solution_primary     direct
_atom_sites_solution_secondary   difmap
_audit_creation_method           SHELXL-2014/7
_cell_angle_alpha                90
_cell_angle_beta                 116.16(3)
_cell_angle_gamma                90
_cell_formula_units_Z            8
_cell_length_a                   13.559(2)
_cell_length_b                   6.8036(7)
_cell_length_c                   10.1408(13)
_cell_measurement_reflns_used    3411
_cell_measurement_temperature    293(2)
_cell_measurement_theta_max      25.14
_cell_measurement_theta_min      3.35
_cell_volume                     839.7(3)
_computing_cell_refinement       'CrystalClear (Rigaku, 2008)'
_computing_data_collection       'CrystalClear (Rigaku, 2008)'
_computing_data_reduction        'CrystalClear (Rigaku, 2008)'
_computing_molecular_graphics    'DIAMOND (Brandenburg, 1999)'
_computing_publication_material  'SHELXL-2014/7 (Sheldrick, 2014)'
_computing_structure_refinement  'SHELXL-2014/7 (Sheldrick, 2014)'
_computing_structure_solution    'SHELXS-2014 (Sheldrick, 2014)'
_diffrn_ambient_temperature      293(2)
_diffrn_measured_fraction_theta_full 0.999
_diffrn_measured_fraction_theta_max 0.999
_diffrn_measurement_device_type  'Rigaku AFC8-S, Mercury CCD'
_diffrn_measurement_method       '\w scans'
_diffrn_radiation_type           MoK\a
_diffrn_radiation_wavelength     0.71073
_diffrn_reflns_av_R_equivalents  0.0243
_diffrn_reflns_av_unetI/netI     0.0159
_diffrn_reflns_Laue_measured_fraction_full 0.999
_diffrn_reflns_Laue_measured_fraction_max 0.999
_diffrn_reflns_limit_h_max       16
_diffrn_reflns_limit_h_min       -16
_diffrn_reflns_limit_k_max       7
_diffrn_reflns_limit_k_min       -8
_diffrn_reflns_limit_l_max       12
_diffrn_reflns_limit_l_min       -12
_diffrn_reflns_number            3411
_diffrn_reflns_point_group_measured_fraction_full 0.999
_diffrn_reflns_point_group_measured_fraction_max 0.999
_diffrn_reflns_theta_full        25.139
_diffrn_reflns_theta_max         25.139
_diffrn_reflns_theta_min         3.348
_diffrn_source                   'fine-focus sealed tube'
_exptl_absorpt_coefficient_mu    8.024
_exptl_absorpt_correction_T_max  1.0000
_exptl_absorpt_correction_T_min  0.8144
_exptl_absorpt_correction_type   multi-scan
_exptl_absorpt_process_details   'REQAB, CrystalClear'
_exptl_crystal_colour            red
_exptl_crystal_density_diffrn    3.858
_exptl_crystal_density_meas      .
_exptl_crystal_density_method    .
_exptl_crystal_description       column
_exptl_crystal_F_000             912
_exptl_crystal_size_max          0.250
_exptl_crystal_size_mid          0.200
_exptl_crystal_size_min          0.180
_exptl_transmission_factor_max   .
_exptl_transmission_factor_min   .
_refine_diff_density_max         0.512
_refine_diff_density_min         -0.617
_refine_diff_density_rms         0.131
_refine_ls_extinction_coef       0.0020(5)
_refine_ls_extinction_expression Fc^*^=kFc[1+0.001xFc^2^\l^3^/sin(2\q)]^-1/4^
_refine_ls_extinction_method     'SHELXL-2014/7 (Sheldrick 2014'
_refine_ls_goodness_of_fit_ref   1.092
_refine_ls_hydrogen_treatment    undef
_refine_ls_matrix_type           full
_refine_ls_number_parameters     83
_refine_ls_number_reflns         750
_refine_ls_number_restraints     0
_refine_ls_restrained_S_all      1.092
_refine_ls_R_factor_all          0.0295
_refine_ls_R_factor_gt           0.0275
_refine_ls_shift/su_max          0.000
_refine_ls_shift/su_mean         0.000
_refine_ls_structure_factor_coef Fsqd
_refine_ls_weighting_details
'w=1/[\s^2^(Fo^2^)+(0.0428P)^2^+3.5871P] where P=(Fo^2^+2Fc^2^)/3'
_refine_ls_weighting_scheme      calc
_refine_ls_wR_factor_gt          0.0681
_refine_ls_wR_factor_ref         0.0699
_reflns_Friedel_coverage         0.000
_reflns_Friedel_fraction_full    .
_reflns_Friedel_fraction_max     .
_reflns_number_gt                701
_reflns_number_total             750
_reflns_threshold_expression     'I > 2\s(I)'
_cod_data_source_file            mmc7.cif
_cod_data_source_block           cd1248a
_cod_original_cell_volume        839.6(3)
_cod_original_sg_symbol_H-M      'C 2/c'
_cod_database_code               1561402
_shelx_shelxl_version_number     2014/7
_shelx_space_group_comment
;
The symmetry employed for this shelxl refinement is uniquely defined
by the following loop, which should always be used as a source of
symmetry information in preference to the above space-group names.
They are only intended as comments.
;
_shelx_estimated_absorpt_t_min   0.239
_shelx_estimated_absorpt_t_max   0.326
_shelx_res_file
;

    cd1248a.res created by SHELXL-2014/7


TITL cd1248a in C2/c
CELL 0.71073  13.5593   6.8036  10.1408  90.000 116.165  90.000
ZERR    8.00   0.0021   0.0007   0.0013   0.000   0.030   0.000
LATT  7
SYMM -X, Y, 0.5-Z
SFAC O F V MN
UNIT 32 8 8 16

L.S. 8
BOND
FMAP 2
ACTA
SIZE 0.25 0.20 0.18
PLAN 20
omit -3 50.3
WGHT    0.042800    3.587100
EXTI    0.001978
FVAR       0.21619
MN1   4    0.344752    0.113067    0.128741    11.00000    0.03917    0.01228 =
         0.01719   -0.00252    0.01103   -0.00184
MN2   4    0.441177   -0.273079   -0.015315    11.00000    0.01748    0.03327 =
         0.01697   -0.00702    0.00207    0.00974
V1    3    0.325121   -0.391113    0.192116    11.00000    0.00994    0.01100 =
         0.01060    0.00171    0.00342    0.00055
O1    1    0.370602   -0.193395    0.128881    11.00000    0.01866    0.01395 =
         0.01555    0.00099    0.00746   -0.00144
O2    1    0.195922    0.078051   -0.070428    11.00000    0.03715    0.01552 =
         0.01880    0.00081    0.01343    0.00378
O3    1    0.294732    0.163881    0.298169    11.00000    0.01832    0.02116 =
         0.02163   -0.00440    0.01239   -0.00500
O4    1    0.425811   -0.452494    0.361085    11.00000    0.02009    0.03321 =
         0.01834    0.01223   -0.00050   -0.00774
F1    2    0.506119    0.199361    0.318302    10.50000    0.02580    0.03179 =
         0.02836   -0.00306    0.01129    0.00007
F2    2    0.458370    0.073842    0.011607    10.50000    0.03708    0.02549 =
         0.03486   -0.00470    0.02378   -0.00437

HKLF 4

REM  cd1248a in C2/c
REM R1 =  0.0275 for     701 Fo > 4sig(Fo)  and  0.0295 for all     750 data
REM     83 parameters refined using      0 restraints

END

WGHT      0.0425      3.6564

REM Highest difference peak  0.512,  deepest hole -0.617,  1-sigma level  0.131
Q1    1   0.5000  0.3249  0.2500  10.50000  0.05    0.51
Q2    1   0.4239  0.2119  0.0381  11.00000  0.05    0.47
Q3    1   0.3772  0.2987  0.1825  11.00000  0.05    0.38
Q4    1   0.3640 -0.2975  0.1325  11.00000  0.05    0.38
Q5    1   0.4338 -0.5027  0.4769  11.00000  0.05    0.38
Q6    1   0.4955  0.3804  0.3214  11.00000  0.05    0.38
Q7    1   0.3357 -0.1846  0.1852  11.00000  0.05    0.35
Q8    1   0.2608  0.3646  0.2775  11.00000  0.05    0.33
Q9    1   0.2475  0.2217  0.3463  11.00000  0.05    0.32
Q10   1   0.4077 -0.2231  0.1148  11.00000  0.05    0.32
Q11   1   0.4443  0.0587  0.1007  11.00000  0.05    0.32
Q12   1   0.0632  0.0805 -0.2098  11.00000  0.05    0.32
Q13   1   0.3299 -0.2091  0.0776  11.00000  0.05    0.31
Q14   1   0.4561  0.2265 -0.0607  11.00000  0.05    0.31
Q15   1   0.3710 -0.3642  0.0615  11.00000  0.05    0.29
Q16   1   0.4998 -0.0626  0.0624  11.00000  0.05    0.29
Q17   1   0.3496  0.3663  0.3238  11.00000  0.05    0.28
Q18   1   0.3723  0.1015 -0.0659  11.00000  0.05    0.27
Q19   1   0.2682  0.3892  0.3739  11.00000  0.05    0.26
Q20   1   0.4555 -0.5497  0.3984  11.00000  0.05    0.25
;
_shelx_res_checksum              87051
_shelx_hkl_file
;
   0   0   2   55.98    3.38
   0   0  -2   56.92    2.67
   0   0   2   53.21    2.11
   0   0  -2   53.93    2.36
   0   0   3   -0.19    1.61
   0   0  -3   -0.29    1.79
   0   0   3   -0.22    1.16
   0   0  -3    1.15    0.90
   0   0   4  118.76    3.50
   0   0  -4  118.32    3.47
   0   0   4  118.19    3.06
   0   0  -4  115.26    4.06
   0   0   5   -0.86    1.61
   0   0  -5   -1.11    1.81
   0   0   5    0.81    0.61
   0   0  -5   -0.12    1.20
   0   0   6 1602.94   26.52
   0   0  -6 1616.62   26.96
   0   0   6 1550.74   25.90
   0   0  -6 1548.47   25.61
   0   0   7   -0.62    1.78
   0   0  -7    2.10    2.33
   0   0  -7   -0.04    1.26
   0   0   8  158.39    5.52
   0   0  -8  151.66    5.57
   0   0  -8  141.69    7.14
   0   0   9   -1.14    1.40
   0   0  -9    0.31    0.80
   0   0  10  244.25    7.53
   0   0 -10  245.25    7.85
   0   0 -10  224.85   12.82
   0   0  11   -0.15    1.39
   0   0 -11   -0.78    1.55
   0   0 -11    0.80    1.17
  -2   0  11    6.88    2.93
   2   0 -11    4.66    2.32
   2   0 -11    3.90    3.60
  -2   0  10    2.02    1.61
   2   0 -10    1.83    1.48
   2   0 -10    1.07    1.97
   2   0  -9    0.44    1.48
   2   0  -9    1.47    0.54
  -2   0   8  775.11   13.87
   2   0  -8  774.97   14.05
   2   0  -8  787.58   13.20
  -2   0   7   -0.81    1.61
   2   0  -7    2.46    1.82
   2   0  -7    3.42    1.58
  -2   0   6 1245.25   21.43
   2   0  -6 1191.37   20.64
   2   0  -6 1249.06   20.62
  -2   0   5   -1.44    1.63
   2   0  -5    1.79    1.68
   2   0  -5    0.40    0.53
  -2   0   4 2270.47   29.27
   2   0  -4 2297.43   29.67
   2   0  -4 2268.57   28.41
  -2   0   3    3.66    2.37
   2   0  -3    0.95    1.75
  -2   0   2   89.94    3.58
   2   0  -2   88.20    3.61
  -2   0   1    3.03    0.99
   2   0  -1    3.97    1.17
  -2   0   0   54.15    2.43
   2   0   0   51.46    1.33
   2   0   0   52.73    2.09
  -2   0  -1    1.90    1.43
   2   0   1    2.81    1.15
   2   0   1    9.14    2.08
  -2   0  -1    7.41    2.86
   2   0   3   -0.52    0.95
   2   0   3   -0.75    1.56
   2   0   3   -0.61    1.10
  -2   0  -3   -0.37    1.45
   2   0   4   25.58    2.32
  -2   0  -4   24.51    2.00
   2   0   4   31.98    3.01
  -2   0  -4   28.83    7.42
   2   0   5   -0.71    1.51
  -2   0  -5   -0.45    1.53
   2   0   5   -1.61    1.18
  -2   0  -5    1.16    0.93
   2   0   6    8.06    1.66
  -2   0  -6    2.23    1.53
   2   0   6    3.78    0.83
  -2   0  -6    2.77    2.46
   2   0   7    2.77    2.35
  -2   0  -7    0.71    1.34
   2   0   7   -0.32    1.29
  -2   0  -7   -1.28    1.41
   2   0   8   74.00    3.72
   2   0   8   62.25    3.84
   2   0   8   63.83   12.85
   2   0   9    0.90    0.76
   2   0   9   -0.39    1.44
  -2   0  -9    0.76    0.66
   2   0  10    6.97    3.08
   2   0  10    9.00    2.13
  -2   0 -10    6.18    4.49
  -4   0  12  539.07   13.30
   4   0 -12  534.59   13.68
   4   0 -12  539.45   12.36
  -4   0  11    3.10    1.71
   4   0 -11    1.24    2.00
   4   0 -11   -1.00    1.12
  -4   0  10  214.59    7.53
   4   0 -10  199.29    7.42
   4   0 -10  200.79    6.15
  -4   0   9    0.24    1.87
   4   0  -9   -0.01    1.50
   4   0  -9   -0.76    1.03
  -4   0   8    8.30    2.02
   4   0  -8    3.45    1.86
   4   0  -8    3.24    1.28
  -4   0   7    1.56    1.65
   4   0  -7    1.83    1.89
   4   0  -7    0.68    0.37
  -4   0   6    4.09    2.31
   4   0  -6    2.02    1.68
   4   0  -6    1.21    0.77
  -4   0   5   -0.27    1.56
   4   0  -5    0.22    1.75
  -4   0   4 1117.32   16.47
   4   0  -4 1094.93   16.34
  -4   0   3   -2.74    1.72
   4   0  -3   -2.88    2.01
  -4   0   2 3940.76   47.51
   4   0  -2 4046.06   15.54
  -4   0   1    1.53    1.09
   4   0  -1    1.47    1.28
  -4   0   0  796.52   10.89
   4   0   0  811.13   11.17
   4   0   0  788.95   11.50
  -4   0  -1   -0.24    0.85
   4   0   1   -0.79    0.96
   4   0   1   -0.85    1.39
  -4   0  -1   -0.68    1.72
   4   0   2 1955.81   24.79
   4   0   2 1841.52   25.13
   4   0   3    0.16    0.54
   4   0   3   -0.15    1.45
   4   0   3   -0.24    1.40
  -4   0  -3    1.38    0.99
   4   0   4 1021.58   17.09
   4   0   4 1046.82   18.34
   4   0   4 1003.91   19.05
  -4   0  -4 1019.06   18.63
   4   0   5    0.53    0.64
   4   0   5   -0.45    1.27
   4   0   5   -0.44    1.30
  -4   0  -5   -0.64    1.65
   4   0   6   73.87    4.55
   4   0   6   66.32    3.67
   4   0   6   84.81    7.66
  -4   0  -6   67.58    5.67
   4   0   7   -1.58    0.87
   4   0   7   -1.59    1.38
   4   0   7    0.45    1.17
  -4   0  -7   -1.89    1.42
   4   0   8  322.64    6.93
   4   0   8  318.10    8.41
   4   0   8  308.20    7.87
  -4   0  -8  312.85    8.63
   4   0   9    0.01    0.53
   4   0   9   -0.23    1.32
   4   0   9   -0.69    1.41
  -4   0  -9    0.86    0.78
  -6   0  12  111.42    6.41
   6   0 -12   98.10    6.09
   6   0 -12   99.57    7.32
  -6   0  11    3.69    2.37
   6   0 -11    2.86    2.20
   6   0 -11   -0.04    0.93
  -6   0  10  823.10   16.03
   6   0 -10  789.96   15.60
   6   0 -10  827.40   13.56
  -6   0   9   -2.13    1.99
   6   0  -9   -1.19    1.61
   6   0  -9   -0.08    0.87
  -6   0   8    7.74    2.14
   6   0  -8    6.39    1.68
   6   0  -8    8.78    2.26
  -6   0   7   -0.96    1.65
   6   0  -7    1.85    1.73
  -6   0   6   82.58    3.82
   6   0  -6   75.21    3.68
  -6   0   5    0.07    1.53
   6   0  -5   -1.92    1.63
  -6   0   4 1055.06   16.01
   6   0  -4 1068.85   16.51
  -6   0   3    0.47    1.28
   6   0  -3   -0.46    1.52
  -6   0   2  309.82    6.03
   6   0  -2  295.28    4.95
  -6   0   1    0.45    0.49
   6   0  -1   -0.64    1.14
   6   0  -1    0.97    1.26
  -6   0   0 1100.99   15.17
   6   0   0 1079.02   15.12
   6   0   0 1098.01   17.20
  -6   0  -1    0.59    0.80
   6   0   1    1.30    0.81
   6   0   1    0.81    1.12
  -6   0  -2 2113.17   32.79
   6   0   2 2143.74   32.76
   6   0   2 2139.67   34.16
   6   0   3    0.63    0.51
   6   0   3   -0.04    1.34
   6   0   3    0.70    0.97
  -6   0  -3   -0.48    1.63
   6   0   4  603.97    9.97
   6   0   4  602.11   11.15
   6   0   4  597.12   11.59
  -6   0  -4  608.04   12.22
   6   0   5    0.39    0.57
   6   0   5   -0.18    1.50
   6   0   5   -0.46    1.05
  -6   0  -5    0.04    1.05
   6   0   6   36.47    3.14
   6   0   6   32.21    3.01
   6   0   6   33.11    3.03
  -6   0  -6   36.31    8.28
   6   0   7   -0.64    0.89
   6   0   7    0.97    1.88
   6   0   7   -1.42    1.46
  -6   0  -7    3.08    1.30
   6   0   8  387.96    9.40
   6   0   8  360.24   10.78
  -6   0  -8  371.50   11.34
  -8   0  12   29.91    3.32
   8   0 -12   27.82    3.51
   8   0 -12   25.47    7.26
  -8   0  11    0.51    1.67
   8   0 -11    1.80    1.61
   8   0 -11   -0.39    0.84
  -8   0  10  746.31   14.98
   8   0 -10  741.01   15.33
   8   0 -10  745.56   12.90
  -8   0   9   -0.47    1.75
   8   0  -9    0.96    1.69
   8   0  -9    0.85    0.60
  -8   0   8   49.99    3.79
   8   0  -8   43.62    3.40
  -8   0   7    0.89    1.63
   8   0  -7    1.84    2.29
  -8   0   6  161.49    5.27
   8   0  -6  151.87    5.46
  -8   0   5    0.29    1.38
   8   0  -5    0.01    1.61
  -8   0   4   10.25    2.07
   8   0  -4   11.64    2.00
  -8   0   3    0.95    1.29
   8   0  -3    0.67    1.72
  -8   0   2 2369.44   36.40
   8   0  -2 2370.42   36.77
  -8   0   1   -0.49    0.91
   8   0  -1    0.42    1.18
   8   0  -1    1.87    1.47
  -8   0   0 1984.51   30.86
   8   0   0 1896.29   29.81
   8   0   0 1966.66   31.80
  -8   0  -1    0.43    0.47
   8   0   1    0.63    0.58
   8   0   1    2.25    1.49
  -8   0  -2  307.62    6.56
   8   0   2  313.47    6.63
   8   0   2  313.88    8.08
   8   0   3    0.67    0.84
   8   0   3    2.33    1.47
   8   0   3    0.58    0.85
   8   0   4 1186.81   26.74
   8   0   4 1164.11   27.22
   8   0   4 1181.29   28.14
   8   0   5    0.66    0.68
   8   0   5   -1.37    1.40
   8   0   5   -0.90    1.55
   8   0   6  375.28    9.62
   8   0   6  389.37   11.02
   8   0   6  403.02   11.76
   8   0   7    0.91    0.60
   8   0   7   -0.87    1.36
  10   0 -12  104.65    6.41
  10   0 -12  129.65    9.81
 -10   0  11    1.71    1.64
  10   0 -11    3.02    1.83
  10   0 -11    0.24    0.43
 -10   0  10  167.70    6.73
  10   0 -10  160.44    6.77
  10   0 -10  161.34    4.61
 -10   0   9    0.10    1.68
  10   0  -9    0.83    1.68
 -10   0   8 1789.90   18.37
  10   0  -8 1792.07   19.14
 -10   0   7    3.31    2.22
  10   0  -7    4.23    2.55
 -10   0   6   14.74    2.22
  10   0  -6   14.99    2.66
 -10   0   5    0.14    1.34
  10   0  -5   -0.09    1.84
 -10   0   4  429.32    7.59
  10   0  -4  435.29    8.32
 -10   0   3   -0.10    1.25
  10   0  -3    1.61    1.56
 -10   0   2  148.22    7.61
  10   0  -2  145.63    4.55
  10   0  -2  131.33    4.52
 -10   0   1   -0.02    0.98
  10   0  -1    1.16    1.12
  10   0  -1    0.37    0.77
 -10   0   0  529.41    9.62
  10   0   0  521.90    9.68
  10   0   0  535.16   11.11
 -10   0  -1    0.78    0.58
  10   0   1    1.37    1.04
  10   0   1    2.27    1.24
 -10   0  -2  511.62   13.12
  10   0   2  503.85   13.03
  10   0   2  513.32   14.51
  10   0   3   -0.50    0.88
  10   0   3    0.20    1.44
  10   0   3   -0.05    1.51
  10   0   4  149.66    8.05
  10   0   4  158.32    6.10
  10   0   4  150.32    6.19
  10   0   5   -0.80    1.00
  10   0   5    1.09    1.67
  10   0   5    0.75    1.34
 -12   0  11    5.50    2.97
  12   0 -11   -0.33    1.66
  12   0 -11    1.25    0.79
 -12   0  10   57.23    4.46
  12   0 -10   57.31    4.31
 -12   0   9    0.93    1.56
  12   0  -9    4.75    2.77
 -12   0   8  164.08    6.43
  12   0  -8  151.94    6.71
 -12   0   7    5.48    2.10
  12   0  -7   -1.70    1.43
 -12   0   6  305.09    9.79
  12   0  -6  305.70   10.17
 -12   0   5    1.49    1.37
  12   0  -5    0.93    1.46
 -12   0   4   96.82    7.78
  12   0  -4   97.25    4.60
  12   0  -4   97.44    4.68
 -12   0   3    0.77    0.75
  12   0  -3   -0.52    1.29
  12   0  -3    0.75    0.86
 -12   0   2  360.24   10.23
  12   0  -2  344.06   10.20
  12   0  -2  347.03   10.63
 -12   0   1    0.54    0.54
  12   0  -1    2.71    1.33
  12   0   0   94.41    4.41
  12   0   0   77.94    5.59
 -12   0  -1    0.46    0.63
  12   0   1    0.56    1.04
  12   0   1    1.30    0.83
 -12   0  -2   63.23    7.30
  12   0   2   72.38    3.70
  12   0   2   75.19    8.07
  12   0   3   -0.41    1.03
  12   0   3    1.07    1.52
  12   0   3    0.25    1.42
  14   0 -10  267.25    9.55
 -14   0   9   -0.95    1.41
  14   0  -9   -2.11    1.74
 -14   0   8  129.19    5.60
  14   0  -8  130.62    6.10
 -14   0   7    0.82    1.45
  14   0  -7    2.01    1.46
 -14   0   6   47.99    3.58
  14   0  -6   44.56    3.53
 -14   0   5   -0.32    1.20
  14   0  -5   -1.92    1.40
  14   0  -5   -0.25    1.18
 -14   0   4    3.21    1.24
  14   0  -4    1.28    2.01
  14   0  -4    1.41    0.87
 -14   0   3    0.46    1.03
  14   0  -3    1.08    1.33
  14   0  -3    0.52    1.18
 -14   0   2    3.39    2.28
  14   0  -2    4.61    1.63
  14   0  -2    3.69    1.23
 -14   0   1   -0.77    1.04
  14   0  -1    0.79    1.14
  14   0  -1    1.12    1.06
 -14   0   0    0.71    0.71
  14   0   0    0.59    1.27
  14   0   0    0.94    1.03
 -14   0  -1    0.57    0.70
  14   0   1    0.26    1.26
  14   0   1   -0.94    1.56
  16   0  -8   47.41    4.17
 -16   0   7    3.17    2.11
  16   0  -7   -0.21    1.47
  16   0  -7    0.53    0.62
 -16   0   6  296.04    8.96
  16   0  -6  308.88    9.98
  16   0  -6  319.59    9.07
 -16   0   5    1.01    0.62
  16   0  -5    1.80    1.58
  16   0  -5    0.40    0.95
 -16   0   4   13.66    4.39
  16   0  -4   20.08    2.66
  16   0  -4   14.91    5.13
 -16   0   3    1.03    0.90
  16   0  -3   -2.27    1.36
  16   0  -3    0.83    0.56
  16   0  -2  156.82    6.51
  16   0  -2  159.84    7.04
 -15   1   1  248.85   10.17
  15  -1  -1  255.60    8.11
  15  -1  -1  216.51    8.10
 -15   1   2  294.28    8.45
  15  -1  -2  292.63    8.86
  15  -1  -2  297.41    9.71
 -15   1   3   25.15    7.50
  15  -1  -3   30.73    2.94
  15  -1  -3   20.90    7.90
 -15   1   4   68.21    5.68
  15  -1  -4   79.65    4.89
  15  -1  -4   70.60    7.05
 -15   1   5  157.06   10.89
  15  -1  -5  186.82    7.60
 -15   1   6    4.93    1.44
  15  -1  -6    7.35    2.36
 -15   1   7  365.34   10.85
  15  -1  -7  392.81   12.01
 -15   1   8   92.18    5.25
  15  -1  -8   97.24    5.97
  15  -1  -9   12.06    3.16
 -13   1  -2   44.19    5.67
  13  -1   2   50.51    3.54
 -13   1  -1   31.20    9.72
  13  -1   1   33.96    2.84
  13  -1   1   32.11   12.12
 -13   1   0   10.23    3.48
  13  -1   0   14.83    2.21
  13  -1   0    9.12    2.83
 -13   1   1  276.00   19.04
  13  -1  -1  293.21    7.53
  13  -1  -1  297.51    8.42
 -13   1   2   22.63    7.59
  13  -1  -2   25.88    2.51
  13  -1  -2   22.70    6.47
 -13   1   3  346.69    8.38
  13  -1  -3  357.16    9.12
  13  -1  -3  365.93    9.86
 -13   1   4  279.24    7.58
  13  -1  -4  303.06    8.54
 -13   1   5   10.60    3.35
  13  -1  -5    9.99    2.30
 -13   1   6   20.92    2.45
  13  -1  -6   21.67    2.72
 -13   1   7  155.91    6.05
  13  -1  -7  146.35    6.23
 -13   1   8    0.14    1.48
  13  -1  -8    0.64    1.48
 -13   1   9  207.80    7.22
  13  -1  -9  204.68    7.66
 -13   1  10   17.81    2.60
  13  -1 -10   23.76    3.36
  13  -1 -11   -0.78    1.86
  11  -1   4    0.70    0.60
  11  -1   4    4.11    2.32
  11  -1   4    2.13    1.18
  11  -1   3  107.11    6.81
  11  -1   3  110.83    5.42
  11  -1   3  107.67    7.97
 -11   1  -2    0.76    1.14
  11  -1   2   -0.24    1.11
  11  -1   2    1.99    1.40
 -11   1  -1  218.68    6.18
  11  -1   1  227.02    7.62
 -11   1   0  278.60    8.52
  11  -1   0  288.02    9.80
 -11   1   1    2.31    0.75
  11  -1  -1   -0.62    1.10
  11  -1  -1   -0.26    0.89
 -11   1   2  314.40    6.68
  11  -1  -2  320.37    7.23
 -11   1   3  442.28    9.16
  11  -1  -3  434.03    9.45
 -11   1   4   64.25    5.79
  11  -1  -4   67.89    3.75
 -11   1   5  250.43    6.55
  11  -1  -5  253.81    6.94
 -11   1   6  348.06    8.08
  11  -1  -6  362.42    8.80
 -11   1   7  146.72    6.33
  11  -1  -7  148.67    6.77
 -11   1   8   71.25    4.20
  11  -1  -8   65.80    4.27
 -11   1   9    0.65    1.46
  11  -1  -9   -0.13    1.55
 -11   1  10    3.11    1.47
  11  -1 -10    5.09    2.01
 -11   1  11    6.84    1.92
  11  -1 -12    3.54    2.97
   9  -1   6   46.87   10.30
   9  -1   6   61.93    4.39
   9  -1   5  114.67    9.04
   9  -1   5  121.15    6.13
   9  -1   5  117.06   11.23
   9  -1   4    4.89    0.89
   9  -1   4    4.95    2.34
   9  -1   4    4.15    0.91
   9  -1   3  112.77    9.43
   9  -1   3  110.23   12.19
  -9   1  -2    4.88    1.18
   9  -1   2    5.58    1.21
   9  -1   2    5.02    1.52
  -9   1  -1    0.63    0.67
   9  -1   1    2.58    1.16
   9  -1   1    0.30    1.02
  -9   1   0   96.15    7.60
   9  -1   0   88.46    3.46
   9  -1   0   85.19    8.22
  -9   1   1  151.96    4.24
   9  -1  -1  151.35    4.64
  -9   1   2  703.34    9.39
   9  -1  -2  717.33    9.56
  -9   1   3  749.91    9.39
   9  -1  -3  734.66    9.87
  -9   1   4  242.38    5.74
   9  -1  -4  261.82    6.39
  -9   1   5   78.30    3.63
   9  -1  -5   84.60    4.16
  -9   1   6   37.08    2.90
   9  -1  -6   39.23    3.52
  -9   1   7   46.50    3.20
   9  -1  -7   49.57    3.66
  -9   1   8  231.09    6.90
   9  -1  -8  246.00    7.72
  -9   1   9  584.26   16.26
   9  -1  -9  530.81   15.25
  -9   1  10   94.57    5.03
   9  -1 -10   87.38    5.27
  -9   1  11   12.00    2.92
   9  -1 -11   10.87    2.58
   9  -1 -11   10.21    3.08
  -9   1  12   -0.78    1.64
   9  -1 -12    2.90    2.66
   9  -1 -12    0.09    0.98
   7  -1   7  145.14    7.99
   7  -1   7  138.34    6.49
   7  -1   7  134.21   17.23
   7  -1   6   98.21    8.05
   7  -1   6   97.60    5.23
   7  -1   6  101.45    9.55
   7  -1   5   64.25    5.20
   7  -1   5   68.43    4.03
   7  -1   5   71.68    5.14
   7  -1   4    1.96    1.34
   7  -1   4    0.43    1.56
   7  -1   4    1.07    0.70
   7  -1   3   17.34    4.07
   7  -1   3   17.28    2.24
   7  -1   3   16.64    4.49
  -7   1  -2    0.69    0.78
   7  -1   2    0.80    0.58
   7  -1   2    0.58    1.05
  -7   1  -1   55.98    2.83
   7  -1   1   57.74    4.04
   7  -1   1   57.88    4.86
  -7   1   0  553.88   11.14
   7  -1   0  564.47   10.82
   7  -1   0  581.75   12.22
  -7   1   1   72.18    4.88
   7  -1  -1   74.14    2.84
  -7   1   2  244.69    4.85
   7  -1  -2  244.81    6.25
  -7   1   3   12.25    1.64
   7  -1  -3   10.44    1.80
  -7   1   4 1353.33   22.65
   7  -1  -4 1342.82   22.65
  -7   1   5 2350.25   37.16
   7  -1  -5 2384.19   17.86
  -7   1   6  507.72    8.55
   7  -1  -6  497.94    8.81
  -7   1   7   82.09    4.18
   7  -1  -7   78.63    4.27
  -7   1   8   95.02    4.56
   7  -1  -8   85.61    4.28
  -7   1   9   -1.01    1.68
   7  -1  -9   -2.53    1.53
   7  -1  -9    2.14    1.52
  -7   1  10  333.49    9.34
   7  -1 -10  335.42    9.73
   7  -1 -10  333.99   11.48
  -7   1  11  384.72    9.75
   7  -1 -11  380.54    9.94
   7  -1 -11  393.00    8.35
  -7   1  12    3.10    1.67
   7  -1 -12    5.29    2.55
   7  -1 -12    4.22    1.38
   5  -1   8   80.33    5.12
   5  -1   8   76.42    4.99
   5  -1   8   70.38   14.67
   5  -1   7  103.84    5.84
   5  -1   7  101.43    5.05
   5  -1   7  102.60   14.55
   5  -1   6  342.38   10.49
   5  -1   5   -0.24    0.88
   5  -1   5    1.32    1.82
   5  -1   5    1.17    1.84
   5  -1   4  107.40    5.12
   5  -1   4  107.09    4.46
   5  -1   4  114.41    6.09
   5  -1   3  868.74   15.18
   5  -1   3  851.94   15.90
   5  -1   3  876.61   16.33
  -5   1  -2   -0.94    1.60
   5  -1   2    0.36    0.40
   5  -1   2   -0.58    1.52
  -5   1  -1 1222.62   16.81
   5  -1   1 1214.76   16.79
   5  -1   1 1249.65   18.98
  -5   1   0   38.21    2.74
   5  -1   0   35.92    3.47
  -5   1   1  425.80    7.19
   5  -1  -1  432.60    7.45
  -5   1   2   90.51    2.82
   5  -1  -2   87.36    2.91
  -5   1   3  392.21    7.27
   5  -1  -3  390.81    7.46
  -5   1   4   51.61    2.56
   5  -1  -4   51.60    3.19
  -5   1   5   74.44    3.72
   5  -1  -5   72.33    3.32
  -5   1   6  578.81   11.91
   5  -1  -6  560.95   11.85
  -5   1   7 1147.18   13.08
   5  -1  -7 1159.11   13.43
  -5   1   8  255.27    7.33
   5  -1  -8  251.60    7.64
   5  -1  -8  260.60    6.59
  -5   1   9  130.51    5.76
   5  -1  -9  130.26    5.65
   5  -1  -9  121.16    6.57
  -5   1  10   44.31    3.54
   5  -1 -10   40.25    3.51
   5  -1 -10   48.25   10.83
  -5   1  11    1.24    1.50
   5  -1 -11    1.41    1.53
   5  -1 -11    0.58    1.15
  -5   1  12   72.45    5.17
   5  -1 -12   65.49    4.64
   5  -1 -12   70.66    7.87
   3  -1   9    0.53    0.74
   3  -1   9    2.90    2.22
   3  -1   9    0.42    0.52
  -3   1  -9    1.87    1.71
   3  -1   8  411.20    8.13
   3  -1   8  388.00    9.32
   3  -1   8  406.63    8.55
  -3   1  -8  399.83   19.42
   3  -1   7  890.35   21.44
  -3   1  -7  894.52   22.38
   3  -1   6    2.02    0.98
   3  -1   6    3.21    1.84
   3  -1   6    2.39    0.97
  -3   1  -6    2.04    0.78
   3  -1   5  326.54    6.03
   3  -1   5  321.21    7.09
   3  -1   5  309.44    7.59
  -3   1  -5  322.93    7.23
   3  -1   4  315.44    7.00
   3  -1   4  309.03    7.78
   3  -1   4  303.74    7.31
  -3   1  -4  315.30    7.92
   3  -1   3  329.08    6.31
   3  -1   3  322.90    7.17
   3  -1   3  321.65    7.56
   3  -1   2  301.33    4.94
   3  -1   2  300.40    5.24
   3  -1   2  306.03    6.26
  -3   1  -1 1027.35   13.79
   3  -1   1 1064.67   14.29
  -3   1   0    8.13    2.49
   3  -1   0    8.07    3.17
  -3   1   1  439.39    7.24
   3  -1  -1  451.89    7.09
  -3   1   2 1106.07   14.73
   3  -1  -2 1080.03   14.54
  -3   1   3 2108.91   27.13
   3  -1  -3 2107.61   27.02
  -3   1   4  887.11   13.43
   3  -1  -4  901.81   13.69
  -3   1   5   23.76    2.41
   3  -1  -5   23.70    2.45
  -3   1   6   31.49    2.63
   3  -1  -6   25.23    2.55
   3  -1  -6   33.67    4.99
  -3   1   7   66.06    3.58
   3  -1  -7   64.11    3.40
   3  -1  -7   68.31    3.22
  -3   1   8 1107.81   17.48
   3  -1  -8 1133.40   17.84
   3  -1  -8 1138.72   17.14
  -3   1   9  253.54    8.87
   3  -1  -9  238.97    8.45
   3  -1  -9  239.31   13.37
  -3   1  10   41.82    3.63
   3  -1 -10   42.78    3.48
   3  -1 -10   39.55    3.02
  -3   1  11    1.83    1.56
   3  -1 -11    1.38    1.52
   3  -1 -11    3.11    2.23
   1  -1  10  108.80    5.05
   1  -1  10  102.47    5.63
  -1   1 -10   95.58    9.79
   1  -1   9  200.67    6.83
  -1   1  -9  193.56    6.86
   1  -1   9  198.37    5.89
  -1   1  -9  186.94    6.38
  -1   1  -8  306.59    9.97
   1  -1   8  316.23    9.35
  -1   1  -8  298.23    9.50
   1  -1   7    3.42    2.05
  -1   1  -7   -0.02    1.62
   1  -1   7   -0.22    1.10
  -1   1  -7    0.16    0.96
   1  -1   6 1186.07   13.06
  -1   1  -6 1178.47   13.16
   1  -1   6 1165.51   12.24
  -1   1  -6 1170.23   12.39
   1  -1   5 1793.99   29.13
  -1   1  -5 1768.19   28.90
   1  -1   5 1727.23   27.29
  -1   1  -5 1668.20   27.05
   1  -1   4   13.63    1.87
  -1   1  -4    6.43    1.75
   1  -1   4   17.93    4.03
  -1   1  -4   16.02    3.25
   1  -1   3  125.30    3.70
  -1   1  -3  116.37    3.78
   1  -1   3  125.28    3.69
  -1   1  -3  123.55    4.00
   1  -1   2  105.08    3.06
  -1   1  -2  100.95    2.99
   1  -1   2  105.70    2.69
   1  -1   1  189.96    2.79
   1  -1   1  202.37    4.20
  -1   1   0   11.51    2.71
   1  -1   0   10.44    0.94
  -1   1   1    9.68    1.52
   1  -1  -1    6.53    0.81
  -1   1   2   11.24    2.58
   1  -1  -2   10.09    2.33
  -1   1   3  255.49    4.04
   1  -1  -3  262.22    4.18
  -1   1   4  443.75    7.73
   1  -1  -4  432.68    7.59
   1  -1  -4  440.67    7.92
  -1   1   5  630.42   11.75
   1  -1  -5  608.33   11.52
   1  -1  -5  628.13   11.80
  -1   1   6  971.82   17.26
   1  -1  -6  965.80   17.13
   1  -1  -6  972.73   18.10
  -1   1   7  268.63    6.37
   1  -1  -7  266.19    6.34
   1  -1  -7  274.50    6.35
  -1   1   8    3.34    1.73
   1  -1  -8    2.83    1.53
   1  -1  -8    2.74    1.04
  -1   1   9  199.04    6.89
   1  -1  -9  189.01    6.46
   1  -1  -9  183.52    9.84
  -1   1  10  393.98    9.13
   1  -1 -10  395.93    9.38
   1  -1 -11    4.51    2.03
   1  -1 -11    5.28    1.83
  -1  -1  11    3.67    1.69
   1   1 -11    4.89    2.04
   1   1 -11    6.12    1.57
  -1  -1  10  376.30    9.45
   1   1 -10  389.80    9.84
   1   1 -10  369.86    8.73
  -1  -1   9  207.11    7.42
   1   1  -9  194.10    6.88
   1   1  -9  197.82    8.30
  -1  -1   8    7.53    2.17
   1   1  -8    5.34    2.40
   1   1  -8    2.33    2.00
  -1  -1   7  279.33    6.98
   1   1  -7  287.54    7.40
  -1  -1   7  271.37    5.46
   1   1  -7  272.86    9.78
  -1  -1   6  978.82   17.95
   1   1  -6  965.40   17.87
  -1  -1   6  969.81   16.58
   1   1  -6  972.98   16.96
  -1  -1   5  644.04   12.52
   1   1  -5  639.45   12.56
  -1  -1   5  632.41   11.27
   1   1  -5  622.98   11.29
  -1  -1   4  451.90    8.44
   1   1  -4  434.68    8.24
  -1  -1   4  443.48    7.93
   1   1  -4  441.02    7.33
  -1  -1   3  273.38    4.93
   1   1  -3  269.74    4.75
  -1  -1   3  273.41    5.02
   1   1  -3  262.32    5.56
  -1  -1   2    6.10    2.06
   1   1  -2    8.11    2.18
  -1  -1   2    1.69    1.29
  -1  -1   1    5.11    0.81
   1   1  -1    9.40    1.85
  -1  -1   0    8.24    0.48
   1   1   0   10.86    0.80
  -1  -1  -1  194.17    1.86
  -1  -1  -1  184.63    3.35
   1   1   2  102.93    2.32
  -1  -1  -2  105.37    2.22
   1   1   2   98.28    2.69
  -1  -1  -2  100.06    2.75
   1   1   3  123.22    2.80
  -1  -1  -3  122.72    2.81
   1   1   3  123.92    3.26
  -1  -1  -3  123.42    3.85
   1   1   4   16.33    1.61
  -1  -1  -4   16.38    1.86
   1   1   4   17.55    2.08
  -1  -1  -4   17.32    4.56
   1   1   5 1737.72   27.53
  -1  -1  -5 1747.75   27.67
  -1  -1  -5 1748.57   28.35
   1   1   6 1172.15   11.56
  -1  -1  -6 1172.37   11.63
  -1  -1  -6 1163.06   12.67
   1   1   7    0.29    1.29
  -1  -1  -7    1.10    1.40
  -1  -1  -7    1.24    1.04
   1   1   8  310.40    9.75
  -1  -1  -8  329.27   10.12
   1   1   9  197.22    6.20
  -1  -1  -9  199.89    6.19
  -1  -1  -9  197.71   10.30
   1   1  10  113.87    5.66
  -1  -1 -10  106.91    5.30
  -1  -1 -10   93.46    6.90
  -3  -1  11    3.89    2.36
   3   1 -11    5.82    2.23
   3   1 -11    2.59    1.15
  -3  -1  10   45.07    3.87
   3   1 -10   39.02    3.51
   3   1 -10   42.33    7.08
  -3  -1   9  245.85    8.91
   3   1  -9  253.46    9.03
   3   1  -9  260.17   11.86
  -3  -1   8 1096.21   17.79
   3   1  -8 1116.22   18.30
   3   1  -8 1092.35   15.84
  -3  -1   7   69.36    3.91
   3   1  -7   69.56    3.96
   3   1  -7   71.23    3.96
  -3  -1   6   32.16    2.67
   3   1  -6   29.01    2.94
   3   1  -6   33.10    3.91
  -3  -1   5   27.81    2.66
   3   1  -5   20.55    2.41
   3   1  -5   26.73    3.65
  -3  -1   4  932.64   14.15
   3   1  -4  942.82   14.38
   3   1  -4  926.16   12.09
  -3  -1   3 2280.67   29.05
   3   1  -3 2203.95   28.29
   3   1  -3 2224.78   26.09
  -3  -1   2 1157.05   15.60
   3   1  -2 1131.66   15.30
  -3  -1   1  434.93    6.85
   3   1  -1  437.07    7.06
   3   1  -1  441.19    6.17
  -3  -1   0    3.93    0.86
   3   1   0    2.67    1.10
   3   1   0    0.91    0.74
  -3  -1   0    3.78    1.43
  -3  -1  -1 1041.27   13.01
   3   1   1 1017.57   12.92
   3   1   1  996.84   13.93
  -3  -1  -1 1013.30   14.22
   3   1   2  294.99    3.37
   3   1   2  290.72    3.89
   3   1   2  295.96    4.92
  -3  -1  -2  293.01    5.12
   3   1   3  321.58    5.80
   3   1   3  315.48    5.91
   3   1   3  318.99    6.73
  -3  -1  -3  313.56    6.87
   3   1   4  299.95    6.17
   3   1   4  301.06    6.68
   3   1   4  292.68    7.18
  -3  -1  -4  314.70    7.82
   3   1   5  318.42    5.09
   3   1   5  306.85    5.84
   3   1   5  309.61    6.59
  -3  -1  -5  304.43    7.39
   3   1   6    1.86    1.07
   3   1   6    1.51    1.24
   3   1   6    1.18    0.81
  -3  -1  -6    2.73    1.62
   3   1   7  904.14   20.77
   3   1   7  851.37   20.48
   3   1   7  854.25   21.16
  -3  -1  -7  874.24   21.96
   3   1   8  413.03    7.30
   3   1   8  409.45    8.53
  -3  -1  -8  418.18    9.78
   3   1   9    1.14    0.76
   3   1   9    0.80    1.47
  -3  -1  -9    1.55    1.02
  -5  -1  12   78.39    5.55
   5   1 -12   64.30    4.96
   5   1 -12   66.69    8.37
  -5  -1  11    0.37    1.54
   5   1 -11    5.88    2.86
   5   1 -11    1.48    0.85
  -5  -1  10   47.13    3.98
   5   1 -10   39.60    3.50
   5   1 -10   47.11    4.18
  -5  -1   9  125.28    5.56
   5   1  -9  129.42    5.71
   5   1  -9  119.77    9.65
  -5  -1   8  249.42    7.43
   5   1  -8  246.01    7.61
   5   1  -8  262.10    5.71
  -5  -1   7 1170.73   13.54
   5   1  -7 1177.15   14.13
   5   1  -7 1175.85    9.07
  -5  -1   6  594.80   12.38
   5   1  -6  606.69   12.92
   5   1  -6  620.38   10.44
  -5  -1   5   81.02    3.56
   5   1  -5   77.39    3.79
  -5  -1   4   54.57    2.80
   5   1  -4   52.49    2.80
  -5  -1   3  386.51    7.28
   5   1  -3  381.41    7.45
  -5  -1   2   84.94    2.55
   5   1  -2   85.54    3.07
   5   1  -2   95.09    2.21
  -5  -1   1  417.88    6.72
   5   1  -1  421.93    7.04
   5   1  -1  444.57    7.23
  -5  -1   0   37.79    1.58
   5   1   0   35.18    1.62
   5   1   0   34.56    2.60
  -5  -1   0   36.24    3.78
  -5  -1  -1 1196.12   15.57
   5   1   1 1191.41   15.67
   5   1   1 1181.30   16.99
  -5  -1  -1 1196.79   17.25
  -5  -1  -2    1.11    0.93
   5   1   2    0.41    0.71
   5   1   2   -0.39    1.39
  -5  -1  -2    0.58    1.24
   5   1   3  837.01   13.87
   5   1   3  854.88   14.83
   5   1   3  847.81   16.58
  -5  -1  -3  844.80   15.98
   5   1   4  107.73    4.98
   5   1   4  106.48    3.73
   5   1   4  112.84    6.02
  -5  -1  -4  107.74   10.24
   5   1   5    0.96    0.67
   5   1   5    2.71    1.64
   5   1   5    0.20    0.93
  -5  -1  -5   -0.13    1.20
   5   1   6  333.41    8.98
   5   1   6  322.15    9.58
   5   1   6  320.53   10.06
  -5  -1  -6  337.33   10.86
   5   1   7  100.75    6.82
   5   1   7  104.63    4.60
   5   1   7   92.02    7.17
  -5  -1  -7   95.85    7.48
   5   1   8   76.21    8.92
   5   1   8   84.25    4.78
   5   1   8   70.83    4.82
  -5  -1  -8   65.49   18.00
  -5  -1  -9  114.66    8.50
   7   1 -12    2.56    1.95
   7   1 -12    1.51    1.81
  -7  -1  11  352.28    9.69
   7   1 -11  379.21   10.26
   7   1 -11  370.14    6.98
  -7  -1  10  365.12   10.31
   7   1 -10  321.46    9.90
   7   1 -10  333.04    6.90
  -7  -1   9    0.55    1.84
   7   1  -9    1.39    1.79
   7   1  -9   -0.42    0.74
  -7  -1   8   97.09    4.81
   7   1  -8   92.72    4.98
   7   1  -8   97.26    4.20
  -7  -1   7   81.09    4.38
   7   1  -7   91.76    4.60
   7   1  -7   81.38    4.92
  -7  -1   6  509.09    8.77
   7   1  -6  494.03    8.99
  -7  -1   5 2359.78   37.32
   7   1  -5 2393.11   18.05
  -7  -1   4 1448.87   24.12
   7   1  -4 1366.96   23.10
  -7  -1   3   10.36    1.46
   7   1  -3   11.72    1.93
   7   1  -3   12.00    3.70
  -7  -1   2  243.17    4.45
   7   1  -2  235.62    4.94
   7   1  -2  251.08    5.69
  -7  -1   1   69.11    3.76
   7   1  -1   69.01    2.69
   7   1  -1   75.22    2.86
  -7  -1   0  553.06    9.89
   7   1   0  546.39   10.07
   7   1   0  548.61   11.46
  -7  -1  -1   59.98    3.46
   7   1   1   56.45    2.36
   7   1   1   60.08    2.98
  -7  -1  -1   58.93    3.85
  -7  -1  -2    0.78    0.77
   7   1   2    1.10    0.33
   7   1   2    1.58    1.24
  -7  -1  -2   -0.09    0.80
   7   1   3   19.66    2.19
   7   1   3   17.85    1.92
   7   1   3   19.68    5.21
  -7  -1  -3   21.45    3.84
   7   1   4    1.76    0.93
   7   1   4   -0.57    1.28
   7   1   4    0.13    1.21
  -7  -1  -4    1.03    0.83
   7   1   5   73.18    8.00
   7   1   5   70.81    3.56
   7   1   5   64.86    3.89
  -7  -1  -5   65.73   15.79
   7   1   6   96.77    3.73
   7   1   6  107.34    4.87
   7   1   6   84.47    6.32
  -7  -1  -6  101.46   13.29
   7   1   7  134.91    4.69
   7   1   7  155.67    6.19
   7   1   7  139.25    6.22
  -7  -1  -7  123.95   17.10
   9   1 -12    3.03    2.72
   9   1 -12    0.61    0.53
  -9  -1  11    7.58    1.84
   9   1 -11    9.48    2.46
   9   1 -11    9.00    2.30
  -9  -1  10  102.93    5.60
   9   1 -10   85.32    5.24
   9   1 -10   86.81    3.80
  -9  -1   9  569.25   16.15
   9   1  -9  555.38   16.08
  -9  -1   8  216.28    6.80
   9   1  -8  220.58    7.26
  -9  -1   7   52.75    3.65
   9   1  -7   47.93    3.68
  -9  -1   6   34.83    2.99
   9   1  -6   41.30    3.17
  -9  -1   5   79.86    3.60
   9   1  -5   74.60    3.90
  -9  -1   4  245.89    5.83
   9   1  -4  261.98    6.39
   9   1  -4  267.36    5.09
  -9  -1   3  744.08    9.01
   9   1  -3  730.55    9.67
   9   1  -3  754.25    8.57
  -9  -1   2  710.25    8.96
   9   1  -2  702.05    9.23
   9   1  -2  696.64    8.79
  -9  -1   1  158.45    6.45
   9   1  -1  147.52    4.22
   9   1  -1  146.57    4.64
  -9  -1   0   93.57    4.92
   9   1   0   93.98    3.40
   9   1   0   85.98    3.77
  -9  -1  -1    1.55    0.88
   9   1   1    2.40    1.42
   9   1   1    1.23    0.56
  -9  -1  -2    5.42    1.36
   9   1   2    4.93    1.21
   9   1   2    3.84    1.79
   9   1   3  104.95    5.43
   9   1   3  120.20    5.31
   9   1   3  106.25    5.26
   9   1   4    8.85    2.02
   9   1   4    4.91    1.69
   9   1   4    5.43    1.57
   9   1   5  111.22    5.76
   9   1   5  126.33    5.57
   9   1   5  106.69    7.82
   9   1   6   56.76    4.69
   9   1   6   66.55    4.14
  11   1 -12   -0.50    2.08
  11   1 -12    2.44    0.82
 -11  -1  11    7.44    2.72
  11   1 -11    7.47    2.64
  11   1 -11    5.76    1.40
 -11  -1  10    8.28    2.66
  11   1 -10    9.13    2.63
  11   1 -10    6.39    1.51
 -11  -1   9    3.98    2.29
  11   1  -9   -2.45    1.59
 -11  -1   8   74.81    4.48
  11   1  -8   73.19    4.68
 -11  -1   7  131.98    5.22
  11   1  -7  153.39    6.97
 -11  -1   6  368.96    8.18
  11   1  -6  363.26    8.61
 -11  -1   5  256.09    6.49
  11   1  -5  257.88    7.07
  11   1  -5  267.75    5.70
 -11  -1   4   66.35    3.34
  11   1  -4   72.33    3.97
  11   1  -4   61.82    4.30
 -11  -1   3  442.97   12.27
  11   1  -3  440.40    9.46
  11   1  -3  431.57    8.79
 -11  -1   2  323.68    6.37
  11   1  -2  323.37    7.17
  11   1  -2  310.14    6.85
 -11  -1   1    0.22    0.66
  11   1  -1    1.32    1.68
  11   1  -1   -0.47    1.30
 -11  -1   0  277.87    7.97
  11   1   0  278.08    8.40
  11   1   0  271.75    8.89
 -11  -1  -1  234.58   16.20
  11   1   1  213.70    5.82
 -11  -1  -2    0.53    0.64
  11   1   2    2.24    1.29
  11   1   2    0.68    0.89
  11   1   3  111.99    4.13
  11   1   3  112.69    4.99
  11   1   3  114.56    5.42
  11   1   4    4.53    1.52
  11   1   4    2.76    1.41
  11   1   4    1.12    1.55
  13   1 -11    1.97    2.18
 -13  -1  10   11.74    2.35
  13   1 -10   14.48    2.72
 -13  -1   9  204.57    7.23
  13   1  -9  201.12    7.52
 -13  -1   8    1.73    2.12
  13   1  -8    3.70    2.27
 -13  -1   7  149.62    5.79
  13   1  -7  156.12    6.54
  13   1  -7  154.98    4.57
 -13  -1   6   20.69    2.40
  13   1  -6   20.39    2.51
  13   1  -6   22.26    6.48
 -13  -1   5    8.45    1.71
  13   1  -5    7.56    1.99
  13   1  -5   11.80    3.35
  13   1  -4  295.66    8.33
  13   1  -4  283.18    8.89
 -13  -1   3  342.61    8.36
  13   1  -3  357.22    8.98
  13   1  -3  348.71    8.55
 -13  -1   2   26.88    2.30
  13   1  -2   25.59    2.56
  13   1  -2   19.72    6.46
 -13  -1   0    9.18    3.00
  13   1   0   13.07    2.02
  13   1   0   11.52    4.05
 -13  -1  -1   32.13    8.20
  13   1   1   39.09    2.96
  13   1   1   31.17   10.51
  13   1   2   44.42    3.18
  13   1   2   43.32    4.59
 -15  -1   9    6.81    2.22
  15   1  -9    5.45    1.62
  15   1  -9    5.90    2.40
 -15  -1   8   92.35    5.36
  15   1  -8   91.10    5.35
  15   1  -8   91.06    3.81
 -15  -1   7  383.60   10.96
  15   1  -7  390.35   11.75
  15   1  -7  403.47   10.16
 -15  -1   6    5.26    1.82
  15   1  -6    6.21    1.92
  15   1  -6    5.01    1.38
 -15  -1   5  169.59    7.61
  15   1  -5  182.05    7.48
  15   1  -5  183.43    6.58
 -15  -1   4   69.53    5.50
  15   1  -4   73.30    4.67
  15   1  -4   70.45    4.02
 -15  -1   3   31.48    2.46
  15   1  -3   30.88    3.08
  15   1  -3   25.05    8.73
 -15  -1   2  296.60    8.09
  15   1  -2  307.46    9.19
  15   1  -2  273.47    8.58
 -15  -1   1  260.27    7.31
  15   1  -1  251.33    7.82
  15   1  -1  240.02    8.01
  16  -2  -4   45.21    4.11
  16  -2  -4   31.63   13.93
  16  -2  -5   73.73    4.89
  16  -2  -6   22.61    3.19
 -14   2   0   39.21    4.35
  14  -2   0   40.47    3.31
  14  -2   0   27.64   12.52
 -14   2   1    2.19    1.19
  14  -2  -1    4.28    1.93
  14  -2  -1    0.83    1.25
 -14   2   2    2.82    2.16
  14  -2  -2    0.54    1.20
 -14   2   3   42.41    4.83
  14  -2  -3   53.91    3.77
 -14   2   4    4.17    1.82
  14  -2  -4    3.17    1.43
 -14   2   5    9.56    3.59
  14  -2  -5   15.87    3.14
 -14   2   6    7.80    2.65
  14  -2  -6    5.53    2.23
 -14   2   7  143.45    6.23
  14  -2  -7  170.94    7.58
 -14   2   8   31.93    3.29
  14  -2  -8   30.03    3.35
 -14   2   9  111.35    5.79
  14  -2  -9  115.20    6.36
  14  -2 -10    5.53    2.92
  12  -2   3   37.29   12.73
  12  -2   3   51.18    4.19
 -12   2  -2    0.99    0.83
  12  -2   2    1.10    1.04
  12  -2   2    0.61    0.69
 -12   2  -1  402.55   10.72
  12  -2   1  406.96    8.80
  12  -2   1  388.33   10.89
 -12   2   0   81.19    9.83
  12  -2   0   81.55    4.10
  12  -2   0   77.70   11.45
 -12   2   1   99.75   10.33
  12  -2  -1   93.56    4.36
  12  -2  -1   97.77    9.17
 -12   2   2    1.73    1.03
  12  -2  -2   -1.35    1.21
 -12   2   3   14.97    3.95
  12  -2  -3   12.33    1.94
 -12   2   4   19.46    7.15
  12  -2  -4   23.62    2.64
 -12   2   5    8.07    2.09
  12  -2  -5    5.99    1.79
 -12   2   6  100.06    4.89
  12  -2  -6   92.53    4.89
 -12   2   7   61.82    3.76
  12  -2  -7   62.58    4.25
 -12   2   8  116.33    5.30
  12  -2  -8  118.67    5.89
 -12   2   9   85.04    4.69
  12  -2  -9   80.53    4.82
 -12   2  10   97.94    5.46
  12  -2 -10   84.22    5.19
  12  -2 -11  160.46    7.77
  10  -2   5  247.40   11.88
  10  -2   5  265.50    9.24
  10  -2   4   68.79   10.34
  10  -2   4   83.16    5.28
  10  -2   4   73.01   10.17
  10  -2   3  398.86    8.30
  10  -2   3  387.90    9.49
  10  -2   3  387.56    9.74
 -10   2  -2   92.82    7.54
  10  -2   2  104.44    8.96
  10  -2   2  101.39    6.29
 -10   2  -1   39.39    3.95
  10  -2   1   34.92    3.35
  10  -2   1   32.17    9.12
 -10   2   0   91.03    6.40
  10  -2   0   89.59    3.78
  10  -2   0   87.52    5.44
 -10   2   1  326.84    6.77
  10  -2  -1  306.96    6.81
 -10   2   2  487.70    9.58
  10  -2  -2  509.61   10.28
 -10   2   3   14.26    2.72
  10  -2  -3   13.71    2.00
 -10   2   4  174.63    5.63
  10  -2  -4  182.18    5.93
 -10   2   5   68.92    3.65
  10  -2  -5   68.80    4.01
 -10   2   6  130.95    5.12
  10  -2  -6  126.78    5.47
 -10   2   7  135.14    5.38
  10  -2  -7  154.67    5.97
 -10   2   8   94.93    5.21
  10  -2  -8   80.79    4.72
 -10   2   9  169.50    6.57
  10  -2  -9  156.83    6.55
 -10   2  10   29.42    2.98
  10  -2 -10   30.54    3.40
 -10   2  11   41.49    3.62
  10  -2 -11   48.40    4.41
   8  -2   6   31.61    8.81
   8  -2   6   39.82    3.85
   8  -2   6   35.69    3.86
   8  -2   5    9.47    2.32
   8  -2   5    7.29    2.52
   8  -2   5   10.45    2.70
   8  -2   4  287.24    7.34
   8  -2   4  265.37    8.11
   8  -2   4  271.66    8.21
   8  -2   3  794.06   19.39
   8  -2   3  776.07   20.65
  -8   2  -2  491.79    8.20
   8  -2   2  493.14    8.11
   8  -2   2  489.55    9.65
  -8   2  -1 1288.66   18.86
   8  -2   1 1276.12   18.33
   8  -2   1 1323.43   21.77
  -8   2   0   31.61    2.65
   8  -2   0   31.25    3.73
  -8   2   1   13.46    3.00
   8  -2  -1   12.35    2.00
  -8   2   2  287.80    5.65
   8  -2  -2  281.85    6.01
  -8   2   3  277.17    6.90
   8  -2  -3  286.53    7.39
  -8   2   4  588.13    8.45
   8  -2  -4  597.11    9.23
  -8   2   6  127.48    4.87
   8  -2  -6  132.57    5.38
  -8   2   7    4.26    1.72
   8  -2  -7    3.21    1.81
  -8   2   8   28.03    2.74
   8  -2  -8   24.30    2.83
   8  -2  -9  284.40    8.57
  -8   2  10    1.77    1.58
   8  -2 -10    0.89    1.57
  -8   2  11  118.30    6.07
   8  -2 -11  112.68    6.08
   8  -2 -11  111.93    7.18
  -8   2  12    1.40    1.59
   8  -2 -12    0.27    1.66
   8  -2 -12    1.12    1.37
   6  -2   8   30.11    7.20
   6  -2   8   35.27    4.09
   6  -2   8   36.29    3.54
   6  -2   7   27.13    4.46
   6  -2   7   31.72    3.35
   6  -2   7   34.34    3.42
   6  -2   6  193.82   11.50
   6  -2   6  204.21    7.29
   6  -2   6  187.88   16.67
   6  -2   5  463.81   12.42
   6  -2   5  433.69   12.85
   6  -2   5  465.08   13.21
   6  -2   4  280.12    6.25
   6  -2   4  279.14    7.47
   6  -2   4  279.37    7.85
   6  -2   3   50.00    6.89
   6  -2   3   46.65    3.55
   6  -2   3   47.02    3.72
  -6   2  -2  437.31    7.01
   6  -2   2  436.09    6.90
   6  -2   2  411.01    7.94
  -6   2  -1 1066.49   18.04
   6  -2   1 1066.69   18.13
  -6   2   0  213.15    4.44
   6  -2   0  205.36    4.49
  -6   2   1 1231.78   20.06
   6  -2  -1 1278.70   20.94
  -6   2   2   16.74    4.36
   6  -2  -2   14.46    1.46
  -6   2   3   81.77    2.93
   6  -2  -3   90.88    3.24
  -6   2   4   47.94    2.81
   6  -2  -4   44.80    2.85
  -6   2   5   17.63    2.16
   6  -2  -5   20.37    2.26
  -6   2   6   21.19    2.09
   6  -2  -6   20.60    2.31
  -6   2   7  145.22    5.15
   6  -2  -7  141.42    5.40
  -6   2   8    9.15    1.92
   6  -2  -8    6.88    2.17
  -6   2   9    2.20    2.18
   6  -2  -9    2.99    1.69
   6  -2  -9    4.26    1.88
  -6   2  10    3.62    1.36
   6  -2 -10    2.75    1.63
   6  -2 -10    4.70    0.83
  -6   2  11  509.22   13.50
   6  -2 -11  519.01   13.92
   6  -2 -11  517.59   13.17
  -6   2  12   32.71    3.76
   6  -2 -12   31.75    3.59
   6  -2 -12   26.24    6.73
   4  -2   9    5.13    1.60
   4  -2   9    4.33    2.50
   4  -2   9    2.96    1.44
   4  -2   8   85.47    6.89
   4  -2   8   94.00    5.63
   4  -2   8   85.42   10.06
   4  -2   7    8.09    2.17
   4  -2   7    6.33    2.08
   4  -2   7    9.43    2.43
   4  -2   6   17.69    4.12
   4  -2   6   13.51    2.59
   4  -2   6   17.08    3.32
   4  -2   5   88.93    5.11
   4  -2   5   95.14    4.88
   4  -2   5   79.42    5.21
   4  -2   4  130.81   10.10
   4  -2   4  134.91    5.00
   4  -2   4  126.10    5.16
   4  -2   3 2166.37   33.79
   4  -2   3 2219.54   35.58
   4  -2   3 2154.07   34.20
  -4   2  -2   41.97    2.42
   4  -2   2   41.89    4.67
   4  -2   2   39.92    2.70
  -4   2  -1   88.20    2.77
   4  -2   1   91.52    2.96
  -4   2   0   42.02    2.72
   4  -2   0   41.65    2.01
  -4   2   1  384.33    6.59
   4  -2  -1  388.08    6.81
  -4   2   2  313.15    5.82
   4  -2  -2  313.30    6.07
  -4   2   3 1167.38   16.13
   4  -2  -3 1198.09   16.85
  -4   2   4  361.76    7.04
   4  -2  -4  372.62    7.52
  -4   2   5  179.40    4.52
   4  -2  -5  173.11    4.67
  -4   2   6  215.99    5.38
   4  -2  -6  210.19    5.44
  -4   2   7    2.60    1.87
   4  -2  -7    2.13    1.65
  -4   2   8   80.63    4.05
   4  -2  -8   82.67    4.03
   4  -2  -8   80.18    4.90
  -4   2   9   21.05    2.58
   4  -2  -9   23.08    2.72
   4  -2  -9   22.23    5.15
  -4   2  10  156.66    6.18
   4  -2 -10  147.24    5.95
   4  -2 -10  143.75    5.40
   4  -2 -11    4.90    2.68
   4  -2 -11    3.22    1.76
   2  -2  10    1.06    0.50
   2  -2  10    3.14    1.79
   2  -2  10    1.60    0.96
   2  -2   9    2.96    1.23
   2  -2   9    8.23    2.62
   2  -2   9    4.53    1.82
   2  -2   8    0.16    0.70
   2  -2   8    0.68    1.70
   2  -2   8    1.58    0.65
   2  -2   7  183.33   13.16
   2  -2   7  171.39    6.25
   2  -2   7  211.52    9.71
   2  -2   6   13.41    4.32
   2  -2   6   20.15    2.86
   2  -2   6   14.25    2.71
   2  -2   5   11.02    2.83
   2  -2   5    9.96    2.14
   2  -2   5    9.51    2.36
   2  -2   4   95.44    6.49
   2  -2   4   96.81    4.28
   2  -2   4  100.29    3.67
   2  -2   3  896.15   13.30
   2  -2   3  909.16   14.45
   2  -2   3  879.68   13.78
   2  -2   2  314.98    5.92
   2  -2   2  319.39    6.82
  -2   2  -1 2127.03   26.60
   2  -2   1 2168.21   27.03
  -2   2   0  613.95    8.72
   2  -2   0  616.48    8.92
  -2   2   1   -0.19    0.77
   2  -2  -1    0.01    0.95
  -2   2   2  474.43    7.07
   2  -2  -2  461.32    7.12
  -2   2   3  140.66    2.89
   2  -2  -3  137.05    3.42
  -2   2   4  451.49    7.80
   2  -2  -4  468.73    8.21
  -2   2   5  434.88    8.91
   2  -2  -5  471.91    9.50
  -2   2   6  744.24    9.25
   2  -2  -6  773.78    9.55
   2  -2  -6  775.28   10.07
  -2   2   7   14.08    2.02
   2  -2  -7   14.97    1.85
   2  -2  -7   17.46    4.71
  -2   2   8   64.77    3.81
   2  -2  -8   61.89    3.53
   2  -2  -8   56.06    3.26
  -2   2   9  139.05    5.65
   2  -2  -9  133.05    5.31
  -2   2  10   89.54    4.82
   2  -2 -10   73.82    4.21
   2  -2 -10   64.64    7.41
  -2   2  11   58.32    4.24
   2  -2 -11   52.83    3.86
   2  -2 -11   46.74   14.64
   0  -2  10   40.93    3.79
   0   2 -10   37.91    3.59
   0  -2   9   25.73    3.05
   0   2  -9   15.04    2.43
   0  -2   9   18.54    3.84
   0  -2   8  110.75    5.77
   0   2  -8  106.86    5.66
   0  -2   8  100.86    9.15
   0  -2   7   27.55    2.71
   0   2  -7   31.58    3.21
   0  -2   7   33.66    5.99
   0  -2   6  230.88    6.40
   0   2  -6  219.70    6.33
   0  -2   6  213.26    6.07
   0  -2   5  933.22   17.20
   0   2  -5  940.20   17.38
   0  -2   5  926.55   15.48
   0  -2   4  730.79   12.37
   0   2  -4  729.48   12.47
   0  -2   4  740.78   11.55
   0  -2   3   52.49    2.65
   0   2  -3   50.62    2.69
   0  -2   3   52.09    1.92
   0  -2   2  508.23    8.52
   0   2  -2  501.98    8.46
   0  -2   1 3118.93   37.33
   0  -2   1 3064.29   37.25
   0  -2   0  436.24    6.04
   0  -2  -1 2600.95   30.62
   0   2   2  468.90    6.37
   0  -2  -2  456.13    6.47
   0   2   3   46.68    1.74
   0  -2  -3   50.52    1.87
   0   2   4  704.07   10.56
   0  -2  -4  710.69   10.50
   0  -2  -4  722.04   11.89
   0   2   5  869.48   14.87
   0  -2  -5  918.40   15.50
   0  -2  -5  909.14   16.46
   0   2   6  205.48    5.10
   0  -2  -6  215.51    4.94
   0  -2  -6  206.68    5.90
   0   2   7   28.54    2.37
   0  -2  -7   31.26    2.63
   0  -2  -7   30.07    3.17
   0   2   8  106.77    4.87
   0  -2  -8  114.04    5.09
   0  -2  -8   98.56    7.70
   0   2   9   22.09    2.29
   0  -2  -9   17.30    2.31
   0  -2  -9   18.17    4.31
   0   2  10   46.89    3.61
   0  -2 -10   43.77    3.25
   0  -2 -10   29.20    8.51
  -2  -2  11   54.57    4.42
   2   2 -11   44.88    4.39
  -2  -2  10   67.77    4.42
   2   2 -10   69.98    4.44
  -2  -2   9  127.25    5.97
   2   2  -9  116.35    5.61
   2   2  -9  126.51    6.03
  -2  -2   8   53.90    3.66
   2   2  -8   55.46    3.67
   2   2  -8   59.09    4.28
  -2  -2   7   16.55    2.47
   2   2  -7   13.79    2.39
  -2  -2   7   15.67    3.94
   2   2  -7   16.17    4.86
  -2  -2   6  804.43   10.79
   2   2  -6  802.59   11.23
  -2  -2   6  798.61    7.04
  -2  -2   5  488.17   10.54
   2   2  -5  494.76   10.66
  -2  -2   5  498.08    8.53
  -2  -2   4  509.11    9.41
   2   2  -4  503.27    9.40
  -2  -2   4  498.14    7.00
  -2  -2   3  150.63    3.93
   2   2  -3  149.09    3.76
  -2  -2   3  157.14    2.24
  -2  -2   2  510.59    8.20
   2   2  -2  507.84    8.22
  -2  -2   1    1.11    1.11
   2   2  -1   -0.21    1.20
  -2  -2   0  571.33    7.32
   2   2   0  600.87    7.61
  -2  -2   0  588.47    8.57
  -2  -2  -1 1989.01   25.28
   2   2   2  309.30    4.12
  -2  -2  -2  317.19    6.36
   2   2   3  896.54   11.52
   2   2   3  880.87   11.79
  -2  -2  -3  907.97   14.08
   2   2   4   92.63    2.67
  -2  -2  -4   87.89    2.54
  -2  -2  -4   86.07    6.07
   2   2   5    4.79    1.22
  -2  -2  -5    7.09    1.25
  -2  -2  -5    8.81    1.89
   2   2   6   11.53    1.71
  -2  -2  -6   12.99    1.76
  -2  -2  -6   10.40    2.38
   2   2   7  175.01    5.03
  -2  -2  -7  172.87    4.87
  -2  -2  -7  172.60    5.79
   2   2   8    0.80    0.74
   2   2   8    2.18    1.30
  -2  -2  -8    0.73    0.99
   2   2   9    6.71    1.52
   2   2   9    5.07    2.00
  -2  -2 -10    1.34    1.24
  -4  -2  11    1.45    1.84
   4   2 -11   -0.93    1.74
   4   2 -11    2.56    0.71
  -4  -2  10  150.25    6.48
   4   2 -10  149.90    6.56
   4   2 -10  141.83    6.22
  -4  -2   9   24.80    2.87
   4   2  -9   20.73    3.26
   4   2  -9   22.49    5.40
  -4  -2   8   87.93    4.85
   4   2  -8   90.27    4.81
   4   2  -8   75.21    4.43
  -4  -2   7    3.76    1.79
   4   2  -7    4.71    2.42
   4   2  -7    1.50    1.07
  -4  -2   6  225.31    5.96
   4   2  -6  222.86    6.05
   4   2  -6  222.55    3.40
  -4  -2   5  189.74    5.08
   4   2  -5  191.35    5.36
  -4  -2   4  399.91    7.90
   4   2  -4  402.26    8.13
  -4  -2   3 1223.12   17.19
   4   2  -3 1223.02   17.29
  -4  -2   2  307.14    5.97
   4   2  -2  312.24    5.92
  -4  -2   2  334.21    4.92
  -4  -2   1  369.35    6.10
   4   2  -1  373.87    6.18
   4   2  -1  390.63    6.18
  -4  -2   1  400.11    6.28
  -4  -2   0   40.43    1.92
   4   2   0   36.41    1.41
   4   2   0   40.51    3.39
  -4  -2   0   38.84    1.87
  -4  -2  -1   88.05    1.63
   4   2   1   84.74    1.78
   4   2   1   84.78    3.36
  -4  -2  -1   95.45    3.25
   4   2   2   40.00    2.04
   4   2   2   37.91    1.46
   4   2   2   39.20    2.68
  -4  -2  -2   41.51    3.07
   4   2   3 2066.91   30.42
   4   2   3 2094.84   31.29
   4   2   3 2030.02   33.42
  -4  -2  -3 2117.95   33.80
   4   2   4  128.92    2.73
   4   2   4  124.95    3.37
   4   2   4  129.79    4.68
  -4  -2  -4  126.58    4.54
   4   2   5   81.47    3.69
   4   2   5   89.45    3.44
   4   2   5   80.35    3.95
  -4  -2  -5   86.02    4.11
   4   2   6   17.30    1.68
   4   2   6   15.72    1.64
  -4  -2  -6   16.33    4.19
   4   2   7    6.96    1.94
   4   2   7    7.62    1.82
  -4  -2  -7    7.01    1.34
   4   2   8   87.24    7.81
   4   2   8   93.31    4.51
  -4  -2  -8   86.06   11.20
   4   2   9    5.79    1.33
  -4  -2  -9    4.77    1.59
   6   2 -12   36.81    4.66
   6   2 -12   14.75    5.28
  -6  -2  11  515.26   14.16
   6   2 -11  508.32   14.57
   6   2 -11  473.50   10.58
  -6  -2  10    0.75    1.73
   6   2 -10    2.15    1.64
   6   2 -10    4.28    0.89
  -6  -2   9    2.58    1.75
   6   2  -9    2.82    1.86
   6   2  -9    4.66    0.95
  -6  -2   8    9.04    2.14
   6   2  -8    9.15    2.17
   6   2  -8    7.10    1.80
  -6  -2   7  154.86    5.71
   6   2  -7  155.65    6.20
   6   2  -7  145.78    2.80
  -6  -2   6   21.91    2.44
   6   2  -6   24.53    2.90
  -6  -2   5   18.20    2.40
   6   2  -5   18.53    2.72
  -6  -2   4   48.72    2.81
   6   2  -4   47.16    3.09
  -6  -2   3   89.03    3.10
   6   2  -3   85.36    3.40
   6   2  -3   92.41    2.29
  -6  -2   2   14.84    1.48
   6   2  -2   15.58    1.80
   6   2  -2   17.18    2.55
  -6  -2   1 1225.54   19.03
   6   2  -1 1192.71   19.15
   6   2  -1 1220.20   19.55
  -6  -2   1 1233.35   19.60
  -6  -2   0  214.01    4.18
   6   2   0  207.88    3.76
   6   2   0  212.21    4.65
  -6  -2   0  218.73    4.64
  -6  -2  -1 1061.61   16.42
   6   2   1 1031.08   16.29
   6   2   1 1001.31   17.48
  -6  -2  -1 1068.04   18.58
   6   2   2  416.61    4.85
   6   2   2  429.87    5.44
   6   2   2  419.95    7.83
  -6  -2  -2  451.10    8.54
   6   2   3   47.67    4.51
   6   2   3   42.97    2.32
   6   2   3   41.99    4.94
  -6  -2  -3   48.82    5.64
   6   2   4  266.99    4.41
   6   2   4  282.48    5.49
   6   2   4  260.23    6.72
  -6  -2  -4  271.31    7.17
   6   2   5  444.58   10.80
   6   2   5  452.49   11.60
   6   2   5  455.55   13.08
  -6  -2  -5  476.36   13.86
   6   2   6  195.71    9.55
   6   2   6  208.27    5.69
   6   2   6  181.92    6.42
  -6  -2  -6  182.90    6.59
   6   2   7   27.68    6.59
   6   2   7   29.15    2.63
  -6  -2  -7   25.23    6.18
   6   2   8   33.68    4.62
   6   2   8   37.35    3.11
  -6  -2  -8   27.66    7.69
   8   2 -12    1.52    2.20
   8   2 -12    0.80    0.55
  -8  -2  11  127.76    6.62
   8   2 -11  108.66    6.29
   8   2 -11  108.36    3.48
  -8  -2  10    2.88    1.62
   8   2 -10    6.70    2.31
   8   2 -10    2.06    1.17
  -8  -2   9  302.61    8.98
   8   2  -9  298.15    9.18
   8   2  -9  284.26    4.59
  -8  -2   8   26.39    2.80
   8   2  -8   20.62    2.70
   8   2  -8   24.53    1.16
  -8  -2   7    7.91    2.84
   8   2  -7    2.99    1.78
   8   2  -7    4.48    0.77
  -8  -2   6  130.42    5.03
   8   2  -6  133.18    5.36
   8   2  -6  135.67    1.96
  -8  -2   5  200.94    5.59
   8   2  -5  205.15    6.03
   8   2  -5  205.53    2.61
  -8  -2   4  584.43    8.44
   8   2  -4  581.37    8.97
   8   2  -4  598.33    5.40
  -8  -2   3  282.58    6.77
   8   2  -3  273.26    7.11
   8   2  -3  276.61    6.45
  -8  -2   2  278.33    4.88
   8   2  -2  269.59    5.66
   8   2  -2  277.13    5.00
  -8  -2   1   11.77    2.38
   8   2  -1   12.94    1.69
   8   2  -1   15.88    4.32
  -8  -2   0   32.44    3.08
   8   2   0   32.07    1.97
   8   2   0   32.53    2.73
  -8  -2   0   28.09    3.27
  -8  -2  -1 1288.62   16.01
   8   2   1 1258.40   16.33
   8   2   1 1280.48   19.86
  -8  -2  -1 1253.80   18.28
   8   2   2  463.50    6.16
   8   2   2  467.64    8.57
  -8  -2  -2  470.28   10.59
   8   2   3  748.13   17.02
   8   2   3  786.28   18.27
  -8  -2  -3  770.63   19.57
   8   2   4  276.70    5.78
   8   2   4  296.36    6.84
   8   2   4  273.80    8.99
  -8  -2  -4  286.46    8.40
   8   2   5    9.31    2.04
   8   2   5   10.75    2.09
   8   2   5    9.75    2.95
  -8  -2  -5    9.89    2.94
   8   2   6   34.76    3.48
   8   2   6   33.78    2.63
   8   2   6   26.40   10.14
  -8  -2  -6   31.85    7.07
 -10  -2  11   46.16    4.67
  10   2 -11   44.74    4.20
 -10  -2  10   26.52    3.09
  10   2 -10   30.65    3.85
 -10  -2   9  157.24    6.55
  10   2  -9  166.16    7.23
  10   2  -9  171.91    2.38
 -10  -2   8   84.50    4.74
  10   2  -8   85.75    5.13
  10   2  -8   89.29    2.27
 -10  -2   7  163.36    5.79
  10   2  -7  159.64    6.12
  10   2  -7  160.25    2.44
 -10  -2   6  121.00    4.77
  10   2  -6  120.77    5.20
  10   2  -6  121.49    2.56
 -10  -2   5   71.13    3.61
  10   2  -5   77.50    4.20
  10   2  -5   69.84    2.25
 -10  -2   4  179.13    5.37
  10   2  -4  176.15    5.84
  10   2  -4  176.61    4.83
 -10  -2   3   13.78    1.71
  10   2  -3    5.56    1.77
  10   2  -3   14.60    4.31
 -10  -2   2  499.19    9.75
  10   2  -2  479.92    9.45
  10   2  -2  480.62    9.16
 -10  -2   1  320.52    6.22
  10   2  -1  309.80    6.39
  10   2  -1  318.33    6.71
 -10  -2   0   90.61    2.90
  10   2   0   89.01    3.35
  10   2   0   85.94    7.72
 -10  -2  -1   36.10    3.29
  10   2   1   35.80    2.32
  10   2   1   33.35   10.99
  10   2   2  103.04    3.65
  10   2   2   91.98    4.53
  10   2   3  379.81    6.43
  10   2   3  402.76    7.68
  10   2   3  382.77   12.47
 -10  -2  -3  409.78    9.91
  10   2   4   74.33    3.42
  10   2   4   73.01    3.81
  10   2   4   64.27    9.52
 -10  -2  -4   64.32   11.75
  10   2   5  255.96    6.42
  10   2   5  260.61    7.38
 -10  -2  -5  259.95    9.67
  12   2 -11  154.93    7.77
 -12  -2  10   86.43    5.21
  12   2 -10   91.60    5.94
 -12  -2   9   88.20    5.13
  12   2  -9   78.86    5.14
 -12  -2   8  114.00    5.15
  12   2  -8  127.89    6.24
  12   2  -8  121.24    4.40
 -12  -2   7   61.73    3.78
  12   2  -7   67.07    4.99
 -12  -2   6   87.90    4.47
  12   2  -6  100.18    5.06
  12   2  -6   93.07    3.68
 -12  -2   5    6.34    1.54
  12   2  -5    4.25    1.61
  12   2  -5    8.17    1.99
 -12  -2   4   18.43    2.01
  12   2  -4   18.75    2.50
  12   2  -4   21.56    6.67
 -12  -2   3   15.00    5.48
  12   2  -3   15.34    1.93
  12   2  -3   17.71    5.14
 -12  -2   2   -1.56    0.97
  12   2  -2    0.18    1.13
  12   2  -2    0.20    0.49
 -12  -2   1   89.95    5.05
  12   2  -1   95.12    4.19
  12   2  -1   93.21    4.25
 -12  -2   0   77.67    6.45
  12   2   0   76.01    3.61
  12   2   0   69.55    5.65
 -12  -2  -1  391.73    6.70
  12   2   1  383.00    7.18
  12   2   1  389.85    9.33
  12   2   2    0.77    0.82
  12   2   2   -0.40    1.01
  12   2   2    0.52    0.81
  12   2   3   51.66    3.13
  12   2   3   47.08    3.26
  12   2   3   36.72   12.90
  14   2 -10    3.64    1.92
 -14  -2   9  109.46    5.50
  14   2  -9  112.11    6.13
 -14  -2   8   44.79    3.81
  14   2  -8   35.94    3.62
  14   2  -8   34.55    2.07
 -14  -2   7  166.19    6.76
  14   2  -7  160.59    7.04
  14   2  -7  162.57    4.88
 -14  -2   6   11.69    1.96
  14   2  -6    8.37    2.06
  14   2  -6   10.58    2.52
 -14  -2   5   13.43    2.08
  14   2  -5   14.74    2.72
  14   2  -5   11.72    3.45
 -14  -2   4    1.82    1.25
  14   2  -4    4.13    1.31
  14   2  -4    5.15    1.56
 -14  -2   3   47.94    8.59
  14   2  -3   54.04    3.75
  14   2  -3   39.93    6.79
 -14  -2   2    1.70    0.90
  14   2  -2    0.68    1.30
  14   2  -2   -0.01    0.82
 -14  -2   1    1.47    0.79
  14   2  -1    1.94    1.32
 -14  -2   0   35.31    4.50
  14   2   0   38.14    2.99
  14   2   0   35.86    7.40
 -16  -2   7  125.25    5.69
  16   2  -7  132.64    6.73
  16   2  -7  136.05    4.60
 -16  -2   6   21.08    6.50
  16   2  -6   29.43    3.76
  16   2  -6   19.58    7.34
 -16  -2   5   63.21    7.19
  16   2  -5   76.18    5.07
  16   2  -5   77.54    3.91
 -16  -2   4   36.95    4.15
  16   2  -4   39.27    3.62
  16   2  -4   28.56   10.09
  15  -3  -2  126.26    6.11
  15  -3  -3  462.41   11.96
  15  -3  -4    3.98    2.48
  15  -3  -5   12.40    2.91
  15  -3  -6   -0.91    1.64
  15  -3  -7    0.86    1.78
  13  -3   1  247.67    7.92
 -13   3   0    3.46    1.10
  13  -3   0    2.01    1.40
  13  -3   0    2.87    1.58
 -13   3   1  138.76    5.65
  13  -3  -1  143.84    6.17
  13  -3  -1  150.45    7.25
 -13   3   2   -0.21    0.81
  13  -3  -2    0.10    1.21
 -13   3   3    0.48    1.03
  13  -3  -3    1.68    1.36
 -13   3   4   79.09    4.06
  13  -3  -4   77.03    4.33
 -13   3   5  675.08   11.44
  13  -3  -5  721.11   12.96
 -13   3   6   10.09    4.04
  13  -3  -6   16.55    2.83
 -13   3   7   11.91    3.80
  13  -3  -7   14.41    2.51
 -13   3   8   14.22    2.33
  13  -3  -8   10.79    2.37
 -13   3   9   -0.55    1.34
  13  -3  -9    0.72    1.71
  13  -3 -10    0.44    1.79
  11  -3   3   95.83    6.05
  11  -3   3   95.38    5.93
  11  -3   3   96.76   11.35
 -11   3  -2   11.85    2.03
  11  -3   2   13.44    2.48
  11  -3   2   11.19    2.92
 -11   3  -1    2.46    1.26
  11  -3   1    3.03    1.67
  11  -3   1    3.79    1.60
 -11   3   0   24.27    6.03
  11  -3   0   24.59    2.46
  11  -3   0   28.97    4.17
 -11   3   1  668.17   12.22
  11  -3  -1  694.79   13.09
 -11   3   2   88.71    4.88
  11  -3  -2   87.50    4.70
 -11   3   3    0.94    0.99
  11  -3  -3    1.94    1.40
 -11   3   4   51.82   11.59
  11  -3  -4   55.62    3.71
 -11   3   5  209.90    7.43
  11  -3  -5  229.17    8.42
 -11   3   6    4.09    1.66
  11  -3  -6    1.48    1.43
 -11   3   7  510.87   11.21
  11  -3  -7  506.74   11.85
 -11   3   8   10.70    2.08
  11  -3  -8    8.94    2.18
 -11   3   9   -0.56    1.52
  11  -3  -9    1.07    2.00
 -11   3  10   27.56    3.31
  11  -3 -10   21.37    3.13
 -11   3  11    6.75    1.98
  11  -3 -11    5.62    2.20
   9  -3   5    9.79    2.85
   9  -3   5    7.76    1.94
   9  -3   5    5.58    1.70
   9  -3   4    8.56    2.34
   9  -3   4    8.06    2.32
   9  -3   4    9.30    3.07
   9  -3   3   22.22    5.84
   9  -3   3   15.98    2.81
   9  -3   3   16.86    3.76
  -9   3  -2   85.53   11.86
   9  -3   2   84.27    5.14
   9  -3   2   87.88    7.52
  -9   3  -1   17.72    4.16
   9  -3   1   19.61    4.65
   9  -3   1   20.58    2.73
  -9   3   0  115.51    4.17
   9  -3   0  123.20    8.44
  -9   3   1  122.59    4.37
   9  -3  -1  123.27    4.55
  -9   3   2  217.02    5.95
   9  -3  -2  223.43    6.32
  -9   3   3  376.44    8.08
   9  -3  -3  416.48    9.19
  -9   3   4  608.38   11.06
   9  -3  -4  607.08   11.56
  -9   3   5  173.46    5.47
   9  -3  -5  180.29    6.16
  -9   3   6  203.21    5.81
   9  -3  -6  186.07    5.97
   9  -3  -7  721.85   18.98
  -9   3   9    8.77    1.93
  -9   3  10   52.04    3.85
   9  -3 -10   53.44    4.10
  -9   3  11   69.43    4.79
   9  -3 -11   59.81    4.59
   7  -3   7  154.53    7.58
   7  -3   7  133.83   15.38
   7  -3   6    3.00    1.14
   7  -3   6    8.95    2.37
   7  -3   6    5.28    1.57
   7  -3   5   11.45    2.09
   7  -3   5    7.51    2.30
   7  -3   5   10.52    2.88
   7  -3   4   37.15    4.36
   7  -3   4   35.65    3.63
   7  -3   4   38.88    2.98
   7  -3   3   55.97    5.87
   7  -3   3   49.81    3.70
   7  -3   3   55.83    3.73
  -7   3  -2   51.22    5.20
   7  -3   2   55.72    7.22
   7  -3   2   55.24    4.33
  -7   3  -1    7.99    1.87
   7  -3   1    7.58    1.72
  -7   3   0  155.91    4.29
   7  -3   0  159.77    4.51
  -7   3   1  592.21    8.48
   7  -3  -1  612.24    8.60
  -7   3   2  225.73    5.00
   7  -3  -2  234.67    5.50
  -7   3   3 1630.76   13.03
   7  -3  -3 1698.71   14.51
  -7   3   4  242.36    5.42
   7  -3  -4  246.98    5.98
  -7   3   5  464.38    7.69
   7  -3  -5  446.74    8.19
  -7   3   6  253.90    6.91
   7  -3  -6  274.93    7.63
  -7   3   7  178.30    5.53
   7  -3  -7  170.60    5.74
  -7   3   8  131.05    5.69
   7  -3  -8  129.51    6.07
  -7   3   9  899.29   15.66
   7  -3  -9  890.98   16.13
  -7   3  10   13.35    2.24
   7  -3 -10   15.05    2.29
  -7   3  11    7.91    2.43
   7  -3 -11    7.61    2.21
   7  -3 -11    3.04    1.11
   5  -3   8    1.40    1.07
   5  -3   8    1.75    0.96
   5  -3   7   10.98    3.39
   5  -3   7   12.92    2.96
   5  -3   7   11.04    3.49
   5  -3   6  227.87   10.19
   5  -3   6  225.10    7.40
   5  -3   6  237.05    6.78
   5  -3   5  688.87   17.20
   5  -3   5  687.96   18.43
   5  -3   5  677.29   17.40
   5  -3   4    6.83    1.33
   5  -3   4    7.82    2.51
   5  -3   4    4.52    2.12
   5  -3   3   30.40    6.01
   5  -3   3   32.38    3.43
   5  -3   3   24.45    2.60
  -5   3  -2   50.46    2.70
   5  -3   2   53.01    5.09
  -5   3  -1  493.19    9.95
   5  -3   1  505.28   10.15
  -5   3   0    3.58    1.66
   5  -3   0    3.49    1.50
  -5   3   1   46.41    2.29
   5  -3  -1   45.42    2.56
  -5   3   2  331.65    7.07
   5  -3  -2  331.22    7.46
  -5   3   3 1667.86   26.69
   5  -3  -3 1666.90   26.57
  -5   3   4   79.06    2.87
   5  -3  -4   73.21    3.24
  -5   3   5 2163.61   15.00
  -5   3   6  468.04    7.76
   5  -3  -6  450.18    8.21
  -5   3   7  157.71    5.24
   5  -3  -7  153.96    5.53
  -5   3   8    5.72    1.60
   5  -3  -8    7.35    2.06
  -5   3   9  139.30    5.56
   5  -3  -9  136.55    5.74
   5  -3  -9  136.78    8.34
  -5   3  10   84.50    4.53
   5  -3 -10   82.96    4.59
   5  -3 -10   80.25    5.20
  -5   3  11  172.28    6.88
   5  -3 -11  158.06    6.46
   5  -3 -11  154.58    9.05
   3  -3   9  732.46   14.47
   3  -3   9  734.72   14.38
   3  -3   8  189.97    8.25
   3  -3   8  178.47    7.22
   3  -3   8  187.77    6.57
   3  -3   7    1.06    0.54
   3  -3   7   -0.97    1.56
   3  -3   7    2.15    0.55
   3  -3   6   24.15    2.55
   3  -3   6   24.79    2.93
   3  -3   6   25.44    4.38
   3  -3   5   77.96    9.22
   3  -3   5   75.12    4.38
   3  -3   5   76.22    6.32
   3  -3   4   63.00    5.19
   3  -3   4   57.91    3.62
   3  -3   4   57.74    3.28
   3  -3   3 1328.71   21.89
   3  -3   3 1360.26   23.52
   3  -3   3 1327.76   22.43
   3  -3   2    7.39    1.74
   3  -3   2    4.80    1.77
  -3   3  -1 1156.87   18.83
   3  -3   1 1163.45   18.91
  -3   3   0  234.23    4.01
   3  -3   0  237.86    4.58
  -3   3   1  682.00   10.12
   3  -3  -1  684.20   10.33
  -3   3   2  360.40    6.20
   3  -3  -2  354.15    6.44
  -3   3   3  644.00   11.06
   3  -3  -3  636.75   11.39
  -3   3   4  202.08    4.04
   3  -3  -4  197.05    4.54
  -3   3   5  450.09    9.08
   3  -3  -5  454.83    9.58
  -3   3   6    5.18    1.56
   3  -3  -6    2.90    1.95
  -3   3   7 1229.35   17.73
   3  -3  -7 1278.10   18.36
  -3   3   8  371.23   10.73
   3  -3  -8  375.25   10.86
   3  -3  -8  360.87   10.91
  -3   3   9  205.77    6.61
   3  -3  -9  202.31    6.52
   3  -3  -9  186.32   12.87
  -3   3  10   -0.40    1.32
   3  -3 -10    0.27    1.22
   3  -3 -10    0.50    1.27
  -3   3  11    0.87    1.28
   3  -3 -11    6.79    2.08
   3  -3 -11    3.86    2.15
   1  -3  10    2.16    0.89
   1  -3  10    2.52    0.89
   1  -3   9   26.36    7.54
   1  -3   9   37.18    3.91
   1  -3   9   32.89    2.80
   1  -3   8   64.28    5.59
   1  -3   8   61.81    4.36
   1  -3   8   65.24    5.98
   1  -3   7 1470.12   15.49
   1  -3   7 1446.07   17.17
   1  -3   7 1394.11   31.92
   1  -3   6  541.81   10.40
   1  -3   6  545.36   11.57
   1  -3   6  525.51    9.97
   1  -3   5  157.87    4.61
   1  -3   5  166.69    5.56
   1  -3   5  167.93    6.45
   1  -3   4   60.86    5.05
   1  -3   4   58.97    3.67
   1  -3   4   59.03    2.77
   1  -3   3    0.36    0.65
   1  -3   3   -1.22    1.82
   1  -3   2   34.97    2.67
   1  -3   2   38.85    2.42
   1  -3   1 1081.49   14.66
   1  -3   1 1081.09   15.48
  -1   3   0   58.70    1.79
   1  -3   0   56.46    2.81
  -1   3   1  572.39    8.00
   1  -3  -1  557.01    8.01
  -1   3   2  334.31    5.14
   1  -3  -2  312.00    5.22
  -1   3   3  340.83    5.44
   1  -3  -3  329.26    5.90
  -1   3   4 1418.28   21.87
   1  -3  -4 1505.00   23.27
  -1   3   6  209.68    5.36
   1  -3  -6  213.53    5.31
   1  -3  -6  210.94    7.93
  -1   3   7    1.64    1.13
   1  -3  -7    0.61    1.12
   1  -3  -7    0.89    0.93
  -1   3   8    0.82    1.20
   1  -3  -8    1.47    1.18
   1  -3  -8   -0.03    1.31
  -1   3   9   95.30    4.35
   1  -3  -9   94.38    4.23
   1  -3  -9  100.17    6.11
  -1   3  10  222.64    7.19
   1  -3 -10  221.70    6.88
   1  -3 -10  208.55   14.71
  -1  -3  10  224.52    8.71
   1   3 -10  207.51    8.24
  -1  -3  10  221.11    6.42
  -1  -3   9  100.90    5.63
   1   3  -9   91.21    5.02
  -1  -3   9  101.10   10.63
  -1  -3   8    5.72    2.72
   1   3  -8    5.32    2.43
  -1  -3   8    1.80    0.76
  -1  -3   7    2.61    1.81
   1   3  -7    0.30    1.61
  -1  -3   7    5.05    1.28
  -1  -3   6  230.72    7.07
   1   3  -6  221.38    6.98
  -1  -3   6  223.31    5.07
  -1  -3   5 1239.39   13.27
   1   3  -5 1235.60   13.44
  -1  -3   5 1218.33    8.97
  -1  -3   4 1612.76   26.55
   1   3  -4 1620.59   26.80
  -1  -3   4 1582.26   24.19
  -1  -3   3  362.70    7.93
   1   3  -3  352.98    7.87
  -1  -3   2  336.20    6.64
   1   3  -2  328.46    6.51
  -1  -3   1  599.12    8.57
  -1  -3   1  566.43    8.78
  -1  -3   0   56.12    1.47
  -1  -3   0   58.54    1.78
  -1  -3  -1  993.53   12.10
  -1  -3  -2   36.07    0.74
   1   3   3    0.28    0.24
  -1  -3  -3   -0.09    0.35
  -1  -3  -3    0.89    0.84
   1   3   4   50.95    1.75
  -1  -3  -4   52.95    1.78
  -1  -3  -4   56.54    7.86
   1   3   5  146.85    3.43
  -1  -3  -5  157.27    3.50
  -1  -3  -5  152.45    5.02
   1   3   6  510.39    8.81
  -1  -3  -6  518.78    8.55
  -1  -3  -6  527.16   10.80
   1   3   7 1349.79   29.89
  -1  -3  -7 1388.84   30.41
  -1  -3  -7 1417.82   32.81
   1   3   8   67.30    3.60
  -1  -3  -8   65.80    3.23
  -1  -3  -8   59.43    6.58
   1   3   9   31.62    2.73
  -1  -3  -9   27.97    2.45
  -1  -3  -9   22.58    8.92
   1   3  10    3.06    1.31
   1   3  10    2.91    1.72
  -1  -3 -10    2.68    1.14
   3   3 -11    1.95    2.19
  -3  -3  10   -1.02    1.91
   3   3 -10    2.53    2.21
  -3  -3   9  209.29    7.70
   3   3  -9  211.78    7.94
  -3  -3   8  370.77   11.81
   3   3  -8  370.92   11.74
  -3  -3   7 1325.36   20.51
   3   3  -7 1350.24   21.22
  -3  -3   7 1298.90   15.89
  -3  -3   6    2.51    1.82
   3   3  -6    3.16    2.08
  -3  -3   6    6.47    1.41
  -3  -3   5  492.97   10.75
   3   3  -5  495.80   10.98
  -3  -3   5  520.82    4.14
  -3  -3   4  213.46    5.08
   3   3  -4  213.92    5.31
  -3  -3   4  219.79    2.41
  -3  -3   3  670.26   12.24
   3   3  -3  678.23   12.44
  -3  -3   2  352.20    6.48
   3   3  -2  365.76    6.66
  -3  -3   1  647.08    9.29
   3   3  -1  669.33    9.47
  -3  -3   1  663.64    9.58
  -3  -3   0  230.74    5.19
  -3  -3  -1 1123.98   18.47
  -3  -3  -2    9.01    2.54
   3   3   3 1286.77   18.51
  -3  -3  -3 1361.85   23.07
   3   3   4   60.93    1.63
   3   3   4   57.32    1.87
  -3  -3  -4   57.09    4.07
   3   3   5   73.73    3.17
   3   3   5   80.03    2.70
  -3  -3  -5   72.22    5.38
   3   3   6   26.08    3.15
   3   3   6   28.34    2.11
  -3  -3  -6   25.76    6.55
   3   3   7    2.32    0.80
  -3  -3  -7    4.19    1.09
   3   3   8  179.98    4.07
   3   3   8  182.24    5.21
  -3  -3  -8  170.05   11.31
   3   3   9  728.02   11.67
   3   3   9  695.51   12.73
  -3  -3  -9  701.44   15.76
  -5  -3  11  170.00    7.51
   5   3 -11  162.60    7.89
  -5  -3  10   84.24    5.30
   5   3 -10   83.40    5.11
  -5  -3   9  141.41    6.42
   5   3  -9  131.28    6.21
  -5  -3   8    7.46    2.88
   5   3  -8    3.23    1.75
  -5  -3   7  180.98    6.63
   5   3  -7  163.25    6.01
  -5  -3   6  498.28    8.93
   5   3  -6  473.11    8.82
  -5  -3   5 2357.53   17.31
   5   3  -5 2339.43   17.56
  -5  -3   4   76.96    3.22
   5   3  -4   79.24    3.46
  -5  -3   3 1636.71   25.91
   5   3  -3 1645.55   26.28
  -5  -3   3 1664.61   24.06
  -5  -3   2  314.55    6.68
   5   3  -2  327.67    6.88
  -5  -3   2  344.31    6.24
  -5  -3   1   41.22    1.63
   5   3  -1   47.48    2.03
  -5  -3   1   46.46    3.23
  -5  -3   0    3.13    0.68
   5   3   0    3.32    0.88
  -5  -3   0    2.90    0.96
   5   3   1  458.35    7.21
  -5  -3  -1  501.99   11.31
   5   3   2   55.04    1.34
  -5  -3  -2   61.08    3.09
   5   3   3   26.38    1.14
   5   3   3   30.66    1.38
  -5  -3  -3   28.46    6.99
   5   3   4    6.74    1.25
   5   3   4    5.91    1.02
  -5  -3  -4    3.76    2.03
   5   3   5  640.08   14.15
   5   3   5  656.13   15.07
  -5  -3  -5  665.25   17.58
   5   3   6  227.47    3.96
   5   3   6  238.13    5.12
  -5  -3  -6  219.28    7.04
   5   3   7    9.43    2.45
   5   3   7   10.40    1.72
  -5  -3  -7   16.88    3.31
   5   3   8    1.82    0.55
   5   3   8    2.13    1.60
  -5  -3  -8    2.13    1.25
  -7  -3  11    8.02    2.68
   7   3 -11    6.62    2.77
  -7  -3  10   17.89    2.88
   7   3 -10   14.76    2.54
  -7  -3   9  915.31   16.98
   7   3  -9  921.16   17.40
  -7  -3   8  136.23    6.47
   7   3  -8  123.73    6.30
  -7  -3   7  180.96    6.24
   7   3  -7  174.45    6.02
  -7  -3   6  275.83    7.55
   7   3  -6  269.08    7.65
  -7  -3   5  479.23    8.31
   7   3  -5  485.23    8.64
  -7  -3   4  234.16    5.35
   7   3  -4  252.84    5.94
  -7  -3   3 1612.71   12.39
   7   3  -3 1586.77   12.95
  -7  -3   2  216.76    4.19
   7   3  -2  215.07    4.72
  -7  -3   2  232.91    4.30
  -7  -3   1  580.09    5.72
   7   3  -1  568.70    6.70
   7   3  -1  566.68    7.37
  -7  -3   0  164.85    3.22
   7   3   0  155.18    3.55
   7   3   0  166.88    4.55
  -7  -3   0  167.96    4.56
  -7  -3  -1    5.26    0.90
   7   3   1    4.86    1.20
   7   3   1    5.90    2.73
  -7  -3  -1    6.76    1.28
   7   3   2   48.59    1.84
   7   3   2   54.15    1.98
   7   3   2   45.43    4.00
  -7  -3  -2   49.91    5.35
   7   3   3   51.37    1.88
   7   3   3   56.66    2.24
   7   3   3   55.77    3.68
  -7  -3  -3   53.34    8.38
   7   3   4   36.05    1.69
   7   3   4   34.04    1.95
   7   3   4   30.91    2.88
  -7  -3  -4   41.10    8.89
   7   3   5    9.50    2.66
   7   3   5   11.00    1.74
  -7  -3  -5   12.17    2.40
   7   3   6    5.05    1.33
  -7  -3  -6    2.76    1.86
   7   3   7  137.11    5.21
   7   3   7  156.57    5.14
  -7  -3  -7  138.47    6.81
  -9  -3  11   63.94    4.91
   9   3 -11   65.00    5.44
  -9  -3  10   59.22    4.63
   9   3 -10   47.99    4.44
  -9  -3   9   11.54    2.37
   9   3  -9    5.53    1.67
  -9  -3   8   38.32    3.52
   9   3  -8   41.85    3.78
  -9  -3   7  694.18   18.08
   9   3  -7  696.73   18.46
  -9  -3   6  194.01    5.83
   9   3  -6  201.57    6.45
  -9  -3   5  196.54    6.02
   9   3  -5  179.73    6.22
  -9  -3   4  601.43   10.61
   9   3  -4  590.84   11.02
   9   3  -4  619.24    8.51
  -9  -3   3  397.47    7.69
   9   3  -3  387.03    8.32
   9   3  -3  397.27    7.04
  -9  -3   2  223.00    5.04
   9   3  -2  212.42    5.68
   9   3  -2  222.43    5.33
  -9  -3   1  118.58    3.38
   9   3  -1  119.15    4.12
   9   3  -1  120.00    4.07
  -9  -3   1  125.39    8.40
  -9  -3   0  118.07    2.81
   9   3   0  112.42    3.58
   9   3   0  117.12    4.76
  -9  -3   0  113.31    4.18
  -9  -3  -1   17.91    2.67
   9   3   1   16.80    1.60
   9   3   1   14.79    5.81
  -9  -3  -1   21.55    4.52
   9   3   2   90.76    3.29
   9   3   2   77.89    5.40
   9   3   3   19.14    1.62
   9   3   3   19.72    1.87
   9   3   3   18.24    7.12
  -9  -3  -3   20.53    4.87
   9   3   4    7.02    1.02
   9   3   4   10.87    1.61
   9   3   4    8.51    2.17
  -9  -3  -4   10.58    2.43
   9   3   5   10.52    1.50
   9   3   5    8.75    2.17
  -9  -3  -5   12.01    3.29
  11   3 -11   10.69    2.50
 -11  -3  10   24.01    3.01
  11   3 -10   26.68    3.42
 -11  -3   9    1.87    2.09
  11   3  -9    0.87    1.70
 -11  -3   8   12.42    2.17
  11   3  -8   12.09    2.44
 -11  -3   7  532.59   11.62
  11   3  -7  515.43   11.93
 -11  -3   6    2.23    1.43
  11   3  -6    1.63    1.52
 -11  -3   5  213.52    7.34
  11   3  -5  208.72    7.68
  11   3  -5  208.22    5.48
 -11  -3   4   51.22    2.91
  11   3  -4   46.24    3.25
  11   3  -4   48.30    3.45
 -11  -3   3   -0.36    0.77
  11   3  -3    0.95    1.22
  11   3  -3    1.11    0.43
 -11  -3   2   82.79    2.98
  11   3  -2   92.12    4.46
  11   3  -2   85.68    3.69
 -11  -3   1  676.33   10.20
  11   3  -1  657.27   11.31
  11   3  -1  652.37   11.90
 -11  -3   0   25.78    3.09
  11   3   0   23.71    2.05
  11   3   0   25.27    6.65
 -11  -3  -1    0.55    0.49
  11   3   1    3.45    1.19
  11   3   1    3.52    1.34
  11   3   2   10.43    1.35
  11   3   2   11.88    1.72
  11   3   2    8.63    2.47
 -11  -3  -2   14.38    3.12
  11   3   3   88.92    3.37
  11   3   3   91.57    5.13
 -11  -3  -3   87.98    5.22
 -13  -3  10    0.98    1.54
  13   3 -10    4.14    2.67
 -13  -3   9   -0.34    1.47
  13   3  -9   -0.50    1.72
 -13  -3   8   14.26    2.50
  13   3  -8    8.33    1.89
 -13  -3   7   14.21    2.08
  13   3  -7   18.51    2.99
 -13  -3   6   11.91    1.89
  13   3  -6   12.28    2.34
  13   3  -6   11.29    2.21
  13   3  -5  672.88   11.73
  13   3  -5  662.23    7.84
 -13  -3   4   78.00    3.63
  13   3  -4   79.21    4.27
  13   3  -4   80.16    3.29
 -13  -3   3    1.21    0.92
  13   3  -3    3.53    1.74
  13   3  -3    1.72    1.91
 -13  -3   2    0.94    0.82
  13   3  -2   -0.67    0.95
  13   3  -2    1.26    1.05
 -13  -3   1  134.82    6.50
  13   3  -1  136.62    5.21
  13   3  -1  133.47    5.56
 -13  -3   0    3.59    1.60
  13   3   0    3.47    1.10
  13   3   0    4.80    1.85
  13   3   1  230.81    6.31
  13   3   1  228.26   10.59
 -15  -3   7    1.74    1.43
  15   3  -7    0.99    1.79
  15   3  -7    1.34    0.71
 -15  -3   6    0.06    1.18
  15   3  -6    0.89    1.65
  15   3  -6    0.24    0.33
 -15  -3   5    5.21    2.21
  15   3  -5    7.98    2.29
  15   3  -5    6.15    2.16
 -15  -3   4   -0.37    0.92
  15   3  -4    2.56    2.14
  15   3  -4   -0.66    0.86
 -15  -3   3  458.55    9.64
  15   3  -3  433.97   10.51
  15   3  -3  431.10    9.86
 -15  -3   2  124.55    6.44
  15   3  -2  137.00    5.86
  15   3  -2  119.86    5.21
  14  -4  -2    0.62    1.64
  14  -4  -3   91.60    5.23
  14  -4  -4   10.05    2.36
  14  -4  -5    4.31    2.28
  14  -4  -6    2.48    2.35
  14  -4  -7   13.66    2.94
  12  -4   1    2.41    1.98
 -12   4   0  222.71    7.20
  12  -4   0  236.43    7.83
  12  -4   0  230.00   11.55
 -12   4   1  102.77    4.83
  12  -4  -1   99.07    5.18
 -12   4   2    1.13    0.53
  12  -4  -2    0.43    1.13
 -12   4   3    5.68    2.80
  12  -4  -3    8.82    2.17
 -12   4   4   32.03   10.61
  12  -4  -4   37.73    3.35
 -12   4   5   94.61    8.93
  12  -4  -5  107.30    5.23
 -12   4   6    0.52    0.98
  12  -4  -6    1.18    1.38
 -12   4   7   29.69   10.06
  12  -4  -7   33.67    3.42
 -12   4   8   66.33    8.65
  12  -4  -8   74.44    4.82
 -12   4   9    1.96    2.00
  12  -4  -9    1.57    1.67
  10  -4   3   71.06    8.44
  10  -4   3   73.46    5.11
  10  -4   3   68.21    8.87
  10  -4   2   15.97    3.99
  10  -4   2   16.94    7.29
 -10   4  -1  185.06    5.91
  10  -4   1  187.02    9.55
 -10   4   0    3.54    1.38
  10  -4   0    2.13    1.23
 -10   4   1   -0.03    1.03
  10  -4  -1    0.90    1.19
 -10   4   2  643.58   16.32
  10  -4  -2  671.86   17.34
 -10   4   3    9.92    2.63
  10  -4  -3   10.25    1.87
 -10   4   4   34.16    8.49
  10  -4  -4   35.32    2.79
 -10   4   5    2.24    0.96
  10  -4  -5    4.32    1.56
 -10   4   6  181.30    6.01
  10  -4  -6  181.28    6.54
 -10   4   7   39.90    5.41
  10  -4  -7   36.70    3.19
 -10   4   8   22.67    2.49
  10  -4  -8   30.01    3.35
 -10   4   9   13.74    2.43
  10  -4  -9   14.54    2.63
 -10   4  10   27.34    3.21
  10  -4 -10   29.61    3.17
   8  -4   5   -0.90    1.18
   8  -4   5    1.54    1.72
   8  -4   5    0.86    1.15
   8  -4   4    2.06    0.84
   8  -4   4    4.33    1.96
   8  -4   4    8.91    2.83
   8  -4   3   40.22    4.68
   8  -4   3   44.62    3.92
   8  -4   3   34.60    7.91
   8  -4   2 1382.58   15.10
   8  -4   2 1360.54   22.75
  -8   4  -1   99.83    4.53
   8  -4   1  103.06    6.13
  -8   4   0   -0.31    1.00
   8  -4   0   -0.91    1.07
  -8   4   1   20.61    6.93
   8  -4  -1   29.22    2.57
  -8   4   2    2.14    1.45
   8  -4  -2    2.45    1.25
  -8   4   3    0.86    0.54
   8  -4  -3   -0.06    1.24
  -8   4   4  343.58    7.10
   8  -4  -4  345.87    7.42
  -8   4   5    2.48    1.31
   8  -4  -5    2.82    2.14
  -8   4   6   43.29    3.49
   8  -4  -6   40.62    3.20
  -8   4   7   14.22    1.91
   8  -4  -7   12.51    2.18
  -8   4   8  261.46    7.01
   8  -4  -8  258.06    7.46
  -8   4   9    0.60    1.10
   8  -4  -9    1.54    1.46
   8  -4 -10  240.05    8.32
   6  -4   7   29.32    7.62
   6  -4   7   35.55    4.69
   6  -4   6  492.96    9.98
   6  -4   6  469.11   12.84
   6  -4   6  487.49   10.29
   6  -4   5   56.11   12.90
   6  -4   5   58.34    4.37
   6  -4   5   56.45    4.01
   6  -4   4    5.76    1.80
   6  -4   4    2.87    2.01
   6  -4   4    6.72    2.21
   6  -4   3    0.59    0.55
   6  -4   3    5.98    2.85
   6  -4   3   -1.18    1.58
   6  -4   2   22.53    6.31
   6  -4   2   17.33    2.89
  -6   4  -1  238.31    6.19
   6  -4   1  233.35    6.17
  -6   4   0 1758.46   24.67
   6  -4   0 1832.10   14.72
  -6   4   1   53.99    2.65
   6  -4  -1   51.70    2.70
  -6   4   2   25.76    2.20
   6  -4  -2   26.93    2.32
  -6   4   3   47.95    3.55
   6  -4  -3   54.03    3.02
  -6   4   4  160.55    6.51
   6  -4  -4  149.71    4.87
  -6   4   5    1.40    1.19
   6  -4  -5    2.47    1.45
  -6   4   6   -0.25    1.06
   6  -4  -6    1.45    1.45
  -6   4   7   97.04    4.51
   6  -4  -7   94.45    4.79
  -6   4   8    4.42    1.38
   6  -4  -8    3.23    1.42
  -6   4   9   32.54    2.87
   6  -4  -9   36.69    3.36
  -6   4  10   67.30    4.11
   6  -4 -10   62.92    4.10
   6  -4 -10   55.74    4.13
  -6   4  11   16.23    2.61
   6  -4 -11   15.66    2.69
   4  -4   8   12.66    5.26
   4  -4   8   13.62    3.72
   4  -4   7   33.83    8.81
   4  -4   7   45.35    4.29
   4  -4   7   35.41    8.38
   4  -4   6    1.20    0.84
   4  -4   6    0.63    1.90
   4  -4   6    1.26    0.78
   4  -4   5  405.61   11.47
   4  -4   5  392.97   12.41
   4  -4   5  411.36   11.75
   4  -4   3  129.48    5.31
   4  -4   3  132.37    5.56
   4  -4   2  274.87    5.75
   4  -4   2  283.30    6.86
  -4   4  -1   -0.34    0.94
   4  -4   1   -0.96    0.96
  -4   4   0  463.53    6.52
   4  -4   0  478.15    6.93
  -4   4   1  973.46   16.59
   4  -4  -1  970.18   16.58
  -4   4   2  626.11    7.15
   4  -4  -2  592.54    7.42
  -4   4   3   32.40    2.35
   4  -4  -3   25.10    2.10
  -4   4   4   60.71    3.50
   4  -4  -4   60.85    2.95
  -4   4   5   36.68    2.12
   4  -4  -5   34.59    2.60
  -4   4   6  180.35    4.56
   4  -4  -6  180.18    5.26
  -4   4   7   75.26    3.40
   4  -4  -7   71.68    3.71
  -4   4   8  276.47    7.01
   4  -4  -8  276.06    7.36
  -4   4   9   64.02    3.39
   4  -4  -9   65.02    3.85
   4  -4  -9   58.57   14.08
  -4   4  10   47.79    3.25
   4  -4 -10   44.65    3.16
   4  -4 -10   44.34    4.36
   2  -4   9    9.36    2.62
   2  -4   9    9.90    3.16
   2  -4   8   17.77    4.63
   2  -4   8   24.57    3.17
   2  -4   8   16.56    6.99
   2  -4   7    0.92    0.49
   2  -4   7    3.19    1.93
   2  -4   7    1.73    1.09
   2  -4   6  153.24    8.19
   2  -4   6  156.93    7.16
   2  -4   6  154.72    8.38
   2  -4   5   67.82    5.06
   2  -4   5   65.30    3.94
   2  -4   5   67.09    6.35
   2  -4   4  159.38    4.81
   2  -4   4  158.92    5.87
   2  -4   4  162.31    6.95
   2  -4   3  639.44    8.21
   2  -4   3  653.99    9.98
   2  -4   2 1028.89    9.63
   2  -4   2 1030.31   11.41
   2  -4   1    0.20    0.49
   2  -4   1   -0.45    1.25
  -2   4   0 1692.31   26.12
   2  -4   0 1670.50   25.90
  -2   4   1    2.72    1.31
   2  -4  -1    1.80    1.14
  -2   4   2 1341.28   20.65
   2  -4  -2 1313.71   20.66
  -2   4   3  220.19    3.50
   2  -4  -3  216.38    4.22
  -2   4   4   41.21    2.47
   2  -4  -4   46.81    2.54
  -2   4   5   51.42    2.11
   2  -4  -5   46.04    2.41
  -2   4   6  168.09    4.09
   2  -4  -6  171.37    4.57
  -2   4   7    0.95    0.83
   2  -4  -7    1.13    1.08
   2  -4  -7    0.03    0.96
  -2   4   8   39.56    2.61
   2  -4  -8   35.69    2.52
   2  -4  -8   45.88    5.52
  -2   4   9   15.42    2.17
   2  -4  -9   14.41    2.10
   2  -4  -9   13.15    3.18
  -2   4  10  261.21    7.21
   2  -4 -10  261.86    7.27
   2  -4 -10  267.50   13.17
   0  -4   9   95.60    4.83
   0  -4   9  106.07    6.31
   0  -4   9   97.37   12.24
   0  -4   8   58.37    4.35
   0  -4   8   53.33    4.13
   0  -4   8   59.29    5.72
   0  -4   7    1.96    1.20
   0  -4   7    2.99    1.86
   0  -4   7    5.40    1.31
   0  -4   6    1.31    0.57
   0  -4   6   -1.83    1.85
   0  -4   6    0.89    0.78
   0  -4   5  138.42    5.72
   0  -4   5  130.20    5.22
   0  -4   5  131.01    3.97
   0  -4   4  899.24    9.98
   0  -4   4  871.58   11.28
   0  -4   3   62.21    2.57
   0  -4   3   64.11    3.48
   0  -4   2 1104.26   17.96
   0  -4   2 1107.92   18.86
   0  -4   1  181.32    4.25
   0  -4   1  187.65    4.27
   0  -4   0  891.46   14.19
   0  -4   0  865.51   14.32
   0  -4  -1  173.77    2.78
   0  -4  -1  177.95    3.18
   0   4   3   61.63    1.75
   0  -4  -3   59.28    1.75
   0   4   4  834.66    5.18
   0  -4  -4  855.24    6.18
   0   4   5  129.27    2.92
   0  -4  -5  129.11    3.18
   0  -4  -5  122.54    4.91
   0   4   6    1.54    0.87
   0  -4  -6    1.88    1.43
   0  -4  -6    1.15    0.54
   0   4   7    2.98    1.30
   0  -4  -7    3.45    1.07
   0  -4  -7    2.42    1.56
   0   4   8   57.42    2.88
   0  -4  -8   56.69    2.77
   0  -4  -8   59.99    8.24
   0   4   9   96.90    4.24
   0  -4  -9   95.08    3.98
   0  -4  -9   94.11    5.16
   2   4 -10  260.46    9.34
  -2  -4   9   19.44    3.22
   2   4  -9   20.87    3.26
  -2  -4   9   13.33    4.25
  -2  -4   8   36.55    3.74
   2   4  -8   36.09    3.42
  -2  -4   8   36.39    5.57
  -2  -4   7    0.19    1.75
   2   4  -7    1.99    1.58
  -2  -4   7    0.49    0.39
  -2  -4   6  172.51    6.00
   2   4  -6  180.70    6.07
  -2  -4   6  177.42    4.10
  -2  -4   5   54.63    3.33
   2   4  -5   53.49    3.49
  -2  -4   5   52.15    2.36
  -2  -4   4   45.86    3.28
   2   4  -4   43.15    2.93
  -2  -4   3  224.88    5.28
   2   4  -3  221.30    5.09
  -2  -4   2 1354.54   21.82
  -2  -4   1    1.66    0.74
  -2  -4   1    2.05    0.95
  -2  -4   0 1667.70   24.44
  -2  -4   0 1586.48   23.66
  -2  -4  -2 1009.39   10.78
  -2  -4  -3  623.35    9.13
  -2  -4  -4  156.33    5.25
   2   4   5   62.08    1.41
   2   4   5   64.26    1.41
  -2  -4  -5   64.39    7.36
   2   4   6  149.48    3.87
   2   4   6  141.78    4.08
  -2  -4  -6  146.19   10.22
   2   4   7    2.20    0.67
   2   4   7    2.92    1.04
  -2  -4  -7    2.33    1.03
   2   4   8   19.48    2.98
   2   4   8   17.29    1.61
  -2  -4  -8   15.64    3.96
   2   4   9    8.93    2.32
  -2  -4  -9   10.38    3.08
  -4  -4  10   47.25    4.49
   4   4 -10   44.79    4.15
  -4  -4   9   71.82    4.79
   4   4  -9   57.95    4.31
  -4  -4   8  292.22    8.71
   4   4  -8  282.91    8.74
  -4  -4   7   70.57    3.94
   4   4  -7   77.97    4.54
  -4  -4   6  200.56    6.10
   4   4  -6  190.72    6.34
  -4  -4   5   36.95    3.12
   4   4  -5   37.33    2.99
  -4  -4   4   64.98    3.18
   4   4  -4   68.83    3.48
  -4  -4   3   29.34    2.11
   4   4  -3   29.88    2.22
  -4  -4   3   29.43    1.82
  -4  -4   2  596.92    6.81
   4   4  -2  610.28    6.82
  -4  -4   2  611.19    5.68
  -4  -4   1  946.12   15.11
   4   4  -1  974.70   15.33
  -4  -4   1  962.05   15.78
  -4  -4   0  450.73    2.52
  -4  -4   0  456.60    6.43
  -4  -4  -1    0.63    0.70
  -4  -4  -2  284.39    6.25
  -4  -4  -3  123.22    9.45
  -4  -4  -4  680.40   10.58
  -4  -4  -5  381.42   11.47
   4   4   6    0.28    0.30
   4   4   6    0.33    0.37
  -4  -4  -6    0.38    0.97
   4   4   7   44.15    1.84
   4   4   7   42.03    2.18
  -4  -4  -7   35.20    4.14
   4   4   8   10.15    3.06
  -4  -4  -8   10.44    4.36
   6   4 -11   15.08    3.08
  -6  -4  10   71.64    5.38
   6   4 -10   62.70    4.68
  -6  -4   9   33.97    3.48
   6   4  -9   33.00    3.41
  -6  -4   8    6.42    2.42
   6   4  -8    6.38    2.40
  -6  -4   7   99.57    5.37
   6   4  -7  105.75    5.42
  -6  -4   6    0.45    1.51
   6   4  -6    0.43    1.47
  -6  -4   5    2.45    1.47
   6   4  -5    1.97    1.69
  -6  -4   4  156.20    4.96
   6   4  -4  155.62    4.93
  -6  -4   3   49.36    2.60
   6   4  -3   51.38    2.78
  -6  -4   3   53.54    1.79
  -6  -4   2   27.32    1.98
   6   4  -2   26.20    1.90
  -6  -4   2   26.50    2.40
  -6  -4   1   51.68    1.73
   6   4  -1   52.61    1.97
  -6  -4   1   52.07    2.39
  -6  -4   0 1799.05   19.06
  -6  -4   0 1807.43   13.55
  -6  -4  -1  241.69    6.17
  -6  -4  -2   16.86    4.85
  -6  -4  -3   -0.62    1.25
  -6  -4  -4    1.67    1.08
  -6  -4  -5   51.41   13.85
   6   4   6  447.78    8.14
   6   4   6  430.86    8.23
  -6  -4  -6  469.72   13.16
  -6  -4  -7   30.24    9.61
  -8  -4  10  247.89    8.96
   8   4 -10  232.43    8.89
  -8  -4   9    1.29    1.71
   8   4  -9    0.23    1.62
  -8  -4   8  287.79    8.12
   8   4  -8  258.81    8.12
  -8  -4   7   15.89    2.65
   8   4  -7   13.31    2.38
  -8  -4   6   39.33    3.09
   8   4  -6   40.14    3.15
  -8  -4   5    1.50    1.43
   8   4  -5    2.87    1.96
  -8  -4   4  354.74    6.79
   8   4  -4  355.50    7.15
  -8  -4   3    0.74    0.94
   8   4  -3    0.81    1.07
  -8  -4   2    0.62    0.71
   8   4  -2    0.69    0.93
  -8  -4   2   -0.27    0.77
  -8  -4   1   25.40    2.29
   8   4  -1   21.11    1.72
  -8  -4   1   24.59    6.16
  -8  -4   0    3.35    0.61
   8   4   0    4.76    1.19
  -8  -4   0    2.40    0.83
  -8  -4  -1  103.23    4.72
  -8  -4  -2 1412.20   15.91
  -8  -4  -3   40.82   11.37
  -8  -4  -4    2.41    1.01
  -8  -4  -5    1.95    0.74
 -10  -4  10   28.19    3.35
  10   4 -10   24.90    3.50
 -10  -4   9   14.75    2.41
  10   4  -9   15.79    2.78
 -10  -4   8   25.15    2.93
  10   4  -8   24.89    3.00
 -10  -4   7   41.40    3.39
  10   4  -7   38.43    3.44
 -10  -4   6  179.85    6.09
  10   4  -6  190.23    6.54
 -10  -4   5    1.85    1.73
  10   4  -5    0.73    1.28
 -10  -4   4   39.47    2.47
  10   4  -4   37.21    2.93
 -10  -4   3    9.63    1.40
  10   4  -3    7.94    1.52
 -10  -4   2  646.62   15.19
  10   4  -2  604.47   14.67
 -10  -4   1    1.68    0.64
  10   4  -1    0.57    0.72
 -10  -4   1    0.32    0.64
 -10  -4   0    3.23    0.95
  10   4   0    3.94    1.16
 -10  -4   0    1.37    1.06
  10   4   1  174.16    3.60
 -10  -4  -1  171.22    5.67
  10   4   2   19.25    1.31
  10   4   2   22.69    1.38
 -10  -4  -2   16.25    4.51
  10   4   3   81.48    2.41
 -10  -4  -3   75.48    4.62
 -12  -4   9   -0.11    1.44
  12   4  -9    0.02    1.51
 -12  -4   8   73.44    4.60
  12   4  -8   74.90    5.08
 -12  -4   7   34.87    3.00
  12   4  -7   37.83    3.86
 -12  -4   6    0.21    0.99
  12   4  -6    2.53    2.14
 -12  -4   5  105.65    4.29
  12   4  -5  101.98    4.68
 -12  -4   4   33.36    2.46
  12   4  -4   36.01    2.83
 -12  -4   3    6.87    1.97
  12   4  -3    6.71    1.40
 -12  -4   2    0.46    0.44
  12   4  -2    0.49    0.78
 -12  -4   1   96.41    3.25
  12   4  -1   95.87    4.02
  12   4  -1   91.88    4.65
 -12  -4   0  212.74    5.44
  12   4   0  206.06    5.46
  12   4   0  198.34    7.07
  12   4   1   -0.02    0.55
  12   4   1    0.50    0.61
 -14  -4   7   15.49    2.41
  14   4  -7   10.44    2.77
 -14  -4   6    3.51    1.67
  14   4  -6    2.10    2.31
 -14  -4   5    1.96    1.05
  14   4  -5    1.89    1.51
 -14  -4   4    5.12    2.18
  14   4  -4    7.26    2.06
 -14  -4   3   95.13    3.74
  14   4  -3   91.40    4.46
  14   4  -3   98.49    4.56
 -14  -4   2    2.79    0.75
  14   4  -2    1.40    1.66
  14   4  -2    1.24    1.52
  13  -5  -2   21.27    3.14
  13  -5  -3    0.08    1.51
  13  -5  -4  336.03   10.03
  13  -5  -5   79.36    4.94
  13  -5  -6  143.35    6.97
  11  -5   1   17.99    2.63
 -11   5   0  209.42    7.07
  11  -5   0  228.40    7.71
 -11   5   1   74.52   11.98
  11  -5  -1   74.06    4.50
 -11   5   2   91.39    4.53
  11  -5  -2   88.31    4.86
 -11   5   3    0.24    0.89
  11  -5  -3    1.82    1.76
 -11   5   4    1.78    0.83
  11  -5  -4    2.19    1.30
 -11   5   5    1.09    0.79
  11  -5  -5    0.71    1.19
 -11   5   6  658.33   15.30
  11  -5  -6  672.76   12.58
 -11   5   7    3.20    1.48
  11  -5  -7   -0.61    1.33
 -11   5   8   49.80    4.47
  11  -5  -8   50.62    4.15
   9  -5   3    5.39    1.79
   9  -5   3   10.12    2.96
   9  -5   2   23.01    5.35
   9  -5   2   22.84    3.24
   9  -5   2   29.96    4.11
  -9   5  -1    3.28    1.58
   9  -5   1    4.80    1.47
  -9   5   0   64.18    5.17
   9  -5   0   66.63    3.66
  -9   5   1   33.49    4.20
   9  -5  -1   36.42    3.04
  -9   5   2  630.18   11.72
   9  -5  -2  649.61   12.49
  -9   5   3   88.60    3.93
   9  -5  -3   97.86    4.68
  -9   5   4   37.85    5.77
  -9   5   5   67.63    5.69
   9  -5  -5   69.16    3.99
  -9   5   6   24.92    3.14
   9  -5  -6   20.16    2.43
  -9   5   7   98.08    4.37
   9  -5  -7   93.66    4.87
   9  -5  -8  596.94   15.02
  -9   5   9    1.06    1.20
   9  -5  -9    0.73    1.31
   7  -5   5   21.55    7.64
   7  -5   5   17.94    6.13
   7  -5   4    4.72    1.10
   7  -5   4    6.62    2.20
   7  -5   4    4.92    1.68
   7  -5   3    0.97    1.25
   7  -5   3    5.91    2.85
   7  -5   3    1.69    1.70
   7  -5   2   74.87    7.99
   7  -5   2   79.49    4.71
  -7   5  -1   26.14    2.38
   7  -5   1   24.52    6.98
   7  -5   0    2.79    0.78
  -7   5   1   17.13    4.21
   7  -5  -1   17.27    2.05
  -7   5   2   10.09    3.50
   7  -5  -2    7.59    1.57
  -7   5   3  184.10    6.30
   7  -5  -3  184.05    5.52
  -7   5   4  853.21   20.06
   7  -5  -4  816.46   19.83
  -7   5   5    1.40    0.86
   7  -5  -5    4.66    2.17
  -7   5   6   89.05    3.80
   7  -5  -6   95.85    4.57
  -7   5   7  112.34    4.20
   7  -5  -7  120.75    5.14
  -7   5   8    2.56    1.27
   7  -5  -8    0.51    1.20
  -7   5   9   98.96    4.53
   7  -5  -9   99.92    5.00
   5  -5   6   22.66    7.17
   5  -5   6   26.68    3.49
   5  -5   6   19.34    6.94
   5  -5   5  117.71   12.44
   5  -5   5  115.86    6.12
   5  -5   5  101.50   12.50
   5  -5   4  298.47    7.19
   5  -5   4  309.56    8.81
   5  -5   4  299.44   18.42
   5  -5   3  143.34    5.02
   5  -5   3  151.78    6.51
   5  -5   2    0.56    0.40
   5  -5   2    0.55    1.57
   5  -5   1   35.75    8.42
  -5   5   0  298.46    6.05
   5  -5   0  293.60    6.15
  -5   5   1   17.03    5.67
   5  -5  -1   13.71    1.65
  -5   5   2  149.02    5.75
   5  -5  -2  145.35    4.50
  -5   5   3  120.95    3.65
   5  -5  -3  115.10    3.96
  -5   5   4    3.35    1.33
   5  -5  -4    2.37    1.21
  -5   5   5  211.52    4.82
   5  -5  -5  197.60    5.56
  -5   5   6  617.36   14.94
   5  -5  -6  621.99   15.83
  -5   5   7    3.91    0.97
   5  -5  -7    4.76    1.85
  -5   5   8  451.71    7.84
   5  -5  -8  461.92    8.76
  -5   5   9    4.60    1.64
   5  -5  -9    6.77    2.18
  -5   5  10   16.69    2.16
   5  -5 -10   19.10    2.48
   5  -5 -10   16.18    4.61
   3  -5   7    2.24    0.89
   3  -5   7    1.31    1.86
   3  -5   7    0.94    0.53
   3  -5   6   11.45    4.00
   3  -5   6    9.26    2.57
   3  -5   6   10.53    3.67
   3  -5   5   44.81    4.03
   3  -5   5   52.78    4.25
   3  -5   5   42.85    4.55
   3  -5   4  217.35    8.04
   3  -5   4  221.60    8.26
   3  -5   4  257.83   17.70
   3  -5   3  178.88    4.93
   3  -5   3  193.27    6.38
   3  -5   2    8.13    1.89
   3  -5   2    8.28    2.20
   3  -5   1  137.55    4.26
   3  -5   1  142.68    5.34
  -3   5   1   59.41    3.94
   3  -5  -1   61.66    2.66
  -3   5   2   47.86    2.05
   3  -5  -2   46.68    2.37
  -3   5   3    8.84    2.68
   3  -5  -3    7.99    1.26
  -3   5   4  487.96    5.94
   3  -5  -4  452.71    7.01
  -3   5   5  100.14    4.01
   3  -5  -5  105.91    3.75
  -3   5   6   91.38    5.01
   3  -5  -6   91.58    3.99
  -3   5   7    3.68    0.92
   3  -5  -7    2.82    1.07
  -3   5   8  238.19    5.29
   3  -5  -8  244.87    5.82
   3  -5  -8  225.26    7.51
  -3   5   9   32.10    2.30
   3  -5  -9   30.64    2.51
   3  -5  -9   27.76   10.75
   1  -5   8  330.58    9.22
   1  -5   8  324.12   10.53
   1  -5   8  326.36    8.08
   1  -5   7  332.33    7.86
   1  -5   7  322.12    9.46
   1  -5   7  320.56    7.18
   1  -5   6  210.64    9.84
   1  -5   6  228.22    7.39
   1  -5   6  232.14    5.69
   1  -5   5   20.81    5.19
   1  -5   5   19.49    2.55
   1  -5   5   21.37    4.68
   1  -5   4  108.33    3.82
   1  -5   4  108.60    4.91
   1  -5   3   45.63    2.51
   1  -5   3   47.85    3.37
   1  -5   2  308.42    6.36
   1  -5   2  313.03    7.43
   1  -5   1    0.16    0.46
   1  -5   1    2.98    1.99
   1  -5   0   69.74    2.53
   1  -5   0   71.76    2.94
   1  -5  -1   19.83    1.56
   1  -5  -1   18.87    1.62
  -1   5   2  382.26    5.90
   1  -5  -2  357.87    6.16
  -1   5   3   35.86    1.84
   1  -5  -3   31.62    1.81
  -1   5   4   29.93    2.26
   1  -5  -4   29.20    1.93
  -1   5   5  286.69    3.62
   1  -5  -5  282.94    4.52
  -1   5   6  676.69    9.02
   1  -5  -6  702.24   10.00
   1  -5  -6  700.08   13.98
  -1   5   7   -0.29    0.48
   1  -5  -7   -0.12    0.69
   1  -5  -7   -0.49    1.17
  -1   5   8  215.15    5.53
   1  -5  -8  212.19    5.69
   1  -5  -8  210.47    7.91
  -1   5   9    2.42    0.90
   1  -5  -9    2.70    1.11
   1  -5  -9    2.16    1.61
  -1  -5   9    0.84    1.09
  -1  -5   9    1.05    0.44
  -1  -5   8  229.50    7.74
  -1  -5   8  238.89    9.12
  -1  -5   8  229.68    6.21
  -1  -5   7    2.30    1.01
  -1  -5   7    1.35    1.66
  -1  -5   7    0.06    0.37
  -1  -5   6  743.18   13.05
  -1  -5   6  703.08   13.86
  -1  -5   6  742.79   11.12
  -1  -5   5  298.04    6.45
  -1  -5   5  294.80    7.48
  -1  -5   5  286.71    5.11
  -1  -5   4   29.93    2.13
  -1  -5   4   26.70    2.52
  -1  -5   3   33.79    3.55
  -1  -5   3   32.52    2.60
  -1  -5   2  376.10    6.71
  -1  -5   2  366.49    7.52
  -1  -5   1   19.14    2.92
  -1  -5   1   17.77    1.73
  -1  -5   0   66.49    1.93
  -1  -5   0   68.13    2.53
  -1  -5  -1    1.01    0.70
  -1  -5  -1    1.36    0.88
  -1  -5  -2  288.93    3.94
  -1  -5  -2  298.67    3.93
  -1  -5  -4   98.54    8.62
  -1  -5  -5   18.62    6.27
  -1  -5  -6  213.34    6.78
   1   5   7  318.56    2.98
   1   5   7  307.20    3.09
  -1  -5  -7  313.44    8.48
   1   5   8  316.51    5.63
  -1  -5  -8  312.62    9.93
  -3  -5   9   34.34    3.78
   3   5  -9   37.19    3.61
  -3  -5   8  233.11    7.87
   3   5  -8  238.85    7.90
  -3  -5   8  244.20    3.77
  -3  -5   7    4.50    1.76
  -3  -5   7    5.34    1.17
  -3  -5   6   86.68    4.44
   3   5  -6   99.38    5.17
  -3  -5   6   95.83    2.96
  -3  -5   5  109.66    4.64
   3   5  -5  101.73    4.54
  -3  -5   5  105.61    2.44
  -3  -5   4  478.86    8.27
   3   5  -4  489.14    8.25
  -3  -5   3    7.60    1.39
  -3  -5   2   45.43    1.89
  -3  -5   2   45.13    2.42
  -3  -5   1   59.47    1.95
  -3  -5   1   54.18    2.19
  -3  -5   0  101.54    2.03
  -3  -5   0  100.60    2.33
  -3  -5  -1  136.96    4.82
  -3  -5  -2   12.94    2.96
  -3  -5  -3  176.92    5.42
  -3  -5  -4  233.77    8.04
  -3  -5  -5   46.07    4.89
  -3  -5  -6   11.42    3.70
  -3  -5  -7   -0.39    0.84
   5   5 -10   15.87    2.87
  -5  -5   9    1.20    1.71
   5   5  -9    0.77    1.36
  -5  -5   8  464.10   10.34
   5   5  -8  449.90   10.28
  -5  -5   7    4.34    1.70
   5   5  -7    5.70    1.76
  -5  -5   6  625.40   16.36
   5   5  -6  611.26   16.20
  -5  -5   5  203.87    5.79
   5   5  -5  206.33    5.96
  -5  -5   4    8.16    1.83
   5   5  -4    4.33    1.74
  -5  -5   4    5.50    1.06
  -5  -5   3  115.39    3.88
   5   5  -3  115.82    3.82
  -5  -5   3  124.33    2.71
  -5  -5   2  156.54    4.30
   5   5  -2  152.69    3.95
  -5  -5   2  155.93    4.11
  -5  -5   1   17.00    1.39
  -5  -5   1   15.59    1.14
  -5  -5   1   10.73    3.84
  -5  -5   0  309.09    5.94
  -5  -5  -1   34.98    3.99
  -5  -5  -2    1.83    1.52
  -5  -5  -4  286.48    7.47
  -5  -5  -5  108.00   14.51
  -5  -5  -6   17.40    5.86
   7   5 -10  306.82   10.70
  -7  -5   9  107.80    5.79
   7   5  -9  114.26    6.33
  -7  -5   8   -0.26    1.36
   7   5  -8    0.90    1.72
  -7  -5   7  118.85    5.12
   7   5  -7  117.69    5.31
  -7  -5   6  104.18    4.71
   7   5  -6   94.42    4.63
  -7  -5   5    0.19    1.29
   7   5  -5    0.97    1.22
  -7  -5   4  821.77   19.47
   7   5  -4  833.18   19.73
   7   5  -3  188.75    4.63
  -7  -5   2    9.54    1.22
   7   5  -2   11.03    1.53
  -7  -5   2    8.79    2.44
  -7  -5   1   13.81    0.81
   7   5  -1   14.16    1.03
  -7  -5   1   13.21    3.46
  -7  -5   0    2.07    0.95
  -7  -5  -1   21.95    6.67
  -7  -5  -2   72.41   11.14
  -7  -5  -3    0.75    1.24
  -7  -5  -4    5.44    1.64
  -7  -5  -5   20.91    4.53
  -9  -5   9    0.05    1.57
   9   5  -9    1.12    1.68
  -9  -5   8  597.13   14.96
   9   5  -8  564.32   14.77
  -9  -5   7  106.85    5.07
   9   5  -7   92.52    4.84
  -9  -5   6   20.44    2.39
   9   5  -6   22.25    2.56
  -9  -5   5   69.90    3.61
   9   5  -5   68.26    3.69
  -9  -5   4   42.18    2.54
   9   5  -4   40.29    2.79
  -9  -5   3   87.78    3.33
   9   5  -3   97.72    3.71
  -9  -5   3   91.90    2.99
  -9  -5   2  605.69    8.67
   9   5  -2  622.18    9.40
  -9  -5   1   33.44    1.10
   9   5  -1   33.35    1.45
  -9  -5   1   29.58    3.77
  -9  -5   0   73.54    4.10
  -9  -5  -1    1.62    0.62
  -9  -5  -2   24.57    7.39
  -9  -5  -3    7.58    1.91
 -11  -5   8   50.87    3.95
  11   5  -8   53.64    4.36
 -11  -5   7    2.64    1.51
  11   5  -7    5.02    2.35
 -11  -5   6  632.45   14.50
  11   5  -6  616.09   14.71
 -11  -5   5    0.40    1.05
  11   5  -5    1.48    1.16
 -11  -5   4    1.49    0.81
  11   5  -4    2.88    1.37
 -11  -5   3   -0.02    0.64
  11   5  -3    0.01    0.71
 -11  -5   2   82.80    2.76
  11   5  -2   86.30    3.40
 -11  -5   1   71.92    2.14
  11   5  -1   81.79    2.94
 -11  -5   1   74.37    4.80
 -11  -5   0  225.78    7.09
 -11  -5  -1   15.06    4.11
 -13  -5   6  147.00    5.54
  13   5  -6  137.26    6.25
 -13  -5   5   82.42    3.99
  13   5  -5   74.19    4.34
 -13  -5   4  332.67    7.38
  13   5  -4  307.71    8.00
 -13  -5   3    0.67    0.78
  13   5  -3    1.05    0.88
 -13  -5   2   16.23    3.15
 -10   6   0   79.44    4.39
  10  -6   0   81.97    4.72
 -10   6   1   43.16    4.25
  10  -6  -1   48.80    3.59
 -10   6   2    6.27    1.88
  10  -6  -2    6.66    1.95
 -10   6   3   79.01    4.07
  10  -6  -3   90.65    4.99
 -10   6   4  110.90    4.76
  10  -6  -4  111.92    5.33
 -10   6   5    4.61    1.41
  10  -6  -5    2.75    1.80
 -10   6   6   23.09    7.59
  10  -6  -6   29.37    3.09
 -10   6   7   67.92    6.53
  10  -6  -7   68.42    4.54
   8  -6   3  179.24    6.72
   8  -6   3  160.16   21.79
   8  -6   2    1.98    1.78
   8  -6   2    0.79    1.70
   8  -6   1  194.25   10.08
   8  -6   1  218.90    8.90
  -8   6   0  194.01    7.71
   8  -6   0  202.28    6.27
  -8   6   1    1.64    1.53
   8  -6  -1    4.28    1.62
  -8   6   2   92.94    3.95
   8  -6  -2   95.25    4.32
  -8   6   3   62.55    5.69
   8  -6  -3   61.33    3.62
  -8   6   4    1.30    0.75
   8  -6  -4    1.52    1.13
  -8   6   5   22.74    3.43
   8  -6  -5   18.22    2.14
  -8   6   6   -0.12    0.53
   8  -6  -6   -0.28    1.17
  -8   6   7   70.80    4.77
   8  -6  -7   75.78    4.54
  -8   6   8    1.87    0.67
   8  -6  -8    5.93    2.37
   6  -6   4   76.88    4.27
   6  -6   4   78.30    5.28
   6  -6   4   60.27   13.75
   6  -6   3   31.17    9.85
   6  -6   3   29.81    3.68
   6  -6   2   22.91    6.54
   6  -6   2   25.36    3.29
   6  -6   1  770.40   11.09
   6  -6   1  757.32   12.65
  -6   6   0   84.47    4.00
   6  -6   0   77.86    3.78
  -6   6   1   74.71    6.50
   6  -6  -1   89.67    4.08
  -6   6   2  110.94    4.02
   6  -6  -2  110.53    4.39
  -6   6   3    0.65    0.78
   6  -6  -3    0.83    0.95
  -6   6   4    1.04    1.16
   6  -6  -4    0.49    1.00
  -6   6   5  158.47    6.88
   6  -6  -5  156.22    5.26
  -6   6   6    0.23    0.53
   6  -6  -6    0.74    1.06
  -6   6   7  147.67    4.99
   6  -6  -7  154.28    5.94
  -6   6   8    2.91    1.21
   6  -6  -8    3.61    1.71
   4  -6   6   73.59   11.36
   4  -6   6   67.41    8.01
   4  -6   5  345.14    9.24
   4  -6   5  345.48   10.82
   4  -6   5  348.99    9.32
   4  -6   4   52.33    9.96
   4  -6   4   61.99    4.74
   4  -6   4   63.55    5.92
   4  -6   3   88.82    7.63
   4  -6   3  105.54    5.53
   4  -6   2   70.20    3.33
   4  -6   2   75.51    4.48
   4  -6   1   33.51    6.15
   4  -6   1   32.15    2.74
   4  -6   0   24.41    6.86
   4  -6   0   27.54    2.56
  -4   6   1 1265.76   28.09
   4  -6  -1 1215.66   27.27
  -4   6   2  557.64   13.47
   4  -6  -2  530.41   13.26
  -4   6   3    0.55    0.33
   4  -6  -3   -1.02    0.87
  -4   6   4   -0.74    0.60
   4  -6  -4    0.87    0.97
  -4   6   5   10.35    3.07
   4  -6  -5    6.65    1.47
  -4   6   6   45.12    2.13
   4  -6  -6   52.23    3.07
  -4   6   7    5.12    1.79
   4  -6  -7    4.80    1.16
  -4   6   8    5.62    1.97
   4  -6  -8   10.64    1.88
   2  -6   7    1.27    1.79
   2  -6   7    3.90    2.30
   2  -6   6    6.72    2.07
   2  -6   6   12.89    2.74
   2  -6   6    6.12    2.23
   2  -6   5  203.22    8.30
   2  -6   5  199.10    7.18
   2  -6   5  186.11    6.81
   2  -6   4    0.44    0.65
   2  -6   4    2.03    1.64
   2  -6   3  826.57   13.37
   2  -6   2  343.23    9.52
   2  -6   2  337.96   10.28
   2  -6   1  579.40   14.15
   2  -6   1  584.71   14.98
   2  -6   0    0.80    0.59
   2  -6   0   -1.04    1.06
   2  -6  -1   13.57    1.47
   2  -6  -1   15.31    1.93
   2  -6  -2    6.04    1.14
  -2   6   3  916.15   19.96
   2  -6  -3  831.35   18.86
  -2   6   4  358.84    5.80
   2  -6  -4  337.01    6.62
  -2   6   5    3.12    0.81
   2  -6  -5    4.79    1.22
  -2   6   6    4.89    1.23
   2  -6  -6    5.30    1.13
  -2   6   7    0.54    0.49
   2  -6  -7    0.16    0.55
   2  -6  -7    1.48    1.55
   2  -6  -8   85.21    3.13
   2  -6  -8   76.11    5.21
   0  -6   7    7.24    1.99
   0  -6   7    4.95    1.72
   0  -6   7    5.42    1.70
   0  -6   6   51.85    8.39
   0  -6   6   57.39    4.47
   0  -6   6   55.23    7.92
   0  -6   5   62.28    3.22
   0  -6   5   65.39    4.33
   0  -6   5   60.54    7.43
   0  -6   4    1.77    0.71
   0  -6   4   -0.38    1.40
   0  -6   3   53.98    2.61
   0  -6   3   51.41    3.19
   0  -6   2   58.41    4.69
   0  -6   2   58.56    3.30
   0  -6   1  583.64    7.16
   0  -6   1  572.28    8.21
   0  -6   0  645.06    6.95
   0  -6   0  665.50    8.07
   0  -6  -1  534.05    5.85
   0  -6  -1  548.09    6.50
   0  -6  -2   58.30    2.01
   0  -6  -2   55.72    1.98
   0  -6  -3   49.84    1.60
   0  -6  -3   51.89    1.44
   0  -6  -5   61.03    3.85
   0  -6  -6   39.70   13.37
   0  -6  -7    5.91    3.10
  -2  -6   8   77.27    6.36
  -2  -6   8   92.21    5.72
  -2  -6   8   93.88    3.12
  -2  -6   7    0.49    0.72
  -2  -6   7    1.31    1.53
  -2  -6   7    1.06    0.52
  -2  -6   6    3.91    1.73
  -2  -6   6    7.72    2.34
  -2  -6   6    4.13    1.27
  -2  -6   5    3.84    1.14
  -2  -6   5    3.80    2.10
  -2  -6   5    3.77    1.13
  -2  -6   4  363.12    7.49
  -2  -6   4  355.60    8.56
  -2  -6   3  883.81   20.06
  -2  -6   3  895.50   21.12
  -2  -6   2    7.28    1.77
  -2  -6   2    5.81    1.37
  -2  -6   1   15.19    2.46
  -2  -6   1   13.75    1.65
  -2  -6   0    0.04    0.20
  -2  -6   0    0.29    0.59
  -2  -6  -1  550.30   11.63
  -2  -6  -2  316.29    9.68
  -2  -6  -4    0.41    0.55
  -2  -6  -5  201.28    6.70
  -2  -6  -6    5.38    1.53
  -2  -6  -7    1.01    1.57
  -4  -6   8    8.10    2.20
  -4  -6   7    5.07    1.80
   4   6  -7    3.22    1.55
  -4  -6   6   52.21    3.82
  -4  -6   6   53.56    1.21
  -4  -6   5    4.84    0.97
  -4  -6   5   11.22    2.08
  -4  -6   5    8.66    2.66
  -4  -6   4   -0.12    0.63
  -4  -6   4   -0.69    1.13
  -4  -6   3    0.96    0.77
  -4  -6   3    0.52    0.95
  -4  -6   2  543.39   12.46
  -4  -6   2  541.41   13.13
  -4  -6   2  531.73   12.81
  -4  -6   1 1231.07   25.83
  -4  -6   1 1155.88   24.77
  -4  -6   1 1221.26   27.08
  -4  -6   0   22.00    6.77
  -4  -6  -1   30.15    3.75
  -4  -6  -2   69.76    3.51
  -4  -6  -3   89.68    6.95
  -4  -6  -4   57.25    3.72
  -4  -6  -5  358.69   10.12
  -4  -6  -6   74.02    4.86
  -6  -6   8    4.48    2.21
   6   6  -8    2.08    1.70
  -6  -6   7  170.98    7.09
   6   6  -7  178.81    7.41
  -6  -6   6    0.75    1.24
   6   6  -6   -0.60    1.14
  -6  -6   5  159.09    5.51
   6   6  -5  162.57    5.48
  -6  -6   4    2.02    1.28
   6   6  -4    2.18    1.47
  -6  -6   4    1.36    0.43
  -6  -6   3    0.18    0.87
  -6  -6   3    0.17    0.41
  -6  -6   2  111.65    2.74
  -6  -6   2  103.08    3.16
  -6  -6   2  106.91    3.40
  -6  -6   1   83.33    1.81
  -6  -6   1   82.24    1.46
  -6  -6   1   78.48    4.71
  -6  -6   0   75.45    3.33
  -6  -6  -1  776.65   10.77
  -6  -6  -2   18.36    5.47
  -6  -6  -3   20.69    6.69
  -6  -6  -4   74.40    4.37
  -8  -6   8    1.87    2.02
   8   6  -8    3.44    2.41
  -8  -6   7   76.03    4.47
   8   6  -7   67.96    4.80
  -8  -6   6    0.13    1.25
   8   6  -6    1.53    1.18
  -8  -6   5   22.61    2.49
   8   6  -5   19.67    2.08
  -8  -6   4    1.60    1.19
   8   6  -4    0.96    0.94
  -8  -6   3   63.85    2.68
   8   6  -3   73.94    3.01
  -8  -6   3   70.28    4.37
  -8  -6   2   96.45    2.29
  -8  -6   2  101.10    3.36
  -8  -6   1    1.61    1.33
  -8  -6   0  195.09    5.54
  -8  -6  -1  201.45   10.06
  -8  -6  -2    0.82    0.49
  -8  -6  -3  183.60    6.92
 -10  -6   7   77.66    4.56
  10   6  -7   78.62    5.18
 -10  -6   6   29.37    2.95
  10   6  -6   30.21    2.97
 -10  -6   5    1.42    1.03
  10   6  -5    2.13    1.62
 -10  -6   4  113.13    4.09
  10   6  -4  116.94    4.30
 -10  -6   3   85.12    2.99
  10   6  -3   87.48    3.30
 -10  -6   2    3.48    1.06
  10   6  -2    6.04    0.81
 -10  -6   2    4.98    1.26
 -10  -6   1   42.06    7.75
 -10  -6   0   83.84    4.72
   9  -7  -2   25.19    2.75
  -9   7   3  411.49    9.65
   9  -7  -3  397.42   10.23
  -9   7   4    0.59    0.52
   9  -7  -4    0.17    1.05
   7  -7   1   52.98    7.22
   7  -7   1   58.87    4.56
   7  -7   0   81.10    4.32
   7  -7   0   81.51    4.95
  -7   7   1   -0.17    1.09
   7  -7  -1    0.78    0.98
  -7   7   2   62.31    3.44
   7  -7  -2   60.57    3.60
  -7   7   3   60.54    3.99
   7  -7  -3   55.91    3.42
  -7   7   4   56.73    3.06
   7  -7  -4   61.70    3.67
   7  -7  -5  561.39   11.81
  -7   7   6   -0.20    0.74
   7  -7  -6    1.22    1.66
   5  -7   3   21.95    8.84
   5  -7   2   16.45    6.13
   5  -7   2   24.37    3.30
   5  -7   1    0.90    0.62
   5  -7   1    5.05    2.20
   5  -7   0    4.99    2.36
   5  -7  -1  498.75    8.65
   5  -7  -1  468.75    9.24
   5  -7  -2    5.85    1.40
  -5   7   3   29.95    2.06
   5  -7  -3   28.07    2.30
  -5   7   4    0.32    0.34
   5  -7  -4    0.57    0.96
  -5   7   5  267.71    6.25
   5  -7  -5  250.23    7.05
  -5   7   6   11.27    3.30
   5  -7  -6   16.39    2.18
   3  -7   4    0.48    0.59
   3  -7   4   -0.35    1.47
   3  -7   3   66.07    4.22
   3  -7   3   67.05    4.42
   3  -7   2    3.41    0.72
   3  -7   2    3.40    1.43
   3  -7   1   12.45    5.03
   3  -7   1   14.87    2.29
   3  -7   0    8.18    2.91
   3  -7   0   11.07    1.83
   3  -7  -1   -0.01    0.66
   3  -7  -1    0.74    0.98
   3  -7  -2   18.19    1.72
   3  -7  -2   19.66    2.03
   3  -7  -3  440.51    7.11
  -3   7   4   78.92    2.57
   3  -7  -4   75.81    3.19
  -3   7   5   24.44    3.47
   3  -7  -5   23.97    1.83
  -3   7   6   16.15    2.67
   3  -7  -6   12.62    1.44
   1  -7   5  164.67    5.84
   1  -7   5  163.52    6.92
   1  -7   5  165.47    8.38
   1  -7   4   40.70    3.71
   1  -7   4   42.92    3.71
   1  -7   3  141.64    4.53
   1  -7   3  154.96    5.55
   1  -7   2   68.68    3.04
   1  -7   2   73.81    3.95
   1  -7   1    3.23    0.91
   1  -7   1    5.49    1.54
   1  -7   0   53.16    3.26
   1  -7   0   59.49    3.11
   1  -7  -1   36.70    2.08
   1  -7  -1   37.18    2.49
   1  -7  -2   28.66    1.76
   1  -7  -2   33.23    2.07
   1  -7  -3  114.21    3.11
   1  -7  -3  115.11    2.95
   1  -7  -4    1.51    0.62
   1  -7  -6   28.54   11.45
  -1  -7   6   26.56    5.37
  -1  -7   6   31.10    3.11
  -1  -7   6   27.53    4.68
  -1  -7   5  377.74    8.98
  -1  -7   5  377.51   10.25
  -1  -7   5  397.30    8.61
  -1  -7   4    0.50    0.47
  -1  -7   4    0.01    1.09
  -1  -7   3  111.85    3.75
  -1  -7   3  112.99    4.60
  -1  -7   2   35.19    2.48
  -1  -7   2   29.52    2.15
  -1  -7   1   32.67    1.79
  -1  -7   1   36.16    2.41
  -1  -7   0   58.42    2.20
  -1  -7   0   56.95    2.63
  -1  -7  -1    4.05    0.79
  -1  -7  -1    6.11    1.07
  -1  -7  -4   35.18   12.34
  -1  -7  -5  160.55    6.62
  -3  -7   6   10.30    4.14
  -3  -7   6   12.02    2.44
  -3  -7   6   14.63    3.35
  -3  -7   5   19.30    7.42
  -3  -7   5   29.14    3.07
  -3  -7   4   74.47    4.06
  -3  -7   4   73.96    3.93
  -3  -7   3  454.41    6.75
  -3  -7   3  442.19    7.84
  -3  -7   2   15.05    4.62
  -3  -7   2   14.34    1.64
  -3  -7   1    0.18    0.18
  -3  -7   1    0.33    0.65
  -3  -7   0   11.25    0.74
  -3  -7   0   10.93    0.86
  -3  -7   0   10.13    1.50
  -3  -7  -1   11.85    5.36
  -3  -7  -2    1.85    1.02
  -3  -7  -3   55.19    5.94
  -3  -7  -4    0.49    0.67
  -5  -7   6    8.91    3.04
  -5  -7   6   15.18    2.40
  -5  -7   5  261.19    6.71
  -5  -7   5  251.82    7.51
  -5  -7   4   -0.28    0.53
  -5  -7   4   -0.78    0.98
  -5  -7   4    0.91    0.29
  -5  -7   3   28.07    2.91
  -5  -7   3   26.83    2.23
  -5  -7   3   25.04    3.49
  -5  -7   2    3.78    0.84
  -5  -7   2    5.29    1.21
  -5  -7   2    4.43    1.64
  -5  -7   0   -0.15    0.44
  -5  -7  -1    0.31    0.58
  -5  -7  -2   14.91    4.26
  -5  -7  -3   22.09    8.93
  -7  -7   6    0.49    1.24
  -7  -7   5  575.35   10.40
  -7  -7   5  588.38   11.84
  -7  -7   4   55.19    2.48
  -7  -7   4   59.61    3.22
  -7  -7   4   58.66    2.74
  -7  -7   3   60.88    2.27
  -7  -7   3   60.79    2.92
  -7  -7   3   58.26    3.88
  -7  -7   2   58.85    1.79
  -7  -7   2   60.14    7.70
  -7  -7   1    0.54    0.54
  -7  -7   0   73.88    3.63
  -7  -7  -1   65.15    3.95
  -9  -7   4    0.33    0.44
  -9  -7   4    1.49    1.17
  -9  -7   3  424.12    7.67
  -9  -7   2   27.20    3.70
   4  -8   0   45.70    3.05
   4  -8   0   43.86    3.66
   4  -8  -1    5.79    1.47
   4  -8  -1    4.31    1.14
   4  -8  -2  169.26    5.46
   4  -8  -2  173.96    5.76
   4  -8  -3  211.42    6.00
   4  -8  -3  219.91    6.32
   2  -8   2  219.67    6.36
   2  -8   2  215.17    7.13
   2  -8   1  241.64    6.45
   2  -8   1  214.37    6.78
   2  -8   0   34.63    2.33
   2  -8   0   33.84    2.69
   2  -8  -1   36.82    2.38
   2  -8  -1   34.31    2.44
   2  -8  -2   17.72    1.63
   2  -8  -2   15.31    1.79
   2  -8  -3   46.88    2.38
   2  -8  -3   50.10    2.52
   0  -8   3    4.09    1.41
   0  -8   3    8.22    1.98
   0  -8   2   11.13    3.96
   0  -8   2   18.62    2.23
   0  -8   1   77.56    3.25
   0  -8   1   79.80    3.85
   0  -8   0  162.18    4.53
   0  -8   0  154.57    4.87
   0  -8  -1   71.70    2.70
   0  -8  -2   14.47    1.02
   0  -8  -2   14.38    1.16
  -2  -8   3   50.08    2.69
  -2  -8   3   50.09    3.26
  -2  -8   2   16.17    5.17
  -2  -8   2   20.51    1.94
  -2  -8   1   31.83    2.72
  -2  -8   1   34.51    2.30
  -2  -8   0   34.98    1.49
  -2  -8   0   36.90    1.71
  -2  -8  -1  228.61    7.33
  -2  -8  -2  219.03    7.22
  -4  -8   3  226.91    5.42
  -4  -8   3  221.70    6.13
  -4  -8   3  211.65    5.28
  -4  -8   2  180.53    4.18
  -4  -8   2  178.65    4.89
  -4  -8   2  181.84    5.21
  -4  -8   1    7.53    0.67
  -4  -8   1    6.44    0.92
  -4  -8   1    3.29    2.08
  -4  -8   0   36.70    6.36
   0   0   0    0.00    0.00
;
_shelx_hkl_checksum              58569
loop_
_space_group_symop_operation_xyz
'x, y, z'
'-x, y, -z+1/2'
'x+1/2, y+1/2, z'
'-x+1/2, y+1/2, -z+1/2'
'-x, -y, -z'
'x, -y, z-1/2'
'-x+1/2, -y+1/2, -z'
'x+1/2, -y+1/2, z-1/2'
loop_
_atom_site_label
_atom_site_type_symbol
_atom_site_fract_x
_atom_site_fract_y
_atom_site_fract_z
_atom_site_U_iso_or_equiv
_atom_site_adp_type
_atom_site_occupancy
_atom_site_site_symmetry_order
_atom_site_calc_flag
_atom_site_refinement_flags_posn
_atom_site_refinement_flags_adp
_atom_site_refinement_flags_occupancy
_atom_site_disorder_assembly
_atom_site_disorder_group
Mn1 Mn 0.34475(5) 0.11307(8) 0.12874(6) 0.0234(2) Uani 1 1 d . . . . .
Mn2 Mn 0.44118(4) -0.27308(9) -0.01531(6) 0.0246(2) Uani 1 1 d . . . . .
V1 V 0.32512(4) -0.39111(8) 0.19212(6) 0.0109(2) Uani 1 1 d . . . . .
O1 O 0.3706(2) -0.1934(4) 0.1289(3) 0.0161(5) Uani 1 1 d . . . . .
O2 O 0.1959(2) 0.0781(4) -0.0704(3) 0.0234(6) Uani 1 1 d . . . . .
O3 O 0.2947(2) 0.1639(4) 0.2982(3) 0.0191(6) Uani 1 1 d . . . . .
O4 O 0.4258(2) -0.4525(4) 0.3611(3) 0.0272(7) Uani 1 1 d . . . . .
F1 F 0.5061(4) 0.1994(7) 0.3183(5) 0.0289(10) Uani 0.5 1 d . . P . .
F2 F 0.4584(4) 0.0738(7) 0.0116(5) 0.0296(10) Uani 0.5 1 d . . P . .
loop_
_atom_site_aniso_label
_atom_site_aniso_U_11
_atom_site_aniso_U_22
_atom_site_aniso_U_33
_atom_site_aniso_U_23
_atom_site_aniso_U_13
_atom_site_aniso_U_12
Mn1 0.0392(4) 0.0123(3) 0.0172(3) -0.0025(2) 0.0110(3) -0.0018(2)
Mn2 0.0175(4) 0.0333(4) 0.0170(3) -0.0070(2) 0.0021(3) 0.0097(2)
V1 0.0099(3) 0.0110(4) 0.0106(3) 0.0017(2) 0.0034(2) 0.0006(2)
O1 0.0187(12) 0.0139(12) 0.0156(12) 0.0010(9) 0.0075(10) -0.0014(10)
O2 0.0371(15) 0.0155(13) 0.0188(13) 0.0008(10) 0.0134(12) 0.0038(11)
O3 0.0183(13) 0.0212(13) 0.0216(13) -0.0044(10) 0.0124(11) -0.0050(10)
O4 0.0201(13) 0.0332(16) 0.0183(13) 0.0122(12) -0.0005(10) -0.0077(12)
F1 0.026(2) 0.032(2) 0.028(2) -0.003(2) 0.011(2) 0.000(2)
F2 0.037(3) 0.025(2) 0.035(3) -0.005(2) 0.024(2) -0.004(2)
loop_
_atom_type_symbol
_atom_type_description
_atom_type_scat_dispersion_real
_atom_type_scat_dispersion_imag
_atom_type_scat_source
O O 0.0106 0.0060 'International Tables Vol C Tables 4.2.6.8 and 6.1.1.4'
F F 0.0171 0.0103 'International Tables Vol C Tables 4.2.6.8 and 6.1.1.4'
V V 0.3005 0.5294 'International Tables Vol C Tables 4.2.6.8 and 6.1.1.4'
Mn Mn 0.3368 0.7283 'International Tables Vol C Tables 4.2.6.8 and 6.1.1.4'
loop_
_geom_angle_atom_site_label_1
_geom_angle_atom_site_label_2
_geom_angle_atom_site_label_3
_geom_angle
_geom_angle_site_symmetry_1
_geom_angle_site_symmetry_3
F1 Mn1 O1 98.40(16) 2_655 .
F1 Mn1 O3 112.98(16) 2_655 .
O1 Mn1 O3 105.70(10) . .
F1 Mn1 O2 136.57(16) 2_655 .
O1 Mn1 O2 88.74(10) . .
O3 Mn1 O2 105.93(10) . .
F1 Mn1 O2 83.79(16) 2_655 7
O1 Mn1 O2 165.89(10) . 7
O3 Mn1 O2 86.00(10) . 7
O2 Mn1 O2 80.33(11) . 7
F1 Mn1 F1 35.6(2) 2_655 .
O1 Mn1 F1 99.06(14) . .
O3 Mn1 F1 78.79(14) . .
O2 Mn1 F1 169.54(15) . .
O2 Mn1 F1 90.83(14) 7 .
F1 Mn1 F2 48.36(19) 2_655 .
O1 Mn1 F2 75.03(14) . .
O3 Mn1 F2 160.27(15) . .
O2 Mn1 F2 93.78(15) . .
O2 Mn1 F2 96.68(14) 7 .
F1 Mn1 F2 81.62(17) . .
F2 Mn2 O1 109.66(15) 5_655 .
F2 Mn2 O4 91.50(18) 5_655 2_655
O1 Mn2 O4 97.47(10) . 2_655
F2 Mn2 O3 98.27(17) 5_655 6
O1 Mn2 O3 89.76(9) . 6
O4 Mn2 O3 165.16(11) 2_655 6
F2 Mn2 O4 119.97(16) 5_655 6_545
O1 Mn2 O4 130.06(11) . 6_545
O4 Mn2 O4 76.91(11) 2_655 6_545
O3 Mn2 O4 88.50(10) 6 6_545
F2 Mn2 F1 49.68(19) 5_655 6
O1 Mn2 F1 152.37(15) . 6
O4 Mn2 F1 100.84(14) 2_655 6
O3 Mn2 F1 77.53(14) 6 6
O4 Mn2 F1 74.69(15) 6_545 6
F2 Mn2 F2 42.2(2) 5_655 .
O1 Mn2 F2 73.78(13) . .
O4 Mn2 F2 117.92(15) 2_655 .
O3 Mn2 F2 76.52(15) 6 .
O4 Mn2 F2 152.34(14) 6_545 .
F1 Mn2 F2 79.39(17) 6 .
O2 V1 O4 110.39(14) 7_545 .
O2 V1 O3 110.13(14) 7_545 4_545
O4 V1 O3 110.80(13) . 4_545
O2 V1 O1 106.67(12) 7_545 .
O4 V1 O1 107.85(12) . .
O3 V1 O1 110.88(13) 4_545 .
V1 O1 Mn1 133.31(14) . .
V1 O1 Mn2 113.51(13) . .
Mn1 O1 Mn2 111.92(11) . .
V1 O2 Mn1 123.43(15) 7_545 .
V1 O2 Mn1 125.38(14) 7_545 7
Mn1 O2 Mn1 99.67(11) . 7
V1 O3 Mn1 131.09(14) 4 .
V1 O3 Mn2 123.27(13) 4 6_556
Mn1 O3 Mn2 105.20(10) . 6_556
V1 O4 Mn2 129.00(16) . 2_655
V1 O4 Mn2 127.65(14) . 6_546
Mn2 O4 Mn2 103.09(11) 2_655 6_546
F1 F1 Mn1 85.6(4) 2_655 2_655
F1 F1 Mn1 58.8(3) 2_655 .
Mn1 F1 Mn1 131.0(2) 2_655 .
F1 F1 Mn2 150.1(5) 2_655 6_556
Mn1 F1 Mn2 123.9(2) 2_655 6_556
Mn1 F1 Mn2 98.14(18) . 6_556
F2 F2 Mn2 84.6(4) 5_655 5_655
F2 F2 Mn1 144.1(4) 5_655 .
Mn2 F2 Mn1 122.2(2) 5_655 .
F2 F2 Mn2 53.2(3) 5_655 .
Mn2 F2 Mn2 137.8(2) 5_655 .
Mn1 F2 Mn2 96.81(17) . .
loop_
_geom_bond_atom_site_label_1
_geom_bond_atom_site_label_2
_geom_bond_distance
_geom_bond_site_symmetry_2
Mn1 F1 1.940(5) 2_655
Mn1 O1 2.114(3) .
Mn1 O3 2.135(2) .
Mn1 O2 2.148(3) .
Mn1 O2 2.187(3) 7
Mn1 F1 2.262(5) .
Mn1 F2 2.339(5) .
Mn2 F2 1.910(5) 5_655
Mn2 O1 2.141(2) .
Mn2 O4 2.168(3) 2_655
Mn2 O3 2.182(3) 6
Mn2 O4 2.207(3) 6_545
Mn2 F1 2.277(5) 6
Mn2 F2 2.376(5) .
V1 O2 1.706(3) 7_545
V1 O4 1.706(3) .
V1 O3 1.712(2) 4_545
V1 O1 1.718(2) .
O2 V1 1.706(3) 7_545
O2 Mn1 2.187(3) 7
O3 V1 1.712(2) 4
O3 Mn2 2.182(3) 6_556
O4 Mn2 2.168(3) 2_655
O4 Mn2 2.207(3) 6_546
F1 F1 1.320(9) 2_655
F1 Mn1 1.940(5) 2_655
F1 Mn2 2.277(5) 6_556
F2 F2 1.604(9) 5_655
F2 Mn2 1.910(5) 5_655
