#------------------------------------------------------------------------------
#$Date: 2021-04-06 11:57:13 +0300 (Tue, 06 Apr 2021) $
#$Revision: 263895 $
#$URL: file:///home/coder/svn-repositories/cod/cif/1/56/14/1561486.cif $
#------------------------------------------------------------------------------
#
# This file is available in the Crystallography Open Database (COD),
# http://www.crystallography.net/
#
# All data on this site have been placed in the public domain by the
# contributors.
#
data_1561486
loop_
_publ_author_name
'Koffi, Agbelenko'
'Ade, Martin'
'Hillebrecht, Harald'
_publ_section_title
;
 Single crystal studies of binary compounds Ta/Ga -- A system with
 experimental and crystallographic peculiarities
;
_journal_name_full               'Journal of Solid State Chemistry'
_journal_page_first              88
_journal_page_last               102
_journal_paper_doi               10.1016/j.jssc.2016.03.014
_journal_volume                  238
_journal_year                    2016
_chemical_formula_sum            'Ga3 Ta5'
_chemical_formula_weight         1113.91
_space_group_crystal_system      tetragonal
_space_group_IT_number           140
_space_group_name_Hall           '-I 4 2c'
_space_group_name_H-M_alt        'I 4/m c m'
_atom_sites_solution_hydrogens   .
_cell_angle_alpha                90
_cell_angle_beta                 90
_cell_angle_gamma                90
_cell_formula_units_Z            4
_cell_length_a                   10.2199(7)
_cell_length_b                   10.2199(7)
_cell_length_c                   5.1121(4)
_cell_measurement_reflns_used    2324
_cell_measurement_temperature    293(2)
_cell_measurement_theta_max      30
_cell_measurement_theta_min      3.6
_cell_volume                     533.94(7)
_computing_cell_refinement       'Software for IPDS-II, Fa. Stoe'
_computing_data_collection       'Software for IPDS-II, Fa. Stoe'
_computing_data_reduction        'Software for IPDS-II, Fa. Stoe'
_computing_molecular_graphics    'Diamond (Crystal impact, 2005)'
_computing_publication_material  'SHELXL-97_(Sheldrick, 2008)'
_computing_structure_refinement  'SHELXL-2013 (Sheldrick, 2013)'
_computing_structure_solution    'SHELXS-97 (Sheldrick, 2008)'
_diffrn_ambient_temperature      293(2)
_diffrn_measured_fraction_theta_full 0.967
_diffrn_measured_fraction_theta_max 0.974
_diffrn_measurement_details
; 
0 degree < omega < 180 degree
psi = 0
delta omega 2 degree
exposure time 60s 
;
_diffrn_measurement_device       '2-circle goniometer'
_diffrn_measurement_device_type  'STOE IPDS 2'
_diffrn_measurement_method       'rotation method'
_diffrn_radiation_collimation    '0.5 mm diameter, multiple pinhole'
_diffrn_radiation_monochromator  'plane graphite'
_diffrn_radiation_polarisn_norm  0
_diffrn_radiation_type           MoK\a
_diffrn_radiation_wavelength     0.71073
_diffrn_reflns_av_R_equivalents  0.0600
_diffrn_reflns_av_unetI/netI     0.0199
_diffrn_reflns_Laue_measured_fraction_full 0.967
_diffrn_reflns_Laue_measured_fraction_max 0.974
_diffrn_reflns_limit_h_max       14
_diffrn_reflns_limit_h_min       -13
_diffrn_reflns_limit_k_max       14
_diffrn_reflns_limit_k_min       -14
_diffrn_reflns_limit_l_max       7
_diffrn_reflns_limit_l_min       -6
_diffrn_reflns_number            2585
_diffrn_reflns_point_group_measured_fraction_full 0.967
_diffrn_reflns_point_group_measured_fraction_max 0.974
_diffrn_reflns_theta_full        25.242
_diffrn_reflns_theta_max         29.856
_diffrn_reflns_theta_min         3.988
_diffrn_source
'sealed X-ray tube, 12 x 0.4 mm long-fine focus'
_diffrn_source_current           40
_diffrn_source_power             2.00
_diffrn_source_voltage           50
_exptl_absorpt_coefficient_mu    116.717
_exptl_absorpt_correction_T_max  0.028
_exptl_absorpt_correction_T_min  0.003
_exptl_absorpt_correction_type   numerical
_exptl_absorpt_process_details   'X-Red and X-SHAPE  (Stoe & Cie, 1999)'
_exptl_crystal_colour            metallic
_exptl_crystal_density_diffrn    13.857
_exptl_crystal_description       irregular_fragment
_exptl_crystal_F_000             1832
_exptl_crystal_size_max          0.2
_exptl_crystal_size_mid          0.1
_exptl_crystal_size_min          0.05
_refine_diff_density_max         2.507
_refine_diff_density_min         -2.655
_refine_diff_density_rms         0.543
_refine_ls_extinction_coef       0.00077(8)
_refine_ls_extinction_expression Fc^*^=kFc[1+0.001xFc^2^\l^3^/sin(2\q)]^-1/4^
_refine_ls_extinction_method     SHELXL
_refine_ls_goodness_of_fit_ref   1.480
_refine_ls_hydrogen_treatment    undef
_refine_ls_matrix_type           full
_refine_ls_number_parameters     16
_refine_ls_number_reflns         225
_refine_ls_number_restraints     0
_refine_ls_restrained_S_all      1.480
_refine_ls_R_factor_all          0.0276
_refine_ls_R_factor_gt           0.0272
_refine_ls_shift/su_max          0.000
_refine_ls_shift/su_mean         0.000
_refine_ls_structure_factor_coef Fsqd
_refine_ls_weighting_details
'w=1/[\s^2^(Fo^2^)+50.0000P] where P=(Fo^2^+2Fc^2^)/3'
_refine_ls_weighting_scheme      calc
_refine_ls_wR_factor_gt          0.0501
_refine_ls_wR_factor_ref         0.0502
_reflns_Friedel_coverage         0.000
_reflns_Friedel_fraction_full    .
_reflns_Friedel_fraction_max     .
_reflns_number_gt                224
_reflns_number_total             225
_reflns_threshold_expression     'I > 2\s(I)'
_cod_data_source_file            Ta5Ga3-W5Si3_HH.cif
_cod_data_source_block           Ta5Ga3-W5Si3
_cod_original_cell_volume        533.94(8)
_cod_database_code               1561486
_shelx_space_group_comment
;
The symmetry employed for this shelxl refinement is uniquely defined
by the following loop, which should always be used as a source of
symmetry information in preference to the above space-group names.
They are only intended as comments.
;
_shelxl_version_number           2013-4
_shelx_res_file
;
TITL Ta5Ga3-t in I4/mcm
CELL 0.71073  10.2199  10.2199   5.1121  90.000  90.000  90.000
ZERR    4.00   0.0007   0.0007   0.0004   0.000   0.000   0.000
LATT  2
SYMM -X, -Y, Z
SYMM -Y, X, Z
SYMM Y, -X, Z
SYMM -X, Y, 0.5-Z
SYMM X, -Y, 0.5-Z
SYMM Y, X, 0.5-Z
SYMM -Y, -X, 0.5-Z
SFAC GA TA
UNIT 12 20
OMIT 0 60
OMIT 1 11 4
OMIT 6 6 4
OMIT 4 4 2
OMIT 1 6 1
OMIT 1 6 3
L.S. 4
ACTA
BOND
FMAP 2
PLAN 20
WGHT    0.000000   50.000000
EXTI    0.000771
FVAR       0.09812
MOLE   1
TA2   2    0.500000    0.000000    0.250000    10.12500    0.00422    0.00422 =
         0.00583    0.00000    0.00000    0.00000
TA1   2    0.075273    0.221414    0.000000    10.50000    0.00325    0.00444 =
         0.00723    0.00000    0.00000   -0.00014
GA1   1    0.333911    0.166089    0.000000    10.25000    0.00315    0.00315 =
         0.00946    0.00000    0.00000    0.00093
GA2   1    0.000000    0.000000    0.250000    10.12500    0.00436    0.00436 =
         0.00514    0.00000    0.00000    0.00000
HKLF 4

REM  Ta5Ga3-t in I4/mcm
REM R1 =  0.0272 for     224 Fo > 4sig(Fo)  and  0.0276 for all     225 data
REM     16 parameters refined using      0 restraints

END

WGHT      0.0000     49.4030

REM Highest difference peak  2.507,  deepest hole -2.655,  1-sigma level  0.543
Q1    1   0.3270  0.2894  0.0000  10.50000  0.05    2.51
Q2    1   0.0650  0.1221  0.0000  10.50000  0.05    2.23
Q3    1   0.3993  0.0409  0.2618  11.00000  0.05    2.18
Q4    1  -0.0316  0.1863  0.0000  10.50000  0.05    2.01
Q5    1   0.2150  0.2150  0.2500  10.50000  0.05    1.97
Q6    1   0.4031  0.1783  0.0000  10.50000  0.05    1.75
Q7    1   0.0586  0.2060  0.1159  11.00000  0.05    1.57
Q8    1   0.0847  0.1625  0.2422  11.00000  0.05    1.55
Q9    1   0.0633  0.3269  0.0000  10.50000  0.05    1.51
Q10   1   0.4479  0.0521  0.0000  10.25000  0.05    1.48
Q11   1   0.0400  0.2857  0.0000  10.50000  0.05    1.34
Q12   1   0.3927  0.0164  0.0000  10.50000  0.05    1.25
Q13   1   0.0571  0.2582  0.0000  10.50000  0.05    1.24
Q14   1   0.1382  0.3618  0.0000  10.25000  0.05    1.08
Q15   1   0.0000  0.1976  0.2500  10.50000  0.05    0.93
Q16   1   0.0118  0.0413  0.5000  10.50000  0.05    0.89
Q17   1   0.0525  0.1280  0.2061  11.00000  0.05    0.85
Q18   1   0.1467  0.1676  0.1448  11.00000  0.05    0.82
Q19   1   0.0058  0.2559  0.0000  10.50000  0.05    0.80
Q20   1   0.2620  0.2380  0.0000  10.25000  0.05    0.73
;
_shelx_res_checksum              27594
_shelx_hkl_file
;
  -2   0   0   82.61   29.07   0
   2  -2   0  189.16   22.99   0
  -2  -2   0  188.42   26.10   0
   2   2   0  222.20   36.60   0
   2  -2   0  275.77   33.73   0
  -2   2   0  197.49   35.23   0
   3  -1   0  648.07   28.80   0
   3   1   0  522.30   28.83   0
   3   1   0  604.76   42.30   0
  -3   1   0  663.21   38.42   0
  -1   3   0  697.53   53.54   0
  -1  -3   0  606.50   28.05   0
   1   3   0  615.79   30.09   0
   1  -3   0  633.82   55.39   0
  -3   3   0 1372.75   38.98   0
  -3  -3   0 1267.67   27.89   0
   3  -3   0 1672.61   29.00   0
   3   3   0 1432.19   32.69   0
   3  -3   0 1337.08   22.93   0
  -4   0   0 1699.53   38.44   0
   0  -4   0 1815.27   35.63   0
   4   0   0 1817.64   33.41   0
   0   4   0 1735.77   36.17   0
   4   0   0 1581.83   32.29   0
   4   2   0 3847.86   85.00   0
   2   4   0 4243.09   41.09   0
   2  -4   0 4210.38   43.62   0
  -4   2   0 4349.07   45.14   0
   4   2   0 3665.95   34.91   0
   4  -2   0 4168.25   42.55   0
   4  -2   0 4302.46   31.32   0
  -2   4   0 4062.08   41.86   0
  -2  -4   0 3748.48   34.73   0
   4   4   0  202.08   21.74   0
  -4   4   0  218.78   17.94   0
  -4  -4   0  157.73   17.43   0
   4  -4   0  195.73    9.76   0
  -5   1   0   69.98   18.14   0
   5   1   0   90.03   22.25   0
   5   1   0   66.72   22.01   0
  -1   5   0   74.21   18.29   0
   5   1   0   48.62   29.73   0
  -1  -5   0  100.25   28.23   0
   5  -1   0   75.45   22.23   0
   1   5   0   90.92   21.66   0
   5  -1   0   72.45   21.26   0
   1  -5   0   83.72   34.82   0
   3  -5   0  250.39   19.14   0
   5  -3   0  289.21   19.23   0
  -3  -5   0  246.86   14.14   0
  -5   3   0  312.22   20.10   0
   5   3   0  232.51   22.37   0
   3   5   0  244.98   23.50   0
  -5  -3   0  235.03   28.42   0
  -3   5   0  249.97   31.54   0
   5  -5   0 3004.16   16.98   0
  -5  -5   0 2657.46   22.58   0
   5   5   0 2920.44   24.73   0
  -5   5   0 2898.24   29.12   0
   0   6   0  177.30   16.78   0
   6   0   0  231.13   20.49   0
   0  -6   0  228.13   20.68   0
  -6   0   0  218.48   17.17   0
   2  -6   0 1977.26   28.64   0
   2   6   0 2126.52   32.59   0
   6   2   0 1807.88   27.82   0
   6  -2   0 1979.57   28.00   0
   6   2   0 1888.25   29.97   0
  -6   2   0 1923.59   27.92   0
  -2  -6   0 1943.07   30.58   0
  -2   6   0 2067.68   23.10   0
   6  -4   0   35.69   10.96   0
  -6  -4   0   37.85   28.26   0
   4   6   0   14.78   21.34   0
   4  -6   0   28.61    8.72   0
  -4   6   0   42.41   16.86   0
  -4  -6   0   18.58   10.49   0
  -6   4   0   22.61   16.48   0
   6   4   0   31.72   14.90   0
   6  -6   0 4278.36   15.38   0
  -6  -6   0 3769.02   20.64   0
   6   6   0 4165.95   29.76   0
  -6   6   0 4057.44   24.27   0
   1   7   0 2993.54   26.75   0
   7  -1   0 2921.83   28.67   0
  -1  -7   0 2773.43   33.30   0
   7   1   0 2788.46   28.93   0
  -7   1   0 2937.72   33.33   0
   7   1   0 2877.95   38.74   0
   1  -7   0 2842.34   34.55   0
  -1   7   0 2776.55   18.09   0
   3  -7   0  115.57   23.99   0
  -3  -7   0  120.34   15.80   0
   3   7   0   90.43   23.81   0
  -3   7   0  125.40   13.76   0
  -7   3   0  107.81   15.95   0
   7   3   0  125.55   15.00   0
   7  -3   0  118.67   22.81   0
   7   3   0  122.14   23.18   0
  -5   7   0  316.78   13.95   0
   5   7   0  340.02   20.81   0
  -7   5   0  283.07   15.69   0
   5  -7   0  318.76    9.93   0
   7  -5   0  279.94   10.80   0
   7   5   0  329.67   20.43   0
  -5  -7   0  297.54   13.47   0
   7   7   0 2072.53   23.68   0
  -7   7   0 2053.26   20.81   0
  -7  -7   0 1848.64   14.71   0
   7  -7   0 2177.39   11.58   0
   0   8   0   68.99   11.66   0
   0  -8   0   43.15   17.24   0
   8   0   0   43.82   13.84   0
   8   2   0 3069.08   28.65   0
  -8   2   0 3166.27   30.91   0
   8  -2   0 3047.69   24.36   0
   8   2   0 2993.95   28.22   0
  -2   8   0 3121.78   15.08   0
   2  -8   0 3010.60   32.02   0
  -2  -8   0 3051.49   31.32   0
   2   8   0 3582.30   31.05   0
   8   4   0   20.90   12.91   0
   4   8   0   58.42   14.89   0
   8  -4   0   55.63   18.37   0
  -8   4   0   47.52   14.87   0
   4  -8   0   41.12   11.60   0
  -4  -8   0   38.46   14.75   0
   8   4   0   34.55   20.86   0
  -4   8   0   44.98   17.14   0
  -6  -8   0  510.38   12.61   0
  -8   6   0  607.84   18.92   0
   6  -8   0  554.06    8.57   0
   8   6   0  549.39   19.30   0
   8  -6   0  552.29    9.32   0
   6   8   0  567.20   19.70   0
  -6   8   0  587.37   13.14   0
  -8  -8   0  208.42   11.46   0
  -8   8   0  229.76   14.75   0
   8   8   0  248.74   18.25   0
   8  -8   0  245.34    5.36   0
   1   9   0  503.19    9.80   0
   9   1   0  528.21   19.82   0
  -9   1   0  489.34   15.86   0
  -1   9   0  506.34    7.90   0
   1  -9   0  531.97   23.15   0
  -1  -9   0  534.14   23.61   0
   9  -1   0  540.76   14.84   0
   9   1   0  616.15   27.63   0
  -9   3   0   99.17   18.93   0
   9  -3   0  118.39   18.73   0
   3  -9   0   94.10   13.86   0
   3   9   0   98.58   15.36   0
   9   3   0  107.66   18.45   0
   9   3   0  124.87   18.86   0
  -3   9   0  104.99    7.24   0
  -3  -9   0  108.28   14.33   0
   9   5   0 1271.53   25.60   0
   9   5   0 1379.88   22.51   0
   5  -9   0 1314.31    9.39   0
   9  -5   0 1307.70   13.01   0
  -9   5   0 1325.73   20.01   0
   5   9   0 1893.78   24.34   0
  -5   9   0 1596.29   13.71   0
  -5  -9   0 1260.38   15.13   0
   9   7   0  374.93   14.08   0
  -9   7   0  423.02   12.18   0
  -7  -9   0  376.23   11.70   0
  -7   9   0  402.03   11.30   0
   7   9   0  422.70   14.36   0
   9  -7   0  382.59    8.05   0
   7  -9   0  392.21    5.84   0
   9  -9   0 1652.82    9.38   0
  -9  -9   0 1463.15   14.46   0
  -9   9   0 1601.51   14.43   0
   9   9   0 1413.23   22.79   0
   0  10   0  549.37    9.84   0
  10   0   0  529.45   27.61   0
   0 -10   0  490.92   16.33   0
  10   0   0  531.93   18.82   0
  -2  10   0  799.77    8.06   0
  10   2   0  741.75   20.38   0
  -2 -10   0  765.11   23.88   0
   2  10   0  810.67   13.66   0
   2 -10   0  777.74   22.70   0
  10  -2   0  766.55   15.58   0
  10   2   0  789.99   19.63   0
 -10   2   0  741.89   22.38   0
 -10   4   0  522.06   14.93   0
  -4 -10   0  477.59   11.78   0
   4  10   0  497.02   15.44   0
  -4  10   0  456.32    9.55   0
   4 -10   0  458.62   10.57   0
  10   4   0  431.41   19.16   0
  10  -4   0  509.52   12.54   0
  10   4   0  447.69   20.78   0
  10   6   0   66.86   18.35   0
  -6  10   0   79.39   11.16   0
   6  10   0   82.12   18.57   0
   6 -10   0   52.52    4.79   0
  10  -6   0   61.92    5.50   0
  10   6   0   56.91   21.42   0
 -10   6   0   52.00   11.01   0
  -6 -10   0   49.94    7.86   0
  -8  10   0  222.10   10.39   0
   8  10   0  221.46   18.89   0
  10  -8   0  200.87    7.04   0
  10   8   0  208.12   18.78   0
   8 -10   0  226.10    6.67   0
 -10   8   0  211.63   14.70   0
  10   8   0  228.05   16.80   0
  -8 -10   0  216.34    8.11   0
 -10  10   0  304.67   13.85   0
  10 -10   0  306.00    6.63   0
  10  10   0  321.32   21.24   0
  11   1   0 1202.11   28.96   0
   1 -11   0 1028.92   17.62   0
  11   1   0 1118.89   21.74   0
  -1 -11   0 1132.40   23.22   0
  -1  11   0 1040.82    9.55   0
  11  -1   0 1044.51   16.44   0
   1  11   0 1023.69   10.70   0
   3 -11   0  256.57   14.73   0
  -3  11   0  239.98    5.92   0
  -3 -11   0  242.17   20.04   0
 -11   3   0  267.56   19.12   0
   3  11   0  242.08   12.21   0
  11   3   0  245.11   19.22   0
  11   3   0  263.17   19.23   0
  11  -3   0  241.12   18.65   0
   5  11   0  299.84   18.33   0
   5 -11   0  269.51    8.48   0
  11   5   0  320.60   18.60   0
  11  -5   0  273.75   10.12   0
 -11   5   0  305.06   12.87   0
  11   5   0  292.34   19.98   0
  -5 -11   0  297.48   10.06   0
  -5  11   0  283.14    8.59   0
   7 -11   0    4.64    4.55   0
  11   7   0    4.67   18.78   0
   7  11   0   45.05   19.34   0
  -7  11   0    8.03    9.79   0
  -7 -11   0   17.40   10.81   0
 -11   7   0    4.95   14.60   0
  11  -7   0   -0.51    6.78   0
  11   7   0   10.30   22.02   0
  11   9   0  259.89   24.48   0
  -9  11   0  312.61   10.32   0
 -11   9   0  254.76   13.87   0
  -9 -11   0  228.58   11.49   0
   9 -11   0  250.46    6.50   0
  11  -9   0  240.56    6.82   0
  11   9   0  240.71   20.97   0
   9  11   0  281.00   15.56   0
 -11  11   0  649.77   14.65   0
  11 -11   0  679.52    7.49   0
  11  11   0  618.35   25.04   0
  11  11   0  527.72   20.11   0
   0  12   0 1255.73    9.89   0
  12   0   0 1282.13   21.75   0
  12   0   0 1212.74   28.92   0
   0 -12   0 1248.83   23.74   0
  12   2   0  337.52   22.43   0
   2 -12   0  356.32   20.62   0
  -2 -12   0  294.34   21.42   0
   2  12   0  314.12    9.49   0
  -2  12   0  302.69    7.67   0
  12   2   0  317.66   18.84   0
  12  -2   0  254.86   13.53   0
 -12   4   0 1210.26   22.33   0
  12  -4   0 1056.69   12.23   0
   4  12   0 1143.47   13.59   0
   4 -12   0 1051.59   11.41   0
  12   4   0 1165.86   23.42   0
  -4 -12   0 1102.89   16.64   0
  12   4   0 1008.14   21.65   0
  -4  12   0 1153.30    9.52   0
  12   6   0  695.94   22.08   0
 -12   6   0  741.74   17.91   0
  12   6   0  738.11   18.15   0
  -6 -12   0  717.68   13.34   0
   6 -12   0  729.81    8.28   0
  12  -6   0  749.03    9.50   0
  -6  12   0  839.66    9.45   0
   6  12   0  783.65   17.43   0
   8 -12   0  563.57    5.84   0
  -8  12   0  593.70    8.28   0
  12   8   0  497.85   26.86   0
  12  -8   0  546.72    7.68   0
   8  12   0  613.10   22.29   0
  12   8   0  513.24   22.49   0
  -8 -12   0  521.92   12.16   0
 -12   8   0  520.11   11.50   0
 -10  12   0  230.87    9.57   0
  12 -10   0  170.30    6.69   0
  12  10   0  156.20   23.82   0
  12  10   0  177.88   25.89   0
 -12  10   0  165.70   14.05   0
  10 -12   0  180.30    6.65   0
  10  12   0  180.22   17.14   0
  12  12   0   -8.07   29.20   0
  12 -12   0    7.33    4.84   0
 -12  12   0    2.32   14.78   0
  12  12   0   -8.99   30.04   0
  13  -1   0  102.42   26.46   0
  13   1   0   94.07   18.62   0
  -1 -13   0  126.65   21.40   0
  -1  13   0   99.68    7.05   0
   1  13   0   97.17    7.69   0
   1 -13   0  137.08   20.53   0
  13  -1   0  127.26   18.69   0
  13   1   0  129.60   24.06   0
   3  13   0  178.34    9.10   0
  13   3   0  154.55   14.91   0
   3 -13   0  194.34   12.63   0
  -3 -13   0  180.92   16.66   0
  13   3   0  196.72   14.72   0
  -3  13   0  180.71    5.18   0
  13  -3   0  228.63   18.89   0
  -5  13   0   35.43    4.72   0
   5 -13   0   10.20    5.46   0
  13   5   0   22.00   19.69   0
  -5 -13   0   30.98   12.17   0
  13  -5   0   26.76    8.85   0
  13   5   0   39.12   21.52   0
   5  13   0   13.07    7.34   0
 -13   5   0   32.45   17.02   0
  13   7   0 1985.08   28.02   0
   7 -13   0 2052.17   10.08   0
  -7  13   0 2024.81   10.18   0
 -13   7   0 1966.14   20.23   0
  13   7   0 2032.75   30.18   0
  13  -7   0 2017.89    9.87   0
  -7 -13   0 2081.82   15.94   0
   7  13   0 2014.38   18.28   0
  13  -9   0  121.75    6.83   0
 -13   9   0   99.06   14.59   0
  13   9   0  164.66   27.55   0
  13   9   0  107.76   17.02   0
   9 -13   0  131.02    6.52   0
  -9 -13   0  133.03   12.30   0
   9  13   0   98.88   18.38   0
  -9  13   0  124.65    6.78   0
  11  13   0  232.09   17.93   0
  13  11   0  265.12   31.02   0
 -11  13   0  272.87    9.60   0
  13 -11   0  287.96    7.56   0
 -13  11   0  217.69   11.50   0
  11 -13   0  261.96    5.75   0
  11  13   0  212.89   30.92   0
  13  11   0  231.62   30.50   0
   0 -14   0 2614.52   27.41   0
   0  14   0 2653.79   10.71   0
  14   0   0 2690.58   34.32   0
  14   0   0 2637.46   26.91   0
  -2  14   0   45.47    4.89   0
   2  14   0   47.62    5.37   0
  14   2   0   69.54   20.64   0
   2 -14   0   87.62   18.24   0
  14   2   0   56.72   15.12   0
  14  -2   0   42.27   20.25   0
  -2 -14   0   84.97   19.44   0
  14  -2   0   42.76   20.08   0
  -4 -14   0  771.38   15.81   0
   4 -14   0  732.87   10.38   0
  14   4   0  700.42   18.90   0
  14  -4   0  714.80   12.27   0
  -4  14   0  759.92    8.11   0
   4  14   0  656.09    8.06   0
  14   4   0  626.12   17.29   0
  14   6   0  180.99   23.27   0
   6 -14   0  221.17    7.34   0
  14   6   0  258.21   24.99   0
  14  -6   0  226.01    8.39   0
 -14   6   0  202.94   12.72   0
   6  14   0  225.55    8.01   0
  -6  14   0  228.32    7.36   0
  -6 -14   0  244.07   12.95   0
   8  14   0   -1.57   12.96   0
   8 -14   0   16.16    6.61   0
  14   8   0   11.01   18.35   0
  -8 -14   0   37.66   12.38   0
  14   8   0    5.83   28.17   0
  14  -8   0   19.57    7.19   0
  -8  14   0   21.91    5.51   0
 -14   8   0   48.29   15.91   0
  14 -10   0  190.34    5.98   0
 -14  10   0  220.60   16.39   0
  14  10   0  198.17   22.86   0
  14  10   0  181.15   34.64   0
  10  14   0  165.62   12.89   0
 -10  14   0  216.37    7.84   0
  10 -14   0  220.15    7.52   0
  15  -1   0  127.52   29.07   0
  15   1   0   84.60   24.13   0
  15   1   0   76.01   22.34   0
   1  15   0   73.68    5.21   0
  15  -1   0   84.54   21.76   0
  -1 -15   0   88.51   22.32   0
   1 -15   0  130.47   16.20   0
  -1  15   0   93.29    7.11   0
   3  15   0  509.74    8.89   0
  15   3   0  523.77   24.42   0
   3 -15   0  542.34   12.04   0
  15  -3   0  495.32   14.26   0
  -3 -15   0  509.90   17.74   0
  15   3   0  435.70   23.47   0
  15  -3   0  451.92   32.46   0
  -3  15   0  547.23    7.86   0
   5  15   0  165.86    9.54   0
  -5  15   0  189.68    5.26   0
  15  -5   0  200.83    9.52   0
  -5 -15   0  185.39   14.62   0
  15   5   0  159.23   25.90   0
  15   5   0  181.99   23.47   0
   5 -15   0  195.44    8.41   0
  -7  15   0   63.30    7.33   0
   7 -15   0   53.13    7.23   0
  15   7   0   84.89   28.70   0
  15  -7   0   63.10    7.97   0
 -15   7   0   37.61   12.08   0
  -7 -15   0   39.12    9.51   0
  15   7   0   33.74   27.02   0
   7  15   0   61.55    8.01   0
  15   9   0  -10.43   33.04   0
  -9 -15   0   15.81   10.56   0
 -15   9   0   19.39   17.81   0
  15   9   0   23.92   35.03   0
  15  -9   0    9.39    5.63   0
  -9  15   0   10.88    8.86   0
   9  15   0   28.56   13.81   0
   9 -15   0   22.20    7.43   0
   0  16   0    3.08    7.15   0
  16   0   0    9.63   16.89   0
  16   0   0    4.63   27.61   0
   0 -16   0   12.93   17.36   0
  16  -2   0    4.62   16.23   0
  16  -2   0    5.21   32.12   0
  16   2   0   33.16   24.10   0
  16   2   0    8.17   25.35   0
  -2  16   0   12.88    4.68   0
  -2 -16   0   13.05   19.00   0
   2  16   0    8.24    5.43   0
   2 -16   0   20.60    9.99   0
  -4  16   0  467.22    7.92   0
  16   4   0  399.16   26.44   0
  -4 -16   0  528.66   17.06   0
   4  16   0  446.51    7.51   0
  16   4   0  513.20   28.40   0
   4 -16   0  484.17   10.37   0
  16  -4   0  439.96   24.86   0
  16  -4   0  521.87   11.66   0
  16  -6   0  356.41    9.96   0
  16   6   0  329.05   29.88   0
   6  16   0  411.44   10.93   0
   6 -16   0  378.41    6.87   0
  -6 -16   0  427.96   16.09   0
  -6  16   0  420.69    8.05   0
  16   6   0  407.69   32.01   0
  17  -1   0   46.16   19.54   0
  17  -1   0   39.00   32.95   0
  -1 -17   0   26.89   22.19   0
   1 -17   0   73.33   14.64   0
   1  17   0   54.20    7.90   0
  17   1   0   28.28   27.19   0
  -1  17   0   34.19    5.40   0
  17   1   0   43.24   28.10   0
  17  -3   0   11.00   12.04   0
   3  17   0    6.90    8.59   0
  -3 -17   0  -18.98   18.64   0
   3 -17   0    7.46   11.63   0
  17   3   0    1.83   29.57   0
  -3  17   0   14.19    7.18   0
  17   3   0    0.79   27.81   0
  17  -3   0  -16.92   33.91   0
  -5  17   0   87.75    7.83   0
   5  17   0   46.33    7.31   0
  17  -5   0   76.83   10.31   0
   2   1   1  238.14   39.93   0
   1  -2  -1  271.89   27.99   0
  -1   2   1  296.19   43.24   0
  -1   2  -1  279.50   39.52   0
   2  -1  -1  317.77   59.07   0
  -2  -1   1  251.85   61.46   0
   1   2   1  276.23   38.43   0
   2  -1   1  289.79   26.61   0
  -1  -2  -1  266.27   34.80   0
   1   2  -1  275.54   59.21   0
  -1  -2   1  291.10   59.32   0
   1  -2   1  226.68   30.73   0
  -2   1   1  247.94   53.86   0
   2   1  -1  278.57   69.20   0
  -2   1  -1  286.81   25.89   0
   3   2  -1 2104.38   41.31   0
  -3   2   1 2235.93   52.22   0
  -3  -2   1 2239.54   57.28   0
   3  -2   1 2139.39   36.38   0
   2   3  -1 2326.92   47.53   0
   2  -3   1 2052.54   34.44   0
  -2   3   1 2524.98   32.52   0
  -2   3  -1 2250.62   42.62   0
  -3  -2  -1 2075.06   30.84   0
   2   3   1 2084.77   30.18   0
  -2  -3  -1 2177.07   33.58   0
   3  -2  -1 2206.29   54.16   0
   2  -3  -1 2291.84   40.62   0
   3   2   1 2235.70   38.22   0
  -2  -3   1 2168.08   41.80   0
  -3   2  -1 2181.60   35.09   0
   4   1  -1 4048.78   50.78   0
  -1   4   1 4720.78   40.94   0
   4  -1   1 4420.31   38.18   0
   1  -4   1 4564.76   48.72   0
  -1   4  -1 4287.81   49.23   0
   1   4   1 4246.10   39.95   0
  -1  -4  -1 4258.96   38.02   0
   4   1   1 3778.77   35.00   0
  -4   1  -1 4643.79   39.55   0
   4   1  -1 4600.65   52.05   0
   1   4  -1 4238.86   39.24   0
   1  -4  -1 4305.23   43.49   0
   4  -1  -1 4290.24   49.34   0
   4   1   1 4239.18   41.25   0
  -4   1   1 4376.87   53.83   0
  -1  -4   1 4114.18   43.39   0
  -4   3  -1   86.95   19.51   0
  -3   4   1   78.65   30.15   0
   4  -3  -1   46.02   30.26   0
  -4  -3   1   51.92   26.33   0
  -3   4  -1   29.26   28.09   0
   3  -4   1   20.70   15.52   0
  -4   3   1   65.31   20.84   0
  -3  -4  -1   54.61   18.12   0
  -3  -4   1   68.36   25.78   0
   3   4   1   36.58   23.84   0
   4   3   1   52.27   15.73   0
   3  -4  -1   25.70   24.36   0
  -4  -3  -1   29.63   17.63   0
   3   4  -1   51.72   27.52   0
   4  -3   1   42.59   18.24   0
   4   3  -1   49.39   22.93   0
  -2   5   1  499.09   13.20   0
  -5  -2   1  650.91   56.24   0
  -5   2   1  607.64   32.72   0
  -5   2  -1  573.03   22.62   0
  -2  -5  -1  517.84   18.95   0
   5  -2   1  531.71   22.62   0
   2   5  -1  482.81   20.60   0
   5   2   1  568.51   27.06   0
  -2  -5   1  587.32   30.22   0
   2  -5  -1  615.85   23.55   0
   5   2  -1  557.12   25.44   0
   5   2  -1  565.52   25.88   0
  -5   2   1  562.98   39.93   0
   5  -2  -1  500.28   17.46   0
   5   2   1  597.67   24.57   0
   2  -5   1  559.03   16.85   0
  -2   5  -1  537.02   21.31   0
   2   5   1  543.10   24.64   0
  -4  -5  -1  845.55   13.90   0
  -4   5  -1  848.65   25.19   0
  -4   5   1  922.62   28.79   0
  -5  -4   1  622.46   22.13   0
   5  -4   1  914.25   21.12   0
   5  -4  -1  891.40   16.50   0
   4  -5   1  815.78   12.39   0
  -5  -4  -1  894.35   26.48   0
  -5   4  -1 1032.37   27.90   0
   5   4  -1  842.26   25.81   0
   4  -5  -1 1060.32   26.10   0
  -4  -5   1  869.03   20.95   0
   4   5   1  873.86   18.93   0
  -5   4   1  880.51   26.81   0
   5   4   1  818.88   17.95   0
   4   5  -1  798.95   21.90   0
   6  -1   1   49.06   15.06   0
  -1   6   1   16.79   20.55   0
   6   1  -1   59.85   22.32   0
  -1  -6   1   55.34   20.82   0
   6   1   1   65.55   20.38   0
  -1   6  -1   54.24   33.07   0
   6   1  -1   55.89   25.18   0
   1  -6   1   45.96   22.67   0
  -1  -6  -1   80.56   24.25   0
   1   6   1   25.97   26.20   0
   1   6  -1   27.22    9.92   0
   6   1   1   63.24   16.46   0
  -6   1  -1   44.48   23.48   0
   6  -1  -1   39.63   25.86   0
  -6   1   1   39.34   27.87   0
   1  -6  -1   13.58   28.88   0
  -3  -6   1 1792.95   32.34   0
   3   6   1 1763.73   26.43   0
  -3   6  -1 1809.64   22.51   0
  -6   3   1 1949.33   35.28   0
   3  -6   1 1808.97   15.57   0
   6   3  -1 1769.45   30.60   0
   6   3   1 1854.37   28.21   0
  -3  -6  -1 1757.36   19.06   0
   3  -6  -1 1751.17   34.44   0
  -3   6   1 2133.42   20.80   0
  -6   3  -1 1811.86   20.47   0
   6   3   1 1767.78   26.67   0
   6  -3  -1 1850.41   17.43   0
   3   6  -1 2033.82   32.18   0
   6   3  -1 1846.84   32.42   0
   6  -3   1 1829.82   25.85   0
   6  -5   1  268.98   13.83   0
  -5  -6   1  218.27   14.59   0
  -6   5   1  251.52   21.72   0
   6   5  -1  289.61   21.34   0
   5  -6  -1  256.79   11.27   0
   5   6  -1  271.95   23.88   0
  -5   6   1  249.77   21.32   0
   6  -5  -1  258.28    8.46   0
  -5  -6  -1  254.54   13.46   0
  -6  -5   1  209.05   15.90   0
  -6   5  -1  282.47   20.92   0
   5  -6   1  247.42    7.98   0
   6   5   1  238.72   19.15   0
  -5   6  -1  240.17   19.72   0
  -6  -5  -1  226.92   12.33   0
   5   6   1  252.94   19.89   0
  -7   2  -1  319.09   20.47   0
  -2  -7   1  370.30   28.38   0
  -2   7  -1  354.29   19.41   0
  -2   7   1  286.78   12.62   0
   2  -7  -1  296.03   26.03   0
   7   2  -1  319.18   22.72   0
   2  -7   1  362.48   22.62   0
   7   2  -1  322.99   20.94   0
   2   7  -1  314.15   14.38   0
   7   2   1  283.71   15.89   0
  -7   2   1  355.37   19.59   0
  -2  -7  -1  310.97   20.00   0
   7  -2  -1  363.02   24.13   0
   7  -2   1  272.05   14.34   0
   7   2   1  298.88   25.45   0
   2   7   1  323.94   16.84   0
   7   4  -1   38.50   21.51   0
  -4  -7   1   22.72   19.83   0
   4   7   1   15.71   19.10   0
  -4   7   1   43.28   11.70   0
  -4   7  -1   33.43   19.63   0
   7  -4   1    5.21   13.85   0
   7   4   1   40.01   12.85   0
   4  -7  -1   47.26   25.84   0
   4   7  -1   17.83   26.86   0
   4  -7   1   26.21    9.29   0
  -4  -7  -1   37.77    9.03   0
   7  -4  -1   30.37    9.95   0
   7   4   1   28.32   21.99   0
  -7   4  -1   51.11   19.69   0
   7   4  -1   42.02   19.06   0
  -7   4   1   46.70   23.03   0
   6  -7   1   15.42    8.11   0
   7   6   1    8.75   40.48   0
   7  -6  -1   22.36    8.51   0
   7   6   1    7.53   11.84   0
   6   7   1  -24.93   18.40   0
   6  -7   1   26.42    7.68   0
  -6  -7  -1    3.43   11.12   0
  -7   6  -1   -2.61   16.83   0
   6   7  -1    0.30   21.28   0
   6  -7  -1    1.81   10.17   0
  -7  -6  -1   19.87    9.08   0
  -7  -6   1   14.49   12.78   0
  -7   6   1   16.03   17.40   0
   7   6  -1    9.53   14.33   0
   7  -6   1  -13.35   12.22   0
  -6   7  -1   13.56   16.40   0
   7  -6   1    2.63   10.24   0
  -6   7   1   27.39   12.21   0
  -6  -7   1   18.78   12.43   0
   8   1   1  289.15   18.18   0
   8   1   1  262.17   19.55   0
  -1   8  -1  237.34   13.41   0
  -8   1   1  263.80   24.58   0
  -1  -8  -1  266.00   23.18   0
   1  -8  -1  329.71   24.18   0
  -1  -8   1  221.90   26.32   0
  -8   1  -1  260.73   18.76   0
   8   1  -1  273.76   24.24   0
   1   8   1  205.40   25.26   0
   1  -8   1  271.00   19.41   0
   8  -1   1  252.17   18.70   0
   8  -1  -1  245.52   21.72   0
   8   1  -1  287.80   20.74   0
   1   8  -1  218.58   11.24   0
  -1   8   1  226.71   10.00   0
   3   8   1 2360.76   20.96   0
  -3  -8   1 2592.55   32.57   0
   8   3   1 2507.41   23.51   0
   3  -8   1 2632.51   18.17   0
   8  -3   1 2233.02   25.48   0
   3  -8   1 2476.97   16.36   0
  -3   8   1 2482.65   13.18   0
   8  -3  -1 2469.60   18.33   0
   3  -8  -1 2510.38   24.10   0
  -3   8  -1 2969.25   26.68   0
  -3  -8  -1 2399.85   17.00   0
  -8   3   1 2603.13   27.50   0
  -8   3  -1 2430.23   20.92   0
   8   3  -1 2770.92   29.65   0
   8   3   1 2301.34   23.62   0
   8   3  -1 2469.25   28.88   0
   3   8  -1 2517.88   19.72   0
  -8   5   1  415.70   20.17   0
   8  -5  -1  406.26    7.18   0
   8   5  -1  413.29   22.16   0
   8  -5   1  480.99   15.25   0
   5  -8   1  383.49    8.40   0
   5  -8  -1  394.38   13.57   0
   5   8   1  391.76   18.57   0
   8  -5   1  422.61   12.93   0
   8   5   1  413.46   20.45   0
  -8   5  -1  448.23   18.07   0
   8   5  -1  345.95   19.65   0
   5   8  -1  447.65   23.48   0
   8   5   1  407.38   35.75   0
  -5  -8   1  384.52   15.11   0
  -5   8  -1  390.97   16.94   0
   8   5   1  354.78   13.40   0
  -5   8   1  519.28   15.71   0
  -5  -8  -1  362.37    8.92   0
   7  -8   1   54.95    6.94   0
   8   7   1   94.85   16.57   0
   8   7  -1   73.84   19.15   0
   7   8   1   61.72   12.56   0
  -7   8  -1  108.41   10.96   0
   7   8  -1   43.86   20.41   0
  -8  -7  -1   42.23    7.93   0
   8  -7  -1   62.51    7.49   0
  -8  -7   1   64.70   11.41   0
   7  -8  -1   63.90    5.54   0
  -7   8   1   92.38   14.49   0
  -7  -8  -1   70.05    7.32   0
  -8   7  -1   66.15   10.31   0
  -7  -8   1   51.36   11.47   0
  -8   7   1   65.47   10.77   0
   8  -7   1   65.28    8.01   0
   2   9   1  118.12   14.91   0
   2  -9  -1  136.60   21.21   0
  -9   2   1  120.86   25.68   0
  -2  -9  -1   90.47   13.49   0
   2  -9   1   90.15   22.05   0
   2   9  -1   63.31    7.19   0
   9   2  -1  106.22   19.43   0
   9   2  -1   84.61   19.25   0
  -2  -9   1   80.92   23.12   0
   9  -2   1   83.55   12.26   0
   9   2   1  103.08   18.36   0
   9  -2  -1  141.46   21.75   0
  -9   2  -1   86.11   17.79   0
  -2   9   1   81.70    6.61   0
   9   2   1  114.78   23.26   0
  -2   9  -1   80.26    7.69   0
  -9   4  -1  416.64   17.80   0
  -4   9   1  451.96   10.56   0
   9   4   1  443.14   17.97   0
  -4  -9   1  381.06   20.11   0
   9  -4   1  423.49    9.32   0
   4   9   1  371.91   19.53   0
  -4   9  -1  478.85   16.50   0
   4   9  -1  415.46   10.58   0
   4  -9   1  388.01    6.98   0
   9   4   1  414.25   22.07   0
  -9   4   1  417.61   15.96   0
   4  -9  -1  443.83   22.29   0
   9   4   1  355.74   18.36   0
   9   4  -1  409.77   20.52   0
   9  -4  -1  411.16    7.70   0
  -4  -9  -1  387.75   12.82   0
   9   4  -1  361.92   19.96   0
   9  -4   1  404.32   17.95   0
   6   9   1  470.92   18.79   0
   9  -6   1  525.05   11.45   0
   6  -9  -1  507.81    7.67   0
  -6  -9   1  485.34   10.50   0
   6  -9   1  522.05    7.79   0
   9   6   1  548.98   19.13   0
  -6   9  -1  524.26   11.86   0
   9   6   1  448.84   13.59   0
   9   6  -1  519.94   23.30   0
   9   6  -1  536.24   20.45   0
  -9   6   1  579.49   18.87   0
  -9   6  -1  543.25   16.39   0
  -6   9   1  627.81   11.11   0
   9  -6  -1  538.17    8.48   0
  -6  -9  -1  547.91   11.70   0
   6   9  -1  564.31   17.45   0
   8   9  -1  579.57   22.43   0
   8   9   1  513.98   14.25   0
   9  -8   1  526.80    8.23   0
   8  -9  -1  536.29    6.45   0
   8  -9   1  549.36    7.59   0
  -8  -9   1  554.77   12.99   0
   9   8  -1  543.15   21.59   0
   9  -8  -1  567.38    7.86   0
  -9   8  -1  531.87   15.33   0
  -8   9   1  584.85   15.22   0
  -8   9  -1  572.87   15.23   0
  -8  -9  -1  535.51   11.71   0
  -9   8   1  481.14   11.94   0
   9   8   1  587.23   18.51   0
  10   1   1 1361.37   27.53   0
  -1  10  -1 1237.59    9.61   0
   1 -10  -1 1341.31   23.16   0
  10  -1  -1 1357.74   24.35   0
  -1 -10   1 1301.24   25.02   0
  10   1   1 1278.05   16.26   0
  -1 -10  -1 1291.69   19.38   0
  10   1  -1 1364.98   28.55   0
  10   1   1 1232.87   16.78   0
  10  -1   1 1253.58   12.99   0
  10   1  -1 1343.60   23.84   0
  10  -1   1 1201.07   16.34   0
   1 -10   1 1298.22   25.59   0
  -1  10   1 1241.16   11.44   0
   1  10   1 1283.70   13.79   0
   1  10  -1 1188.93    9.27   0
  -3 -10  -1   10.74    9.69   0
  10   3  -1   15.42   18.81   0
  10  -3   1   88.26   16.38   0
  10  -3   1   28.53    7.65   0
  -3  10  -1    8.16    6.48   0
   3  10  -1   -3.81    9.40   0
   3 -10  -1   27.92   20.03   0
 -10   3   1   68.27   22.74   0
   3  10   1   19.58   13.83   0
  10   3  -1   29.33   18.39   0
  -3 -10   1   11.97   21.67   0
  -3  10   1   15.85    7.59   0
   3 -10   1    4.78   10.75   0
  10   3   1   26.54   20.08   0
  10   3   1   37.60   18.97   0
 -10   3  -1   14.50   11.93   0
  10  -3  -1    0.88   10.75   0
  10   5  -1 1937.47   25.68   0
   5  10   1 1982.01   22.59   0
   5 -10   1 1929.94    9.51   0
  -5 -10   1 1926.26   19.70   0
  -5  10  -1 2172.17   16.26   0
 -10   5   1 1969.46   23.38   0
  10  -5   1 2316.47   22.77   0
   5 -10  -1 1967.69   14.72   0
  10   5  -1 2126.71   27.62   0
  10   5   1 2044.71   22.95   0
  10  -5  -1 1991.35   12.14   0
  -5 -10  -1 1870.39   12.94   0
   5  10  -1 1930.46   14.79   0
 -10   5  -1 2054.02   21.11   0
  -5  10   1 2148.13   13.18   0
  10   5   1 1808.80   21.20   0
  -7 -10  -1  365.34   10.83   0
  10   7   1  331.19   17.52   0
  10  -7  -1  358.88    7.50   0
  -7 -10   1  335.37    9.36   0
  -7  10   1  446.13   12.54   0
  10   7  -1  348.64   20.90   0
  -7  10  -1  425.64   14.29   0
  10   7   1  345.15   19.36   0
   7 -10   1  364.42    5.50   0
  10  -7   1  352.17    6.59   0
  10   7  -1  387.00   22.84   0
 -10   7  -1  414.72   14.70   0
 -10   7   1  348.71   16.31   0
   7 -10  -1  344.79    7.97   0
   7  10  -1  364.34   18.71   0
   7  10   1  395.60   13.85   0
  -9  10   1  530.05   14.74   0
   9 -10  -1  501.85    7.50   0
  -9 -10  -1  479.38   11.21   0
  10   9  -1  509.08   27.41   0
  10   9   1  468.51   14.57   0
 -10   9   1  533.19   15.29   0
 -10   9  -1  469.30   14.46   0
   9  10   1  488.40   19.90   0
  10   9  -1  501.56   23.32   0
  10   9   1  428.85   15.15   0
  10  -9   1  501.06    7.54   0
   9  10  -1  542.18   23.71   0
  -9 -10   1  461.51    9.30   0
   9 -10   1  495.37    5.79   0
  10  -9  -1  522.14    7.39   0
  -9  10  -1  552.69   14.29   0
  11   2   1  649.83   20.37   0
   2  11  -1  671.39    7.91   0
  -2  11  -1  730.90    9.18   0
  11  -2  -1  803.12   18.83   0
  -2 -11  -1  654.25   18.57   0
  11   2  -1  699.75   21.32   0
  -2 -11   1  693.90   23.45   0
  11   2  -1  665.55   22.14   0
  11  -2   1  622.56   13.94   0
   2 -11  -1  616.03   20.69   0
 -11   2   1  739.35   22.21   0
 -11   2  -1  621.36   13.60   0
   2 -11   1  778.20   20.33   0
   2  11   1  696.85   15.86   0
  11   2   1  826.61   25.40   0
  -2  11   1  731.84    8.94   0
   4 -11   1  185.11    6.06   0
  -4 -11   1  151.56   18.28   0
  11  -4   1  173.76   12.89   0
   4 -11  -1  191.98   14.39   0
 -11   4   1  189.60   22.69   0
  -4  11   1  180.94    7.98   0
  11   4   1  164.59   13.29   0
 -11   4  -1  219.85   17.34   0
   4  11   1  228.91   19.01   0
  -4  11  -1  185.09    8.94   0
   4  11  -1  172.91    7.18   0
  11   4  -1  195.49   19.88   0
  11   4  -1  204.70   20.03   0
  11   4   1  213.76   20.33   0
  11  -4  -1  175.41    6.42   0
  -4 -11  -1  185.85   12.46   0
 -11   6  -1  537.80   11.70   0
  11  -6   1  541.75    8.63   0
  -6 -11  -1  509.79   11.48   0
  11   6   1  456.77   13.72   0
   6 -11   1  538.94    5.97   0
  11   6  -1  590.80   22.43   0
  11   6  -1  468.42   21.37   0
   6  11  -1  581.23   12.90   0
  11  -6  -1  574.37    8.21   0
  11   6   1  574.48   23.81   0
  -6  11   1  590.23    7.67   0
  -6  11  -1  601.25   11.48   0
 -11   6   1  542.94   13.48   0
   6  11   1  476.24   19.22   0
   6 -11  -1  543.57    7.30   0
  -6 -11   1  553.38   13.82   0
 -11   8   1  378.68   15.00   0
   8 -11   1  418.39    6.90   0
   8 -11  -1  423.86    7.47   0
  11   8   1  372.36   21.58   0
  11   8  -1  423.35   24.82   0
  -8  11  -1  472.97   14.19   0
  11  -8  -1  423.84    7.20   0
  11   8   1  394.72   18.85   0
   8  11  -1  396.70   11.92   0
   8  11   1  442.71   19.68   0
  -8  11   1  453.20    8.93   0
 -11   8  -1  409.31   14.31   0
  11  -8   1  408.16    7.80   0
  11   8  -1  373.39   23.09   0
  -8 -11   1  343.45    9.56   0
  -8 -11  -1  414.01   11.13   0
 -10  11   1   46.80   14.22   0
 -10  11  -1   42.47   12.71   0
  11  10   1   44.38   20.26   0
 -11  10   1   34.67   13.49   0
  11  10  -1   32.64   27.26   0
  11  10   1   26.89   19.92   0
 -11  10  -1   45.32   13.10   0
  10 -11  -1   28.68    6.40   0
  10  11   1   61.98   19.90   0
  10 -11   1   27.62    6.04   0
  10  11  -1   19.15   13.79   0
  11 -10   1   21.82    6.41   0
  11 -10  -1   32.40    4.39   0
  11  10  -1   38.89   24.56   0
  12   1   1   38.62   17.91   0
   1 -12  -1   13.97   18.59   0
  -1 -12  -1   90.80   14.40   0
  12   1   1   49.25   23.57   0
  12  -1  -1   29.76   19.90   0
   1  12  -1   39.32    7.42   0
   1 -12   1   39.82   14.94   0
  -1  12   1   55.31    7.38   0
  12   1  -1   53.85   19.00   0
  12  -1   1   58.95   16.68   0
  12   1  -1   66.11   22.56   0
  12  -1   1   37.20   14.96   0
   1  12   1   27.90    7.07   0
  -1 -12   1   49.43   14.95   0
  -1  12  -1   32.67    5.26   0
  12  -1  -1   14.09   25.64   0
  -3  12  -1 1206.64    9.68   0
  -3 -12  -1 1125.04   16.76   0
   3 -12   1 1136.04   12.67   0
  12  -3   1 1130.13   20.18   0
  -3 -12   1 1174.55   19.91   0
  12   3   1 1205.21   22.77   0
  12  -3  -1 1127.00   12.82   0
  12   3   1 1247.04   24.36   0
   3  12   1 1055.54   12.76   0
   3 -12  -1 1387.57   17.71   0
  -3  12   1 1148.69    9.40   0
  12   3  -1 1245.39   25.22   0
 -12   3   1 1381.53   24.34   0
 -12   3  -1 1077.36   18.19   0
   3  12  -1 1070.60    8.69   0
  12   3  -1 1210.81   25.34   0
  -5 -12   1   49.04   14.47   0
  12   5  -1   75.43   20.81   0
  -5  12   1   28.15    5.17   0
   5  12   1  -10.82   19.29   0
   5 -12  -1   33.39    9.14   0
 -12   5   1   33.40   19.13   0
  -5 -12  -1   18.23    8.01   0
   5 -12   1   24.22    4.88   0
 -12   5  -1   27.94   16.05   0
  -5  12  -1   21.28    8.08   0
  12   5   1   26.05   20.66   0
  12   5  -1  146.53   20.55   0
   5  12  -1   26.38    8.89   0
  12  -5  -1   26.52    7.22   0
  12   5   1   41.01   17.36   0
  12  -5   1   30.83    9.84   0
 -12   7   1   35.20   15.27   0
 -12   7  -1   28.61   14.31   0
  12  -7  -1    2.01    6.38   0
   7 -12  -1   22.45    4.98   0
   7 -12   1   15.91    4.46   0
  12   7  -1   12.86   21.78   0
  12   7  -1   43.03   22.97   0
  -7  12   1    2.11    7.94   0
  12  -7   1   10.96    7.89   0
  12   7   1    1.90   18.22   0
   7  12  -1   21.68   11.00   0
   7  12   1   55.54   19.32   0
  -7 -12   1   13.40   12.01   0
  12   7   1   34.70   23.45   0
  -7  12  -1    8.35    9.34   0
  -7 -12  -1    8.94    7.44   0
 -12   9  -1  245.57   13.88   0
   9 -12  -1  234.52    6.88   0
  12   9  -1  254.68   25.55   0
   9  12  -1  218.89   13.81   0
  12   9  -1  211.61   26.60   0
  12  -9  -1  232.40    6.85   0
   9  12   1  205.58   21.12   0
  -9 -12  -1  232.92   11.32   0
  12  -9   1  228.73    7.10   0
  -9 -12   1  200.87   11.98   0
   9 -12   1  238.57    5.00   0
  12   9   1  205.92   17.07   0
 -12   9   1  241.90   14.60   0
  -9  12   1  235.68   10.49   0
  12   9   1  202.92   14.46   0
  -9  12  -1  262.22    8.99   0
  11  12   1  265.56   23.55   0
  11  12  -1  274.20   17.38   0
  12 -11  -1  317.82    7.28   0
 -11  12   1  386.24   11.91   0
 -12  11   1  329.03   15.68   0
  11  12  -1  265.34   30.34   0
  11 -12   1  338.57    7.06   0
  12 -11   1  312.51    7.22   0
  11 -12  -1  316.00    7.35   0
 -11  12  -1  330.50   10.70   0
  12  11  -1  340.33   32.74   0
  11  12   1  276.74   17.96   0
  12  11  -1  254.20   24.33   0
 -12  11  -1  307.18   14.66   0
  12  11   1  268.53   25.12   0
  12  11   1  290.35   24.09   0
  13  -2   1  317.25   24.10   0
  -2 -13  -1  362.83   11.97   0
  -2  13  -1  376.15    7.73   0
  -2 -13   1  348.56   23.68   0
  13  -2  -1  355.00   13.32   0
  13   2   1  342.82   14.78   0
  13   2  -1  332.67   21.78   0
  13   2  -1  371.43   22.09   0
   2 -13  -1  388.87   14.86   0
   2 -13   1  350.26   15.68   0
  13  -2   1  329.39   13.93   0
   2  13   1  334.92    7.90   0
  13  -2  -1  313.61   28.43   0
  -2  13   1  354.74    7.59   0
   2  13  -1  339.05    8.19   0
  13   2   1  389.82   24.32   0
   4 -13  -1  149.94    8.14   0
   4 -13   1  164.89    8.12   0
   4  13   1  168.93   13.25   0
  -4 -13  -1  108.67    9.28   0
  13   4  -1  110.47   22.29   0
  13   4  -1  140.28   26.88   0
  -4 -13   1  140.45   17.44   0
 -13   4  -1  140.16   15.86   0
  13   4   1  140.56   15.62   0
  13  -4  -1  137.78    6.07   0
  -4  13   1  161.48    7.16   0
   4  13  -1  129.69    6.21   0
 -13   4   1  155.79   19.26   0
  -4  13  -1  145.91    5.36   0
  13  -4   1  177.72   18.15   0
  13   4   1  153.27   14.04   0
   6 -13  -1   14.15    5.55   0
  13   6  -1  -16.65   22.83   0
  13   6  -1   40.37   22.35   0
  13   6   1   13.11   23.80   0
  -6  13   1   35.99    6.99   0
 -13   6   1   20.71   18.47   0
   6 -13   1   -9.67    6.49   0
  13  -6   1    3.09    6.82   0
  -6 -13  -1   13.98   11.24   0
  -6  13  -1   12.31    7.53   0
  13  -6  -1   19.88    4.91   0
  -6 -13   1    6.37    9.27   0
   6  13  -1    4.53    6.39   0
  13   6   1   54.71   19.22   0
 -13   6  -1   20.86   10.99   0
   6  13   1   59.99   18.33   0
 -13   8   1   13.31   15.60   0
  13   8   1  -16.17   24.65   0
   8  13   1   24.39   15.22   0
  -8 -13   1    1.63   12.37   0
   8 -13  -1    3.32    6.70   0
  13  -8  -1   -4.24    6.68   0
  13   8  -1   16.38   25.51   0
  13   8   1   18.74   19.61   0
  13  -8   1    5.59    5.18   0
  -8  13  -1    9.71    6.10   0
  13   8  -1   12.95   25.56   0
  -8  13   1   11.57    5.61   0
 -13   8  -1   15.67   14.26   0
   8 -13   1    9.73    6.16   0
   8  13  -1   13.58   10.51   0
  -8 -13  -1   15.16    7.72   0
  13  10  -1  343.41   32.24   0
 -10  13   1  408.87   11.29   0
  13  10   1  278.80   27.50   0
  10  13  -1  294.75   14.15   0
 -10  13  -1  368.07    8.90   0
  13  10   1  281.63   23.84   0
  10 -13   1  343.12    7.28   0
  13 -10  -1  328.83    5.86   0
  10  13   1  358.18   25.76   0
  13 -10   1  337.77    5.96   0
  13  10  -1  341.27   31.56   0
 -13  10   1  329.51   16.14   0
 -13  10  -1  369.27   15.30   0
  10 -13  -1  349.26    5.83   0
  -1 -14  -1   43.89   18.31   0
  14  -1  -1   38.41   15.26   0
  -1  14   1   25.88    5.10   0
  14  -1   1   30.15   18.77   0
  -1 -14   1   53.74   22.74   0
   1  14   1   35.00    5.54   0
  14   1   1   60.17   17.92   0
   1 -14   1   36.87   22.07   0
   1  14  -1   45.60    5.05   0
  14   1  -1   39.52   22.51   0
  14  -1   1   34.11   13.55   0
  14   1   1   -3.68   19.87   0
  14  -1  -1   30.84   26.15   0
  14   1  -1   23.34   22.69   0
  -1  14  -1    8.52    6.63   0
   1 -14  -1   33.17   20.76   0
   3  14   1  324.90   10.41   0
  14   3   1  423.47   22.82   0
  14   3  -1  400.65   24.21   0
   3 -14   1  391.16   10.47   0
  14  -3   1  371.58   19.72   0
  -3  14  -1  359.61    7.45   0
   3  14  -1  338.87    8.01   0
  14   3   1  395.77   22.05   0
  -3  14   1  374.61    7.52   0
   3 -14  -1  410.14   15.10   0
  14  -3  -1  396.85   29.91   0
  -3 -14  -1  417.77   14.67   0
  -3 -14   1  380.36   15.40   0
  14   3  -1  411.14   24.79   0
  14  -3  -1  336.84   10.06   0
   5 -14  -1   27.65    8.62   0
  14   5   1    9.36   20.46   0
  14   5  -1   29.92   23.73   0
  14  -5   1    1.66   11.66   0
  14   5   1   25.29   23.77   0
  14   5  -1   16.60   24.17   0
   5 -14   1   -6.87    7.50   0
 -14   5   1   18.87   18.12   0
 -14   5  -1   22.94   15.16   0
  -5  14   1   -2.87    6.50   0
   5  14  -1   -0.03    8.09   0
  -5  14  -1   -0.79    5.03   0
   5  14   1    3.47    8.77   0
  14  -5  -1   -5.66    7.48   0
  -5 -14  -1    4.55   11.83   0
  -5 -14   1    4.39   14.61   0
  14   7   1   21.45   21.55   0
   7 -14  -1   32.86    5.11   0
  14  -7  -1   35.29    6.93   0
  14  -7   1   30.58    8.37   0
  -7  14  -1   39.06    7.80   0
   7  14  -1   27.70    6.87   0
  14   7   1    3.95   26.93   0
  14   7  -1   30.21   32.57   0
 -14   7  -1   51.35   15.48   0
  -7  14   1   22.31    7.14   0
 -14   7   1   34.08   17.75   0
   7  14   1   57.89   16.53   0
   7 -14   1   50.14    6.67   0
  14   7  -1   38.31   32.17   0
  -7 -14  -1   54.76    8.35   0
  -7 -14   1   41.01    9.88   0
   9  14  -1   54.93   11.27   0
  14   9   1   42.75   28.76   0
  14   9  -1   78.02   37.56   0
   9 -14  -1   75.62    5.19   0
  14   9   1   80.92   24.02   0
 -14   9  -1   88.09   15.69   0
   9  14   1   90.82   22.89   0
   9 -14   1   75.01    6.77   0
  14   9  -1   72.79   32.06   0
  14  -9  -1   72.22    7.24   0
  -9  14   1   89.03    8.69   0
  -9 -14  -1   94.95   12.78   0
 -14   9   1   59.51   12.26   0
  -9  14  -1   81.24    6.56   0
  -9 -14   1   33.59   13.57   0
  14  -9   1   76.12    7.72   0
  15  -2   1  111.01   20.59   0
  15   2  -1   77.66   24.26   0
  15  -2   1   59.88   27.74   0
  15   2   1   91.66   24.01   0
   2 -15  -1  112.13   14.98   0
  -2 -15  -1   89.01   15.47   0
   2 -15   1   53.73   13.16   0
  15   2  -1   59.78   23.59   0
   2  15  -1   81.63    7.27   0
   2  15   1   70.14    6.06   0
  -2  15  -1   81.57    4.78   0
  15   2   1   97.29   22.30   0
  15  -2  -1  110.03   28.62   0
  15  -2  -1   69.72    7.70   0
  -2 -15   1   79.58   24.59   0
  -2  15   1   74.14    5.22   0
  -4 -15   1  807.09   14.41   0
  15  -4   1  693.49   17.09   0
  15   4  -1  655.59   28.36   0
   4 -15   1  730.65    7.81   0
  -4  15   1  712.33    8.43   0
  15  -4  -1  793.12   33.32   0
  15   4  -1  770.79   28.22   0
  -4  15  -1  733.65    6.64   0
  -4 -15  -1  718.30   11.27   0
   4 -15  -1  726.52    9.31   0
  15  -4  -1  708.73   10.21   0
  15   4   1  724.79   26.43   0
   4  15   1  702.11    8.89   0
  15   4   1  636.47   23.56   0
   4  15  -1  716.83    9.47   0
   6 -15  -1   63.26    6.00   0
  -6  15  -1   59.08    7.22   0
   6  15   1   59.67    9.06   0
  15   6  -1   83.94   33.93   0
   6 -15   1   71.29    7.32   0
 -15   6  -1   53.25   11.34   0
  15   6   1   72.37   16.03   0
  15   6   1   70.50   27.72   0
  -6  15   1   59.25    5.06   0
  15  -6  -1   58.91    7.65   0
  -6 -15  -1   61.55    9.19   0
  15  -6   1   58.08    9.71   0
  15   6  -1   66.98   27.59   0
 -15   6   1   56.89   17.97   0
  -6 -15   1   64.04   10.53   0
   6  15  -1   62.53    8.88   0
  15  -8  -1   13.45    7.51   0
   8 -15  -1   18.39    5.48   0
  15   8   1    8.40   25.31   0
  -8  15  -1   11.60    8.24   0
  15   8   1   53.19   32.09   0
  15   8  -1   24.16   32.50   0
 -15   8   1   21.55   18.47   0
  15  -8   1   28.40    8.47   0
  15   8  -1   15.44   32.09   0
   8  15   1   18.97   11.44   0
  -8  15   1   13.57    5.66   0
  -8 -15   1    9.25   14.97   0
  -8 -15  -1   17.77   13.49   0
   8  15  -1    8.62   10.48   0
 -15   8  -1   21.57   16.54   0
   8 -15   1   14.72    4.98   0
  16   1  -1  642.63   24.41   0
   1 -16   1  686.02   21.70   0
  16   1   1  660.29   26.33   0
  -1 -16   1  650.81   21.40   0
  -1  16   1  650.61    8.68   0
  16  -1   1  639.01   32.85   0
  -1  16  -1  653.32    8.24   0
   1 -16  -1  792.39   24.67   0
  16  -1   1  602.23   18.99   0
   1  16  -1  593.23    6.90   0
   1  16   1  555.43    8.92   0
  -1 -16  -1  664.34   18.77   0
  16   1   1  612.63   28.85   0
  16   1  -1  535.30   27.94   0
  16  -1  -1  594.30   30.64   0
  16  -1  -1  610.23   13.85   0
   3 -16  -1  139.88   12.86   0
  16  -3   1  162.38   30.73   0
  16  -3  -1  136.51    9.65   0
   3  16  -1  113.97    5.82   0
  16   3  -1  102.15   27.98   0
  -3  16   1  127.45    7.21   0
  16   3  -1  103.32   33.44   0
  -3 -16   1  136.68   14.71   0
   3 -16   1  118.36    7.72   0
  16   3   1  134.60   18.75   0
   3  16   1  118.94    9.17   0
  -3 -16  -1  120.96   10.90   0
  16   3   1  111.50   24.72   0
  16  -3  -1  102.72   23.09   0
  -3  16  -1  133.89    7.07   0
  16  -3   1  157.63   20.21   0
   5  16  -1   75.02    8.89   0
  -5 -16   1  116.21   17.26   0
   5 -16  -1   81.22    9.76   0
   5 -16   1   90.62    6.08   0
  16  -5   1   97.91   11.69   0
  16  -5   1   74.94   10.56   0
  -5  16   1   87.42    5.34   0
  16  -5  -1   51.66   15.77   0
  -5 -16  -1  101.36   14.13   0
  16  -5  -1  103.80    8.61   0
  16   5  -1   84.68   30.26   0
  -5  16  -1   88.51    5.29   0
  16   5   1   95.54   24.68   0
   5  16   1   81.28   10.72   0
  16   5  -1  122.73   29.75   0
  16   5   1  128.39   28.87   0
  -7  16  -1   10.21    8.08   0
   7 -16  -1    1.73    6.24   0
  -7 -16  -1   19.05   14.50   0
   7 -16   1   -3.97    7.97   0
  16   7  -1   10.21   35.47   0
  16  -7  -1   12.56    5.83   0
   7  16   1   13.13   13.26   0
  -7  16   1    1.83    8.02   0
  16   7   1   41.68   34.64   0
  16  -7   1    5.62    9.64   0
  -7 -16   1    7.71   11.60   0
   7  16  -1   14.41   10.11   0
  16   7  -1    4.79   34.04   0
  16   7   1    8.17   27.49   0
  17   2  -1  192.59   22.73   0
   2  17   1  156.98    6.92   0
  -2 -17   1  178.34   17.86   0
   2  17  -1  193.61    8.60   0
   2 -17  -1  203.63   16.57   0
  17   2  -1  150.15   32.49   0
  -2  17   1  173.38    6.12   0
  17  -2   1  210.82   26.49   0
  -2  17  -1  171.27    5.89   0
  17  -2  -1  163.70   11.32   0
  17   2   1  146.32   28.48   0
  17   2   1  186.82   29.35   0
  17  -2  -1  127.51   34.35   0
  17  -2   1  160.21   36.92   0
   2 -17   1  200.51   10.48   0
  -2 -17  -1  202.08   18.24   0
  17  -4   1   36.47   10.13   0
   4 -17  -1   68.21   11.41   0
  17  -4  -1   64.06   21.78   0
   4  17  -1   50.72    9.10   0
  17   4  -1   43.05   33.57   0
   4 -17   1   66.93   10.13   0
  -4 -17   1   41.01   14.35   0
  -4  17   1   46.75    7.82   0
  -4 -17  -1   57.32   16.61   0
  17   4   1   34.36   31.50   0
   4  17   1   37.39    7.25   0
  -4  17  -1   61.01    7.63   0
  17   4   1   35.03   28.30   0
  17  -4  -1   59.22    9.81   0
  17  -4   1   32.06   20.87   0
  17   4  -1   58.59   33.66   0
   0   0   2 4895.12   41.38   0
   0   0   2 5080.88   40.52   0
   1   1   2  475.89   21.65   0
  -1   1   2  475.86   35.47   0
   1  -1   2  488.88   23.59   0
  -1  -1   2  842.55   44.31   0
   1  -1  -2  461.82   27.04   0
  -1   1  -2  561.92   20.67   0
   0   2   2 2957.06   42.34   0
  -2   0   2 2649.41   63.11   0
   0   2  -2 3176.58   37.98   0
   0  -2   2 2611.41   44.93   0
   2   0   2 3055.23   32.31   0
   0  -2  -2 2845.89   34.73   0
  -2   0   2 2951.92   53.52   0
   2  -2  -2 4941.70   44.64   0
  -2  -2  -2 4452.84   37.72   0
  -2  -2   2 4900.98   82.52   0
   2   2  -2 5317.25   65.62   0
  -2   2   2 4760.32   52.29   0
  -2   2  -2 5185.89   37.51   0
   2   2   2 4317.47   33.54   0
   2  -2   2 4743.02   41.01   0
  -1   3   2   38.35   19.54   0
   1  -3   2    4.88   21.29   0
   3  -1  -2   21.64   22.78   0
   1  -3  -2   21.70   15.01   0
   1   3  -2   38.67   25.04   0
   3   1   2   10.93   12.92   0
   1   3   2   21.94   27.16   0
  -1  -3   2   35.46   35.18   0
   3  -1   2   31.44   24.52   0
  -1  -3  -2   32.93   22.13   0
  -1   3  -2   37.72   24.84   0
  -3   1   2   28.47   40.15   0
  -3   1  -2   19.37   16.00   0
   3   1   2   39.29   19.17   0
  -3  -3   2  150.79   37.13   0
   3   3   2  133.90   22.28   0
   3   3  -2  164.67   46.37   0
   3  -3   2   99.95   23.92   0
  -3  -3  -2  131.95   15.69   0
  -3   3   2  186.64   30.30   0
  -3   3  -2  129.77   20.56   0
   3  -3  -2  138.52   25.79   0
   0  -4   2  480.27   36.62   0
   0  -4  -2  374.09   18.57   0
   0   4   2  358.52   19.34   0
   4   0   2  420.03   18.79   0
   0   4  -2  391.31   20.99   0
  -4   2   2   36.79   35.67   0
   2   4   2   27.78   24.51   0
  -4   2  -2   32.16   20.37   0
   2  -4   2   23.26   27.88   0
   2  -4  -2   15.36   22.53   0
   2   4  -2   63.37   37.40   0
   4   2   2   78.52   19.38   0
   4  -2  -2   44.44   30.04   0
  -2  -4   2   48.06   34.55   0
   4  -2   2   48.36   15.24   0
   4   2   2   36.49   19.94   0
  -2  -4  -2   49.80   21.19   0
  -2   4  -2   29.08   16.58   0
  -2   4   2   22.46   29.49   0
  -4   4   2 1576.83   33.06   0
  -4  -4   2 1492.25   27.22   0
   4  -4   2 1554.61   22.47   0
   4  -4  -2 1735.11   35.79   0
  -4   4  -2 1654.76   24.84   0
   4   4  -2 1234.57   36.14   0
   4   4   2 1504.98   19.67   0
  -4  -4  -2 1600.35   20.79   0
   5   1   2  856.69   15.49   0
   5  -1   2  923.38   24.17   0
   5   1   2  872.89   15.48   0
   1   5   2  883.54   27.59   0
  -5   1   2  993.75   38.67   0
  -1   5   2  952.32   22.30   0
   5  -1  -2  953.49   52.49   0
   1  -5   2  841.96   17.94   0
  -1   5  -2  903.14   22.02   0
  -1  -5   2  900.58   36.54   0
  -1  -5  -2  862.32   14.66   0
  -5   1  -2  913.67   22.25   0
   1  -5  -2  899.48   24.81   0
   1   5  -2  915.52   34.54   0
  -3  -5   2 1278.77   34.68   0
   3   5  -2 1403.38   44.25   0
   5   3  -2 1449.35   40.36   0
  -5   3   2 1313.75   32.89   0
   3  -5  -2 1395.09   24.01   0
  -5   3  -2 1335.36   17.75   0
   5  -3  -2 2055.57   43.10   0
  -3  -5  -2 1311.47   19.60   0
   5   3   2 1305.53   24.21   0
   5  -3   2 1279.80   24.39   0
  -3   5  -2 1489.94   28.03   0
  -3   5   2 1278.17   20.17   0
   3   5   2 1347.99   26.22   0
   5   3  -2 1145.13   37.35   0
   3  -5   2 1339.49   21.57   0
   5  -5  -2 1085.20   25.37   0
   5   5  -2  960.39   24.78   0
   5   5   2  940.72   21.05   0
   5  -5   2 1023.93   24.84   0
  -5   5  -2 1097.91   22.41   0
  -5   5   2 1006.05   21.06   0
  -5  -5  -2  919.21   20.27   0
  -5  -5   2 1008.80   23.06   0
   0   6  -2 4011.73   38.93   0
   0  -6  -2 3943.89   26.13   0
   6   0  -2 4288.53   68.17   0
   0   6   2 4129.98   33.90   0
   6   0   2 3826.03   30.13   0
   0  -6   2 3890.81   42.94   0
   6   0  -2 3955.90   56.20   0
  -2  -6   2   97.10   30.12   0
   6  -2   2   98.81   19.75   0
   2   6  -2  -21.88   36.62   0
  -6   2   2  118.90   38.62   0
  -2   6   2  134.45   19.30   0
   6   2   2  112.79   11.27   0
   2   6   2  107.51   22.43   0
   6   2  -2  104.28   34.05   0
   6  -2  -2  122.57   39.98   0
   6   2   2  102.13   11.69   0
  -2   6  -2  101.72   22.63   0
  -6   2  -2   99.85   13.66   0
   2  -6  -2  119.55   17.70   0
  -2  -6  -2  104.12    9.78   0
   2  -6   2   91.37    8.73   0
   6   2  -2  115.49   35.48   0
   4  -6   2 2361.54   17.06   0
  -4  -6   2 2470.64   36.02   0
   4   6   2 2453.38   21.33   0
   6   4   2 2325.32   24.23   0
   4  -6  -2 2626.56   28.07   0
   6  -4   2 2434.69   25.66   0
   6  -4  -2 2707.37   40.81   0
  -6   4   2 2440.51   31.04   0
   6   4  -2 2739.39   52.14   0
  -6   4  -2 2510.19   19.90   0
   4   6  -2 2209.47   22.13   0
  -4   6  -2 2479.39   21.39   0
  -4   6   2 2761.17   19.33   0
  -4  -6  -2 2379.69   18.59   0
   6  -6   2  403.11   15.60   0
   6   6   2  352.71   16.86   0
  -6   6  -2  385.66   12.94   0
  -6   6   2  356.26   14.51   0
  -6  -6  -2  356.96   10.56   0
   6  -6  -2  409.87   27.03   0
   6   6  -2  331.34   17.49   0
  -6   6   2  357.82   23.38   0
  -6  -6   2  328.22   11.76   0
   1  -7  -2  832.34   24.09   0
   7   1  -2  837.58   30.74   0
   7  -1   2  781.23   21.38   0
   7   1  -2 1128.55   49.28   0
   1   7  -2  991.28   31.21   0
  -1   7  -2  836.89   19.01   0
  -1  -7   2  825.37   31.07   0
   7  -1  -2  795.05   24.21   0
   7   1   2  827.99   22.16   0
   1   7   2  853.84   24.40   0
  -1  -7  -2  787.15   13.29   0
  -1   7   2  976.04   26.97   0
  -7   1  -2  776.91   19.10   0
   1  -7   2 1141.89   32.47   0
   7   1   2  803.66   17.75   0
  -7   1   2  964.74   24.72   0
   3   7  -2  799.11   16.31   0
  -7   3   2 1071.31   33.86   0
   7   3   2  945.33   22.76   0
   7   3  -2  846.66   32.96   0
  -3  -7   2  939.32   31.57   0
   3  -7  -2  965.18   20.91   0
   7   3  -2 1009.87   30.98   0
   3   7   2  883.98   21.84   0
   7  -3   2  816.27   20.81   0
   3  -7   2  841.71    9.27   0
   7  -3  -2  866.41   23.33   0
  -7   3  -2  922.15   14.95   0
   7   3   2 1021.65   14.33   0
  -3   7  -2  856.01   20.86   0
  -3  -7  -2  881.34   14.17   0
  -7   3   2  917.89   27.26   0
  -3   7   2  908.22   13.82   0
  -5   7  -2   -3.03   16.78   0
  -5  -7   2   22.21   16.19   0
   5   7   2   33.75   17.35   0
  -5   7   2   19.11   17.11   0
   7   5   2   37.04   16.64   0
   7  -5   2   50.16   17.82   0
   5   7  -2   29.18   12.48   0
   5  -7  -2   18.03   16.40   0
  -5   7   2   34.74   21.33   0
   7  -5  -2   22.49   15.86   0
   7   5  -2   48.42   30.99   0
   7   5  -2   18.97   19.84   0
  -7   5   2   34.06   18.32   0
  -7   5  -2   27.04   16.11   0
   5  -7   2   13.11    6.24   0
  -5  -7  -2   25.01    7.86   0
   7   7   2 3460.95   23.90   0
  -7  -7   2 3255.27   20.56   0
   7  -7  -2 3705.24   21.15   0
  -7   7   2 3456.84   24.98   0
   7   7  -2 3508.45   27.85   0
  -7  -7  -2 3495.20   17.11   0
   7  -7   2 3568.42   16.11   0
  -7   7  -2 3680.88   22.04   0
   0  -8  -2 2500.08   25.99   0
   8   0   2 2227.81   20.11   0
   0   8  -2 2639.58   22.02   0
   0   8   2 2913.56   28.94   0
   8   0   2 2708.39   24.92   0
   8   0  -2 2614.06   26.03   0
   8   0  -2 2717.67   41.93   0
   0  -8   2 2401.84   26.73   0
  -8   0   2 2467.35   35.74   0
   8  -2   2   57.38   16.98   0
  -8   2   2   44.16   17.26   0
  -2   8   2   72.09    8.38   0
   2  -8  -2  106.00   21.99   0
  -8   2   2   76.38   25.94   0
  -2  -8  -2   70.02   12.84   0
   2   8   2  102.49   20.37   0
   2   8  -2   57.75   12.91   0
  -2   8  -2   49.44   18.83   0
   8   2  -2   82.51   25.82   0
   2  -8   2   82.73   12.18   0
   8   2  -2   67.85   23.69   0
   8  -2  -2   64.34   12.14   0
   8   2   2   86.58   10.85   0
   8   2   2   51.07   12.45   0
  -8   2  -2   56.03   15.56   0
  -2  -8   2   80.32   17.37   0
  -8   4   2 1702.86   29.32   0
  -4  -8   2 1488.22   31.37   0
   8   4   2 1450.29   14.57   0
  -8   4  -2 1502.73   19.12   0
   8   4  -2 1426.28   30.76   0
   4  -8  -2 1568.98   26.39   0
   4   8   2 1510.75   21.52   0
  -4   8   2 1600.77   24.49   0
  -4   8   2 1470.99   13.01   0
   8  -4   2 1386.96   20.55   0
  -4   8  -2 1529.42   19.80   0
   8   4  -2 1706.75   29.44   0
   8  -4  -2 1523.39   16.58   0
   4  -8   2 1482.83    9.48   0
  -4  -8  -2 1504.07   14.20   0
   8   4   2 1479.91   20.98   0
   4   8  -2 1421.71   15.42   0
  -6   8  -2  303.25   15.77   0
   8  -6   2  352.31   16.57   0
   6   8   2  259.94   12.80   0
   8   6  -2  318.08   22.02   0
  -6   8   2  383.66   13.13   0
  -6  -8  -2  284.33   10.98   0
   6  -8  -2  310.51   18.32   0
   8   6   2  296.64   12.75   0
   8   6   2  307.97   12.28   0
   8  -6  -2  303.81   10.98   0
   8   6  -2  336.92   26.44   0
  -8   6  -2  274.61   15.46   0
  -8   6   2  296.14   17.74   0
   6  -8   2  293.30    8.05   0
   6   8  -2  271.79   12.24   0
  -6  -8   2  273.74   14.08   0
   8   8   2  514.35   16.63   0
  -8  -8   2  461.12   11.98   0
  -8   8  -2  459.09   10.96   0
   8  -8  -2  475.84   10.19   0
  -8   8   2  413.05   15.52   0
   8   8  -2  415.44   15.75   0
   8  -8   2  456.12    9.70   0
   8  -8   2  471.01    8.81   0
  -1  -9  -2 1681.39   18.95   0
   1   9  -2 1516.83   13.07   0
   1  -9  -2 1667.30   20.24   0
   9   1  -2 1707.78   32.71   0
   9  -1   2 1523.91   21.15   0
  -1  -9   2 1612.07   22.38   0
  -1   9  -2 1625.55   14.74   0
   1  -9   2 1937.94   29.57   0
   9   1   2 1614.77   18.94   0
   1   9   2 1766.47   24.86   0
  -1   9   2 1655.03   16.97   0
   9   1  -2 1752.77   37.52   0
   9   1   2 1509.76   22.26   0
   9  -1  -2 1658.40   17.27   0
   9   3   2   90.47   16.17   0
   3   9  -2   90.98   10.45   0
  -3  -9   2   95.56   17.22   0
   9   3  -2  116.88   24.72   0
   9   3  -2   96.49   23.08   0
   3  -9  -2   48.80   21.12   0
  -9   3  -2  108.26   15.47   0
   3   9   2  125.99   18.64   0
   9  -3   2   63.84   11.83   0
  -3   9  -2  158.27   17.28   0
   3  -9   2  110.96    6.86   0
   9  -3  -2  115.10   10.10   0
  -9   3   2  147.02   24.39   0
  -3  -9  -2   80.51   11.23   0
  -3   9   2   97.96    6.60   0
   9   3   2   99.91   20.46   0
   9   5   2  302.55   17.61   0
   5  -9   2  266.68    7.76   0
  -9   5  -2  283.63   11.63   0
  -5   9   2  285.13    7.64   0
   5  -9  -2  351.42   16.13   0
   9  -5   2  264.97   12.96   0
   9   5  -2  302.47   21.35   0
   5   9   2  292.59   18.09   0
   9   5  -2  261.69   22.94   0
   9  -5  -2  271.36    9.60   0
  -5  -9  -2  268.73    8.04   0
   9   5   2  320.54   10.64   0
  -5   9  -2  297.46   15.71   0
  -5  -9   2  260.24   17.25   0
   5   9  -2  230.16   10.49   0
  -9   5   2  279.12   20.71   0
   9  -7   2   -0.71    6.84   0
   7  -9   2   16.83    6.81   0
   9  -7  -2    4.43    8.06   0
   9   7   2   13.61    9.96   0
   7   9   2    9.72   16.09   0
   7  -9  -2   -1.81    9.94   0
  -7   9  -2    0.15   13.69   0
   9   7  -2   -6.23   30.89   0
   9   7  -2   16.50   25.45   0
   9  -7   2    9.83    9.07   0
  -9   7  -2  -11.21    9.47   0
   7  -9   2   -8.21   10.77   0
   9   7   2    5.78   15.80   0
  -7  -9  -2   16.85    7.13   0
  -7   9   2  -22.92   15.14   0
  -9   7   2   16.54   15.28   0
   7   9  -2   18.73   10.68   0
  -7  -9   2   10.70    9.77   0
   9  -9  -2  496.40    8.69   0
  -9   9  -2  525.89   10.96   0
  -9   9   2  481.07   15.48   0
   9   9   2  439.56   17.23   0
   9   9  -2  459.92   17.39   0
   9  -9   2  516.98    8.03   0
  10   0   2  333.24   18.19   0
   0 -10  -2  385.02   20.11   0
   0 -10   2  375.42   13.28   0
   0 -10   2  365.04   23.94   0
   0  10   2  329.83   15.58   0
   0  10  -2  327.69    8.12   0
  10   0  -2  380.30   28.42   0
  10   0   2  324.54   12.40   0
  10   0  -2  333.46   15.88   0
   2 -10  -2  204.10   20.56   0
  10   2  -2  205.39   20.85   0
   2  10  -2  185.69    9.45   0
   2 -10   2  186.61    9.03   0
 -10   2  -2  149.24   10.55   0
  -2  10   2  159.67    9.27   0
  10   2   2  189.63   19.25   0
  -2  10  -2  207.98   11.53   0
  10   2   2  216.53   12.31   0
  10   2  -2  201.36   22.23   0
   2 -10   2  181.59    9.37   0
 -10   2   2  212.77   18.72   0
   2  10   2  156.83   19.47   0
  -2 -10   2  221.33   23.10   0
  10  -2   2  206.49   12.35   0
  -2 -10  -2  205.61    9.34   0
  10  -2  -2  217.87    9.87   0
   2  10   2  153.23   21.40   0
 -10   4   2  443.54   23.86   0
  10   4   2  295.51   13.43   0
  10   4   2  311.90   13.10   0
  10   4  -2  381.07   26.91   0
   4 -10  -2  365.18   20.46   0
  10  -4   2  316.61   17.36   0
  10   4  -2  325.30   26.23   0
   4  10   2  330.31   18.89   0
  -4 -10  -2  315.88   10.73   0
   4 -10   2  314.76    6.29   0
  10  -4  -2  341.87    7.42   0
  -4  10   2  343.42    8.88   0
  -4  10  -2  377.49   15.87   0
   4 -10   2  332.44   11.64   0
 -10   4  -2  337.68   16.37   0
  -4 -10   2  296.70   26.89   0
   4  10  -2  464.09   10.34   0
  -6 -10   2  681.01   15.68   0
  10   6   2  754.58   18.31   0
 -10   6  -2  804.40   12.41   0
  10  -6  -2  810.70   10.03   0
   6 -10  -2  729.91   10.98   0
 -10   6   2  749.90   19.66   0
  10  -6   2  852.26   17.42   0
   6  10   2  782.52   14.58   0
  10   6  -2  787.33   27.97   0
   6 -10   2  835.91   11.47   0
  -6  10   2  831.86    8.98   0
  10   6   2  733.27   14.99   0
   6 -10   2  819.66    8.13   0
  10   6  -2  943.95   25.26   0
  -6 -10  -2  753.11    9.16   0
  -6  10  -2  864.75   12.94   0
  10  -6   2  801.45   11.47   0
   6  10  -2  728.42   11.58   0
  -8 -10  -2  352.21   10.41   0
 -10   8   2  357.79   16.15   0
 -10   8  -2  327.75   14.04   0
  10   8   2  303.14   16.81   0
  -8  10  -2  367.50   14.23   0
   8  10   2  284.91   17.21   0
   8 -10  -2  347.27    8.73   0
   8  10  -2  326.05   11.34   0
  10  -8  -2  344.65    8.12   0
  -8  10   2  446.37   14.78   0
  10   8   2  282.52   10.77   0
  10   8  -2  331.35   19.54   0
   8 -10   2  365.06    7.17   0
  10  -8   2  325.41    8.56   0
  -8 -10   2  279.84   10.77   0
  10   8  -2  378.37   24.15   0
  10 -10  -2  149.43    7.29   0
  10  10  -2  162.42   27.32   0
  10  10   2  111.92   12.15   0
 -10  10  -2  109.86    9.73   0
  10 -10   2  138.43    6.93   0
 -10  10   2  159.26   10.94   0
  10  10  -2  171.48   12.79   0
  10  10   2  150.42   18.00   0
  11   1  -2  201.24   25.50   0
  11   1  -2  179.71   21.57   0
  -1 -11  -2  165.64   10.76   0
  11   1   2  192.38   18.18   0
  -1 -11   2  174.25   16.39   0
  -1  11  -2  160.55    6.61   0
  11  -1   2  194.75   18.42   0
   1 -11   2  218.48   16.90   0
  11  -1   2  136.20   17.21   0
   1  11  -2  179.16    8.63   0
   1  11   2  175.87   11.25   0
  -1  11   2  187.86    7.19   0
  11  -1  -2  179.31   29.75   0
  11   1   2  172.14   11.26   0
   1 -11  -2  195.04   14.36   0
  11  -1  -2  186.30   10.09   0
  -3 -11  -2   -2.40    7.83   0
  -3  11   2   29.94    7.49   0
  11  -3  -2   14.15    8.08   0
   3  11  -2   16.84    5.74   0
  -3 -11   2   24.28   24.04   0
  11   3  -2   -5.09   24.65   0
   3 -11  -2   -1.52   14.00   0
 -11   3   2   39.62   17.27   0
  11   3   2   27.54   19.92   0
 -11   3  -2   21.76   13.62   0
  11  -3   2   45.23   16.42   0
  11   3  -2   21.95   25.45   0
   3 -11   2   18.02    9.08   0
   3  11   2   45.45   12.88   0
  -3  11  -2    4.05    9.43   0
  11   3   2   23.46   19.46   0
  11   5   2 1056.59   19.91   0
 -11   5  -2 1146.19   17.79   0
  -5  11   2 1009.14    9.98   0
  11   5   2 1007.56   19.10   0
   5  11  -2  964.02   11.07   0
   5 -11  -2 1054.32   18.34   0
  11   5  -2 1047.91   32.48   0
   5  11   2  999.66   16.24   0
  -5 -11  -2 1043.94   12.57   0
  11  -5  -2 1054.21   10.79   0
   5 -11   2 1008.38    8.93   0
  -5 -11   2 1059.62   19.77   0
  11  -5   2 1061.59   14.42   0
  11  -5   2  963.16   19.82   0
 -11   5   2 1279.92   23.27   0
  -5  11  -2 1042.81   11.32   0
  11   5  -2 1243.67   28.67   0
  11   5   2 1047.13   16.09   0
  11  -7   2  267.54   10.35   0
  11   7   2  233.67   12.94   0
 -11   7  -2  275.38   14.04   0
  -7  11  -2  307.43   14.58   0
  -7  11   2  249.21    9.46   0
 -11   7   2  247.22   16.80   0
   7  11   2  232.44   18.25   0
  11  -7  -2  268.36    7.96   0
  -7 -11  -2  267.18    7.55   0
  11   7   2  219.19   14.49   0
  11   7  -2  299.53   24.05   0
  11   7  -2  271.63   34.61   0
   7 -11   2  254.73    5.29   0
  -7 -11   2  211.74   11.84   0
   7 -11  -2  279.43    9.19   0
   7  11  -2  240.99    9.96   0
  11   9   2  717.97   16.22   0
  11   9   2  754.11   14.73   0
   9 -11  -2  904.95    7.63   0
  -9  11  -2  867.49   11.70   0
  -9  11   2  959.82   12.16   0
  11   9  -2  950.57   34.19   0
   9  11   2  722.59   15.09   0
  11  -9  -2  893.62    8.97   0
  11   9  -2  777.68   18.67   0
  11  -9   2  885.62    9.14   0
 -11   9   2  821.73   17.35   0
   9 -11   2  877.23    6.66   0
  -9 -11   2  822.32   13.44   0
   9  11  -2  802.70   13.36   0
 -11   9  -2  921.73   15.46   0
  11  11  -2  116.73   30.44   0
  11  11   2  113.81   12.48   0
  11 -11   2  128.47    5.07   0
 -11  11   2  140.55   16.16   0
  11  11   2  139.17   19.92   0
 -11  11  -2  129.51   13.74   0
  11 -11  -2  129.29    7.30   0
  11  11  -2  127.58   12.48   0
  12   0   2   27.47   15.62   0
  12   0  -2    2.58   10.63   0
   0  12  -2    6.91    5.16   0
   0 -12   2   19.88   15.79   0
  12   0   2  -12.82   17.51   0
   0 -12  -2    4.09   17.57   0
  12   0   2   21.76   11.15   0
   0  12   2  -17.18   10.18   0
  12   0  -2   19.51   21.84   0
  12   2  -2 2267.96   33.35   0
   2 -12  -2 2373.42   25.35   0
   2  12  -2 2276.88   11.38   0
  12   2  -2 2515.76   40.85   0
  12  -2  -2 2224.44   33.91   0
  -2  12   2 2371.07   12.36   0
  -2 -12   2 2249.08   24.37   0
   2 -12   2 2367.05   14.97   0
  -2  12  -2 2360.22   11.03   0
  12  -2   2 2096.57   18.59   0
  12  -2   2 2375.20   18.29   0
   2  12   2 2328.31   17.67   0
  12   2   2 2364.87   20.66   0
  12  -2  -2 2347.46   15.90   0
  -2 -12  -2 2303.35   17.79   0
  12   2   2 2254.03   21.22   0
  12   2   2 2719.86   26.24   0
  12   4   2   11.07   19.21   0
   4  12  -2    9.49    7.81   0
  -4  12   2   -5.13    4.86   0
 -12   4  -2    8.60    9.60   0
   4 -12  -2   -8.73   20.04   0
  12   4  -2   10.54   22.38   0
  12  -4   2   22.39   12.14   0
  12  -4   2   29.68   10.86   0
  12   4   2    0.39   21.69   0
 -12   4   2   -1.07   17.84   0
   4 -12   2    5.84    5.22   0
  12   4  -2   24.93   27.84   0
   4  12   2   31.58   19.34   0
  12  -4  -2    0.20    7.66   0
  -4  12  -2    2.99    5.99   0
  12   4   2  -20.48   13.13   0
  -4 -12   2    4.26   20.88   0
  -4 -12  -2   10.87   10.98   0
  12   6  -2   32.61   23.55   0
  12   6   2   21.82   18.32   0
 -12   6   2   34.45   15.85   0
   6  12  -2   27.72    8.36   0
  -6  12  -2   54.14   10.08   0
   6 -12  -2   22.37    9.85   0
  12   6   2   21.47   12.76   0
  -6  12   2   43.10    7.52   0
  12   6  -2   17.41   26.85   0
   6  12   2   19.92   18.99   0
  12  -6  -2   28.35    7.06   0
   6 -12   2   28.67    4.71   0
  12  -6   2   50.31   13.11   0
  -6 -12   2   26.93   14.26   0
  -6 -12  -2   36.20   10.42   0
 -12   6  -2   28.10   14.49   0
  12   8   2   26.34   18.27   0
   8  12  -2   42.36    9.33   0
   8 -12  -2   43.42    5.53   0
  12   8   2   35.41   15.67   0
  12   8  -2   35.41   24.93   0
  -8  12  -2   40.66    8.60   0
  12  -8  -2   41.67    7.07   0
   8  12   2   36.04   13.14   0
 -12   8  -2   31.72   13.85   0
  -8 -12  -2   22.19   10.37   0
  -8  12   2   38.48    8.84   0
   8 -12   2   29.69    6.39   0
  12   8  -2   30.38   20.50   0
  -8 -12   2   22.31   10.40   0
 -12   8   2   49.56   15.90   0
  12  -8   2   46.36    8.30   0
  12  10   2  152.90   20.31   0
  12  10  -2  120.20   17.03   0
 -12  10  -2  162.77   13.94   0
  10 -12  -2  161.27    7.59   0
  12 -10  -2  162.75    7.44   0
  12 -10   2  145.29    5.46   0
  10  12   2   98.91   15.02   0
 -12  10   2  140.36   16.06   0
 -10  12  -2  169.73   13.65   0
  10 -12   2  157.59    5.08   0
  12  10   2  144.03   16.66   0
 -10  12   2  173.05   12.83   0
  12  10  -2  173.41   28.94   0
  10  12  -2  129.77   11.32   0
  12  12   2  234.58   20.48   0
  12  12  -2  290.54   37.45   0
  12 -12  -2  291.22    6.80   0
 -12  12  -2  266.71   11.82   0
  12  12   2  188.87   18.68   0
  12  12  -2  200.37   17.53   0
  12 -12   2  285.36    6.30   0
 -12  12   2  398.50   18.30   0
  13   1  -2  569.47   15.77   0
  -1 -13   2  636.40   25.10   0
  13   1   2  567.98   19.10   0
   1  13  -2  586.29    6.95   0
   1 -13   2  820.62   24.61   0
   1 -13  -2  670.21   21.09   0
  -1  13   2  565.28    7.32   0
  -1  13  -2  611.72    8.38   0
  13  -1   2  598.60    9.60   0
  13  -1   2  544.44   14.54   0
   1  13   2  609.55   11.53   0
  -1 -13  -2  655.60   12.09   0
  13   1   2  593.74   15.47   0
  13  -1   2  554.44   13.22   0
  13  -1  -2  610.69   13.22   0
  13  -1  -2  605.64   27.11   0
  13   1  -2  604.03   30.72   0
  13   1   2  568.43   10.05   0
  13   3   2   10.88   20.19   0
  -3 -13  -2  -15.28   12.15   0
  13  -3   2   44.72   17.34   0
  -3  13   2   14.68    7.23   0
   3 -13  -2   -4.06   14.38   0
   3  13  -2    9.15    7.24   0
  13   3  -2   22.19   27.90   0
   3 -13   2   16.40    9.13   0
  -3  13  -2   18.52    7.39   0
   3  13   2   17.81   15.03   0
  13  -3  -2    4.06    7.87   0
  -3 -13   2   23.20   24.85   0
  13   3  -2    9.54   30.66   0
  13   3   2   13.13   14.60   0
  -5 -13   2  112.11   17.02   0
   5 -13  -2  166.77   11.60   0
 -13   5   2  154.37   17.31   0
  13   5   2  171.20   19.40   0
 -13   5  -2  111.90   10.39   0
  -5  13   2  148.23    5.34   0
  -5  13  -2  155.92    6.07   0
  13  -5   2  168.96   13.68   0
  13   5   2  200.65   23.86   0
  13   5  -2  141.57   32.82   0
   5 -13   2  161.15    5.26   0
  13   5  -2  150.67   30.86   0
  13  -5  -2  161.45    7.96   0
   5  13   2  144.76   20.48   0
   5  13  -2  154.00    8.37   0
  -5 -13  -2  124.71   11.27   0
  13   7   2  818.63   23.00   0
   7  13  -2  773.00   10.89   0
 -13   7  -2  868.79   12.86   0
  13   7   2  785.70   20.91   0
 -13   7   2  854.67   16.96   0
  13   7  -2  962.06   37.03   0
  -7  13  -2  895.80    8.98   0
  13  -7  -2  839.96    9.29   0
  -7  13   2  856.91    9.25   0
   7 -13   2  848.06    6.67   0
   7  13   2  855.45   22.50   0
   7 -13  -2  853.15    8.08   0
  13   7  -2  857.61   43.39   0
  -7 -13   2  364.90   13.35   0
  13  -7   2  790.78    9.09   0
  -7 -13  -2  910.29   12.55   0
   9  13  -2  437.69   11.92   0
  13   9   2  399.76   19.89   0
  13   9  -2  511.80   32.05   0
 -13   9  -2  517.65   15.87   0
  13  -9   2  481.66    6.99   0
   9 -13  -2  466.03    6.90   0
  13   9   2  413.95   21.65   0
  -9  13  -2  539.98   11.58   0
  13  -9  -2  482.95    6.84   0
  13   9  -2  396.47   21.16   0
   9  13   2  459.40   22.27   0
   9 -13   2  477.98    5.99   0
  -9  13   2  445.80    8.31   0
  -9 -13  -2  497.62   12.08   0
  -9 -13   2  455.60   13.29   0
 -13   9   2  491.62   17.81   0
  11 -13  -2   24.17    7.84   0
  11  13  -2   14.09   12.50   0
  11  13   2   -0.24   15.62   0
  11 -13   2   36.74    7.38   0
 -13  11  -2   18.35   10.74   0
  13 -11  -2   15.52    5.76   0
  13  11   2    8.86   20.81   0
  13  11   2   21.37   17.58   0
  13  11  -2   37.65   43.17   0
  11  13   2   18.15   17.75   0
  11  13  -2   57.67   46.98   0
  13 -11   2   24.49    5.65   0
 -11  13   2   28.45    9.65   0
 -11  13  -2   16.32    9.64   0
 -13  11   2   35.30   17.82   0
  13  11  -2   25.30   17.60   0
  14   0  -2  432.61   26.89   0
   0 -14  -2  434.18   12.50   0
   0 -14   2  456.74   18.60   0
   0  14  -2  413.11    6.20   0
  14   0   2  429.86   20.52   0
  14   0  -2  424.74   11.84   0
  14   0   2  428.90   18.68   0
   0  14   2  439.42    9.23   0
  -2 -14  -2  487.51   10.86   0
  -2  14   2  507.23    6.77   0
  14  -2  -2  520.76   12.22   0
   2 -14  -2  534.74   16.31   0
  -2 -14   2  593.18   27.78   0
   2 -14   2  539.43   13.32   0
   2  14  -2  517.59    8.21   0
  14  -2   2  496.56   19.90   0
  -2  14  -2  501.92    7.97   0
  14   2   2  446.04   22.60   0
  14   2  -2  477.66   19.11   0
  14  -2   2  480.31   19.14   0
   2  14   2  522.82   11.59   0
  14  -2  -2  496.45   34.85   0
  14   2  -2  460.59   32.51   0
  14   2   2  439.80   24.38   0
  14   4   2   19.75   14.78   0
   4  14  -2   -4.80    7.75   0
   4 -14  -2   -4.30   13.84   0
  14  -4   2   33.44   19.32   0
  14   4  -2   12.58   33.00   0
  14   4  -2   -6.64   32.36   0
   4 -14   2    0.74    7.76   0
  -4 -14  -2   31.00   11.97   0
  14  -4  -2   10.17    7.71   0
   4  14   2   23.96   10.14   0
  -4  14  -2    0.21    7.11   0
  14   4   2  -13.51   16.62   0
  -4  14   2    7.15    7.00   0
  -4 -14   2    3.82   19.76   0
  14  -6   2 1514.10   15.25   0
   6  14  -2 1496.89   12.25   0
  14   6   2 1425.75   24.58   0
 -14   6  -2 1379.17   13.84   0
 -14   6   2 1511.51   20.65   0
  14   6   2 1554.56   30.32   0
  -6  14   2 1515.52    8.99   0
   6 -14   2 1550.60    8.32   0
  -6  14  -2 1696.39   11.16   0
  14   6  -2 1445.42   42.20   0
  14  -6  -2 1540.33   11.58   0
  14   6  -2 1421.40   47.29   0
   6  14   2 1601.24   24.31   0
   6 -14  -2 1528.68   10.25   0
  -6 -14   2 1584.48   16.24   0
  -6 -14  -2 1648.59   14.47   0
   8  14  -2  351.50   10.54   0
  -8  14  -2  384.57    7.51   0
  14   8   2  298.31   22.58   0
   8 -14  -2  392.64    8.94   0
 -14   8   2  333.46   16.03   0
  14  -8  -2  370.84    8.58   0
   8 -14   2  389.05    7.63   0
 -14   8  -2  342.19   11.70   0
  14   8   2  329.97   19.67   0
   8  14   2  359.48   17.38   0
  -8  14   2  336.82    7.05   0
  14   8  -2  309.20   24.61   0
  14   8  -2  331.27   39.31   0
  -8 -14  -2  417.09   12.81   0
  -8 -14   2  112.87   12.57   0
  14  -8   2  356.81    9.68   0
  14 -10   2   26.74    8.68   0
  14  10  -2   23.51   45.85   0
 -10  14   2   18.99   10.65   0
  10 -14  -2   27.84    5.93   0
  14 -10  -2   20.00    5.94   0
 -14  10   2   13.10   12.24   0
 -14  10  -2   30.34   16.59   0
 -10  14  -2   27.14    7.74   0
  10  14  -2   20.69   12.01   0
  10 -14   2   17.50    5.43   0
  10  14   2   33.39   26.18   0
  14  10   2   19.54   18.35   0
  14  10   2   51.80   26.20   0
  -1  15   2   19.66    7.63   0
  -1 -15  -2   47.32   14.95   0
   1 -15  -2   16.14   17.94   0
   1  15   2   52.27    8.85   0
  15   1  -2   25.67   31.73   0
  -1 -15   2   59.11   27.63   0
   1 -15   2    9.46   19.86   0
  15   1   2   29.44   17.96   0
   1  15  -2   43.37    7.08   0
  15  -1   2   28.22   20.76   0
  -1  15  -2   29.02    4.97   0
  15   1   2   35.65   16.09   0
  15  -1  -2   25.65   26.99   0
  15  -1  -2   31.24    9.16   0
  15   1  -2   39.38   10.49   0
  15  -1   2   36.92   13.39   0
  -3 -15  -2   83.43   13.15   0
  15   3  -2   77.05   17.31   0
  15   3   2   88.31   23.43   0
  -3 -15   2   58.85   17.76   0
   3 -15  -2   82.19   12.43   0
  15  -3   2   69.03   21.21   0
  -3  15   2   85.12    5.26   0
   3  15  -2   70.78    7.64   0
   3 -15   2   77.70    7.08   0
  15   3  -2   61.22   33.45   0
  15  -3   2   67.92   20.41   0
   3  15   2   66.49    7.74   0
  15  -3  -2   63.63    8.48   0
  -3  15  -2   67.43    7.07   0
  15  -3  -2   70.70   29.16   0
  15   3   2  121.07   24.53   0
  -5 -15   2  626.24   14.67   0
  15   5   2  612.59   29.23   0
  15   5   2  510.24   24.45   0
  15   5  -2  570.55   43.25   0
   5 -15  -2  598.34    9.22   0
  15  -5   2  594.81   16.65   0
   5  15  -2  560.34    9.78   0
  -5  15   2  612.16    8.48   0
   5 -15   2  646.11    8.95   0
  15  -5  -2  619.90    9.94   0
  15   5  -2  475.11   44.02   0
   5  15   2  558.72   11.75   0
  -5  15  -2  606.71    8.53   0
  -5 -15  -2  604.99   10.33   0
  -7  15  -2   10.60    8.29   0
   7  15  -2   11.85    9.45   0
 -15   7  -2   17.64   15.44   0
  15   7   2   37.20   23.77   0
   7 -15  -2   16.52    8.95   0
 -15   7   2   28.92   16.65   0
  -7 -15   2   45.79   14.42   0
  15   7   2   30.94   29.55   0
  15   7  -2   12.65   46.67   0
   7 -15   2   24.38    5.18   0
  15  -7  -2   23.91    8.01   0
  -7  15   2   20.07    7.77   0
   7  15   2   35.29   18.93   0
  15  -7   2    5.75   10.61   0
  -7 -15  -2   23.84    9.23   0
  15   7  -2   13.47   25.22   0
   0  16   2  652.34    9.54   0
  16   0  -2  636.84   15.21   0
   0 -16  -2  792.94   18.46   0
  16   0  -2  554.40   37.88   0
   0 -16   2  827.91   23.57   0
  16   0   2  664.56   26.05   0
   0  16  -2  659.29    8.64   0
  16   0   2  777.03   27.77   0
  -2 -16  -2  636.53   16.05   0
  16   2   2  569.91   27.69   0
   2 -16  -2  690.47   15.27   0
  -2 -16   2  573.52   23.41   0
  -2  16   2  588.20    8.93   0
  16  -2   2  471.78   18.57   0
   2 -16   2  594.05   10.99   0
   2  16   2  511.80   10.75   0
   2  16  -2  500.95    8.92   0
  -2  16  -2  526.24    6.79   0
  16   2   2  534.24   20.71   0
  16  -2  -2  558.99   13.57   0
  16   2  -2  479.88   17.46   0
  16   2  -2  391.00   43.88   0
  16  -2   2  518.79   22.77   0
  16  -2  -2  512.39   32.98   0
  -4 -16   2   19.99   21.26   0
  16   4   2    0.52   18.14   0
   4 -16  -2   -1.66    8.83   0
  16  -4   2   20.78   18.92   0
  -4  16   2   10.44    7.51   0
   4  16  -2   -3.74    8.15   0
   4 -16   2    8.90    9.13   0
  16   4  -2    1.56   21.23   0
   4  16   2   -6.18   11.37   0
  16  -4  -2   10.84    8.53   0
  16   4  -2    6.55   44.47   0
  16  -4   2   15.78   21.56   0
  -4  16  -2    1.65    7.23   0
  16   4   2   21.44   20.67   0
  16  -4  -2    0.70   27.31   0
  -4 -16  -2   13.04    9.68   0
  -6  16  -2   -5.59    8.24   0
  16   6   2   38.97   34.22   0
   6 -16  -2    7.27   10.12   0
   6  16  -2    8.90    9.46   0
   6 -16   2    4.38    8.26   0
  16  -6  -2    0.95    8.85   0
  -6  16   2    5.25    7.94   0
   6  16   2    8.42   10.44   0
  16  -6  -2    7.11   13.53   0
  -6 -16  -2    9.05   14.17   0
  16   6   2  -13.41   26.67   0
  -6 -16   2   10.11   18.14   0
  16  -6   2   -5.27   12.70   0
  17  -1   2   13.34   20.29   0
  17   1   2   22.45   30.74   0
  -1 -17  -2   23.76   12.22   0
   1  17   2   33.40    9.38   0
   1 -17  -2   36.88   20.15   0
  -1  17   2   18.52    6.18   0
  -1 -17   2   39.73   36.18   0
  17  -1  -2   32.17   39.32   0
   1 -17   2   18.58   13.69   0
  17   1  -2   -4.95   45.03   0
  17  -1   2   53.17   27.83   0
  17   1   2   29.01   29.46   0
   1  17  -2   13.72    8.00   0
  -1  17  -2    9.24    7.75   0
  17  -1  -2   16.10   13.04   0
  17   1  -2    4.28   16.05   0
   3 -17  -2   64.06   10.04   0
  17   3  -2    0.48   29.96   0
  -3  17  -2   50.60    5.82   0
  -3  17   2   55.31    6.20   0
  -2  -1   3  156.85   20.61   0
   1   2   3  184.76   17.51   0
   1  -2   3  166.35   25.32   0
   1   2  -3  180.00   24.69   0
  -1   2   3  197.20   28.10   0
   2  -1   3  179.16   18.04   0
  -1   2  -3  202.99   20.26   0
  -2   1   3  156.17   35.73   0
  -1  -2   3  180.24   41.94   0
  -2  -1   3  190.61   40.46   0
   1  -2  -3  170.27   20.69   0
   2   1   3  186.65   10.17   0
   2   1   3  183.13   10.83   0
   2  -3  -3 1374.44   24.21   0
  -2   3  -3 1631.90   22.94   0
   2   3  -3 1761.22   31.25   0
   2   3   3 1423.06   18.87   0
   3  -2  -3 1460.72   27.56   0
  -3   2  -3 1753.55   24.22   0
   3   2   3 1522.20   20.51   0
  -2   3   3 1474.77   27.01   0
  -2  -3   3 1459.55   51.33   0
   2  -3   3 1400.44   29.51   0
  -3   2   3 1438.31   38.61   0
   3  -2   3 1449.84   27.44   0
  -2  -3  -3 1501.54   23.14   0
   3   2   3 1480.29   17.51   0
   1  -4  -3 2756.74   27.36   0
   1  -4   3 3097.71   40.73   0
   1   4   3 3157.32   33.80   0
   4  -1   3 2908.24   21.75   0
   1   4  -3 3124.79   32.16   0
  -4   1   3 2940.29   71.07   0
  -1   4   3 2836.42   29.26   0
   4   1   3 2917.28   20.22   0
  -1   4  -3 3050.96   28.31   0
   4   1   3 2967.66   20.61   0
   4  -1  -3 2925.20   51.39   0
  -1  -4  -3 2747.95   23.09   0
  -1  -4   3 2706.33   46.13   0
   4   3   3   45.87   11.92   0
   4   3   3   23.52   13.55   0
   3   4   3   40.35   18.81   0
  -4   3   3   15.09   27.85   0
   3   4  -3   43.68   25.45   0
   3  -4   3   48.46   24.06   0
  -3  -4   3   33.51   38.55   0
  -4   3  -3   65.56   16.93   0
   4  -3   3   66.16   21.68   0
  -3   4   3   61.61   20.79   0
   3  -4  -3   52.66   19.35   0
  -3  -4  -3  101.85   13.15   0
   4  -3  -3   49.16   20.42   0
  -3   4  -3   42.30   17.55   0
   2  -5  -3  384.74   18.64   0
   2  -5   3  373.76   15.90   0
   2   5   3  343.99   16.09   0
   5  -2   3  353.02   20.86   0
  -2   5  -3  344.94   19.94   0
   5  -2  -3  347.51   22.21   0
  -5   2   3  359.14   37.09   0
  -2  -5   3  356.02   32.88   0
  -2   5   3  303.81   29.36   0
   5   2   3  365.59   10.36   0
  -5   2  -3  373.15   16.85   0
  -2  -5  -3  380.47   18.25   0
   2   5  -3  378.58   29.02   0
   5   2   3  405.06   13.62   0
   5   4   3  681.65   16.16   0
  -5   4  -3  685.35   16.93   0
  -4  -5   3  678.49   37.93   0
  -5   4   3  607.31   27.92   0
   4  -5  -3  651.58   23.06   0
   5  -4  -3  668.80   25.47   0
   4  -5   3  645.04   17.81   0
   4   5  -3  709.33   32.66   0
   5  -4   3  643.06   21.42   0
  -4   5  -3  621.37   13.63   0
   4   5   3  613.88   14.63   0
  -4  -5  -3  654.74   14.93   0
  -4   5   3  725.01   18.77   0
  -1   6  -3   17.11   21.41   0
  -1  -6  -3   62.23    9.76   0
   6   1   3   50.87   13.07   0
   1  -6  -3   35.12   14.81   0
   6   1   3    4.91   12.32   0
   6  -1   3   32.00   17.89   0
   1   6   3   20.19   21.57   0
  -1   6   3   33.60   24.79   0
   1   6  -3   34.48   23.67   0
  -1  -6   3   47.50   31.13   0
   1  -6   3  160.15   11.33   0
   6  -1  -3   33.32   39.04   0
  -6   3  -3 1367.58   18.77   0
   3  -6   3 1279.18   16.14   0
   3  -6  -3 1347.20   23.96   0
   6  -3  -3 1347.11   28.67   0
  -3   6  -3 1438.93   22.28   0
   6   3   3 1507.13   15.78   0
  -3  -6   3 1463.20   41.21   0
   3   6  -3 1333.43   30.82   0
  -6   3   3 1290.07   31.51   0
   6  -3   3 1195.51   17.17   0
  -3   6   3 1376.21   17.89   0
   3   6   3 1334.93   21.82   0
  -3  -6  -3 1358.39   14.39   0
   6   3   3 1282.80   15.28   0
  -5  -6   3  180.62   13.67   0
   6   5   3  186.69   15.92   0
   5  -6   3  228.32   20.33   0
   5   6   3  196.82   16.51   0
   5  -6  -3  164.31   22.42   0
   6  -5  -3  202.58   22.77   0
  -5  -6  -3  196.03   15.12   0
   6  -5   3  200.28   19.29   0
   6   5  -3  226.22   34.50   0
  -6   5   3  153.92   20.13   0
  -5   6   3  262.82   22.13   0
   5   6  -3  203.62   34.21   0
  -5   6  -3  201.70   16.80   0
   6   5  -3  203.78   38.70   0
  -6   5  -3  177.66   14.77   0
  -2   7  -3  180.28   20.54   0
   2  -7  -3  214.24   17.32   0
  -2  -7  -3  212.71   12.26   0
   7  -2  -3  193.01   27.73   0
   7   2   3  206.56    8.77   0
  -7   2  -3  192.65   10.38   0
   2   7   3  212.85   20.81   0
  -2  -7   3  205.73   27.86   0
   2   7  -3  235.88   25.78   0
   7  -2   3  196.44   18.40   0
  -2   7   3  214.04   20.82   0
   2  -7   3  218.36   10.48   0
   7   2   3  195.41    8.95   0
  -7   2   3  233.70   21.29   0
   4  -7   3   44.19    9.62   0
   7   4   3   16.02    8.79   0
  -4  -7   3   46.92   28.38   0
   4  -7  -3   29.61   20.53   0
   7   4   3   33.60   11.35   0
  -4   7  -3   43.06   17.02   0
   4   7   3   62.98   16.63   0
   7  -4  -3   49.76   23.23   0
   4   7  -3   40.89   28.29   0
   7  -4   3   30.35   17.09   0
  -7   4  -3   18.19   10.28   0
  -7   4   3   22.63   21.06   0
  -4  -7  -3   26.00   11.39   0
  -4   7   3   25.71    7.51   0
   6  -7   3   -8.83   11.26   0
   7  -6   3   45.91   18.72   0
   6   7   3   52.89   15.05   0
  -6   7   3  -14.24   18.99   0
   6  -7  -3   17.18   22.68   0
   7  -6  -3   24.03   24.01   0
   6   7  -3   -7.02   42.63   0
   7   6  -3   22.30   35.56   0
  -6  -7  -3   -0.41    8.04   0
  -7   6   3   14.04   17.08   0
  -6   7  -3  -19.55   14.82   0
   7   6  -3   19.18   24.54   0
   7   6   3   14.01   10.62   0
  -6  -7   3   10.74    8.93   0
  -7   6  -3   27.73   14.76   0
  -1  -8  -3  169.84   11.74   0
   8  -1  -3  175.22   35.48   0
   1  -8  -3  173.40   10.14   0
   1   8   3  194.95   14.89   0
   8   1   3  173.18   12.54   0
  -1  -8   3  174.89   26.34   0
   1   8  -3  165.38   21.70   0
  -1   8   3  170.80   16.02   0
   8   1   3  188.91    9.27   0
   1  -8   3  168.62   13.30   0
   8  -1   3  173.90   13.40   0
  -1   8  -3  178.23   19.00   0
   8  -1  -3  189.16   37.14   0
  -3   8   3 1843.63   13.29   0
  -3   8  -3 1928.56   22.02   0
   3  -8  -3 1935.26   25.51   0
   8   3   3 1888.43   15.66   0
  -3  -8   3 2028.93   34.60   0
   8  -3  -3 1873.39   38.40   0
   3   8   3 1843.17   18.54   0
   3   8  -3 1888.24   32.21   0
  -8   3   3 2359.15   29.38   0
   8  -3   3 1752.32   21.16   0
   3  -8   3 1906.34   12.64   0
  -3  -8  -3 1930.12   14.85   0
  -8   3  -3 1671.83   17.06   0
   8   3   3 1839.49   13.59   0
   8   5   3  259.50   14.69   0
  -5   8   3  299.06    8.53   0
   5  -8  -3  284.41   22.74   0
   8   5   3  250.42   11.94   0
  -5   8  -3  284.25   15.83   0
   5   8   3  217.37   12.10   0
   8  -5   3  303.42   17.12   0
   5   8  -3  244.24   25.15   0
   8  -5  -3  284.18   26.55   0
  -8   5  -3  332.65   14.24   0
  -5  -8  -3  294.77    8.16   0
  -8   5   3  312.79   20.21   0
  -8   5   3  285.95   19.95   0
   5  -8   3  284.73    6.83   0
  -5  -8   3  256.05   16.34   0
   8  -7   3   45.10   12.03   0
   8   7   3   56.01   11.39   0
   8   7  -3   64.22   28.86   0
   7   8  -3   40.05   19.38   0
   7   8   3   63.31   11.13   0
   8   7  -3   56.55   53.37   0
   7  -8  -3   35.75   23.42   0
   8  -7  -3   46.78   24.94   0
  -7  -8  -3   38.31    7.37   0
  -7   8   3   61.05   16.70   0
   8   7   3   31.11   14.07   0
  -7   8  -3   41.05   10.23   0
   7  -8   3   61.21    8.36   0
  -8   7   3   43.23   15.67   0
  -7  -8   3   36.04    8.90   0
  -8   7  -3   17.56   13.53   0
  -2   9   3   80.05   11.92   0
   2  -9  -3   70.83   17.41   0
  -2  -9  -3   54.24    7.59   0
  -2  -9   3  113.83   25.45   0
   9  -2  -3   58.12   29.16   0
   9  -2   3   69.39   16.90   0
   2   9   3  914.46   16.67   0
   2   9  -3   68.00   20.74   0
  -9   2   3   70.53   22.20   0
   9   2   3   92.48   11.87   0
   2  -9   3   68.92    7.59   0
  -9  -2   3   88.22   29.11   0
  -2   9  -3   65.67   16.94   0
   9   2   3   73.19   11.75   0
   9   4   3  272.00    9.43   0
  -4   9  -3  331.54   16.23   0
  -4  -9   3  184.44   29.64   0
   4  -9  -3  321.52   15.52   0
   9   4   3  265.80    8.41   0
  -9   4   3  297.42   19.85   0
   4   9  -3  247.46   15.68   0
   9  -4  -3  285.05   28.44   0
   4   9   3  336.87   16.83   0
  -9   4  -3  257.34   13.76   0
   9  -4   3  331.40   12.55   0
  -9   4   3  326.56   17.60   0
  -9  -4   3  293.40   30.69   0
   4  -9   3  313.05    8.65   0
  -4  -9  -3  279.97    7.78   0
  -4   9   3  328.93    7.16   0
  -9   6   3  463.22   19.57   0
   9   6   3  406.27   12.54   0
   9  -6   3  408.74   13.27   0
   9   6   3  372.25   12.27   0
   6  -9  -3  420.28   23.31   0
  -6   9   3  466.54   11.88   0
   6   9  -3  295.60   18.23   0
   6   9   3  384.45   16.40   0
  -6   9  -3  382.93   14.55   0
   9  -6  -3  371.32   22.10   0
   6  -9   3  404.05    8.22   0
  -9   6  -3  491.10   15.03   0
  -6  -9  -3  409.74    8.30   0
  -6  -9   3  365.52   11.41   0
   9   8   3  386.20   12.25   0
   9   8  -3  232.21   27.61   0
   8   9  -3  370.63   21.24   0
   9   8   3  397.78   10.79   0
   8   9   3  375.72   12.80   0
   8  -9  -3  432.30   14.43   0
   9  -8  -3  425.18   13.14   0
   9   8  -3  519.81   30.70   0
  -9   8   3  398.55   16.56   0
   9  -8   3  393.25    7.51   0
  -8   9   3  491.50   16.52   0
  -8   9  -3  466.06   14.20   0
   8  -9   3  464.96    8.62   0
  -9   8  -3  443.71   10.82   0
  -1 -10  -3 1061.43   13.82   0
   1 -10  -3 1031.03   13.86   0
  10   1   3  972.17   13.72   0
  10  -1  -3  915.69   44.96   0
  -1 -10   3 1038.91   27.75   0
   1  10  -3  870.74   15.80   0
   1 -10   3 1270.61   24.41   0
   1  10   3 1092.76   17.36   0
  -1  10  -3 1054.17   19.56   0
  -1  10   3 1015.29   12.76   0
  10  -1   3 1008.04   13.75   0
  10  -1   3  908.80   14.95   0
  10   1   3  979.47   11.64   0
  10  -1  -3 1074.78   42.08   0
 -10   3   3   30.76   19.68   0
   3 -10  -3   31.34   13.96   0
  -3 -10   3   41.06   25.66   0
  10  -3  -3   16.96   34.39   0
   3  10  -3   21.24   12.01   0
   3  10   3   -7.71   18.85   0
  10  -3   3  -13.51   11.97   0
  10   3   3    6.23    8.50   0
  10   3   3   47.85   12.30   0
   3 -10   3   15.42    8.04   0
  -3  10   3   32.90   17.36   0
  -3  10   3   14.29    5.92   0
  -3  10  -3  -10.88   15.37   0
 -10   3  -3    8.21    8.54   0
  -3 -10  -3    7.34    9.93   0
  -5 -10   3  960.54   20.51   0
  10   5   3 1524.52   18.72   0
  -5  10  -3 1597.24   14.90   0
  -5  10   3 1523.08   11.91   0
   5 -10  -3 1589.87   25.26   0
  10   5   3 1454.44   12.44   0
  10  -5   3 1475.11   16.27   0
   5  10  -3 1202.84   15.51   0
  10  -5  -3 1436.24   24.39   0
   5  10   3 1449.00   20.05   0
 -10   5  -3 1670.39   17.80   0
 -10   5   3 1662.14   20.80   0
   5 -10   3 1541.82    8.71   0
  -5 -10  -3 1566.76   13.14   0
  10  -7   3  256.20   12.92   0
  10   7   3  284.88   16.82   0
 -10   7   3  314.73   16.31   0
   7  10  -3  211.03   12.49   0
   7 -10  -3  269.00   16.31   0
  10  -7  -3  272.02   12.42   0
   7  10   3  305.89   12.45   0
  -7  10   3  284.59   11.07   0
  -7  10  -3  284.58   13.85   0
 -10   7  -3  320.95   14.04   0
   7 -10   3  278.51    7.40   0
  -7 -10  -3  291.63   10.70   0
  10   7   3  270.30   12.38   0
  -7 -10   3  265.96   10.29   0
  10   9  -3  458.18   37.09   0
 -10   9   3  358.02   17.22   0
   9 -10   3  410.34    8.81   0
 -10   9  -3  418.90   14.35   0
   9 -10  -3  383.57    8.37   0
  10   9  -3  219.21   22.85   0
   9  10  -3  285.04   17.45   0
  10   9   3  321.52   17.62   0
  10  -9  -3  416.67   10.55   0
   9  10   3  359.10   12.83   0
   9  10  -3  435.98   33.65   0
  -9  10   3  412.28   16.32   0
   9 -10   3  402.40    8.08   0
  10   9   3  349.01   14.00   0
  10  -9   3  432.08   12.66   0
  -9  10  -3  421.12   14.02   0
  10  -9   3  388.84    8.76   0
  -2 -11  -3  487.65   12.16   0
   2 -11  -3  529.26   18.34   0
  -2 -11   3  526.07   26.78   0
  11   2   3  506.96   16.28   0
  11  -2  -3  405.43   42.97   0
   2  11  -3  481.81   11.22   0
   2 -11   3  523.69   12.26   0
   2  11   3  530.84   15.47   0
  11  -2   3  463.81   18.53   0
  11  -2   3  485.73   14.46   0
  -2  11   3  518.73    8.07   0
  -2  11   3  576.76   19.63   0
  -2  11  -3  478.91   13.63   0
  11  -2  -3  517.33   32.04   0
  11   2   3  486.54   14.21   0
  -4  11  -3  156.25   15.51   0
  11   4   3  131.91   10.27   0
  -4  11   3  133.25    8.14   0
  -4 -11   3  177.94   28.60   0
   4 -11  -3  184.60   15.05   0
 -11   4  -3  137.83   12.95   0
  11  -4   3  129.83   12.51   0
   4  11  -3   97.93   10.04   0
  11  -4  -3  140.46   17.49   0
 -11   4   3  185.18   21.05   0
   4  11   3  156.74   13.59   0
   4 -11   3  139.09    7.64   0
  11   4   3  139.38   12.84   0
  -4 -11  -3  119.84    7.50   0
  -6 -11   3  292.28   11.77   0
  11   6   3  348.17   13.15   0
  11  -6   3  423.78   19.18   0
   6 -11  -3  466.07   14.47   0
  11   6   3  367.99   12.54   0
  -6  11   3  429.44    7.43   0
  -6 -11  -3  425.65    8.48   0
  -6  11  -3  454.84   14.63   0
   6  11  -3  384.69   11.39   0
  11  -6  -3  459.38   13.11   0
 -11   6  -3  420.24   14.95   0
   6  11   3  376.61   13.21   0
   6 -11   3  431.10    7.63   0
   6 -11   3  423.26    9.34   0
 -11   6   3  406.64   14.51   0
  11   8   3  343.76   13.22   0
   8 -11  -3  326.38   11.14   0
   8  11  -3  270.21   12.60   0
   8 -11   3  364.86   10.68   0
  11  -8  -3  344.73   10.20   0
 -11   8   3  330.50   14.02   0
   8  11   3  317.89   17.87   0
 -11   8  -3  328.58   10.85   0
  -8  11  -3  379.55   13.73   0
  -8  11   3  355.77   11.57   0
  11   8   3  258.55   12.79   0
   8 -11   3  349.58    5.81   0
  11   8   3  360.17   43.83   0
  11  -8   3  378.37   13.12   0
  -8 -11  -3  331.73    7.89   0
  11  -8   3  321.11    7.50   0
  -8 -11   3  320.20   11.40   0
  11  10   3   15.72   14.12   0
  10  11   3   28.31   11.47   0
 -11  10   3   13.18   15.61   0
  10 -11  -3   24.59    8.88   0
 -10  11   3   18.32   16.30   0
  11 -10  -3   24.08    8.53   0
  10  11  -3   20.52   16.30   0
  11  10   3   31.04   19.12   0
 -11  10  -3   46.95   13.88   0
  10  11   3   60.00   18.65   0
  11  10  -3   11.02   25.21   0
  11  10  -3   36.19   39.35   0
 -10  11  -3   13.39   13.61   0
  10 -11   3   18.35    7.04   0
  10  11  -3   27.37   34.04   0
  11 -10   3   21.80    7.59   0
  -1 -12  -3   14.98    8.74   0
   1 -12  -3   15.99   14.77   0
  12  -1  -3   24.45   37.58   0
  -1 -12   3   45.11   25.42   0
  12  -1  -3   32.11   44.73   0
   1 -12   3   -3.51   22.39   0
  12  -1   3   15.44   10.12   0
   1  12  -3   38.36    8.81   0
  -1  12  -3   30.00    6.55   0
  12  -1   3   13.06   12.93   0
   1  12   3   30.12   15.38   0
   1 -12   3   43.10   10.55   0
  -1  12   3   38.44    7.08   0
  12   1   3    1.41   13.13   0
  12   1   3   32.84   14.07   0
  12   3   3  936.39   15.54   0
  -3  12   3  857.64    9.77   0
   3 -12  -3  962.24   16.67   0
  -3 -12   3  953.66   23.31   0
  12   3   3  935.21   13.71   0
  -3 -12  -3  948.34   12.66   0
  12  -3  -3  925.23   36.28   0
  12  -3  -3  782.18   24.43   0
   3  12  -3  828.91   11.33   0
  12  -3   3  845.51   19.71   0
   3 -12   3  902.25    8.67   0
   3  12   3  919.28   22.47   0
   3 -12   3  907.19   11.02   0
  -3  12  -3  894.52   12.00   0
 -12   5  -3   30.24    9.36   0
  -5 -12   3   13.25   15.18   0
  12   5   3   41.52   12.04   0
  -5  12  -3   27.31   11.65   0
   5 -12   3   26.98    9.73   0
  -5  12   3   23.65    5.33   0
   5 -12  -3   46.00   21.67   0
  12  -5   3   19.69   12.84   0
   5  12  -3   21.42    8.90   0
  12  -5  -3   19.33   11.30   0
 -12   5   3   40.40   20.30   0
   5  12   3    9.53   13.08   0
  12   5   3   20.32    9.32   0
   5 -12   3   23.56    6.85   0
  -5 -12  -3   29.60    7.28   0
  12   7   3   17.26   12.72   0
  12  -7   3    5.53   11.93   0
 -12   7   3    8.44   12.49   0
  12   7   3   37.86   18.09   0
   7 -12  -3    7.54    8.21   0
   7  12  -3    0.81    9.77   0
  -7  12  -3   50.44   13.44   0
  12  -7  -3    2.61    9.44   0
  -7  12   3   10.75    5.74   0
 -12   7  -3    5.94   13.75   0
   7  12   3   22.51   17.75   0
   7 -12   3   13.81    4.72   0
  12  -7   3   -2.45    8.62   0
  -7 -12  -3   -5.13   10.47   0
  -7 -12   3   13.60   10.03   0
  12   7   3    2.76   19.30   0
   9 -12  -3  188.50    7.10   0
  12   9   3  181.19   20.02   0
  12  -9  -3  193.38    9.11   0
   9  12  -3  126.12   11.98   0
  12   9   3  186.86   14.30   0
   9  12   3  163.01   19.48   0
 -12   9   3  174.81   13.28   0
   9 -12   3  182.33    5.34   0
  -9  12  -3  188.82   14.29   0
  -9  12   3  177.56   11.61   0
 -12   9  -3  183.10   14.61   0
  12  -9   3  178.79    9.07   0
  11  12  -3  126.01   49.27   0
 -11  12  -3  277.71   15.35   0
 -11  12   3  121.37   18.69   0
  11 -12  -3  209.96    9.56   0
  12 -11  -3  201.40    9.62   0
  12  11   3  177.50   23.31   0
  11  12   3  184.40   23.01   0
 -12  11   3   37.16   15.41   0
  11  12  -3   68.49   19.84   0
  12 -11   3  224.71    8.55   0
 -12  11  -3  263.35   15.78   0
  11  12   3  191.81   18.18   0
  12  11   3  131.35   12.71   0
  11 -12   3  221.62    8.10   0
  12  11  -3   -0.12   59.53   0
  -2 -13  -3  285.15   12.33   0
  13  -2  -3  258.75   35.87   0
  13   2   3  247.67   21.84   0
   2 -13  -3  266.53   12.02   0
  13  -2   3  287.67   16.36   0
  -2 -13   3  266.09   28.72   0
  13  -2  -3  203.56   30.63   0
   2 -13   3  290.49   12.09   0
   2  13  -3  254.10    6.55   0
  -2  13  -3  271.14    8.92   0
  13  -2   3  187.76   19.27   0
   2  13   3  303.52   15.90   0
  13   2   3  258.43   14.23   0
  -2  13   3  245.32    8.40   0
  13   4   3   99.35   15.86   0
  -4 -13   3  128.89   24.75   0
  -4  13   3  115.74    7.67   0
   4 -13  -3  175.91   22.03   0
  13   4   3  111.72   16.95   0
  13  -4   3  103.85   19.24   0
  13  -4  -3  116.32   14.84   0
   4  13  -3  108.88    8.68   0
   4 -13   3  117.43    7.85   0
   4  13   3  115.05   14.78   0
  13  -4   3  117.85   10.81   0
  -4 -13  -3  121.81    8.07   0
  -4  13  -3  127.43    6.81   0
  13  -6   3   22.21   11.93   0
  13   6   3   13.64   19.16   0
 -13   6  -3    5.98   13.32   0
  -6  13  -3   16.08    7.14   0
   6 -13  -3   20.22   12.83   0
  -6  13   3    1.76    5.39   0
  -6 -13  -3    6.47   10.69   0
  13  -6  -3    3.22    9.51   0
   6  13  -3   11.17    9.12   0
 -13   6   3    9.58   15.72   0
   6  13   3   -2.15   13.41   0
   6 -13   3    8.50    6.86   0
  13   6   3   -8.88   14.35   0
  13  -6   3    7.78   11.59   0
  -6 -13   3    4.32    8.14   0
   8 -13  -3   16.87    9.74   0
  13   8   3   24.53   20.47   0
  13  -8  -3   -2.71    8.91   0
 -13   8   3   17.25   12.89   0
   8  13  -3   19.53   10.44   0
  -8  13  -3    8.11   11.23   0
 -13   8  -3   -4.83    9.96   0
   8  13   3  -16.93   19.71   0
  -8  13   3    6.26    6.29   0
   8 -13   3   15.00    6.96   0
  -8 -13  -3   -8.60   10.95   0
  -8 -13   3    6.33   11.27   0
  13   8   3   12.16   14.55   0
  13  -8   3    2.09    7.00   0
 -13  10   3  169.96   15.12   0
 -13  10  -3  193.46   16.59   0
  13  10   3  143.99   17.13   0
  10 -13  -3  217.83    7.57   0
  13 -10  -3  208.51    7.63   0
  13  10   3  137.49   24.35   0
  10  13   3  105.79   22.04   0
  10  13  -3  166.28   14.52   0
  10  13   3  144.93   17.09   0
  10  13  -3  143.08   44.46   0
  10 -13   3  206.38    8.13   0
  13 -10   3  208.26    7.06   0
 -10  13  -3  208.66   13.94   0
 -10  13   3  179.67    9.85   0
  -1 -14  -3   17.17   13.18   0
   1 -14  -3   49.84   14.72   0
  14   1   3   -0.74   14.85   0
  -1 -14   3   55.40   28.65   0
   1 -14   3   25.79   14.63   0
  -1  14   3   14.96    6.07   0
  14  -1   3    6.66   20.47   0
   1  14  -3   26.73    7.71   0
  -1  14  -3   17.54    7.81   0
  14   1   3   18.56   15.30   0
  14   1   3   22.47   14.65   0
   1  14   3   34.01   10.88   0
  14  -1   3   15.56   14.33   0
  14  -1   3   13.89   15.01   0
  14   3   3  322.70   16.33   0
  14   3   3  349.48   24.57   0
  -3  14   3  271.87    8.27   0
   3 -14  -3  346.36   19.04   0
  -3 -14   3  358.99   32.79   0
  14  -3   3  299.54   20.42   0
  14  -3  -3  256.79   18.04   0
   3 -14   3  290.48    7.58   0
   3  14  -3  263.32    6.61   0
   3  14   3  273.12   11.36   0
  14  -3   3  316.40   13.24   0
  14  -3   3  291.12   13.24   0
  -3  14  -3  270.40    6.57   0
  14   3   3  307.58   14.75   0
  14  -3  -3  276.05   35.22   0
  -3 -14  -3  339.89   12.47   0
  -5 -14   3   11.70   14.83   0
  -5  14  -3    8.05    8.77   0
  14   5   3   -8.15   14.98   0
   5 -14  -3    6.34   14.26   0
  14  -5   3   23.43   20.75   0
  -5  14   3   -1.12    7.43   0
  14   5   3    9.27   18.31   0
  14  -5  -3    2.79   10.16   0
   5  14  -3    9.71    8.73   0
   5 -14   3   23.18    7.48   0
   5  14   3   14.65   14.46   0
  -5 -14  -3    7.81    8.11   0
  14  -7   3   38.41   12.18   0
   7 -14  -3   23.63    7.58   0
 -14   7   3   25.72   16.28   0
  14   7   3   21.17   22.05   0
  14  -7  -3   19.07    9.29   0
  -7  14  -3   34.92    9.62   0
   7  14  -3   23.64    9.90   0
  -7  14   3   27.54    5.84   0
 -14   7  -3   15.69   14.13   0
  14   7   3   30.72   16.96   0
   7 -14   3   21.29    5.21   0
   7  14   3   59.34   21.09   0
  -7 -14  -3   37.34   11.89   0
  -7 -14   3   16.87   12.11   0
 -14   9  -3   48.46   11.48   0
  14   9   3   37.99   17.97   0
  14  -9  -3   60.31    9.71   0
   9 -14   3   44.78    5.63   0
   9  14   3   26.47   24.77   0
  -9  14   3   28.84    7.59   0
  14   9   3   45.09   18.51   0
  14  -9   3   49.40   10.24   0
  15  -2   3   48.27   11.99   0
  15   2   3   52.43   16.78   0
  -2  15   3   62.89    5.97   0
   2 -15  -3   73.25   17.38   0
   2  15   3   45.67    8.21   0
  -2 -15   3   58.57   24.19   0
   2 -15   3   66.01   12.87   0
  15  -2   3   53.90   22.57   0
   2  15  -3   63.20    7.97   0
  15   2   3   77.74   18.63   0
  -2  15  -3   57.29    7.92   0
  -2 -15  -3   70.51   13.14   0
  -4  15  -3  557.68    9.53   0
  -4 -15   3  597.94   23.29   0
  15   4   3  482.42   22.21   0
   4 -15  -3  513.50   16.06   0
  -4  15   3  508.55    9.07   0
  15  -4   3  529.32   24.15   0
  15  -4  -3  417.88   17.68   0
   4 -15   3  592.65   10.00   0
   4  15  -3  456.09   10.11   0
   4  15   3  485.68   15.69   0
  15   4   3  542.79   21.79   0
  15  -4   3  515.76   16.11   0
  -4 -15  -3  589.66   13.64   0
  15  -4  -3  404.31   41.15   0
  15  -6   3   39.37   15.54   0
   6 -15  -3   30.87   11.51   0
  15   6   3   50.81   17.04   0
  -6  15  -3   31.07    6.45   0
  15   6   3   43.75   22.38   0
  15  -6  -3   35.74   10.41   0
  -6  15   3   33.05    8.26   0
   6 -15   3   38.19    8.05   0
   6  15  -3   42.95    9.63   0
   6  15   3   47.87   14.18   0
  15  -6  -3   30.21   15.41   0
  -6 -15  -3   53.54    9.35   0
  -6 -15   3   49.71   14.09   0
  -1 -16  -3  444.36   15.82   0
   1 -16  -3  422.67   17.82   0
  -1  16   3  391.90    9.92   0
  -1 -16   3  481.39   39.33   0
   1 -16   3  493.81   21.20   0
  16  -1   3  393.45   27.28   0
  16   1   3  358.62   21.14   0
   1  16  -3  363.81    7.32   0
  -1  16  -3  394.40    9.36   0
  16  -1   3  424.45   14.79   0
   1  16   3  332.95    8.42   0
  16   1   3  393.08   19.73   0
  16   3   3   49.00   22.08   0
  -3 -16   3  114.83   29.90   0
  -3  16   3   80.20    6.23   0
   3 -16  -3   82.77   11.54   0
  16  -3   3   70.27   18.77   0
  16  -3  -3    1.94   39.61   0
   3 -16   3   85.45   11.57   0
   3  16  -3   82.66    8.93   0
  16   3   3   57.54   22.13   0
  16  -3   3   75.07   14.42   0
   3  16   3   79.06   12.40   0
  -3 -16  -3  106.68   14.12   0
  -3  16  -3   88.36    6.28   0
   0   0   4 9644.55   33.89   0
   0   0   4 9999.99   35.90   0
   1  -1   4   14.51   13.16   0
  -1   1   4   31.76   15.05   0
   1   1   4    6.05   12.21   0
  -1   1   4   16.70   13.27   0
  -1  -1   4   24.73   20.23   0
   1   1   4   16.18   10.90   0
   1  -1   4   18.70   12.82   0
  -1  -1   4    3.06   14.93   0
   0   2   4   27.67   14.40   0
  -2   0   4   39.35   23.94   0
  -2   0   4   34.29   14.04   0
   0   2   4   47.10   10.81   0
   2   0   4   47.34   11.72   0
   0  -2   4   83.70   20.93   0
   0  -2   4   35.72   15.31   0
   2   0   4   20.73   11.90   0
   2   2   4  115.06   11.43   0
  -2  -2   4   97.21   15.50   0
  -2  -2   4  152.14   53.27   0
   2   2   4   75.13   13.08   0
  -2   2   4  144.50   34.25   0
   2  -2   4  114.09   15.47   0
   3   1   4  309.70    9.09   0
   3   1   4  333.81    9.62   0
  -1  -3   4  452.47   35.80   0
   3  -1   4  326.25    9.72   0
   1   3   4  330.81   14.41   0
  -1   3   4  414.85   26.73   0
  -3   1   4  354.78   18.58   0
   1  -3   4  351.48   26.90   0
  -3   1   4  329.77   41.29   0
  -1   3  -4  373.11   17.65   0
   3  -1   4  361.27   15.72   0
   1  -3  -4  325.13   19.03   0
  -3  -3   4  574.55   22.29   0
   3   3   4  678.90   12.12   0
   3   3   4  703.65   14.85   0
  -3  -3   4  591.62   58.53   0
   3  -3   4  706.79   15.48   0
  -3   3   4  700.80   32.98   0
  -3   3  -4  692.25   12.88   0
   3  -3  -4  698.14   20.38   0
   0  -4  -4  881.85   19.72   0
   0  -4   4  863.28   25.27   0
   0   4   4 1062.97   25.89   0
   4   0   4  981.06   13.66   0
   0   4  -4 1056.95   21.04   0
   4   0   4  893.76   14.26   0
   2   4   4 2134.59   15.34   0
   4  -2   4 2229.10   18.91   0
   2  -4   4 2223.62   31.21   0
   4   2   4 2287.07   14.38   0
  -2   4   4 2158.77   34.07   0
  -2  -4  -4 1846.52   17.14   0
   2   4  -4 2464.74   31.91   0
  -2   4  -4 2467.99   22.73   0
  -2  -4   4 2193.86   49.54   0
   2  -4  -4 2069.49   23.78   0
  -4   2   4 2080.71   46.41   0
   4   2   4 2217.05   13.80   0
  -4   4  -4  114.00   14.69   0
   4   4   4   90.04   10.09   0
   4  -4   4  100.34   15.44   0
  -4   4   4  103.62   18.07   0
   4  -4  -4  101.65   15.92   0
   4   4   4   92.46   13.13   0
   1  -5   4   67.95   15.18   0
   1   5  -4   24.31   15.41   0
  -1   5  -4   42.43   15.48   0
  -1  -5  -4   35.32   11.03   0
   5  -1   4   40.98   10.97   0
   1   5   4   24.98   13.78   0
  -1  -5   4   22.54   30.45   0
   1  -5  -4   40.88   15.35   0
  -1   5   4   14.46   22.82   0
   5   1   4   25.54    7.66   0
   5  -1   4   23.29   10.37   0
   5   1   4   26.97    7.66   0
   3  -5  -4   95.67   16.01   0
   5   3   4   96.37    9.90   0
   3   5   4  100.13    8.66   0
  -5   3   4   99.91   30.44   0
   3  -5   4  106.19   23.62   0
  -3   5  -4  121.42   14.81   0
  -3  -5   4   34.03   36.49   0
   5  -3   4   87.14   10.49   0
   3   5  -4  125.29   22.91   0
  -3   5   4   96.95   20.87   0
  -5   3  -4   82.71   13.22   0
  -3  -5  -4   99.97   15.29   0
   5   3   4   82.59   10.97   0
   5  -3  -4  137.54   17.63   0
   5  -5  -4 1672.02   23.74   0
   5   5   4 1751.51   14.95   0
  -5   5   4 2135.57   34.69   0
   5   5   4 1691.11   12.29   0
   5  -5   4 1860.56   24.59   0
  -5   5  -4 1799.21   15.42   0
   6   0   4  112.77    7.57   0
   0   6   4  159.66   22.20   0
   0   6  -4  164.94   16.45   0
   6   0   4  148.48    8.43   0
   0  -6   4  153.80   25.33   0
   0  -6  -4  113.96   15.54   0
   2  -6   4 1073.60   15.10   0
   6   2   4 1125.29   12.96   0
   2   6   4 1202.04   20.42   0
  -2  -6   4 1179.76   39.74   0
  -2   6   4 1170.19   22.24   0
   2   6  -4 1165.21   24.47   0
  -2   6  -4 1097.23   18.84   0
   6  -2   4 1045.48   12.56   0
  -2  -6  -4 1030.03   14.61   0
   6   2   4 1175.85   13.02   0
   2  -6  -4  975.87   14.98   0
   6  -4  -4   20.70   16.17   0
   4  -6  -4    0.26   16.77   0
   6   4   4   -6.40    9.66   0
   4   6  -4   14.91   24.00   0
   4  -6   4   11.64   18.88   0
  -4  -6   4   25.37   19.20   0
   4   6   4   -9.31    8.74   0
  -6   4  -4   14.39    9.61   0
  -6   4   4   -4.09   19.99   0
   6  -4   4   46.11   18.58   0
  -4  -6  -4   25.71   14.31   0
   6   4   4   17.01    6.92   0
  -4   6   4   10.13   12.33   0
  -4   6  -4    7.08   10.09   0
   6  -6  -4 2364.27   26.69   0
   6   6   4 2448.00   13.94   0
   6  -6   4 2598.20   22.00   0
  -6   6   4 1534.65   25.94   0
  -6   6  -4 2582.24   16.90   0
   6   6   4 2588.78   18.56   0
   7  -1   4 1606.71   15.37   0
   1   7  -4 1597.41   23.39   0
   1   7   4 1744.79   20.44   0
  -1   7  -4 1629.37   21.25   0
   7  -1   4 1794.40   18.59   0
   7   1   4 1623.43   14.07   0
  -1   7   4 1661.20   27.60   0
  -1  -7   4 1710.09   35.01   0
   1  -7   4 1647.39   14.78   0
   7   1   4 1678.62   14.55   0
  -1  -7  -4 1723.26   16.21   0
   1  -7  -4 1849.17   20.23   0
   3  -7  -4   39.47   12.22   0
   7   3   4   71.24   10.12   0
   3   7   4   68.30   11.68   0
   3   7  -4   61.88   17.51   0
  -3  -7   4   24.90   34.03   0
  -7   3   4   60.11   20.72   0
   7  -3   4   43.16   14.48   0
  -7   3  -4   35.79    8.46   0
  -3   7  -4   51.90   15.14   0
  -3   7   4   59.75    9.97   0
  -3  -7  -4   83.99   14.21   0
   7  -3  -4   40.78   25.19   0
   7   3   4   56.06    9.88   0
   3  -7   4   37.64    7.15   0
  -5  -7   4  190.28   12.11   0
  -7   5  -4  211.78   10.39   0
  -5   7   4  188.25   12.97   0
  -5  -7  -4  194.52    9.52   0
   5  -7   4  161.71   12.26   0
   5  -7  -4  208.18   18.63   0
  -5   7  -4  174.39   14.74   0
   7   5   4  170.23   10.22   0
   7  -5  -4  175.50   22.24   0
   5   7   4  199.94   13.20   0
   7   5   4  185.42   10.56   0
   7  -5   4  290.73   14.01   0
  -7   5   4  178.91   20.33   0
   5   7  -4  208.63   26.18   0
   7  -7   4 1295.80   17.02   0
   7  -7  -4 1149.88   24.82   0
   7   7   4 1183.03   14.38   0
  -7   7  -4 1299.34   13.86   0
  -7   7   4 1225.46   17.68   0
   7   7   4 1224.79   15.36   0
   8   0   4   19.20    7.79   0
   0   8  -4   35.56   18.44   0
   0   8   4   59.71   21.40   0
   0  -8   4   64.76   28.13   0
   8   0   4   20.63   11.69   0
   0  -8  -4   35.79    8.88   0
   2  -8  -4 1863.66   15.78   0
   2   8  -4 1887.90   27.53   0
  -2   8  -4 1792.54   17.93   0
   2   8   4 1791.41   22.81   0
  -2  -8   4 1826.20   34.57   0
   8   2   4 1735.81   11.88   0
  -2   8   4 1778.79   19.00   0
   2  -8   4 1909.03   14.16   0
   8  -2   4 1637.33   13.90   0
  -2  -8  -4 1925.08   16.60   0
   8   2   4 1923.84   14.38   0
   8   4   4   59.90    9.91   0
   8  -4  -4   21.12   21.31   0
   4  -8  -4   12.80   10.91   0
   4   8  -4   30.65   24.31   0
  -4  -8   4   11.61   17.18   0
   8   4   4    5.01    6.60   0
   4   8   4  -24.77   11.65   0
  -8   4   4   20.34   16.04   0
   8  -4   4  -18.76   17.33   0
  -4   8  -4    7.51   11.22   0
  -4  -8  -4   21.75    8.37   0
   4  -8   4    9.65    8.51   0
  -8   4  -4   10.28   12.60   0
  -4   8   4   25.18    9.33   0
   6  -8   4  398.38   10.15   0
   6  -8  -4  349.74   19.90   0
  -6   8  -4  388.61   15.08   0
   8   6   4  343.36   11.60   0
   8  -6  -4  291.04   22.14   0
  -6   8   4  360.94   15.40   0
   8  -6   4  370.52   19.36   0
   8   6   4  324.29   11.57   0
   6   8   4  303.30   14.63   0
   6   8  -4  472.56   31.17   0
  -8   6  -4  418.23   14.66   0
  -8   6   4  347.01   14.42   0
  -6  -8   4  346.35   14.62   0
   8  -8   4  167.08   10.43   0
   8  -8  -4  157.89   23.70   0
   8   8   4  134.45   13.75   0
  -8  -8   4  130.99   38.36   0
   8   8   4  120.37   13.00   0
  -8   8  -4  160.56   10.30   0
  -8   8   4  122.00   14.66   0
  -8   8   4  172.23   20.56   0
   1   9  -4  321.35   21.53   0
  -1   9  -4  282.83   14.33   0
   9   1   4  278.81   11.01   0
   1  -9  -4  276.29    9.78   0
  -1  -9   4  256.97   28.17   0
   1   9   4  278.86   22.19   0
   1  -9   4  320.48   17.45   0
  -1   9   4  300.48   23.38   0
   9  -1   4  339.45   13.74   0
   9   1   4  275.01    8.75   0
   9  -1   4  286.85   12.33   0
  -1  -9  -4  307.93    8.95   0
   3   9  -4   83.79   22.21   0
   3  -9  -4   68.25    9.78   0
  -3   9   4   68.33   10.29   0
  -3  -9   4   80.87   26.40   0
  -3   9  -4   43.37   11.34   0
   3   9   4   -2.38   17.28   0
   9  -3   4   73.42   14.46   0
   3  -9   4   72.60    8.40   0
   9   3   4   73.59    9.83   0
  -3  -9  -4   64.80   10.96   0
   9   3   4   72.31    7.39   0
   5   9  -4  909.25   27.84   0
  -5  -9   4  748.28   14.72   0
   9   5   4  813.08    9.68   0
  -5   9   4  820.98   11.49   0
   5  -9  -4  858.33   19.31   0
   9  -5  -4  755.63   25.58   0
   9   5   4  793.04    9.55   0
   9  -5   4  789.25   19.97   0
   5   9   4  798.90   13.90   0
  -9   5   4  909.28   18.83   0
  -5   9  -4  904.21   16.39   0
  -9   5   4  902.94   16.82   0
  -5  -9  -4  910.79   10.43   0
   5  -9   4  872.25    7.86   0
  -9   5  -4  740.96   11.25   0
  -9   7  -4  313.10   14.86   0
   9  -7   4  278.19   10.92   0
   7  -9  -4  268.84   22.98   0
   9  -7  -4  250.37   24.08   0
   9   7   4  228.37    9.31   0
   7   9   4  252.88   16.38   0
   7  -9   4  271.43    8.58   0
  -7   9   4  232.98   15.88   0
   7   9  -4  285.12   35.91   0
   9   7   4  268.06    8.76   0
  -7   9   4  292.00   19.80   0
  -9   7   4  299.74   14.06   0
  -9   7   4  252.75   12.99   0
  -7   9  -4  298.64   14.20   0
   9  -9  -4  928.52   25.80   0
   9   9   4  945.52   18.04   0
  -9   9  -4 1080.58   15.93   0
   9   9   4  840.51   14.81   0
  -9   9   4  849.05   15.08   0
   9  -9   4 1043.68   10.65   0
   0  10  -4  349.97   20.73   0
   0 -10   4  326.78   28.42   0
   0  10   4  404.42   17.06   0
   0 -10  -4  315.39    9.15   0
  10   0   4  346.77   12.32   0
  10   0   4  294.72    9.00   0
   2 -10  -4  458.34   14.16   0
  -2  10  -4  463.61   18.18   0
  -2 -10  -4  453.14   11.96   0
  10   2   4  457.34    8.89   0
  -2 -10   4  491.92   30.16   0
   2  10   4  511.10   20.56   0
   2 -10   4  495.10   11.59   0
  10  -2   4  438.62   14.79   0
 -10   2   4  414.13   16.71   0
  10  -2   4  435.11   12.02   0
  -2  10   4  429.39   12.85   0
   2  10  -4  473.38   24.72   0
  10   2   4  412.24    9.02   0
 -10   4   4  377.03   26.11   0
  10   4   4  273.66   11.10   0
 -10  -4   4  298.16   20.06   0
  10  -4  -4  249.87   30.52   0
   4 -10  -4  272.24   16.21   0
  -4 -10   4  112.80   17.40   0
  10  -4   4  261.51   14.03   0
  -4  10  -4  267.01   15.73   0
   4  10   4  230.86   17.36   0
   4 -10   4  289.69    8.24   0
 -10   4   4  271.72   20.48   0
  10   4   4  255.70    8.10   0
  -4 -10  -4  306.01   11.14   0
   4  10  -4  287.84   31.09   0
  -4  10   4  255.39    6.95   0
 -10   6  -4   55.61   13.37   0
   6  10  -4   45.65   30.28   0
   6 -10  -4   47.78   19.48   0
  10   6   4   59.95   11.72   0
  10  -6  -4   52.15   29.34   0
  10  -6   4   50.63   13.51   0
  -6  10   4   51.17    6.96   0
  10   6   4   31.71    7.30   0
   6  10   4   30.56   16.29   0
 -10   6   4   50.04   11.78   0
   6 -10   4   33.51    7.31   0
  -6  10  -4   60.07   13.64   0
  -6  10   4   58.20   18.58   0
  -6 -10  -4   52.13    7.42   0
  -6 -10   4   44.54   11.15   0
  10  -8   4  149.87   10.94   0
 -10   8  -4  144.71   14.12   0
  -8  10  -4  154.70   13.81   0
   8 -10  -4  167.24   23.90   0
  10  -8  -4  124.34   22.99   0
 -10   8   4  129.31   14.35   0
  10   8   4  152.05   10.45   0
   8  10   4  110.33   11.94   0
  -8  10   4  118.46   15.07   0
  10   8   4  151.78    8.68   0
   8 -10   4  141.83    7.93   0
  10 -10  -4  171.35   10.26   0
  10  10   4  165.92   13.66   0
  10  10   4  155.22   18.25   0
 -10  10  -4  175.41   10.47   0
  10 -10   4  191.85   10.90   0
  10 -10   4  162.98    6.35   0
 -10  10   4   57.89    9.26   0
   1 -11  -4  694.42   13.82   0
  11   1   4  624.42   10.35   0
  -1  11  -4  744.07   20.09   0
 -11   1   4  595.80   17.87   0
  -1 -11   4  663.91   22.68   0
   1 -11   4  784.39   22.88   0
   1  11   4  736.21   18.02   0
  -1  11   4  668.06   11.22   0
  11  -1   4  612.33   11.26   0
  11  -1   4  653.95   11.30   0
  11   1   4  658.78   10.18   0
   1  11  -4  686.35   17.16   0
  -1 -11  -4  736.83   12.62   0
  11   3   4  165.77   11.36   0
   3 -11  -4  172.17   10.97   0
  -3 -11   4  199.36   22.06   0
  -3  11  -4  176.53   15.98   0
  11   3   4  162.21   11.23   0
   3  11   4  158.28   18.82   0
  11  -3   4  189.30   17.63   0
   3 -11   4  181.15    6.86   0
  11  -3   4  188.29   17.62   0
   3  11  -4  133.52   22.24   0
  -3 -11  -4  203.26   10.92   0
  -3  11   4  167.99    9.50   0
  -5 -11   4  176.52   12.12   0
  11   5   4  185.95    8.56   0
   5 -11  -4  193.03   13.32   0
  11  -5  -4  174.28   29.24   0
  -5  11   4  176.83    8.72   0
  11  -5   4  130.90   14.23   0
  -5  11  -4  175.79   10.61   0
 -11   5   4  249.73   22.55   0
   5  11   4  151.46   17.35   0
   5 -11   4  179.61    7.74   0
  11   5   4  185.68   11.04   0
  -5  11   4  183.32   13.74   0
  -5 -11  -4  211.27    7.96   0
   5  11  -4  149.58   24.77   0
   7  11  -4   25.50   32.57   0
 -11   7  -4  -13.15   13.55   0
  11  -7   4  -25.84   15.01   0
   7 -11  -4   33.97   21.70   0
  11  -7  -4   20.34   23.01   0
  11   7   4  -22.23   12.83   0
  11   7   4   27.88   11.36   0
  -7  11   4    0.85    9.80   0
   7  11   4   13.53   17.11   0
   7 -11   4   10.20    5.11   0
  -7  11  -4   25.29   13.78   0
  -7 -11   4    5.25   12.04   0
 -11   7   4   13.76   13.87   0
 -11   9  -4  186.75   10.68   0
   9 -11  -4  166.37   13.97   0
  -9  11  -4  140.35   10.57   0
  11  -9  -4  144.70   14.23   0
   9  11   4  142.09   11.59   0
  11   9   4  149.59   12.52   0
 -11   9   4  146.59   12.26   0
  11   9   4  130.05    9.43   0
   9  11   4  137.43   18.59   0
  -9  11   4  121.79   13.86   0
   9 -11   4  163.62   13.73   0
   9 -11   4  141.56    5.90   0
  11  -9   4  140.89    9.70   0
  11 -11  -4  317.88   13.10   0
 -11  11   4  203.32   14.79   0
  11  11   4  260.67   23.04   0
 -11  11  -4  294.21   16.85   0
  11 -11   4  276.84    7.31   0
  11  11   4  297.89   16.16   0
   0  12  -4  642.94   15.29   0
   0 -12   4  856.65   31.41   0
   0  12   4  706.74   15.80   0
  12   0   4  767.85   15.28   0
  12   0   4  786.31   10.96   0
   0 -12  -4  814.08   10.87   0
   2 -12  -4  209.98   13.89   0
  12   2   4  165.27   12.57   0
  -2  12  -4  162.09   14.34   0
  -2 -12   4  236.59   27.93   0
   2 -12   4  213.26    8.95   0
  12  -2   4  171.90   17.50   0
   2  12   4  216.96   15.23   0
  -2  12   4  160.79   13.87   0
  -2  12   4  192.63    9.86   0
  12  -2   4  143.38   10.25   0
  -2 -12  -4  173.19    8.34   0
   2  12  -4  115.93   14.02   0
  12   2   4  254.91    8.96   0
  -4  12   4  675.43    7.93   0
  12   4   4  783.52   13.56   0
   4 -12  -4  710.85   17.51   0
  -4 -12   4  759.84   18.01   0
  -4  12  -4  748.68   16.46   0
  12  -4   4  680.68   21.50   0
  12   4   4  695.49   13.31   0
   4  12   4  713.80   19.47   0
   4 -12   4  719.32    7.79   0
  -4 -12  -4  737.61    9.71   0
   4  12  -4  421.28   16.48   0
 -12   6   4  491.68   22.62   0
   6 -12  -4  545.35   21.11   0
  12   6   4  425.90   13.92   0
  12  -6  -4  357.15   33.25   0
  12  -6   4  522.28   21.61   0
  -6  12   4  453.32    7.94   0
   6  12  -4  269.38   18.51   0
   6  12   4  442.88   18.83   0
  -6  12  -4  496.14   15.34   0
   6 -12   4  470.65    6.48   0
 -12   6  -4  411.81   10.40   0
  12   6   4  419.00   12.30   0
  -6 -12  -4  458.53   12.07   0
  -6 -12   4  454.07   12.42   0
  12   8   4  299.00   13.27   0
 -12   8  -4  286.03   10.69   0
   8 -12  -4  358.75   14.27   0
   8  12  -4  254.69   40.91   0
  12  -8  -4  307.40   18.59   0
 -12   8   4  288.91   16.61   0
  12   8   4  317.34   12.43   0
   8  12   4  306.68   14.55   0
  -8  12   4  346.40   11.37   0
   8 -12   4  347.18    8.21   0
   8 -12   4  383.43   13.10   0
  12  -8   4  342.93   12.67   0
  -8  12  -4  329.44   15.42   0
  12  -8   4  289.20    9.03   0
  10 -12  -4   84.37   11.90   0
  12 -10  -4  109.87   12.68   0
  12  10   4   45.15   10.92   0
  12  10   4   73.77   16.04   0
 -10  12  -4   69.32   11.57   0
  10  12   4   62.84   22.01   0
 -12  10  -4   96.02   15.78   0
  10  12   4   64.40   17.37   0
  10 -12   4   81.87    6.15   0
 -12  10   4   46.68   13.99   0
  12 -10   4   69.68    7.10   0
 -10  12   4   73.52   14.12   0
   1 -13  -4   86.85    9.67   0
  -1  13  -4   56.70   10.90   0
  -1 -13   4  108.91   31.43   0
   1 -13   4   82.10   16.38   0
  13  -1   4   72.40   17.16   0
   1  13   4   66.27   14.43   0
   1 -13   4   68.87   12.94   0
  -1  13   4   47.16   10.49   0
  13  -1   4   58.94   10.00   0
  13   1   4   60.93   14.80   0
   1  13  -4   50.33   10.96   0
  13   1   4   69.22   12.86   0
  -1 -13  -4   70.20   12.23   0
  -3  13   4  130.60    8.69   0
  13  -3   4  147.85   16.20   0
  13   3   4  153.34   12.22   0
   3 -13  -4  146.91   15.26   0
  13   3   4  131.11   13.22   0
  -3 -13   4  133.00   21.34   0
  -3  13  -4  117.79   11.34   0
  13  -3   4   76.68   21.51   0
   3 -13   4  139.39    9.78   0
   3  13   4  137.01   20.42   0
   3 -13   4  146.00   12.47   0
   3  13  -4  107.62   11.77   0
  -3 -13  -4  121.88   11.56   0
  -5 -13   4   12.95   12.05   0
   5 -13  -4   11.35   12.91   0
  13   5   4   15.72    9.19   0
  -5  13   4   -9.53    8.31   0
  13  -5   4  -14.32   21.33   0
  13   5   4   16.17   12.74   0
  -5  13  -4   -1.14   11.64   0
   5 -13   4    9.39    5.50   0
   5  13   4   25.18   19.32   0
   5 -13   4   16.23   11.60   0
   5  13  -4   14.88   13.04   0
  -5 -13  -4   23.91   11.26   0
  13  -7   4 1020.83   17.20   0
   7 -13  -4 1184.66   15.96   0
 -13   7   4  987.43   28.07   0
  13  -7  -4  846.94   24.75   0
  13   7   4 1061.72   14.58   0
  -7  13   4 1030.25   12.57   0
   7  13   4 1009.98   22.65   0
  13   7   4 1053.51   15.80   0
   7 -13   4 1216.25   10.17   0
  -7  13  -4 1121.30   15.49   0
  13   7   4 1143.82   23.70   0
  13  -7   4 1269.02   18.31   0
  -7 -13  -4 1236.05   11.34   0
  -7 -13   4 1273.67   19.60   0
   7  13  -4  590.02   20.08   0
   9  13   4   12.94   16.21   0
  -9  13   4   48.26   11.08   0
   0  14  -4 1507.26   13.92   0
   0 -14   4 2174.02   40.25   0
  14   0   4 1479.79   16.82   0
   0  14   4 1723.25   14.84   0
  14   0   4 1660.26   17.48   0
   0 -14  -4 1817.99   16.77   0
  14   2   4   46.12   13.38   0
   2 -14  -4   46.17   14.93   0
  -2  14  -4   22.33    9.88   0
  -2 -14   4   22.27   24.63   0
   2 -14   4   24.57    9.34   0
  14  -2   4   37.16   22.04   0
  14  -2   4   12.24   15.30   0
  14   2   4   41.72   16.13   0
   2  14   4   46.55   14.49   0
  -2 -14  -4   14.26   12.72   0
   2  14  -4   20.59   10.21   0
  -2  14   4   27.54    6.30   0
   4 -14  -4  510.94   18.66   0
  14   4   4  455.39   14.94   0
  -4 -14   4  410.12   16.75   0
  14   4   4  403.80   15.66   0
  -4  14   4  379.74    7.52   0
  14  -4   4  347.72   17.47   0
  -4  14  -4  416.58   11.24   0
   4 -14   4  462.51    8.00   0
   4  14   4  355.86   21.72   0
  14  -4   4  489.16   19.35   0
   4  14  -4  301.69   12.48   0
  -4 -14  -4  457.37    9.87   0
   6 -14  -4   93.72   10.02   0
  14  -6   4  112.69   14.51   0
  14   6   4   87.34   16.88   0
  14   6   4   98.60   11.09   0
  -6  14   4  125.55    9.19   0
   6 -14   4  102.85    6.21   0
  -6  14  -4  113.70   11.14   0
   6  14   4  139.92   22.22   0
  14   6   4  109.95   17.49   0
  14  -6   4  141.82   10.96   0
  -6 -14  -4  132.72   13.12   0
   6  14  -4   62.40   13.93   0
  -6 -14   4  129.16   13.14   0
   1  15  -4   42.81    9.91   0
  15   1   4   48.41   19.27   0
  -1  15  -4   36.22    9.60   0
  -1 -15   4   92.21   29.29   0
   1 -15   4   47.08   23.28   0
  15  -1   4   50.11   17.37   0
  15   1   4   37.45   20.78   0
  15  -1   4   62.87   18.80   0
   1  15   4   31.23   11.51   0
  15  -1   4   51.14   11.18   0
  -1 -15  -4   63.11   14.32   0
   1 -15  -4   54.54   10.95   0
  -1  15   4   50.31    9.93   0
  15   1   4   74.72   15.46   0
   3 -15  -4  287.85   13.44   0
  15   3   4  257.33   16.32   0
  -3 -15   4  239.53   21.28   0
  -3  15   4  234.45    9.97   0
  -3  15  -4  292.35   10.55   0
  15  -3   4  200.68   26.20   0
   3 -15   4  321.72   12.32   0
   3  15   4  216.02   11.62   0
  15   3   4  256.99   13.21   0
  15  -3   4  292.80   12.67   0
  15  -3   4  198.04   13.59   0
  15   3   4  259.97   18.88   0
  -3 -15  -4  256.58   10.69   0
   3  15  -4  235.91   11.44   0
  15   5   4   57.03   12.82   0
  15  -5   4   58.34   19.57   0
  -5  15  -4   79.16   10.46   0
   5 -15   4   75.14    7.08   0
   5  15   4   56.26   14.63   0
  15  -5   4   97.36   10.81   0
   2  -1   5   95.09   11.19   0
   2   1   5  116.47    9.45   0
   2   1   5  116.50   10.36   0
   1   2   5  124.33    9.58   0
  -2  -1   5  129.66   13.77   0
  -1   2   5  110.28   11.87   0
  -2   1   5  132.93   14.42   0
  -1  -2   5  115.92   15.87   0
   1   2   5  152.54   10.75   0
  -2  -1   5  180.81   19.52   0
   1  -2   5  124.63   12.02   0
  -2   1   5  137.34   13.71   0
  -1   2   5  131.25   11.78   0
   1  -2   5  122.90   11.38   0
   2  -1   5  131.97   10.57   0
  -1  -2   5  135.09   10.79   0
  -2  -3   5  739.04   15.20   0
   3   2   5  869.35   11.19   0
   3   2   5  848.89    9.98   0
   2   3   5  835.40   11.62   0
  -2   3   5  904.11   19.56   0
  -3   2   5  995.37   19.03   0
   2  -3   5  803.79   12.13   0
  -3   2   5  865.41   25.42   0
  -2   3   5  927.55   17.34   0
   3  -2   5  820.61   13.19   0
   2  -3   5  936.77   17.88   0
   3  -2   5  875.00   14.96   0
   2   3   5  819.34   12.90   0
  -2  -3   5  872.10   33.12   0
   4  -1   5 1599.49   11.98   0
   1   4   5 1710.03   17.88   0
   1  -4   5 1653.28   21.38   0
   1   4   5 1583.58   14.44   0
  -1   4   5 1724.72   19.45   0
   4   1   5 1847.07   14.16   0
  -1  -4   5 1740.60   22.37   0
   4  -1   5 1684.86   15.20   0
   4   1   5 1757.73   13.77   0
  -1  -4   5 2065.59   32.59   0
   4   3   5   15.94    6.00   0
  -3  -4   5   21.02   14.57   0
   3  -4  -5   22.33   15.05   0
   3   4   5   29.56    8.80   0
   3  -4   5    3.84   13.03   0
  -3  -4   5   34.64   27.87   0
   4   3   5   23.31    9.41   0
   4  -3   5   35.15   11.26   0
  -3   4   5    7.29   20.42   0
  -4   3   5   16.89   14.33   0
   3   4   5   24.23   10.69   0
  -4   3   5   12.17   23.83   0
   5   2   5  211.07    9.41   0
   2  -5   5  249.85   16.15   0
   2   5   5  207.28   10.17   0
  -2   5   5  202.38   18.39   0
  -2  -5   5  238.72   22.72   0
   5  -2   5  198.56    7.79   0
   5  -2   5  207.48    9.67   0
  -2   5  -5  173.47   10.37   0
   5   2   5  191.62    9.85   0
   2  -5  -5  191.36   16.18   0
   5   4   5  419.13    9.80   0
  -5   4   5  427.66   19.72   0
   4   5   5  411.29    9.91   0
   4  -5   5  407.73   14.53   0
   5  -4   5  394.96    9.92   0
   5   4   5  399.39   10.77   0
   4   5   5  416.50    9.40   0
   5  -4  -5  431.12   23.18   0
  -4   5  -5  385.21   10.18   0
   4  -5  -5  380.50   17.75   0
  -4   5   5  381.29   13.97   0
   6  -1   5    8.81    9.56   0
   1   6   5   13.01   11.58   0
   6   1   5    6.59    6.60   0
  -1   6   5   -1.37   16.02   0
  -1  -6   5    9.38   24.05   0
   1   6  -5   19.34   17.70   0
  -1  -6  -5   -2.29   13.95   0
   1  -6  -5   31.09   15.04   0
   6  -1   5   10.72   11.12   0
   6   1   5   28.21    9.30   0
  -1   6  -5   27.93   14.37   0
   1  -6   5   13.98   10.65   0
   6   3   5  807.89   10.55   0
   6   3   5  773.89   10.88   0
   3  -6   5  796.26   11.01   0
  -6   3   5  881.77   31.67   0
   3   6   5  765.33   11.54   0
  -3  -6   5  696.17   22.81   0
   6  -3   5  743.46   10.17   0
  -3   6   5  849.49   17.24   0
  -6   3   5  889.86   32.51   0
   3  -6  -5  686.57   18.06   0
  -3   6  -5  769.48   16.35   0
  -5   6   5  105.32   14.04   0
   6   5   5  119.42    8.86   0
   5  -6   5  120.37   10.76   0
   5   6   5  110.33    8.98   0
   6  -5   5  107.09   12.71   0
  -6   5   5  106.00   15.65   0
   5   6   5  119.24   11.00   0
  -5   6  -5   87.99   13.32   0
  -6   5  -5  106.29    8.86   0
   6   5   5  104.97   10.05   0
   6  -5  -5   86.43   22.09   0
   5  -6  -5  116.25   16.88   0
   2   7   5  125.27   11.26   0
  -2   7  -5   84.00   14.74   0
  -2  -7   5  125.28   17.95   0
   7   2   5  148.60    9.20   0
  -2   7   5  127.78   18.38   0
   7  -2   5  113.56   10.32   0
  -2  -7  -5  111.46   10.53   0
   7  -2   5  140.84    9.61   0
   2  -7  -5  109.04   15.58   0
   2  -7   5  118.82    9.48   0
   2   7  -5  125.43   16.73   0
   7   2   5  127.41    9.37   0
   4  -7   5   22.46    9.41   0
   7   4   5   27.72    8.70   0
  -4  -7   5   23.38   16.70   0
  -7   4   5   29.60   16.55   0
   7   4   5   20.89    9.33   0
   4   7   5   15.50    6.72   0
   7  -4   5   65.23   11.12   0
  -4   7  -5   22.19   13.91   0
  -4   7   5   24.69   10.06   0
   4  -7  -5   -8.40   15.98   0
  -6   7  -5   18.06    9.50   0
   6  -7   5   18.73    7.85   0
   7   6   5    3.75    6.45   0
   7  -6   5   10.07    9.65   0
   6   7   5   -0.93    6.62   0
  -6   7   5   13.31   13.13   0
  -7   6   5    8.45   13.53   0
   6   7   5    0.64    8.08   0
   7   6   5    7.47   10.17   0
  -7   6  -5   -2.49    8.71   0
   7  -6  -5   28.09   22.61   0
   6  -7  -5    7.59   17.74   0
   1   8  -5  103.19   15.93   0
  -1   8  -5  112.32   15.32   0
   8   1   5   98.08    7.01   0
   1   8   5  129.24   13.44   0
  -1  -8   5  113.63   19.94   0
  -1   8   5  124.67   12.84   0
   1  -8   5  116.38   13.51   0
  -1  -8  -5  123.35   15.85   0
   8  -1   5   89.48   11.57   0
   1  -8  -5   87.42   11.34   0
   8  -1   5  107.33   10.12   0
   8   1   5   93.15    7.30   0
   8   3   5 1187.36   11.53   0
   3  -8  -5 1050.55   19.29   0
  -3  -8   5 1238.78   20.75   0
  -3   8  -5 1113.31   17.71   0
   3   8   5 1129.25   13.41   0
   8  -3   5 1133.94   13.43   0
   8   3   5 1135.47    9.86   0
   3   8  -5 1289.12   27.25   0
   8  -3   5 1331.42   18.50   0
  -3   8   5 1178.55   12.07   0
  -3  -8  -5 1319.05   18.22   0
   3  -8   5 1256.53   11.60   0
  -5   8   5  124.39   10.15   0
   8   5   5  164.55    9.24   0
   8   5   5  144.02    9.74   0
  -8   5   5  163.09   14.87   0
   5   8   5  119.70    7.60   0
   8  -5   5  152.13   12.86   0
  -5   8  -5  159.02   10.48   0
   8  -5  -5  158.73   26.28   0
   5  -8   5  183.76    9.00   0
   5  -8  -5  126.37   17.71   0
   7  -8   5   29.20    6.55   0
  -7   8  -5    8.73   14.28   0
   8  -7   5   50.98   11.90   0
   8   7   5   20.55    7.09   0
   7   8   5   16.88   10.14   0
  -7   8   5   27.08   11.74   0
   8   7   5   24.45    7.58   0
   7   8   5   12.16   11.82   0
  -8   7   5   27.67   10.47   0
  -8   7  -5   25.34   13.13   0
   8  -7  -5   21.99   20.19   0
   7  -8  -5   36.37   19.76   0
   9  -2   5   42.21    8.92   0
   9   2   5   41.16    6.83   0
  -2  -9   5   44.56   16.21   0
   2   9   5   45.69   13.11   0
   9  -2   5   44.20   10.83   0
   2  -9   5   46.11    7.11   0
  -2   9   5   51.98   13.01   0
  -2  -9  -5   26.92   10.16   0
   2  -9  -5   49.63   12.20   0
   2   9  -5   37.47   17.05   0
  -2   9  -5   58.10   15.21   0
   9   2   5   46.83    9.90   0
   9   4   5  183.97    7.05   0
  -4   9  -5  199.90   11.37   0
  -4  -9   5  184.58   15.36   0
   4   9   5  182.44   11.78   0
   9  -4   5  161.97    8.81   0
   4   9  -5  211.66   23.75   0
   9   4   5  187.84    9.81   0
  -4  -9  -5  210.94    9.05   0
   4  -9  -5  195.58   12.86   0
   4  -9   5  202.30    6.26   0
  -4   9   5  209.34    9.27   0
   9   6   5  278.97   10.28   0
   9  -6   5  239.93   10.57   0
  -6   9   5  228.55    8.07   0
   9   6   5  239.00   10.46   0
   6   9   5  253.80   11.28   0
  -9   6   5  282.88   15.45   0
  -6   9  -5  273.60   15.98   0
   6   9   5  222.79   10.96   0
  -9   6  -5  234.59    9.31   0
   6  -9   5  270.81    6.59   0
   9  -6  -5  250.54   27.75   0
   6  -9  -5  241.17   20.14   0
   8  -9  -5  237.94   23.18   0
   9  -8   5  359.01   10.78   0
  -8   9  -5  282.03   15.43   0
   8   9   5  234.52    9.49   0
   9   8   5  260.06   11.22   0
   8   9   5  259.29    8.58   0
   9   8   5  260.73   11.90   0
  -8   9   5  239.50   12.07   0
  -8   9   5  254.50   22.47   0
  -9   8   5  300.38   21.69   0
  -9  -8   5  265.82   35.32   0
   8  -9   5  276.95    6.82   0
  -9   8   5  251.29   11.96   0
  -9   8  -5  294.34   14.15   0
   9  -8  -5  246.86   23.30   0
  10   1   5  693.22    9.25   0
  -1 -10   5  697.51   20.54   0
   1  10   5  651.90   12.58   0
   1 -10   5  854.89   19.21   0
   1  10  -5  576.47   19.62   0
  -1  10   5  683.31   16.33   0
  10  -1   5  620.16    9.34   0
  -1  10  -5  678.90   18.88   0
  -1 -10  -5  721.09   11.33   0
  10  -1   5  704.18   13.52   0
   1 -10  -5  753.68   16.08   0
  10   1   5  709.21   12.43   0
  10   3   5   17.28    9.84   0
  -3 -10   5   -2.35   17.26   0
  10   3   5  -17.86    9.68   0
   3  10   5   16.60    8.90   0
  10  -3   5   45.54   11.84   0
   3 -10   5   -6.37    8.68   0
  10  -3   5    1.79   10.47   0
   3  10  -5   17.18   18.97   0
  -3 -10  -5   22.71   12.26   0
  -3  10   5    6.40    9.36   0
   3 -10  -5  -10.88   17.37   0
  -3  10  -5   34.94   16.24   0
   5 -10  -5 1093.86   23.48   0
  10   5   5  924.68    9.64   0
  -5  10  -5  913.79   13.57   0
  -5  10   5  931.82   11.28   0
  10  -5   5  897.35   12.14   0
   5  10   5  911.14   13.76   0
   5  10  -5  950.27   31.64   0
 -10   5   5  858.44   23.82   0
  10   5   5  893.88   11.93   0
   5 -10   5 1040.45    9.81   0
  -5 -10   5  981.88   17.79   0
   7 -10  -5  186.91   23.02   0
  10   7   5  155.98    8.01   0
  10  -7   5  166.74   13.37   0
  10   7   5  173.53   11.04   0
   7  10   5  173.12   12.24   0
  -7  10   5  165.15   10.82   0
  -7  10  -5  145.71   11.03   0
   7  10   5  196.99   14.88   0
 -10   7   5  177.91   15.47   0
  -7  10   5  156.15   22.31   0
   7 -10   5  183.49    8.20   0
 -10   7  -5  183.24   13.58   0
  10  -7  -5  173.65   28.56   0
   9 -10  -5  175.63   26.92   0
  -9  10  -5  253.27   11.66   0
 -10   9   5  191.94   15.22   0
  10   9   5  226.76   12.94   0
   9  10   5  223.15    9.91   0
  10   9   5  196.94    9.50   0
  -9  10   5  192.38   12.90   0
   9  10   5  170.39   10.09   0
   9 -10   5  240.24    6.91   0
  10  -9   5  230.92    9.93   0
  10  -9  -5  156.96   26.57   0
 -10   9  -5  195.94   14.83   0
  11   2   5  298.64   11.10   0
  -2  11   5  319.47    8.32   0
  -2 -11   5  295.50   20.18   0
  11  -2   5  252.72    9.04   0
   2  11   5  281.03   15.38   0
   2 -11   5  323.31   11.54   0
   2  11  -5  267.60   20.87   0
 -11   2   5  328.17   23.95   0
 -11  -2   5  300.30   30.09   0
  -2  11  -5  280.23   18.17   0
  -2 -11  -5  352.91    9.55   0
  11  -2   5  281.40   13.78   0
   2 -11  -5  347.46   11.65   0
  11   2   5  315.51    8.49   0
  -4  11   5   68.38    5.93   0
  11   4   5   69.02    7.58   0
  -4 -11   5   77.09   15.23   0
 -11  -4   5  108.62   29.67   0
  11  -4   5   84.33    9.74   0
  11   4   5   87.13   10.51   0
   4  11   5   82.40   13.38   0
   4 -11   5   99.28    8.24   0
 -11   4   5  105.25   21.95   0
  11  -4   5  126.14   17.03   0
   4  11  -5   84.23   20.59   0
  -4 -11  -5  106.72   11.84   0
  -4  11  -5   80.30   16.34   0
   4 -11  -5   92.88   17.64   0
  11   6   5  262.96   11.46   0
  11  -6   5  266.02   16.23   0
  -6  11   5  254.30    9.34   0
  -6  11  -5  270.00   16.06   0
   6  11   5  248.57   13.34   0
   6 -11   5  291.21    8.25   0
  11   6   5  235.13   11.46   0
  -6  11   5  297.83   22.09   0
   6 -11  -5  341.06   17.74   0
   8 -11  -5  237.50   26.48   0
  11  -8   5  186.65   11.30   0
  11   8   5  172.34   12.38   0
 -11   8  -5  151.19   14.32   0
 -11   8   5  144.63   17.65   0
  11   8   5  182.81   13.03   0
   8  11   5  150.10   15.64   0
   8  11   5  154.23   14.12   0
  -8  11   5  166.39   11.92   0
  -8  11  -5  167.32   16.21   0
   8 -11   5  232.57    8.57   0
  11  -8  -5  119.83   32.73   0
  -1 -12   5   25.50   17.47   0
   1 -12   5   18.21   18.65   0
   1  12  -5   17.31   21.13   0
  12  -1   5   22.47    8.64   0
  -1  12  -5   24.40   19.28   0
   1  12   5   17.74   15.65   0
  -1  12   5    7.32   10.85   0
  -1 -12  -5   20.18   12.73   0
  12  -1   5    4.93    9.06   0
  12   1   5   18.33   11.74   0
   1 -12  -5   16.69    9.87   0
  12   1   5    3.77   11.74   0
  12   3   5  593.80   12.26   0
  12   3   5  530.18    9.60   0
  -3 -12   5  538.68   17.76   0
  12  -3   5  513.92   11.12   0
   3  12  -5  515.09   24.17   0
   3 -12   5  617.68   10.65   0
   3  12   5  606.54   16.42   0
  -3  12   5  497.56   16.61   0
  -3 -12  -5  662.61   10.45   0
  -3  12  -5  532.52   18.41   0
  12  -3   5  538.28   15.89   0
   3 -12  -5  632.14   17.21   0
  -3  12   5  554.14    9.89   0
   5 -12  -5   32.79   18.86   0
  12   5   5   25.93   11.54   0
  -5  12   5   23.61    8.03   0
  12  -5   5   11.77   11.13   0
  12   5   5   24.38   11.20   0
   5  12   5   13.65   14.66   0
   5 -12   5    6.14    7.90   0
  -5 -12  -5   23.95    8.33   0
  12  -5   5   31.54   13.49   0
   5  12  -5    1.70   27.53   0
  -5  12  -5   13.63   11.15   0
  -5 -12   5   18.78   13.58   0
   7 -12  -5   11.11   24.64   0
  12  -7   5   -1.95    9.91   0
  12   7   5    4.21   12.85   0
  -7  12  -5   15.99   11.43   0
  -7  12   5    2.32    9.22   0
   7  12   5    8.37   10.71   0
  12   7   5    5.01    8.81   0
   7 -12   5    7.90    5.71   0
  12  -7  -5   -0.06   33.07   0
  13   2   5  139.48    9.10   0
  -2 -13   5  149.64   18.22   0
   2 -13   5  170.59   12.45   0
  13  -2   5  143.98   10.49   0
   2  13  -5   93.51   18.53   0
  -2  13  -5  129.16   15.43   0
   2  13   5  125.26   11.49   0
  -2  13   5  131.48   21.42   0
  -2 -13  -5  200.68   13.36   0
  13  -2   5  144.67   10.49   0
  13   2   5  148.17    9.03   0
   2 -13  -5  144.13   15.71   0
  -2  13   5  141.71    9.63   0
  -4 -13   5   55.35   16.33   0
  13   4   5   61.64    8.97   0
  -4  13   5   59.67    6.23   0
  13   4   5   52.28    8.94   0
  13  -4   5   60.38   16.13   0
   4 -13   5   76.47    6.48   0
   4  13   5   63.49   16.85   0
   4  13  -5   34.16   26.27   0
  -4 -13  -5   73.97   13.40   0
  -4  13  -5   47.57   10.82   0
  13  -4   5   49.60   17.10   0
   4 -13  -5   87.65   17.88   0
  -6  13  -5   17.24   15.18   0
  13  -6   5    0.31   18.28   0
  13   6   5    0.52   13.74   0
  -6  13   5    5.00    6.09   0
  13   6   5    2.15   13.00   0
   6  13  -5   -3.30   36.61   0
   6  13   5   15.25   17.08   0
   6 -13   5    6.58    5.85   0
   6 -13   5    4.92   11.95   0
  13  -6   5    7.79   15.86   0
  -6 -13   5    2.72   20.62   0
   6 -13  -5   11.91   21.02   0
  -1 -14   5   25.93   20.03   0
   1 -14   5    1.45   19.04   0
  14  -1   5   19.48   11.11   0
   1  14  -5   19.92   14.43   0
  -1  14  -5    6.64   13.14   0
  14   1   5    8.58   10.28   0
   1 -14   5   13.29   14.34   0
   1  14   5   13.29    8.72   0
  -1 -14  -5   32.57   14.82   0
   1 -14  -5   15.78   15.88   0
  14  -1   5   18.23   14.99   0
  -1  14   5   -3.45   10.28   0
  14   1   5    0.03    9.95   0
  -3  14   5  104.99    7.13   0
  14   3   5  189.54   14.45   0
  -3 -14   5  136.26   17.67   0
  14  -3   5  182.27   17.46   0
   3 -14   5  154.53   11.20   0
   3  14  -5   76.13   16.69   0
  -3  14  -5   68.60    9.54   0
   3  14   5  138.52   16.68   0
   3 -14   5  138.44   15.27   0
  -3 -14  -5  166.03   10.76   0
  14  -3   5  147.91   17.15   0
  14   3   5   99.95   10.82   0
   3 -14  -5  210.58   18.26   0
   0   0   6 1521.57   13.61   0
   0   0   6 1606.54   15.40   0
   1  -1   6  193.15    9.52   0
   1   1   6  209.62    8.94   0
  -1  -1   6  190.89   11.59   0
  -1   1   6  205.51   12.84   0
  -1   1   6  189.42   10.25   0
   1   1   6  230.12   10.39   0
  -1  -1   6  198.73   13.93   0
   1  -1   6  214.65   10.33   0
   0  -2   6  887.77   12.42   0
   2   0   6  918.35   11.46   0
   2   0   6  957.37   12.16   0
   0   2   6  830.82   11.68   0
  -2   0   6  871.04   17.99   0
   0  -2   6  860.40   14.27   0
   0   2   6  948.37   12.96   0
  -2   0   6  889.99   17.64   0
  -2  -2   6 1575.41   25.50   0
   2   2   6 1590.71   11.06   0
  -2  -2   6 1673.18   23.19   0
  -2   2   6 1721.14   20.75   0
  -2   2   6 1825.76   17.72   0
   2  -2   6 1658.47   14.58   0
   2   2   6 1782.04   13.96   0
   2  -2   6 1755.95   14.94   0
  -1  -3   6    6.61    9.62   0
   3   1   6    9.80    8.06   0
  -1  -3   6    5.89   16.55   0
   1   3   6   15.16    6.77   0
   1   3   6    6.84    8.44   0
  -1   3   6   17.02    9.99   0
   3   1   6   -8.17    8.94   0
   1  -3   6   22.45   10.91   0
  -1   3   6   17.86    9.98   0
  -3   1   6   12.03   16.72   0
  -3   1   6    3.98   15.07   0
   3  -1   6    4.50    9.18   0
   1  -3   6   10.42    7.48   0
   3  -1   6   12.50    9.36   0
  -3   3   6   20.92   13.33   0
   3   3   6   11.84    8.16   0
   3  -3   6   29.35   10.00   0
  -3   3   6   11.14   12.02   0
   3  -3   6   38.36   10.98   0
   3   3   6   27.79    6.46   0
   4   0   6  112.96    8.94   0
   0  -4   6  104.21   12.28   0
   0   4   6  109.66    9.40   0
   0  -4   6  115.74   11.22   0
   0   4   6  107.60   10.69   0
   4   0   6   99.41    6.56   0
   4   2   6   16.10    5.69   0
  -2  -4   6   11.29    9.59   0
  -4   2   6    9.24   19.78   0
   2   4   6    7.66    5.92   0
   2  -4   6   29.45   11.18   0
   2   4   6   29.70    6.79   0
   4   2   6    9.50    6.24   0
  -2   4   6   16.97   12.21   0
   4  -2   6    5.63    6.71   0
  -2  -4   6   13.83   18.59   0
   2  -4   6   18.60    8.55   0
   4  -2   6   15.36   10.38   0
  -4   2   6   14.46   16.98   0
  -2   4   6   11.64   10.96   0
   4   4   6  605.12    9.77   0
   4   4   6  660.02   10.87   0
   4  -4   6  588.62    9.46   0
  -4   4   6  668.01   15.38   0
   4  -4   6  610.48   15.25   0
  -4   4   6  680.51   18.91   0
   5   1   6  369.48    9.76   0
   1  -5   6  362.38    9.95   0
   5   1   6  376.22    7.66   0
   1   5   6  353.89    8.72   0
   1   5   6  364.93   10.14   0
  -1   5   6  354.65    9.06   0
  -1   5   6  358.77   13.29   0
  -1  -5   6  369.35   18.26   0
   1  -5   6  398.08   15.37   0
   5  -1   6  365.16    7.58   0
  -1  -5   6  324.87   12.18   0
   5  -1   6  369.14    8.17   0
   5   3   6  499.64    9.46   0
   3  -5   6  494.64    9.89   0
   3   5   6  465.88    9.68   0
   5  -3   6  459.56   10.94   0
  -3   5   6  513.02   15.62   0
  -3   5   6  468.48   14.62   0
   3  -5   6  509.31   13.81   0
   5   3   6  489.62   10.06   0
   5  -3   6  510.21   13.24   0
   3   5   6  484.31   11.37   0
  -5   5   6  326.38   15.63   0
   5   5   6  315.29    7.04   0
   5  -5   6  309.25    9.06   0
   5   5   6  318.96   10.14   0
  -5   5   6  355.77   18.33   0
   5  -5   6  350.84   13.57   0
   6   0   6 1640.01   11.05   0
   0   6   6 1622.79   18.12   0
   0   6   6 1570.48   14.26   0
   0  -6   6 1792.21   23.72   0
   0  -6   6 1734.64   23.17   0
   6   0   6 1653.81   11.51   0
   2  -6   6   31.80    8.14   0
   6   2   6   34.62    8.67   0
   2   6   6    7.30    8.99   0
   6   2   6   28.10    8.76   0
  -2  -6   6   36.67   15.44   0
   6  -2   6   23.01    6.53   0
  -2   6   6   31.84   12.31   0
   2   6   6   41.85    8.03   0
   6  -2   6   19.02   10.69   0
  -2  -6   6   22.08   11.30   0
   6   4   6  896.93   10.47   0
   4  -6   6  933.30   11.72   0
   4   6   6  897.34   10.73   0
   6  -4   6  898.79   10.11   0
   6  -4   6  988.45   16.82   0
   4   6   6  897.81   10.24   0
   6   4   6  944.98   11.13   0
  -4   6   6  917.00   12.99   0
   6  -6   6  127.08   12.22   0
   6   6   6  120.96    6.57   0
  -6   6   6  116.90   13.35   0
   6   6   6  109.83   10.16   0
   7   1   6  259.97    9.70   0
   1   7   6  260.86   10.64   0
  -1   7   6  250.84   12.29   0
  -1  -7   6  255.65   17.47   0
   1  -7   6  260.61   10.66   0
   7  -1   6  291.52    9.81   0
   7  -1   6  336.62   11.12   0
   7   1   6  260.47   10.18   0
   7   3   6  336.68    7.08   0
   3   7   6  349.37   10.11   0
  -3   7  -6  285.90   13.62   0
   3   7   6  341.99   12.76   0
   7   3   6  352.25    9.65   0
   7  -3   6  341.81   10.57   0
  -3   7   6  313.61   10.26   0
   3  -7  -6  293.77   16.95   0
   7  -3   6  385.74   13.19   0
   3  -7   6  331.40    8.50   0
   5  -7   6   22.22    8.25   0
  -5   7   6   24.18   10.54   0
   7   5   6   16.85    8.68   0
   5   7   6    7.73    6.19   0
   7  -5   6   28.40   10.97   0
   5   7   6   21.08   10.63   0
  -5   7  -6    7.99    8.99   0
   7  -5   6   39.31   17.17   0
   5  -7  -6   28.85   22.60   0
   7   5   6   14.11    6.56   0
   7  -7   6 1569.47   12.94   0
   7   7   6 1538.96   12.44   0
   7   7   6 1459.45   13.71   0
  -7   7   6 1396.07   17.43   0
   0   8  -6  838.76   17.79   0
   0   8   6  954.33   13.51   0
   0  -8   6  868.40   17.49   0
   8   0   6  922.80    9.46   0
   8   0   6 1029.94   12.55   0
   8   2   6   37.19    8.95   0
   8   2   6   21.74    6.38   0
  -2  -8   6   28.42   15.50   0
   2   8   6   21.91   10.05   0
  -2   8  -6    1.84   13.95   0
   8  -2   6   34.94    9.49   0
  -2   8   6   19.75   10.62   0
   2  -8   6   25.39    8.21   0
   2  -8  -6   -6.91   17.11   0
   8  -2   6   28.71   11.53   0
   8   4   6  600.86    8.25   0
   4   8   6  576.96   10.52   0
   8  -4   6  605.63    9.38   0
   4   8   6  609.74   13.95   0
   8   4   6  588.07   10.75   0
  -4   8  -6  541.75   15.17   0
   8  -4   6  636.86   15.98   0
   4  -8  -6  539.54   20.70   0
   4  -8   6  608.70    7.22   0
  -4   8   6  604.58   10.19   0
   8   6   6   95.32   10.13   0
   8   6   6  109.26    6.85   0
   8  -6   6  123.29   12.29   0
  -6   8   6  129.30   12.36   0
   6   8   6  110.34    9.73   0
  -6   8  -6  100.68    9.86   0
   6  -8  -6  112.11   21.27   0
   6   8   6  103.59    8.49   0
   6  -8   6  129.39    8.05   0
   8  -8   6  198.14    9.07   0
   8   8   6  208.92    7.86   0
   8   8   6  202.03   11.94   0
   8  -8  -6  159.66   24.92   0
  -8   8   6  184.14   12.00   0
   9   1   6  609.25    8.59   0
  -1  -9   6  623.81   18.84   0
   1   9   6  642.50    9.97   0
   1   9  -6  573.19   18.23   0
   1  -9   6  780.57   15.82   0
  -1   9   6  628.62   13.04   0
   9  -1   6  641.80   11.32   0
  -1   9  -6  619.96   17.18   0
   1  -9  -6  551.77   19.34   0
   9  -1   6  709.22   10.14   0
   9   1   6  684.39   11.53   0
   9   3   6   64.30    9.47   0
  -3  -9   6   59.31   15.97   0
   9   3   6   52.28    9.47   0
  -3   9  -6   73.90   10.69   0
   3   9   6   46.35   10.17   0
   9  -3   6   55.37    7.55   0
   3  -9   6   66.16    5.54   0
   3  -9  -6   58.65   19.07   0
   9  -3   6   82.09   13.42   0
  -3   9   6   56.39    6.11   0
  -5   9   6  102.74    8.87   0
   9   5   6  115.74    9.57   0
   9  -5   6  110.88   11.71   0
   5   9   6   83.57   13.20   0
   5   9   6  122.42   10.17   0
   9   5   6  101.47   10.04   0
   9  -5   6  113.63   16.86   0
   5  -9   6  111.06    7.42   0
  -5   9  -6   80.68   15.13   0
   5  -9  -6  107.60   20.70   0
   9  -7   6   -1.90    7.40   0
   9   7   6    1.88   10.25   0
   7   9   6    0.14   10.59   0
  -7   9   6    2.88   11.41   0
   7   9   6   19.43   12.37   0
   7  -9  -6   15.09   28.92   0
  -7   9  -6   16.88   10.56   0
   7  -9   6    4.82    5.39   0
   9   7   6    5.66    7.77   0
  -9   9   6  103.10   15.98   0
   9   9   6   75.37    9.67   0
   9   9   6  124.27   12.17   0
  -9   9   6   79.75   19.70   0
   9  -9  -6   95.41   34.80   0
   9  -9   6  111.06    9.15   0
   0  10  -6  123.70   17.61   0
   0 -10   6  137.45   14.82   0
   0  10   6  124.49   12.48   0
   0 -10  -6  170.76   18.86   0
  10   0   6  131.00   10.30   0
  10   0   6  132.24    8.46   0
  10   2   6  106.46   10.29   0
  10   2   6   78.71    7.16   0
  -2 -10   6   88.14   13.78   0
   2  10  -6   77.54   17.35   0
   2  10   6   76.79    7.98   0
  10  -2   6   96.58   10.90   0
   2 -10   6   92.90    9.79   0
  -2  10   6   91.86    8.94   0
   2 -10  -6   73.58   19.37   0
  10  -2   6  117.02   12.69   0
  -2  10  -6   91.13   17.05   0
  -4  10   6  111.06    6.19   0
  10   4   6  130.94   10.23   0
  10   4   6  122.59    7.51   0
  10  -4   6  115.59   11.91   0
  -4  10  -6  111.03   16.86   0
   4  10   6  138.67   11.04   0
   4 -10   6  123.80    5.76   0
  10  -4   6  137.71   15.27   0
   4 -10  -6  102.16   21.28   0
   4  10   6  120.78   12.17   0
  -4 -10   6    0.73   17.27   0
  10  -6   6  238.49   10.40   0
  10   6   6  302.41   11.22   0
  -6  10   6  306.24   10.66   0
   6  10   6  282.58   11.76   0
  10   6   6  262.12   11.62   0
   6  10   6  244.09   14.67   0
 -10   6   6  220.87   26.22   0
   6 -10   6  280.53    6.24   0
  10  -6   6  257.95   15.12   0
   6 -10  -6  220.00   24.47   0
  -6  10  -6  225.24   17.02   0
  10   8   6  108.90   12.27   0
   8  10   6   68.26    9.13   0
   8  10   6   70.76   10.30   0
  -8  10   6  110.45   13.28   0
  -8  10   6  136.75   28.21   0
   8 -10   6   96.75    8.48   0
   8 -10  -6   65.40   28.59   0
  10   8   6   74.65   13.07   0
  -8  10  -6   58.21   12.35   0
  10  -8   6   72.14    7.52   0
   1  11  -6   34.99   23.85   0
  -1 -11   6   59.00   17.96   0
   1 -11   6   56.74   11.16   0
  11  -1   6   66.04   11.39   0
   1  11   6   60.48   12.56   0
  -1  11   6   63.25    9.52   0
  -1 -11  -6   69.63   12.33   0
   1 -11  -6   75.30   14.61   0
  11   1   6   53.55   10.64   0
  11  -1   6   91.01   12.84   0
  -1  11  -6   59.48   19.13   0
  11   1   6   81.63    8.13   0
  11   3   6    2.84    7.67   0
   3  11  -6    8.48   23.31   0
  -3 -11   6    0.25   16.21   0
  11   3   6    3.56   10.65   0
  11  -3   6   -4.66    8.57   0
   3  11   6   58.13   11.87   0
   3 -11   6   10.62    8.58   0
 -11   3   6    4.53   19.45   0
   3 -11  -6   18.73   22.08   0
  11  -3   6   26.25   14.31   0
  -3  11   6    9.03    8.17   0
  -3  11  -6    7.67   18.56   0
  -5  11  -6  251.48   14.47   0
  11   5   6  424.77   12.14   0
  -5  11   6  301.23   10.01   0
  11  -5   6  347.22   10.75   0
  11   5   6  352.14    9.31   0
   5  11   6  310.98    9.83   0
   5 -11   6  415.98    8.90   0
 -11   5   6  341.09   27.45   0
 -11  -5   6  283.91   37.92   0
  11  -5   6  377.46   14.01   0
   5  11   6  376.87   18.41   0
   5 -11  -6  355.09   25.42   0
  11   7   6   74.60   12.74   0
   7  11   6   50.14   11.50   0
   7  11   6   42.56   13.35   0
  11   7   6   84.50   13.09   0
   7 -11   6  109.55    8.34   0
   0 -12   6    3.98   16.26   0
   0  12  -6   18.41   20.89   0
  12   0   6   15.26   11.95   0
   0  12   6   -2.31    7.36   0
 -12   0   6   25.65   30.98   0
   0 -12  -6   -4.97   17.94   0
  12   0   6    8.25    9.10   0
  12   2   6  848.91   14.13   0
  -2 -12   6  677.15   23.04   0
   2  12  -6  528.38   29.77   0
  12  -2   6  668.58   11.59   0
   2 -12   6  825.89   11.92   0
   2  12   6  729.28   15.63   0
  -2  12  -6  620.10   23.39   0
 -12   2   6  548.43   30.25   0
 -12  -2   6  683.36   35.66   0
  -2 -12  -6 1028.60   17.66   0
   2 -12  -6  921.09   19.29   0
  12   2   6  721.14   10.73   0
  -2  12   6  593.80    9.40   0
  12  -2   6  782.70   16.50   0
  -4  12  -6  -10.82   20.67   0
  -4  12   6   -2.94    8.49   0
  12   4   6   -1.26    8.41   0
  12   4   6    0.97   12.16   0
  12  -4   6    5.00   14.19   0
   4  12   6   13.63    9.34   0
   4 -12   6    9.54    8.58   0
  -4  12   6    5.26   16.73   0
  12  -4   6   -5.27   11.93   0
   4 -12  -6   16.78   25.55   0
  -4 -12   6    4.12   21.10   0
  13   1   6  118.66   10.31   0
  13  -1   6  126.35   10.73   0
   1  13  -6  108.82   25.02   0
  13   1   6  116.15   10.25   0
   1  13   6  106.92    8.79   0
   1 -13  -6  246.14   20.64   0
  13  -1   6  137.93   11.45   0
   2   1   7   67.18    9.70   0
  -2  -1   7   68.39   17.43   0
   2  -1   7   67.55    8.88   0
   1  -2   7   70.33    8.44   0
  -1   2   7   87.30    9.99   0
  -1  -2   7   63.75   11.44   0
   2   1   7   80.44    6.07   0
  -1  -2   7   63.68   11.45   0
   1   2   7   72.28    9.49   0
   1   2   7   74.76    8.44   0
   1  -2   7   80.48   12.47   0
  -1   2   7   71.11    9.44   0
  -2  -1   7   74.11   18.06   0
  -2   1   7   76.36   13.62   0
   2  -1   7   60.94    9.75   0
  -2   1   7   78.44   12.97   0
   3  -2   7  453.42   10.92   0
   3   2   7  455.31    9.58   0
   3   2   7  430.52   10.32   0
   2   3   7  432.49    9.45   0
   2  -3   7  433.43   11.82   0
  -2   3   7  472.12   14.35   0
   3  -2   7  431.63   11.02   0
   2   3   7  460.73   10.55   0
  -2   3   7  441.36   15.18   0
  -3   2   7  452.67   18.44   0
  -3   2   7  453.47   19.56   0
   2  -3   7  454.60   11.62   0
   4  -1   7  881.77   11.61   0
   4   1   7  819.99   11.27   0
   1  -4   7  767.89   11.72   0
   4   1   7  831.07   10.80   0
  -1  -4   7  791.96   15.33   0
   1   4   7  791.39   10.91   0
  -1   4   7  793.91   12.85   0
   4  -1   7  816.09    9.58   0
  -1  -4   7  767.12   19.04   0
   1   4   7  843.83   12.12   0
  -1   4   7  874.64   13.46   0
   1  -4   7  811.60   13.06   0
   4   3   7   12.80    5.98   0
   3  -4   7   -1.42   10.58   0
   3   4   7   23.56    8.17   0
   4  -3   7   10.92   10.08   0
   4   3   7   17.12    9.20   0
  -3   4   7   21.70   12.72   0
   3   4   7   16.37    9.22   0
  -3   4   7   12.63    9.87   0
   3  -4   7   13.26   11.46   0
   4  -3   7  -11.59   11.03   0
   2  -5   7   83.01    8.52   0
   2   5   7  104.03   10.12   0
   5   2   7   89.85    6.33   0
  -2   5   7  100.39   11.32   0
   5   2   7   83.67    9.09   0
   2   5   7  113.07    9.02   0
   5  -2   7  104.73    9.91   0
  -2   5   7   93.50   11.10   0
   2  -5   7   88.54   12.29   0
   5  -2   7  107.46   10.72   0
  -4   5   7  249.68   14.90   0
   4  -5   7  200.57   10.61   0
   5   4   7  236.76    6.73   0
   4   5   7  219.13    9.20   0
   5  -4   7  245.00   10.88   0
   5   4   7  226.38    7.50   0
  -4   5   7  236.32   15.15   0
   4  -5   7  251.86   13.73   0
   5  -4   7  243.66   12.89   0
   4   5   7  229.48   10.26   0
   6   1   7   14.49    9.03   0
  -1  -6   7   13.26   10.49   0
   6   1   7   22.02    9.00   0
   1   6   7    9.56    9.22   0
   1   6   7   17.06    7.58   0
  -1  -6   7   10.51   14.32   0
  -1   6   7    4.36   10.14   0
  -1   6   7    3.76   11.02   0
   6  -1   7    2.90    9.55   0
   1  -6   7    9.01   10.47   0
   1  -6   7    3.35   14.16   0
   6  -1   7   14.39   10.04   0
   3  -6   7  408.23    9.13   0
   6   3   7  394.17    7.47   0
   3   6   7  407.32   11.41   0
   6   3   7  407.77   10.12   0
   3   6   7  434.81   10.03   0
   6  -3   7  436.85   11.14   0
  -3   6   7  430.94   16.27   0
   3  -6   7  411.98   15.61   0
  -3   6   7  406.42   10.66   0
   6  -3   7  475.44   12.86   0
   5  -6   7   58.97    9.00   0
   5   6   7   67.22   10.39   0
  -5   6   7   63.86   15.29   0
   6  -5   7   69.76   11.54   0
   6   5   7   67.37    6.41   0
   5   6   7   43.76    6.57   0
  -5   6   7   56.46   15.39   0
   6   5   7   57.93    7.33   0
   5  -6   7   55.31   11.12   0
   6  -5   7   65.73   14.59   0
   7   2   7   52.59    6.83   0
   7   2   7   50.37    9.25   0
  -2   7   7   63.26   13.01   0
   2   7   7   57.76    9.57   0
   7  -2   7   51.52    7.37   0
   2   7   7   57.37    8.31   0
  -2   7   7   54.58    9.24   0
   2  -7   7   56.69    8.47   0
   2  -7   7   53.82   15.72   0
   7  -2   7   74.12   11.74   0
  -4   7   7   14.52    9.53   0
   7   4   7    6.21    9.24   0
   7  -4   7   38.81   10.87   0
   4   7   7   17.77    6.59   0
  -4   7   7   16.01   16.98   0
   7   4   7    6.27    9.84   0
   4   7   7   20.79   11.00   0
   4  -7   7   30.79   17.53   0
   7  -4   7   23.54    9.46   0
   4  -7   7    9.88    7.67   0
   6  -7   7    8.86    8.19   0
   6   7   7   10.50   11.22   0
   7  -6   7    6.23   10.37   0
   7   6   7    8.90    9.53   0
   6   7   7    8.39    6.91   0
  -6   7   7    2.21   18.94   0
  -6   7   7    9.79   13.24   0
   7   6   7   17.31   10.73   0
   6  -7   7    4.29   19.22   0
   7  -6   7   13.63   17.15   0
   8   1   7   66.54   10.15   0
   1   8   7   58.54    9.43   0
  -1  -8   7   44.55   15.37   0
   1   8   7   51.67    7.25   0
   8  -1   7   56.32   10.32   0
   1  -8   7   77.07   13.07   0
  -1   8   7   51.20   10.39   0
  -1   8   7   28.24   10.41   0
   1  -8   7   47.60   15.45   0
   8   1   7   47.38    9.82   0
  -1  -8   7   38.15   13.05   0
   8  -1   7   49.63    7.95   0
   8   3   7  572.34    8.62   0
   8   3   7  581.37    8.70   0
   8  -3   7  594.79   12.16   0
   3   8   7  587.52   11.19   0
  -3   8   7  541.62   17.97   0
   3  -8   7  619.39    9.81   0
   3  -8   7  595.50   22.53   0
  -3   8   7  535.76   10.54   0
   8  -3   7  621.45   14.63   0
   3   8   7  568.29   14.00   0
   8   5   7   73.40    7.30   0
   8  -5   7   47.90    8.78   0
  -5   8   7   59.10   15.32   0
   5   8   7   51.64    7.31   0
   8   5   7   59.61    7.80   0
   5   8   7   59.44   12.14   0
   5  -8   7   59.25   22.79   0
   8  -5   7   65.21   15.69   0
  -5   8   7   53.84   16.40   0
   5  -8   7   79.95    7.92   0
   8  -7   7    8.53    9.96   0
  -7   8   7    5.71   17.37   0
   7   8   7    9.79   12.79   0
   8   7   7   13.84   10.86   0
   7   8   7   16.10   10.99   0
  -7   8   7   11.42   22.05   0
   8   7   7   22.28   12.26   0
   7  -8   7   17.58   17.03   0
   8  -7   7   17.97   20.52   0
   7  -8   7    9.32    6.03   0
   9   2   7   28.91    7.40   0
  -2  -9   7   25.20   27.72   0
  -2   9   7    6.32   17.14   0
   2   9   7   11.19   10.45   0
   9  -2   7   18.67   10.98   0
   2  -9   7   20.92   10.45   0
   2   9   7   34.05   14.08   0
   2  -9   7   13.14   24.08   0
  -2   9   7   20.50    8.46   0
   9  -2   7   33.25   12.99   0
   9   2   7   17.18   10.28   0
  -4   9   7   78.64    9.23   0
   9   4   7   85.53   10.54   0
   9   4   7   83.14   10.99   0
   9  -4   7   72.74    8.74   0
   4   9   7   63.71    7.76   0
  -4   9   7   74.29   19.56   0
   4  -9   7   79.35    8.48   0
   9  -4   7  109.48   15.26   0
   4   9   7   81.08   13.62   0
   9  -6   7   65.21    9.07   0
   9   6   7   89.99   11.63   0
   6   9   7   51.83    8.52   0
   6   9   7   71.54   14.01   0
  -6   9   7   71.99   13.23   0
   9   6   7   91.70   12.26   0
  -6   9   7   68.67   19.82   0
   6  -9   7   68.96    6.30   0
   9  -6   7   75.38   13.95   0
  10   1   7  319.72   12.54   0
  -1 -10   7  197.23   19.64   0
   1 -10   7  267.33   19.55   0
   1  10   7  206.72   13.49   0
  10  -1   7  283.70   12.36   0
   1  10   7  282.29   12.74   0
  10   1   7  285.85    8.96   0
  -1  10   7  282.92   10.39   0
  -1 -10   7  177.59   15.64   0
  10  -1   7  285.52   10.34   0
  10   3   7    5.69   11.29   0
  10   3   7   10.97    7.93   0
  10  -3   7    5.22    8.83   0
   3  10   7   -1.24    8.11   0
   3 -10   7   -1.70    9.68   0
   3  10   7    0.38   15.67   0
  10  -3   7    5.11   10.70   0
  -3  10   7   -2.50    8.47   0
   0   0   8 2121.56   18.38   0
   0   0   8 2322.76   22.59   0
  -1  -1   8    4.97   15.53   0
   1  -1   8   15.34   11.30   0
   1   1   8    8.31    9.00   0
   1  -1   8    3.89   13.37   0
  -1   1   8    6.05   13.27   0
  -1  -1   8   11.46   16.70   0
  -1   1   8    5.97   14.29   0
   1   1   8   10.22   10.12   0
   0  -2   8   20.24   13.84   0
   2   0   8   18.80    9.14   0
   0  -2   8   18.86   11.64   0
   0   2   8   13.14   11.64   0
   2   0   8   28.64   10.36   0
   0   2   8   10.63   12.70   0
   2  -2   8   26.43    9.49   0
   2  -2   8   24.60   11.04   0
   2   2   8   21.38    6.50   0
  -2   2   8   23.21   15.34   0
  -2   2   8   27.54   18.27   0
   2   2   8   44.38   10.14   0
   1  -3   8  103.73   10.20   0
   1   3   8  110.61   10.69   0
   3  -1   8  124.05   10.05   0
   1  -3   8  100.38   10.26   0
   3   1   8  118.20    9.66   0
   1   3   8  104.01    9.66   0
   3  -1   8  102.63    8.15   0
  -1   3   8  102.84   10.89   0
   3   1   8  112.51   10.43   0
  -1   3   8  109.10   11.26   0
   3  -3   8  142.35   11.18   0
   3   3   8  168.62   10.90   0
   3  -3   8  155.91   11.87   0
   3   3   8  158.87    9.82   0
   4   0   8  234.44   10.47   0
   0  -4   8  210.69   14.15   0
   0   4   8  233.76   13.91   0
   0   4   8  223.05   12.80   0
   4   0   8  245.32   11.12   0
   0  -4   8  223.70   18.13   0
   2  -4   8  517.82   11.14   0
  -2   4   8  536.26   16.59   0
   2  -4   8  459.69   11.87   0
   4  -2   8  562.49   12.45   0
   4   2   8  572.03   11.13   0
   2   4   8  547.51   12.39   0
   2   4   8  526.16   11.14   0
   4  -2   8  586.46   12.80   0
  -2   4   8  472.91   15.68   0
   4   2   8  587.02   11.69   0
   4  -4   8   22.90   12.43   0
   4  -4   8   16.53    7.79   0
   4   4   8   22.35   10.84   0
   4   4   8   16.42    6.99   0
   5  -1   8    5.19    7.39   0
   1  -5   8    3.61    9.81   0
   5   1   8   12.01    9.84   0
  -1   5   8    4.75   11.29   0
   1   5   8    7.49   11.06   0
   1   5   8    6.96   10.05   0
   5  -1   8    1.94   10.65   0
  -1   5   8    9.05   10.75   0
   5   1   8   11.83   10.32   0
   1  -5   8   14.16   15.00   0
   3  -5   8   24.62   12.12   0
   5  -3   8   17.28   11.97   0
  -3   5   8   11.16   14.44   0
   5   3   8   17.55   10.53   0
  -3   5   8    9.61   16.57   0
   5   3   8   11.44    7.08   0
   5  -3   8    9.77   11.43   0
   3   5   8   16.99    9.69   0
   3   5   8    9.26   11.19   0
   3  -5   8   10.87    8.89   0
   5  -5   8  439.95   11.51   0
   5   5   8  319.11   11.62   0
   5   5   8  322.13    9.87   0
   5  -5   8  368.86   16.46   0
   6   0   8   43.68    7.79   0
   0  -6   8   34.54   13.68   0
   0  -6   8   28.28   18.43   0
   0   6   8   30.20   10.94   0
   6   0   8   38.88   10.82   0
   0   6   8   54.80   12.09   0
   2  -6   8  244.26   12.81   0
   6  -2   8  260.84   12.64   0
   6   2   8  278.60   11.19   0
   6  -2   8  265.01    9.51   0
   2   6   8  230.43    8.57   0
  -2   6   8  234.32   16.41   0
   2   6   8  267.20   12.56   0
   2  -6   8  271.73   14.30   0
  -2   6   8  172.31   12.82   0
   6   2   8  276.82   11.45   0
  -4   6   8    4.99   19.47   0
   6   4   8    7.49    8.02   0
   6  -4   8    7.13   12.65   0
   6   4   8    7.91    7.43   0
   4   6   8    7.17   10.53   0
  -4   6   8    3.27   18.92   0
   4   6   8    5.84    8.59   0
   4  -6   8    2.00    8.87   0
   4  -6   8   13.59   15.48   0
   6  -4   8   11.07   14.14   0
   1  -7   8  334.01   13.65   0
   7  -1   8  329.26   13.16   0
   7   1   8  310.62    9.70   0
   7  -1   8  332.89   12.59   0
   1   7   8  248.12   12.41   0
   1  -7   8  332.41   18.59   0
  -1   7   8  294.55   11.74   0
   7   1   8  301.43   12.26   0
   1   7   8  308.29   14.12   0
  -1   7   8  243.44   15.14   0
   7   3   8    0.38   11.17   0
   7  -3   8    6.08    8.89   0
   3   7   8   -1.51    7.78   0
  -3   7   8    3.95   13.60   0
   3  -7   8   10.51    9.81   0
   3  -7   8    8.85   14.85   0
   7  -3   8   16.78   13.98   0
;
_shelx_hkl_checksum              50555
loop_
_space_group_symop_operation_xyz
'x, y, z'
'-x, -y, z'
'-y, x, z'
'y, -x, z'
'-x, y, -z+1/2'
'x, -y, -z+1/2'
'y, x, -z+1/2'
'-y, -x, -z+1/2'
'x+1/2, y+1/2, z+1/2'
'-x+1/2, -y+1/2, z+1/2'
'-y+1/2, x+1/2, z+1/2'
'y+1/2, -x+1/2, z+1/2'
'-x+1/2, y+1/2, -z+1'
'x+1/2, -y+1/2, -z+1'
'y+1/2, x+1/2, -z+1'
'-y+1/2, -x+1/2, -z+1'
'-x, -y, -z'
'x, y, -z'
'y, -x, -z'
'-y, x, -z'
'x, -y, z-1/2'
'-x, y, z-1/2'
'-y, -x, z-1/2'
'y, x, z-1/2'
'-x+1/2, -y+1/2, -z+1/2'
'x+1/2, y+1/2, -z+1/2'
'y+1/2, -x+1/2, -z+1/2'
'-y+1/2, x+1/2, -z+1/2'
'x+1/2, -y+1/2, z'
'-x+1/2, y+1/2, z'
'-y+1/2, -x+1/2, z'
'y+1/2, x+1/2, z'
loop_
_atom_site_label
_atom_site_type_symbol
_atom_site_fract_x
_atom_site_fract_y
_atom_site_fract_z
_atom_site_U_iso_or_equiv
_atom_site_adp_type
_atom_site_occupancy
_atom_site_site_symmetry_order
_atom_site_calc_flag
_atom_site_refinement_flags_posn
_atom_site_refinement_flags_adp
_atom_site_refinement_flags_occupancy
_atom_site_disorder_assembly
_atom_site_disorder_group
Ta2 Ta 0.5000 0.0000 0.2500 0.0048(3) Uani 1 8 d S T P . .
Ta1 Ta 0.07527(6) 0.22141(5) 0.0000 0.0050(2) Uani 1 2 d S T P . .
Ga1 Ga 0.33391(15) 0.16609(15) 0.0000 0.0053(5) Uani 1 4 d S T P . .
Ga2 Ga 0.0000 0.0000 0.2500 0.0046(5) Uani 1 8 d S T P . .
loop_
_atom_site_aniso_label
_atom_site_aniso_U_11
_atom_site_aniso_U_22
_atom_site_aniso_U_33
_atom_site_aniso_U_23
_atom_site_aniso_U_13
_atom_site_aniso_U_12
Ta2 0.0042(3) 0.0042(3) 0.0058(5) 0.000 0.000 0.000
Ta1 0.0033(3) 0.0044(3) 0.0072(3) 0.000 0.000 -0.00014(16)
Ga1 0.0032(6) 0.0032(6) 0.0095(10) 0.000 0.000 0.0009(7)
Ga2 0.0044(7) 0.0044(7) 0.0051(12) 0.000 0.000 0.000
loop_
_atom_type_symbol
_atom_type_description
_atom_type_scat_dispersion_real
_atom_type_scat_dispersion_imag
_atom_type_scat_source
Ga Ga 0.2307 1.6083 'International Tables Vol C Tables 4.2.6.8 and 6.1.1.4'
Ta Ta -0.7052 6.5227 'International Tables Vol C Tables 4.2.6.8 and 6.1.1.4'
loop_
_geom_angle_atom_site_label_1
_geom_angle_atom_site_label_2
_geom_angle_atom_site_label_3
_geom_angle
_geom_angle_site_symmetry_1
_geom_angle_site_symmetry_3
Ta2 Ta2 Ta2 180.0 17_656 17_655
Ta2 Ta2 Ga1 118.03(2) 17_656 .
Ta2 Ta2 Ga1 61.97(2) 17_655 .
Ta2 Ta2 Ga1 61.97(2) 17_656 27
Ta2 Ta2 Ga1 118.03(2) 17_655 27
Ga1 Ta2 Ga1 102.759(19) . 27
Ta2 Ta2 Ga1 61.97(2) 17_656 11_545
Ta2 Ta2 Ga1 118.03(2) 17_655 11_545
Ga1 Ta2 Ga1 102.759(19) . 11_545
Ga1 Ta2 Ga1 123.94(4) 27 11_545
Ta2 Ta2 Ga1 118.03(2) 17_656 17_655
Ta2 Ta2 Ga1 61.97(2) 17_655 17_655
Ga1 Ta2 Ga1 123.94(4) . 17_655
Ga1 Ta2 Ga1 102.758(19) 27 17_655
Ga1 Ta2 Ga1 102.758(19) 11_545 17_655
Ta2 Ta2 Ta1 113.429(4) 17_656 13_544
Ta2 Ta2 Ta1 66.571(4) 17_655 13_544
Ga1 Ta2 Ta1 102.512(16) . 13_544
Ga1 Ta2 Ta1 152.762(10) 27 13_544
Ga1 Ta2 Ta1 58.98(2) 11_545 13_544
Ga1 Ta2 Ta1 53.818(10) 17_655 13_544
Ta2 Ta2 Ta1 113.429(5) 17_656 19
Ta2 Ta2 Ta1 66.571(4) 17_655 19
Ga1 Ta2 Ta1 53.818(10) . 19
Ga1 Ta2 Ta1 152.762(10) 27 19
Ga1 Ta2 Ta1 58.98(2) 11_545 19
Ga1 Ta2 Ta1 102.512(16) 17_655 19
Ta1 Ta2 Ta1 54.40(2) 13_544 19
Ta2 Ta2 Ta1 66.571(4) 17_656 25
Ta2 Ta2 Ta1 113.429(5) 17_655 25
Ga1 Ta2 Ta1 58.98(2) . 25
Ga1 Ta2 Ta1 53.818(10) 27 25
Ga1 Ta2 Ta1 102.512(16) 11_545 25
Ga1 Ta2 Ta1 152.762(10) 17_655 25
Ta1 Ta2 Ta1 152.31(2) 13_544 25
Ta1 Ta2 Ta1 99.096(3) 19 25
Ta2 Ta2 Ta1 66.571(4) 17_656 23_656
Ta2 Ta2 Ta1 113.429(4) 17_655 23_656
Ga1 Ta2 Ta1 152.762(10) . 23_656
Ga1 Ta2 Ta1 53.818(10) 27 23_656
Ga1 Ta2 Ta1 102.512(16) 11_545 23_656
Ga1 Ta2 Ta1 58.98(2) 17_655 23_656
Ta1 Ta2 Ta1 99.096(3) 13_544 23_656
Ta1 Ta2 Ta1 152.31(2) 19 23_656
Ta1 Ta2 Ta1 105.420(18) 25 23_656
Ta2 Ta2 Ta1 113.429(4) 17_656 29
Ta2 Ta2 Ta1 66.571(4) 17_655 29
Ga1 Ta2 Ta1 53.818(10) . 29
Ga1 Ta2 Ta1 58.98(2) 27 29
Ga1 Ta2 Ta1 152.762(10) 11_545 29
Ga1 Ta2 Ta1 102.512(16) 17_655 29
Ta1 Ta2 Ta1 133.142(9) 13_544 29
Ta1 Ta2 Ta1 105.420(18) 19 29
Ta1 Ta2 Ta1 55.302(14) 25 29
Ta1 Ta2 Ta1 99.096(3) 23_656 29
Ta2 Ta2 Ta1 113.429(4) 17_656 3_655
Ta2 Ta2 Ta1 66.571(4) 17_655 3_655
Ga1 Ta2 Ta1 102.512(16) . 3_655
Ga1 Ta2 Ta1 58.98(2) 27 3_655
Ga1 Ta2 Ta1 152.762(10) 11_545 3_655
Ga1 Ta2 Ta1 53.818(10) 17_655 3_655
Ta1 Ta2 Ta1 105.420(18) 13_544 3_655
Ta1 Ta2 Ta1 133.142(9) 19 3_655
Ta1 Ta2 Ta1 99.096(3) 25 3_655
Ta1 Ta2 Ta1 55.302(14) 23_656 3_655
Ta1 Ta2 Ta1 54.40(2) 29 3_655
Ga1 Ta1 Ga2 95.91(3) . 17
Ga1 Ta1 Ga2 95.91(3) . .
Ga2 Ta1 Ga2 56.270(12) 17 .
Ga1 Ta1 Ga1 167.09(3) . 3
Ga2 Ta1 Ga1 95.48(4) 17 3
Ga2 Ta1 Ga1 95.48(4) . 3
Ga1 Ta1 Ta1 57.07(3) . 31
Ga2 Ta1 Ta1 142.286(10) 17 31
Ga2 Ta1 Ta1 142.286(10) . 31
Ga1 Ta1 Ta1 110.01(5) 3 31
Ga1 Ta1 Ga1 76.94(5) . 25
Ga2 Ta1 Ga1 145.35(3) 17 25
Ga2 Ta1 Ga1 90.350(18) . 25
Ga1 Ta1 Ga1 96.92(6) 3 25
Ta1 Ta1 Ga1 60.155(10) 31 25
Ga1 Ta1 Ga1 76.94(5) . 25_554
Ga2 Ta1 Ga1 90.350(18) 17 25_554
Ga2 Ta1 Ga1 145.35(3) . 25_554
Ga1 Ta1 Ga1 96.92(6) 3 25_554
Ta1 Ta1 Ga1 60.155(10) 31 25_554
Ga1 Ta1 Ga1 119.94(2) 25 25_554
Ga1 Ta1 Ta1 120.285(18) . 5_554
Ga2 Ta1 Ta1 56.606(8) 17 5_554
Ga2 Ta1 Ta1 104.929(18) . 5_554
Ga1 Ta1 Ta1 62.13(2) 3 5_554
Ta1 Ta1 Ta1 111.387(13) 31 5_554
Ga1 Ta1 Ta1 154.67(5) 25 5_554
Ga1 Ta1 Ta1 54.576(19) 25_554 5_554
Ga1 Ta1 Ta1 120.285(18) . 5
Ga2 Ta1 Ta1 104.929(18) 17 5
Ga2 Ta1 Ta1 56.606(8) . 5
Ga1 Ta1 Ta1 62.13(2) 3 5
Ta1 Ta1 Ta1 111.387(12) 31 5
Ga1 Ta1 Ta1 54.576(19) 25 5
Ga1 Ta1 Ta1 154.67(5) 25_554 5
Ta1 Ta1 Ta1 117.91(4) 5_554 5
Ga1 Ta1 Ta2 114.79(3) . 25
Ga2 Ta1 Ta2 149.22(2) 17 25
Ga2 Ta1 Ta2 118.955(11) . 25
Ga1 Ta1 Ta2 53.76(4) 3 25
Ta1 Ta1 Ta2 62.799(10) 31 25
Ga1 Ta1 Ta2 52.13(4) 25 25
Ga1 Ta1 Ta2 94.28(4) 25_554 25
Ta1 Ta1 Ta2 102.547(14) 5_554 25
Ta1 Ta1 Ta2 62.349(7) 5 25
Ga1 Ta1 Ta2 114.79(3) . 9_454
Ga2 Ta1 Ta2 118.955(11) 17 9_454
Ga2 Ta1 Ta2 149.22(2) . 9_454
Ga1 Ta1 Ta2 53.76(4) 3 9_454
Ta1 Ta1 Ta2 62.799(10) 31 9_454
Ga1 Ta1 Ta2 94.28(4) 25 9_454
Ga1 Ta1 Ta2 52.13(4) 25_554 9_454
Ta1 Ta1 Ta2 62.349(7) 5_554 9_454
Ta1 Ta1 Ta2 102.547(14) 5 9_454
Ta2 Ta1 Ta2 46.858(9) 25 9_454
Ga1 Ta1 Ta1 57.678(17) . 7
Ga2 Ta1 Ta1 96.620(17) 17 7
Ga2 Ta1 Ta1 52.286(10) . 7
Ga1 Ta1 Ta1 126.766(17) 3 7
Ta1 Ta1 Ta1 90.0 31 7
Ga1 Ta1 Ta1 50.69(4) 25 7
Ga1 Ta1 Ta1 134.52(4) 25_554 7
Ta1 Ta1 Ta1 153.219(9) 5_554 7
Ta1 Ta1 Ta1 64.649(13) 5 7
Ta2 Ta1 Ta1 101.554(9) 25 7
Ta2 Ta1 Ta1 144.419(11) 9_454 7
Ta1 Ga1 Ta1 65.85(6) . 31
Ta1 Ga1 Ta2 137.809(10) . .
Ta1 Ga1 Ta2 137.809(10) 31 .
Ta1 Ga1 Ta2 137.809(10) . 17_655
Ta1 Ga1 Ta2 137.809(10) 31 17_655
Ta2 Ga1 Ta2 56.06(4) . 17_655
Ta1 Ga1 Ta1 77.08(3) . 19
Ta1 Ga1 Ta1 142.94(7) 31 19
Ta2 Ga1 Ta1 72.42(4) . 19
Ta2 Ga1 Ta1 72.42(4) 17_655 19
Ta1 Ga1 Ta1 142.94(7) . 29
Ta1 Ga1 Ta1 77.08(3) 31 29
Ta2 Ga1 Ta1 72.42(4) . 29
Ta2 Ga1 Ta1 72.42(4) 17_655 29
Ta1 Ga1 Ta1 139.98(9) 19 29
Ta1 Ga1 Ta1 71.64(3) . 7_554
Ta1 Ga1 Ta1 103.06(5) 31 7_554
Ta2 Ga1 Ta1 116.98(6) . 7_554
Ta2 Ga1 Ta1 68.90(3) 17_655 7_554
Ta1 Ga1 Ta1 63.291(14) 19 7_554
Ta1 Ga1 Ta1 119.06(2) 29 7_554
Ta1 Ga1 Ta1 103.06(5) . 25
Ta1 Ga1 Ta1 71.64(3) 31 25
Ta2 Ga1 Ta1 68.90(3) . 25
Ta2 Ga1 Ta1 116.98(6) 17_655 25
Ta1 Ga1 Ta1 119.06(2) 19 25
Ta1 Ga1 Ta1 63.291(14) 29 25
Ta1 Ga1 Ta1 173.92(9) 7_554 25
Ta1 Ga1 Ta1 103.06(5) . 25_554
Ta1 Ga1 Ta1 71.64(3) 31 25_554
Ta2 Ga1 Ta1 116.98(6) . 25_554
Ta2 Ga1 Ta1 68.90(3) 17_655 25_554
Ta1 Ga1 Ta1 119.06(2) 19 25_554
Ta1 Ga1 Ta1 63.291(14) 29 25_554
Ta1 Ga1 Ta1 59.69(2) 7_554 25_554
Ta1 Ga1 Ta1 119.94(2) 25 25_554
Ta1 Ga1 Ta1 71.64(3) . 7
Ta1 Ga1 Ta1 103.06(5) 31 7
Ta2 Ga1 Ta1 68.90(3) . 7
Ta2 Ga1 Ta1 116.98(6) 17_655 7
Ta1 Ga1 Ta1 63.291(14) 19 7
Ta1 Ga1 Ta1 119.06(2) 29 7
Ta1 Ga1 Ta1 119.94(2) 7_554 7
Ta1 Ga1 Ta1 59.69(2) 25 7
Ta1 Ga1 Ta1 173.92(9) 25_554 7
Ga2 Ga2 Ga2 180.0 17_556 17
Ga2 Ga2 Ta1 118.135(6) 17_556 17
Ga2 Ga2 Ta1 61.865(6) 17 17
Ga2 Ga2 Ta1 61.865(6) 17_556 7
Ga2 Ga2 Ta1 118.135(6) 17 7
Ta1 Ga2 Ta1 134.13(2) 17 7
Ga2 Ga2 Ta1 118.135(6) 17_556 3
Ga2 Ga2 Ta1 61.865(6) 17 3
Ta1 Ga2 Ta1 77.152(5) 17 3
Ta1 Ga2 Ta1 147.02(2) 7 3
Ga2 Ga2 Ta1 61.865(6) 17_556 5
Ga2 Ga2 Ta1 118.135(6) 17 5
Ta1 Ga2 Ta1 147.02(2) 17 5
Ta1 Ga2 Ta1 77.152(5) 7 5
Ta1 Ga2 Ta1 75.43(2) 3 5
Ga2 Ga2 Ta1 61.865(6) 17_556 23_556
Ga2 Ga2 Ta1 118.135(6) 17 23_556
Ta1 Ga2 Ta1 75.43(2) 17 23_556
Ta1 Ga2 Ta1 123.730(12) 7 23_556
Ta1 Ga2 Ta1 66.787(17) 3 23_556
Ta1 Ga2 Ta1 77.152(5) 5 23_556
Ga2 Ga2 Ta1 61.865(6) 17_556 21_556
Ga2 Ga2 Ta1 118.135(6) 17 21_556
Ta1 Ga2 Ta1 66.787(17) 17 21_556
Ta1 Ga2 Ta1 77.152(5) 7 21_556
Ta1 Ga2 Ta1 134.13(2) 3 21_556
Ta1 Ga2 Ta1 123.730(12) 5 21_556
Ta1 Ga2 Ta1 77.152(5) 23_556 21_556
Ga2 Ga2 Ta1 118.135(6) 17_556 19
Ga2 Ga2 Ta1 61.865(6) 17 19
Ta1 Ga2 Ta1 77.152(5) 17 19
Ta1 Ga2 Ta1 66.787(17) 7 19
Ta1 Ga2 Ta1 123.730(12) 3 19
Ta1 Ga2 Ta1 134.13(2) 5 19
Ta1 Ga2 Ta1 147.02(2) 23_556 19
Ta1 Ga2 Ta1 75.43(2) 21_556 19
Ga2 Ga2 Ta1 118.135(6) 17_556 .
Ga2 Ga2 Ta1 61.865(6) 17 .
Ta1 Ga2 Ta1 123.730(12) 17 .
Ta1 Ga2 Ta1 75.43(2) 7 .
Ta1 Ga2 Ta1 77.152(5) 3 .
Ta1 Ga2 Ta1 66.787(17) 5 .
Ta1 Ga2 Ta1 134.13(2) 23_556 .
Ta1 Ga2 Ta1 147.02(2) 21_556 .
Ta1 Ga2 Ta1 77.152(5) 19 .
loop_
_geom_bond_atom_site_label_1
_geom_bond_atom_site_label_2
_geom_bond_distance
_geom_bond_site_symmetry_2
Ta2 Ta2 2.5560(2) 17_656
Ta2 Ta2 2.5561(2) 17_655
Ta2 Ga1 2.720(2) .
Ta2 Ga1 2.720(2) 27
Ta2 Ga1 2.720(2) 11_545
Ta2 Ga1 2.720(2) 17_655
Ta2 Ta1 3.2142(5) 13_544
Ta2 Ta1 3.2142(5) 19
Ta2 Ta1 3.2142(5) 25
Ta2 Ta1 3.2142(5) 23_656
Ta2 Ta1 3.2142(5) 29
Ta2 Ta1 3.2142(5) 3_655
Ta1 Ga1 2.7031(19) .
Ta1 Ga2 2.7103(5) 17
Ta1 Ga2 2.7103(5) .
Ta1 Ga1 2.7215(9) 3
Ta1 Ta1 2.9385(11) 31
Ta1 Ga1 2.9524(3) 25
Ta1 Ga1 2.9524(4) 25_554
Ta1 Ta1 2.9834(6) 5_554
Ta1 Ta1 2.9834(6) 5
Ta1 Ta2 3.2142(5) 25
Ta1 Ta2 3.2142(5) 9_454
Ta1 Ta1 3.3158(7) 7
Ga1 Ta1 2.7031(19) 31
Ga1 Ta2 2.720(2) 17_655
Ga1 Ta1 2.7215(9) 19
Ga1 Ta1 2.7215(9) 29
Ga1 Ta1 2.9524(4) 7_554
Ga1 Ta1 2.9524(4) 25
Ga1 Ta1 2.9524(4) 25_554
Ga1 Ta1 2.9524(4) 7
Ga2 Ga2 2.5560(2) 17_556
Ga2 Ga2 2.5561(2) 17
Ga2 Ta1 2.7102(5) 17
Ga2 Ta1 2.7102(5) 7
Ga2 Ta1 2.7102(5) 3
Ga2 Ta1 2.7102(5) 5
Ga2 Ta1 2.7102(5) 23_556
Ga2 Ta1 2.7102(5) 21_556
Ga2 Ta1 2.7102(5) 19
