#------------------------------------------------------------------------------
#$Date: 2021-03-26 12:00:29 +0200 (Fri, 26 Mar 2021) $
#$Revision: 263361 $
#$URL: file:///home/coder/svn-repositories/cod/cif/1/56/12/1561293.cif $
#------------------------------------------------------------------------------
#
# This file is available in the Crystallography Open Database (COD),
# http://www.crystallography.net/
#
# All data on this site have been placed in the public domain by the
# contributors.
#
data_1561293
loop_
_publ_author_name
'Bednarchuk, Tamara J.'
'Kinzhybalo, Vasyl'
'Markiewicz, Ewa'
'Hilczer, Bo\.zena'
'Pietraszko, Adam'
_publ_section_title
;
 Structure, dielectric and electric properties of diisobutylammonium
 hydrogen sulfate crystal
;
_journal_name_full               'Journal of Solid State Chemistry'
_journal_page_first              753
_journal_page_last               761
_journal_paper_doi               10.1016/j.jssc.2017.11.042
_journal_volume                  258
_journal_year                    2018
_chemical_formula_moiety         'H O4 S, C8 H20 N'
_chemical_formula_sum            'C8 H21 N O4 S'
_chemical_formula_weight         227.32
_space_group_crystal_system      triclinic
_space_group_IT_number           2
_space_group_name_Hall           '-P 1'
_space_group_name_H-M_alt        'P -1'
_atom_sites_solution_hydrogens   geom
_atom_sites_solution_primary     direct
_cell_angle_alpha                65.46(3)
_cell_angle_beta                 89.74(3)
_cell_angle_gamma                75.82(3)
_cell_formula_units_Z            2
_cell_length_a                   8.128(3)
_cell_length_b                   8.400(3)
_cell_length_c                   9.856(3)
_cell_measurement_reflns_used    5494
_cell_measurement_temperature    295.00(13)
_cell_measurement_theta_max      29.2370
_cell_measurement_theta_min      3.6360
_cell_volume                     589.9(4)
_computing_cell_refinement       'CrysAlisPro 1.171.38.41 (Rigaku OD, 2015)'
_computing_data_collection       'CrysAlisPro 1.171.38.41 (Rigaku OD, 2015)'
_computing_data_reduction        'CrysAlisPro 1.171.38.41 (Rigaku OD, 2015)'
_computing_molecular_graphics    'Diamond (Brandenburg, 1997)'
_computing_publication_material  'Olex2 (Dolomanov et al., 2009)'
_computing_structure_refinement  'ShelXL (Sheldrick, 2015)'
_computing_structure_solution    'ShelXS (Sheldrick, 2008)'
_diffrn_ambient_temperature      295.00(13)
_diffrn_measured_fraction_theta_full 0.998
_diffrn_measured_fraction_theta_max 0.998
_diffrn_measurement_device_type  'Xcalibur, Atlas'
_diffrn_measurement_method       '\w scans'
_diffrn_radiation_type           MoK\a
_diffrn_radiation_wavelength     0.71073
_diffrn_reflns_av_R_equivalents  0.0210
_diffrn_reflns_av_unetI/netI     0.0207
_diffrn_reflns_Laue_measured_fraction_full 0.998
_diffrn_reflns_Laue_measured_fraction_max 0.998
_diffrn_reflns_limit_h_max       10
_diffrn_reflns_limit_h_min       -10
_diffrn_reflns_limit_k_max       10
_diffrn_reflns_limit_k_min       -10
_diffrn_reflns_limit_l_max       12
_diffrn_reflns_limit_l_min       -12
_diffrn_reflns_number            9651
_diffrn_reflns_point_group_measured_fraction_full 0.998
_diffrn_reflns_point_group_measured_fraction_max 0.998
_diffrn_reflns_theta_full        25.995
_diffrn_reflns_theta_max         25.995
_diffrn_reflns_theta_min         3.252
_exptl_absorpt_coefficient_mu    0.267
_exptl_absorpt_correction_T_max  1.00000
_exptl_absorpt_correction_T_min  0.99586
_exptl_absorpt_correction_type   analytical
_exptl_absorpt_process_details
;
CrysAlisPro 1.171.38.41 (Rigaku Oxford Diffraction, 2015)
Analytical numeric absorption correction using a multifaceted crystal
			model based on expressions derived by R.C. Clark & J.S. Reid.
(Clark, R. C. & Reid, J. S. (1995). Acta Cryst. A51, 887-897)
Empirical absorption correction using spherical harmonics,
 implemented in SCALE3 ABSPACK scaling algorithm.
;
_exptl_crystal_colour            colourless
_exptl_crystal_colour_primary    colourless
_exptl_crystal_density_diffrn    1.280
_exptl_crystal_description       block
_exptl_crystal_F_000             248
_exptl_crystal_size_max          0.238
_exptl_crystal_size_mid          0.213
_exptl_crystal_size_min          0.091
_refine_diff_density_max         0.268
_refine_diff_density_min         -0.411
_refine_diff_density_rms         0.047
_refine_ls_extinction_coef       .
_refine_ls_extinction_method     none
_refine_ls_goodness_of_fit_ref   1.057
_refine_ls_hydrogen_treatment    constr
_refine_ls_matrix_type           full
_refine_ls_number_parameters     132
_refine_ls_number_reflns         2315
_refine_ls_number_restraints     0
_refine_ls_restrained_S_all      1.057
_refine_ls_R_factor_all          0.0356
_refine_ls_R_factor_gt           0.0298
_refine_ls_shift/su_max          0.001
_refine_ls_shift/su_mean         0.000
_refine_ls_structure_factor_coef Fsqd
_refine_ls_weighting_details
'w=1/[\s^2^(Fo^2^)+(0.0344P)^2^+0.2925P] where P=(Fo^2^+2Fc^2^)/3'
_refine_ls_weighting_scheme      calc
_refine_ls_wR_factor_gt          0.0752
_refine_ls_wR_factor_ref         0.0783
_reflns_Friedel_coverage         0.000
_reflns_Friedel_fraction_full    .
_reflns_Friedel_fraction_max     .
_reflns_number_gt                2073
_reflns_number_total             2315
_reflns_threshold_expression     'I > 2\s(I)'
_iucr_refine_instructions_details
;

    dibahs_iii.res created by SHELXL-2014/7

TITL dibaHST in P-1 #2
REM reset to P-1 #2
CELL 0.71073 8.128 8.4 9.856 65.456 89.74 75.82
ZERR 2 0.003 0.003 0.003 0.03 0.03 0.03
LATT 1
SFAC C H N O S
UNIT 16 42 2 8 2
EQIV $1 3-X,-Y,2-Z
EQIV $2 2-X,-Y,2-Z
EQIV $3 2-X,1-Y,2-Z
 
L.S. 4
PLAN  20
SIZE 0.238 0.213 0.091
TEMP 21.85(12)
HTAB O3 O4_$1
HTAB N1 O2_$2
HTAB N1 O1
HTAB C2 O1_$3
MORE -1
HTAB 2
BOND $H
CONF
fmap 2
acta 52
OMIT 0 52
REM <olex2.extras>
REM <HklSrc "%.\\dibaHSTa.hkl">
REM </olex2.extras>
 
WGHT    0.034400    0.292500
FVAR       9.26108
S1    5    1.271868    0.174731    0.981874    11.00000    0.01291    0.01662 =
         0.01994   -0.00865    0.00140   -0.00535
O1    4    1.165925    0.340264    0.982583    11.00000    0.01800    0.01741 =
         0.02788   -0.01192    0.00329   -0.00591
O2    4    1.172919    0.061533    0.963888    11.00000    0.01940    0.01782 =
         0.02640   -0.01093   -0.00121   -0.00701
O3    4    1.382027    0.070786    1.134034    11.00000    0.02074    0.02415 =
         0.02489   -0.00939   -0.00485   -0.00427
AFIX 147
H3A   2    1.449688   -0.020302    1.135571    11.00000   -1.50000
AFIX   0
O4    4    1.391665    0.217241    0.864989    11.00000    0.02651    0.02803 =
         0.02816   -0.01060    0.01360   -0.01224
N1    3    0.814850    0.304328    0.972398    11.00000    0.01427    0.01554 =
         0.01579   -0.00760    0.00165   -0.00419
AFIX  23
H1A   2    0.842236    0.195195    0.972110    11.00000   -1.20000
H1B   2    0.911087    0.328174    0.990609    11.00000   -1.20000
AFIX   0
C2    1    0.704335    0.301120    1.095155    11.00000    0.01425    0.01609 =
         0.01640   -0.00853    0.00298   -0.00440
AFIX  23
H2A   2    0.601551    0.270510    1.077000    11.00000   -1.20000
H2B   2    0.670467    0.421648    1.092228    11.00000   -1.20000
AFIX   0
C4    1    0.660811    0.159046    1.363173    11.00000    0.02055    0.02691 =
         0.01714   -0.00717    0.00219   -0.00641
AFIX 137
H4A   2    0.566089    0.125945    1.334559    11.00000   -1.50000
H4B   2    0.621315    0.276308    1.363575    11.00000   -1.50000
H4C   2    0.712246    0.070719    1.461714    11.00000   -1.50000
AFIX   0
C7    1    0.830435    0.434054    0.693029    11.00000    0.01474    0.02142 =
         0.01615   -0.00820    0.00227   -0.00567
AFIX  13
H7    2    0.947649    0.433751    0.716260    11.00000   -1.20000
AFIX   0
C6    1    0.728096    0.443669    0.820973    11.00000    0.01687    0.01608 =
         0.01512   -0.00623    0.00113   -0.00326
AFIX  23
H6A   2    0.710088    0.563691    0.817867    11.00000   -1.20000
H6B   2    0.617044    0.426183    0.806327    11.00000   -1.20000
AFIX   0
C3    1    0.792627    0.165683    1.251187    11.00000    0.01806    0.01453 =
         0.01630   -0.00670    0.00216   -0.00329
AFIX  13
H3    2    0.832627    0.045225    1.252162    11.00000   -1.20000
AFIX   0
C8    1    0.835891    0.261986    0.673809    11.00000    0.02812    0.02577 =
         0.01957   -0.01339    0.00477   -0.00641
AFIX 137
H8A   2    0.721800    0.260040    0.651328    11.00000   -1.50000
H8B   2    0.887718    0.157530    0.764932    11.00000   -1.50000
H8C   2    0.901590    0.260007    0.593061    11.00000   -1.50000
AFIX   0
C9    1    0.752567    0.602447    0.548203    11.00000    0.02705    0.02612 =
         0.01895   -0.00681    0.00571   -0.00574
AFIX 137
H9A   2    0.752204    0.709399    0.561580    11.00000   -1.50000
H9B   2    0.637569    0.604652    0.523826    11.00000   -1.50000
H9C   2    0.818967    0.599172    0.468141    11.00000   -1.50000
AFIX   0
C5    1    0.945017    0.217385    1.294394    11.00000    0.02100    0.02915 =
         0.01595   -0.00595   -0.00058   -0.00918
AFIX 137
H5A   2    0.908349    0.338232    1.287937    11.00000   -1.50000
H5B   2    1.029965    0.212626    1.227173    11.00000   -1.50000
H5C   2    0.992658    0.133841    1.395268    11.00000   -1.50000
AFIX   0
HKLF 4
 
REM  dibaHST in P-1 #2
REM R1 =  0.0298 for    2073 Fo > 4sig(Fo)  and  0.0356 for all    2315 data
REM    132 parameters refined using      0 restraints
 
END  
     
WGHT      0.0343      0.2935 

REM Instructions for potential hydrogen bonds
HTAB O3 S1_$1
HTAB O3 O4_$1
HTAB N1 O2_$2
HTAB N1 S1
HTAB N1 O1
EQIV $4 x-1, y, z
HTAB C2 O3_$4
HTAB C2 O1_$3
HTAB C3 O2_$2

REM Highest difference peak  0.268,  deepest hole -0.411,  1-sigma level  0.047
Q1    1   0.7524  0.2316  1.1752  11.00000  0.05    0.27
Q2    1   1.4360  0.1274  0.8596  11.00000  0.05    0.26
Q3    1   0.7752  0.4397  0.7493  11.00000  0.05    0.25
Q4    1   0.8255  0.3546  0.6800  11.00000  0.05    0.20
Q5    1   0.8551  0.2033  1.2630  11.00000  0.05    0.20
Q6    1   0.7623  0.2996  1.0390  11.00000  0.05    0.19
Q7    1   1.4247  0.2440  0.8733  11.00000  0.05    0.18
Q8    1   0.7814  0.5112  0.6239  11.00000  0.05    0.17
Q9    1   1.3453  0.2748  0.8034  11.00000  0.05    0.17
Q10   1   0.7288  0.1587  1.2972  11.00000  0.05    0.17
Q11   1   0.7602  0.3721  0.8948  11.00000  0.05    0.17
Q12   1   1.3617  0.2007  0.9151  11.00000  0.05    0.16
Q13   1   1.1755  0.0384  0.9366  11.00000  0.05    0.16
Q14   1   1.1019  0.3398  0.9905  11.00000  0.05    0.16
Q15   1   1.1399  0.0355  0.9722  11.00000  0.05    0.15
Q16   1   1.0393  0.2830  1.2188  11.00000  0.05    0.15
Q17   1   0.8197  0.1003  1.2540  11.00000  0.05    0.15
Q18   1   1.1508  0.3567  1.0272  11.00000  0.05    0.14
Q19   1   0.5796  0.2623  1.0399  11.00000  0.05    0.13
Q20   1   1.2140  0.2807  0.9858  11.00000  0.05    0.13

  REM The information below was added by Olex2.
  REM
  REM R1 = 0.0298 for 2073 Fo > 4sig(Fo) and 0.0356 for all 10696 data
  REM n/a parameters refined using n/a restraints
  REM Highest difference peak 0.27, deepest hole -0.41
  REM Mean Shift 0, Max Shift -0.001.

  REM +++ Tabular Listing of Refinement Information +++
  REM R1_all = 0.0356
  REM R1_gt = 0.0298
  REM wR_ref = 0.0783
  REM GOOF = 1.057
  REM Shift_max = -0.001
  REM Shift_mean = 0
  REM Reflections_all = 10696
  REM Reflections_gt = 2073
  REM Parameters = n/a
  REM Hole = -0.41
  REM Peak = 0.27
  REM Flack = n/a

  
;
_cod_data_source_file            mmc5.cif
_cod_data_source_block           dibahs_iii
_cod_original_cell_volume        589.8(4)
_cod_database_code               1561293
_shelx_space_group_comment
;
The symmetry employed for this shelxl refinement is uniquely defined
by the following loop, which should always be used as a source of
symmetry information in preference to the above space-group names.
They are only intended as comments.
;
_shelx_estimated_absorpt_t_max   0.976
_shelx_estimated_absorpt_t_min   0.939
_olex2_refinement_description
;
1. Fixed Uiso
 At 1.2 times of:
  All C(H) groups, All C(H,H) groups, All N(H,H) groups
 At 1.5 times of:
  All C(H,H,H) groups, All O(H) groups
2.a Ternary CH refined with riding coordinates:
 C7(H7), C3(H3)
2.b Secondary CH2 refined with riding coordinates:
 N1(H1A,H1B), C2(H2A,H2B), C6(H6A,H6B)
2.c Idealised Me refined as rotating group:
 C4(H4A,H4B,H4C), C8(H8A,H8B,H8C), C9(H9A,H9B,H9C), C5(H5A,H5B,H5C)
2.d Idealised tetrahedral OH refined as rotating group:
 O3(H3A)
;
loop_
_space_group_symop_operation_xyz
'x, y, z'
'-x, -y, -z'
loop_
_atom_site_label
_atom_site_type_symbol
_atom_site_fract_x
_atom_site_fract_y
_atom_site_fract_z
_atom_site_U_iso_or_equiv
_atom_site_adp_type
_atom_site_occupancy
_atom_site_site_symmetry_order
_atom_site_calc_flag
_atom_site_refinement_flags_posn
_atom_site_refinement_flags_adp
_atom_site_refinement_flags_occupancy
_atom_site_disorder_assembly
_atom_site_disorder_group
S1 S 1.27187(4) 0.17473(5) 0.98187(4) 0.01592(12) Uani 1 1 d . . . . .
O1 O 1.16592(13) 0.34026(13) 0.98258(12) 0.0201(2) Uani 1 1 d . . . . .
O2 O 1.17292(13) 0.06153(13) 0.96389(12) 0.0203(2) Uani 1 1 d . . . . .
O3 O 1.38203(14) 0.07079(15) 1.13403(12) 0.0239(3) Uani 1 1 d . . . . .
H3A H 1.4497 -0.0203 1.1356 0.036 Uiso 1 1 calc GR . . . .
O4 O 1.39167(14) 0.21724(15) 0.86499(12) 0.0271(3) Uani 1 1 d . . . . .
N1 N 0.81485(15) 0.30433(16) 0.97240(13) 0.0148(3) Uani 1 1 d . . . . .
H1A H 0.8422 0.1952 0.9721 0.018 Uiso 1 1 calc R . . . .
H1B H 0.9111 0.3282 0.9906 0.018 Uiso 1 1 calc R . . . .
C2 C 0.70434(18) 0.30112(19) 1.09516(15) 0.0150(3) Uani 1 1 d . . . . .
H2A H 0.6016 0.2705 1.0770 0.018 Uiso 1 1 calc R . . . .
H2B H 0.6705 0.4216 1.0922 0.018 Uiso 1 1 calc R . . . .
C4 C 0.6608(2) 0.1590(2) 1.36317(17) 0.0223(3) Uani 1 1 d . . . . .
H4A H 0.5661 0.1259 1.3346 0.033 Uiso 1 1 calc GR . . . .
H4B H 0.6213 0.2763 1.3636 0.033 Uiso 1 1 calc GR . . . .
H4C H 0.7122 0.0707 1.4617 0.033 Uiso 1 1 calc GR . . . .
C7 C 0.83044(18) 0.43405(19) 0.69303(16) 0.0172(3) Uani 1 1 d . . . . .
H7 H 0.9476 0.4338 0.7163 0.021 Uiso 1 1 calc R . . . .
C6 C 0.72810(18) 0.44367(19) 0.82097(15) 0.0164(3) Uani 1 1 d . . . . .
H6A H 0.7101 0.5637 0.8179 0.020 Uiso 1 1 calc R . . . .
H6B H 0.6170 0.4262 0.8063 0.020 Uiso 1 1 calc R . . . .
C3 C 0.79263(18) 0.16568(19) 1.25119(16) 0.0165(3) Uani 1 1 d . . . . .
H3 H 0.8326 0.0452 1.2522 0.020 Uiso 1 1 calc R . . . .
C8 C 0.8359(2) 0.2620(2) 0.67381(17) 0.0234(3) Uani 1 1 d . . . . .
H8A H 0.7218 0.2600 0.6513 0.035 Uiso 1 1 calc GR . . . .
H8B H 0.8877 0.1575 0.7649 0.035 Uiso 1 1 calc GR . . . .
H8C H 0.9016 0.2600 0.5931 0.035 Uiso 1 1 calc GR . . . .
C9 C 0.7526(2) 0.6024(2) 0.54820(17) 0.0253(4) Uani 1 1 d . . . . .
H9A H 0.7522 0.7094 0.5616 0.038 Uiso 1 1 calc GR . . . .
H9B H 0.6376 0.6047 0.5238 0.038 Uiso 1 1 calc GR . . . .
H9C H 0.8190 0.5992 0.4681 0.038 Uiso 1 1 calc GR . . . .
C5 C 0.9450(2) 0.2174(2) 1.29439(17) 0.0228(3) Uani 1 1 d . . . . .
H5A H 0.9083 0.3382 1.2879 0.034 Uiso 1 1 calc GR . . . .
H5B H 1.0300 0.2126 1.2272 0.034 Uiso 1 1 calc GR . . . .
H5C H 0.9927 0.1338 1.3953 0.034 Uiso 1 1 calc GR . . . .
loop_
_atom_site_aniso_label
_atom_site_aniso_U_11
_atom_site_aniso_U_22
_atom_site_aniso_U_33
_atom_site_aniso_U_23
_atom_site_aniso_U_13
_atom_site_aniso_U_12
S1 0.01291(19) 0.01662(19) 0.0199(2) -0.00865(15) 0.00140(13) -0.00535(14)
O1 0.0180(5) 0.0174(5) 0.0279(6) -0.0119(4) 0.0033(4) -0.0059(4)
O2 0.0194(5) 0.0178(5) 0.0264(6) -0.0109(4) -0.0012(4) -0.0070(4)
O3 0.0207(6) 0.0241(6) 0.0249(6) -0.0094(5) -0.0048(5) -0.0043(5)
O4 0.0265(6) 0.0280(6) 0.0282(6) -0.0106(5) 0.0136(5) -0.0122(5)
N1 0.0143(6) 0.0155(6) 0.0158(6) -0.0076(5) 0.0017(5) -0.0042(5)
C2 0.0143(7) 0.0161(7) 0.0164(7) -0.0085(6) 0.0030(5) -0.0044(6)
C4 0.0205(8) 0.0269(8) 0.0171(8) -0.0072(6) 0.0022(6) -0.0064(6)
C7 0.0147(7) 0.0214(7) 0.0162(7) -0.0082(6) 0.0023(6) -0.0057(6)
C6 0.0169(7) 0.0161(7) 0.0151(7) -0.0062(6) 0.0011(5) -0.0033(6)
C3 0.0181(7) 0.0145(7) 0.0163(7) -0.0067(6) 0.0022(6) -0.0033(6)
C8 0.0281(9) 0.0258(8) 0.0196(8) -0.0134(7) 0.0048(6) -0.0064(7)
C9 0.0271(8) 0.0261(8) 0.0189(8) -0.0068(7) 0.0057(6) -0.0057(7)
C5 0.0210(8) 0.0292(8) 0.0160(7) -0.0060(6) -0.0006(6) -0.0092(7)
loop_
_atom_type_symbol
_atom_type_description
_atom_type_scat_dispersion_real
_atom_type_scat_dispersion_imag
_atom_type_scat_source
C C 0.0033 0.0016 'International Tables Vol C Tables 4.2.6.8 and 6.1.1.4'
H H 0.0000 0.0000 'International Tables Vol C Tables 4.2.6.8 and 6.1.1.4'
N N 0.0061 0.0033 'International Tables Vol C Tables 4.2.6.8 and 6.1.1.4'
O O 0.0106 0.0060 'International Tables Vol C Tables 4.2.6.8 and 6.1.1.4'
S S 0.1246 0.1234 'International Tables Vol C Tables 4.2.6.8 and 6.1.1.4'
loop_
_exptl_crystal_face_index_h
_exptl_crystal_face_index_k
_exptl_crystal_face_index_l
_exptl_crystal_face_perp_dist
0 0 1 0.0264
0 0 -1 0.0643
-1 0 0 0.0921
1 0 0 0.1099
1 5 3 0.0098
-1 -5 -3 0.2098
loop_
_geom_angle_atom_site_label_1
_geom_angle_atom_site_label_2
_geom_angle_atom_site_label_3
_geom_angle
_geom_angle_site_symmetry_1
_geom_angle_site_symmetry_3
O1 S1 O2 112.68(7) . .
O1 S1 O3 106.41(7) . .
O1 S1 O4 110.44(7) . .
O2 S1 O3 109.08(7) . .
O2 S1 O4 111.28(7) . .
O4 S1 O3 106.65(7) . .
S1 O3 H3A 109.5 . .
H1A N1 H1B 107.9 . .
C2 N1 H1A 109.2 . .
C2 N1 H1B 109.2 . .
C2 N1 C6 112.21(11) . .
C6 N1 H1A 109.2 . .
C6 N1 H1B 109.2 . .
N1 C2 H2A 108.9 . .
N1 C2 H2B 108.9 . .
N1 C2 C3 113.19(11) . .
H2A C2 H2B 107.8 . .
C3 C2 H2A 108.9 . .
C3 C2 H2B 108.9 . .
H4A C4 H4B 109.5 . .
H4A C4 H4C 109.5 . .
H4B C4 H4C 109.5 . .
C3 C4 H4A 109.5 . .
C3 C4 H4B 109.5 . .
C3 C4 H4C 109.5 . .
C6 C7 H7 108.5 . .
C6 C7 C9 109.16(12) . .
C8 C7 H7 108.5 . .
C8 C7 C6 111.68(12) . .
C8 C7 C9 110.55(12) . .
C9 C7 H7 108.5 . .
N1 C6 C7 112.84(12) . .
N1 C6 H6A 109.0 . .
N1 C6 H6B 109.0 . .
C7 C6 H6A 109.0 . .
C7 C6 H6B 109.0 . .
H6A C6 H6B 107.8 . .
C2 C3 C4 107.96(12) . .
C2 C3 H3 108.8 . .
C4 C3 H3 108.8 . .
C5 C3 C2 111.86(12) . .
C5 C3 C4 110.56(12) . .
C5 C3 H3 108.8 . .
C7 C8 H8A 109.5 . .
C7 C8 H8B 109.5 . .
C7 C8 H8C 109.5 . .
H8A C8 H8B 109.5 . .
H8A C8 H8C 109.5 . .
H8B C8 H8C 109.5 . .
C7 C9 H9A 109.5 . .
C7 C9 H9B 109.5 . .
C7 C9 H9C 109.5 . .
H9A C9 H9B 109.5 . .
H9A C9 H9C 109.5 . .
H9B C9 H9C 109.5 . .
C3 C5 H5A 109.5 . .
C3 C5 H5B 109.5 . .
C3 C5 H5C 109.5 . .
H5A C5 H5B 109.5 . .
H5A C5 H5C 109.5 . .
H5B C5 H5C 109.5 . .
loop_
_geom_bond_atom_site_label_1
_geom_bond_atom_site_label_2
_geom_bond_distance
_geom_bond_site_symmetry_2
S1 O1 1.4479(12) .
S1 O2 1.4486(11) .
S1 O3 1.5344(13) .
S1 O4 1.4904(12) .
O3 H3A 0.8200 .
N1 H1A 0.8900 .
N1 H1B 0.8900 .
N1 C2 1.4988(18) .
N1 C6 1.4995(19) .
C2 H2A 0.9700 .
C2 H2B 0.9700 .
C2 C3 1.527(2) .
C4 H4A 0.9600 .
C4 H4B 0.9600 .
C4 H4C 0.9600 .
C4 C3 1.529(2) .
C7 H7 0.9800 .
C7 C6 1.527(2) .
C7 C8 1.524(2) .
C7 C9 1.527(2) .
C6 H6A 0.9700 .
C6 H6B 0.9700 .
C3 H3 0.9800 .
C3 C5 1.525(2) .
C8 H8A 0.9600 .
C8 H8B 0.9600 .
C8 H8C 0.9600 .
C9 H9A 0.9600 .
C9 H9B 0.9600 .
C9 H9C 0.9600 .
C5 H5A 0.9600 .
C5 H5B 0.9600 .
C5 H5C 0.9600 .
loop_
_geom_hbond_atom_site_label_D
_geom_hbond_atom_site_label_H
_geom_hbond_atom_site_label_A
_geom_hbond_distance_DH
_geom_hbond_distance_HA
_geom_hbond_distance_DA
_geom_hbond_angle_DHA
_geom_hbond_site_symmetry_A
O3 H3A O4 0.82 1.83 2.6528(19) 177.2 2_857
N1 H1A O2 0.89 2.02 2.8454(19) 154.6 2_757
N1 H1B O1 0.89 2.10 2.9485(19) 159.6 .
C2 H2B O1 0.97 2.53 3.226(2) 129.0 2_767
loop_
_geom_torsion_atom_site_label_1
_geom_torsion_atom_site_label_2
_geom_torsion_atom_site_label_3
_geom_torsion_atom_site_label_4
_geom_torsion
_geom_torsion_site_symmetry_1
_geom_torsion_site_symmetry_2
_geom_torsion_site_symmetry_3
_geom_torsion_site_symmetry_4
N1 C2 C3 C4 -173.31(11) . . . .
N1 C2 C3 C5 64.83(15) . . . .
C2 N1 C6 C7 -173.42(11) . . . .
C6 N1 C2 C3 -177.63(11) . . . .
C8 C7 C6 N1 69.00(16) . . . .
C9 C7 C6 N1 -168.45(12) . . . .
loop_
_refln_index_h
_refln_index_k
_refln_index_l
_refln_F_squared_meas
_refln_F_squared_sigma
_refln_scale_group_code
0 0 -2 90049.5 610.715 4
0 0 -2 89620 928.618 5
0 0 2 88953.7 612.86 4
0 0 2 89114.6 919.223 5
0 0 -3 163887 1000.31 4
0 0 3 161775 1001.46 4
0 0 3 161417 1503.83 5
0 0 -3 160438 1511.84 5
0 0 -4 34284.1 814.824 5
0 0 -4 34503.5 530.739 4
0 0 4 34390.4 530.1 4
0 0 4 34662.4 808.561 5
0 0 -5 6253.57 300.526 9
0 0 5 6549.76 406.036 5
0 0 -5 6554.7 411.784 5
0 0 5 7008.64 272.175 4
0 0 6 60878.5 852.321 4
0 0 -6 60254.5 987.578 9
0 0 -6 60753.7 1350.23 5
0 0 6 58803 1338.79 1
0 0 -6 60356.1 629.636 3
0 0 -7 44800.4 919.47 9
0 0 -7 42453.8 495.58 3
0 0 7 47238 1307.65 1
0 0 -7 44758.3 1277.3 5
0 0 7 44807.6 777.11 4
0 0 8 6559.94 317.039 4
0 0 -8 6881.26 565.598 5
0 0 8 6183.95 530.204 1
0 0 -8 6937.8 391.02 9
0 0 9 6088.2 579.604 1
0 0 -9 6257.36 580.31 5
0 0 9 6190.03 427.372 2
0 0 9 5599.69 292.046 4
0 0 -10 -255.67 221.138 5
0 0 -10 289.478 200.278 11
0 0 10 -150.588 189.441 2
0 0 10 241.745 241.619 1
0 0 -11 484.857 277.784 5
0 0 11 459.045 275.849 1
0 1 -10 31188.8 1082.39 11
0 -1 10 33708.4 1463.19 1
0 1 -10 33700.1 1447.4 5
0 1 -9 7143.02 645.592 5
0 -1 9 7256.15 411.553 4
0 1 -9 7302.7 514.146 11
0 -1 9 8785.28 720.108 1
0 1 -8 1253.61 316.38 5
0 1 -8 745.034 205.352 11
0 -1 8 684.554 149.408 4
0 -1 8 1356.54 292.528 1
0 1 -7 30268 907.204 11
0 1 -7 33126.8 1142.94 5
0 -1 7 30327.8 777.94 4
0 -1 7 30470.7 1124.05 1
0 1 -6 24070.5 751.01 11
0 1 -6 24050 897.587 5
0 1 -6 24510.4 688.408 9
0 -1 6 23432.9 656.546 4
0 1 -6 20747.5 309.319 3
0 -1 5 59.1701 88.576 4
0 1 -5 139.122 139.912 5
0 -1 5 50.3902 137.752 5
0 1 -5 48.8803 42.6596 3
0 1 -5 103.413 101.531 9
0 -1 4 20155 281.155 10
0 -1 4 22043 684.341 5
0 1 -4 21809.8 691.706 5
0 -1 4 22093.6 555.119 4
0 1 -4 21215.8 351.224 3
0 1 -4 22257.3 561.009 9
0 -1 3 1451.87 180.912 5
0 1 -3 1155.62 169.929 5
0 1 -3 1015.8 136.698 11
0 1 -3 1109.17 87.3603 3
0 -1 3 1208.47 143.706 4
0 1 -3 1207.85 140.04 9
0 -1 2 16374.1 399.152 4
0 1 -2 16574.4 392.103 9
0 1 -2 16064.2 283.691 3
0 1 -2 16261.1 443.649 5
0 -1 2 16244.4 438.606 5
0 -1 2 16142.9 389.079 9
0 1 -2 15051.6 394.509 11
0 -1 1 70635.3 723.419 4
0 1 -1 70752.6 637.404 6
0 -1 1 70486.6 708.865 11
0 -1 1 70576.8 697.35 9
0 -1 1 70187.4 689.348 5
0 1 -1 71221.7 699.117 5
0 1 -1 71851.5 707.929 11
0 -1 1 71492.1 581.383 3
0 1 -1 70166.7 573.701 3
0 -1 -2 82210.5 722.652 3
0 -1 -2 79778.2 776.545 5
0 1 2 82576.5 729.344 1
0 -1 -2 80596 737.59 2
0 1 2 82465.2 725.792 3
0 1 2 79542 768.376 5
0 -1 -3 50879.5 799.419 5
0 1 3 52095.2 686.672 2
0 -1 -3 51127.5 623.222 3
0 1 3 53762.6 774.847 1
0 1 3 52485.3 801.364 5
0 1 4 13239.4 398.327 2
0 -1 -4 12583.6 475.182 5
0 -1 -4 13185 343.291 3
0 1 4 13949.7 494.519 5
0 -1 -4 12937.8 228.169 4
0 1 4 13440.9 472.173 1
0 1 4 12945.4 228.877 4
0 -1 -5 5244.57 133.542 10
0 1 5 6379.35 186.758 4
0 1 5 6352.33 385.042 1
0 -1 -5 6343.49 393.164 5
0 -1 -5 6229.75 181.323 4
0 -1 -5 6602.17 259.87 3
0 1 5 6274.7 306.95 2
0 1 5 6396.05 385.632 5
0 1 6 31108.7 450.026 4
0 -1 -6 31541.2 576.642 3
0 1 6 32001.2 927.04 1
0 -1 -6 32845.4 956.247 5
0 1 6 30955.6 739.343 2
0 1 6 31242.2 922.346 5
0 -1 -7 74685.3 906.14 3
0 1 7 72958.2 730.117 4
0 1 7 77318.3 1260.69 2
0 1 7 77619.8 1585.43 1
0 -1 -7 74582.4 1578.46 5
0 1 8 107241 2025.36 1
0 1 8 102265 1552.95 2
0 1 8 99981.4 857.566 4
0 -1 -8 101861 1037.38 3
0 -1 -8 101654 2001.15 5
0 -1 -9 12037.4 762.354 5
0 1 9 12873.9 595.115 2
0 -1 -9 12388.1 522.925 9
0 1 9 12577.6 762.854 1
0 1 9 10372.6 246.642 4
0 1 10 13387.8 862.424 1
0 1 10 14720.1 669.989 2
0 -1 -10 14345.3 900.299 5
0 -1 -11 3161.02 485.115 5
0 1 11 1747.8 378.816 1
0 2 -10 4334.82 582.377 5
0 2 -9 5865.06 617.344 5
0 -2 9 5280.77 591.273 1
0 2 -9 5562.3 485.494 11
0 -2 8 6194.14 601.099 1
0 2 -8 6659.88 599.256 5
0 -2 8 5622.07 417.792 4
0 2 -8 5735.41 450.176 11
0 -2 7 8649.84 490.845 4
0 2 -7 9362.77 653.383 5
0 2 -7 7912.66 500.446 11
0 -2 7 8664.47 649.672 1
0 2 -6 4819.49 447.547 5
0 2 -6 4553.88 174.197 3
0 2 -6 5047.15 393.4 11
0 -2 6 4688.5 351.728 4
0 2 -5 18638.1 398.125 3
0 -2 5 17582.2 722.951 5
0 -2 5 18582.3 646.265 4
0 2 -5 18407 750.029 5
0 2 -5 18615.3 662.656 11
0 -2 5 18162.3 383.719 10
0 2 -5 18566.7 691.596 6
0 2 -4 4045.12 303.348 11
0 2 -4 4094.98 304.018 6
0 2 -4 4076 331.354 5
0 -2 4 4276.12 304.923 4
0 -2 4 3867.04 311.742 5
0 2 -4 4107.07 200.42 3
0 -2 3 156422 1611.67 9
0 2 -3 158133 1578.37 6
0 2 -3 156606 1707.43 5
0 2 -3 155359 1599.1 11
0 2 -3 157047 1205.35 3
0 -2 3 155389 1647.55 4
0 -2 3 157122 1714.1 5
0 -2 2 41563.9 762.681 5
0 -2 2 42266 788.549 11
0 2 -2 41657.9 768.198 11
0 2 -2 41540.4 632.562 3
0 2 -2 41035.2 690.208 6
0 -2 2 40754.6 764.581 9
0 -2 2 41890.1 798.077 4
0 2 -2 41222.1 763.533 5
0 -2 1 3799.23 245.056 4
0 -2 1 3917.8 195.979 5
0 2 -1 3953.3 233.077 11
0 2 -1 4133.35 214.023 3
0 -2 1 3881.45 186.35 6
0 -2 1 3743.43 225.963 11
0 -2 1 3852.43 204.605 3
0 2 -1 3702.78 199.603 5
0 2 -1 3420.7 171.265 6
0 -2 0 153487 869.135 5
0 -2 0 159044 944.122 6
0 -2 0 158206 1238.85 3
0 -2 0 155578 1295.2 11
0 2 0 156002 944.498 6
0 2 0 157771 1246.76 3
0 2 0 155926 1292.35 11
0 -2 -1 189999 1094.16 6
0 -2 -1 189133 855.284 1
0 2 1 188946 1401 3
0 2 1 187102 1099.06 6
0 -2 -1 187730 1387.72 11
0 2 1 190966 1399.8 11
0 2 1 188484 1378.07 7
0 -2 -1 182710 1379.33 3
0 -2 -1 187573 1369.77 7
0 -2 -2 -0.22588 83.3244 3
0 -2 -2 49.1363 60.7063 5
0 2 2 -7.44558 44.4397 1
0 2 2 72.1284 55.8769 5
0 2 2 -31.177 106.119 3
0 -2 -2 51.4265 78.2527 11
0 -2 -2 29.9088 49.0982 1
0 2 2 97.3542 71.972 8
0 2 3 19234.4 489.672 3
0 2 3 19005.5 402.264 1
0 -2 -3 19394.5 410.983 1
0 -2 -3 18641.5 481.405 3
0 -2 -3 19346.4 454.489 5
0 -2 -3 18810.6 474.242 2
0 2 3 18661.2 443.66 5
0 -2 -4 7143.14 341.818 5
0 2 4 7924.23 354.248 5
0 2 4 7238.32 325.128 2
0 -2 -4 7458.38 203.528 4
0 2 4 7930.32 331.08 1
0 -2 -4 7715.23 326.926 3
0 -2 -4 7850.6 336.672 2
0 2 5 18459.3 611.731 5
0 -2 -5 17351.5 497.039 3
0 2 5 17884.1 534.622 2
0 -2 -5 17142.5 595.443 5
0 -2 -5 16419.2 272.753 4
0 2 5 17032.6 559.208 1
0 -2 -6 801.206 195.717 5
0 -2 -6 986.824 148.416 3
0 -2 -6 675.719 53.0508 4
0 2 6 1051.14 195.016 5
0 2 6 892.827 177.836 1
0 2 6 993.569 168.774 2
0 -2 -7 234.148 59.1631 10
0 2 7 336.942 175.323 1
0 2 7 97.6828 128.094 2
0 -2 -7 325.416 115.799 3
0 -2 -7 30.502 149.806 5
0 2 8 10279.6 616.607 1
0 -2 -8 9071.65 396.691 3
0 -2 -8 10819.8 652.074 5
0 2 8 10102.7 502.068 2
0 2 9 2680.82 284.786 2
0 -2 -9 3474.07 416.044 5
0 -2 -9 2588.35 216.613 3
0 2 9 3286.37 389.288 1
0 2 10 60.777 188.173 1
0 2 10 185.273 117.939 2
0 2 11 642.392 170.72 2
0 -2 -11 798.341 314.339 5
0 2 11 477.709 243.524 1
0 -2 -12 96.6012 219.517 5
0 2 12 494.928 270.528 1
0 -3 9 7237.66 721.135 1
0 3 -9 8593.74 764.005 5
0 -3 8 5176.15 451.22 4
0 -3 8 6577.54 640.994 1
0 3 -8 6761.23 631.071 5
0 3 -8 5546.63 475.63 11
0 3 -7 2888.91 406.265 5
0 3 -7 2881.35 340.047 11
0 -3 7 4013.09 478.447 1
0 -3 7 3723.21 369.434 4
0 -3 6 10334.6 344.982 10
0 -3 6 10747.2 593.789 4
0 3 -6 11618 682.562 5
0 3 -6 10545.3 329.088 3
0 3 -6 10712.6 587.196 11
0 3 -5 13591.1 419.41 3
0 3 -5 12785.2 664.207 5
0 -3 5 13697.6 439.267 10
0 -3 5 13776.6 641.384 4
0 3 -5 14360.5 633.435 6
0 3 -5 14365.9 639.408 11
0 3 -4 11709.5 547.157 11
0 -3 4 12411.4 563.374 9
0 3 -4 12107.2 585.859 5
0 3 -4 12509.3 534.981 6
0 3 -4 12214.8 413.853 3
0 -3 4 12013.8 570.632 4
0 -3 4 12452.9 587.888 5
0 3 -3 2693.38 261.546 11
0 3 -3 3186.1 231.024 3
0 -3 3 3193.93 276.782 5
0 3 -3 3631.35 265.684 6
0 -3 3 3489.82 298.314 4
0 -3 3 3226.28 296.867 9
0 3 -3 3159.38 280.89 5
0 3 -2 27195 738.045 11
0 3 -2 27464.3 675.049 5
0 3 -2 26769.6 636.031 3
0 -3 2 27779 741.511 9
0 -3 2 28275.3 778.199 4
0 -3 2 27451.9 674.903 5
0 3 -2 28248.4 613.456 6
0 -3 2 27953.3 753.065 11
0 -3 1 2999.52 246.109 11
0 3 -1 2808.04 252.784 11
0 -3 1 2848.84 219.287 3
0 -3 1 2348.98 173.073 6
0 -3 1 3047.61 264.08 4
0 3 -1 2751.9 189.093 5
0 -3 1 2806.91 191.239 5
0 3 -1 2875.12 185.387 6
0 3 -1 2807.58 224.346 3
0 -3 0 15742.7 529.888 4
0 -3 0 15854.9 512.629 11
0 -3 0 16305 343.492 5
0 -3 0 15815.4 492.076 3
0 3 0 15840.2 497.309 3
0 -3 0 15689.5 369.537 6
0 3 0 16017.4 374.956 6
0 3 0 15791.1 517.774 11
0 3 1 837.168 155.731 11
0 -3 -1 646.776 96.9069 6
0 3 1 777.625 101.756 6
0 -3 -1 837.013 147.121 11
0 3 1 1139.45 174.306 3
0 -3 -1 911.103 149.991 3
0 -3 -1 735.912 135.517 7
0 3 2 39156.5 802.891 3
0 -3 -2 38933.9 784.691 11
0 -3 -2 38701.1 445.082 5
0 -3 -2 38700.6 789.248 3
0 3 2 38210.7 776.673 7
0 -3 -2 37780.2 586.669 8
0 -3 -2 39504.7 650.263 6
0 -3 -2 38233.6 442.699 1
0 -3 -3 44932.9 871.891 3
0 -3 -3 44467 854.12 11
0 -3 -3 45528.7 637.898 5
0 3 3 45979.7 647.815 5
0 3 3 46333.1 561.373 1
0 3 3 45574.4 876.145 3
0 -3 -3 44810.6 556.072 1
0 3 3 44047.7 715.148 8
0 -3 -3 45254.2 797.856 6
0 3 4 10225.3 336.036 1
0 3 4 10802.2 386.281 5
0 -3 -4 10698.3 343.887 1
0 -3 -4 10912.2 389.952 5
0 -3 -4 10751.9 436.474 2
0 -3 -4 10320.2 436.871 3
0 3 4 10213 437.055 3
0 3 5 3543.33 265.636 5
0 3 5 3219.33 232.201 1
0 -3 -5 3250.5 260.422 3
0 -3 -5 3493.65 270.206 2
0 -3 -5 3507.25 273.706 5
0 3 6 1630.51 225.766 5
0 -3 -6 1339.86 107.521 4
0 3 6 1524.76 196.746 1
0 -3 -6 1376.92 193.923 3
0 -3 -6 1561.61 226.542 5
0 3 7 225.706 139.391 1
0 -3 -7 131.896 36.9886 4
0 -3 -7 240.258 118.649 3
0 3 7 291.167 140.986 5
0 -3 -7 -104.405 170.889 5
0 -3 -8 2713.28 344.891 5
0 3 8 2691.47 335.254 1
0 -3 -8 2794.33 268.812 3
0 -3 -9 12825.2 546.937 3
0 -3 -9 12786 370.651 10
0 -3 -9 13787.7 772.708 5
0 3 9 14182.8 741.827 1
0 -3 -10 6836.64 598.439 5
0 3 10 6954.98 584.068 1
0 -3 -11 -73.1056 226.402 5
0 3 11 159.563 178.566 1
0 -3 -12 106.187 224.078 5
0 3 12 -369.034 289.073 1
0 4 -9 2247.6 465.726 5
0 -4 8 648.201 308.841 1
0 4 -8 573.15 228.997 11
0 -4 8 330.856 208.736 4
0 4 -8 212.797 234.183 5
0 4 -7 -33.4464 198.759 5
0 4 -7 -113.864 147.785 11
0 -4 7 109.928 209.037 1
0 -4 7 -13.676 193.988 4
0 4 -6 2477.27 325.555 11
0 -4 6 2680.27 408.967 1
0 -4 6 2929.37 370.639 4
0 4 -6 2703.03 381.541 5
0 4 -5 23879.3 649.296 3
0 4 -5 23101.1 818.112 6
0 -4 5 23034.1 919.639 4
0 -4 5 24158.1 692.046 10
0 4 -5 24079 909.426 11
0 4 -5 23810.9 931.82 5
0 -4 4 14079.1 673.253 9
0 4 -4 12340.1 614.083 5
0 -4 4 12144.6 607.365 5
0 4 -4 13993.3 665.286 11
0 4 -4 13419.6 569.337 6
0 4 -4 13542.7 517.352 3
0 -4 4 12964.1 671.139 4
0 -4 3 -43.4104 160.502 9
0 -4 3 162.111 137.609 4
0 4 -3 81.2633 134.815 11
0 -4 3 13.7956 102.763 5
0 4 -3 -100.247 100.003 6
0 4 -3 -30.1662 109.512 3
0 4 -3 -170.492 148.828 5
0 -4 2 2458.55 295.545 4
0 -4 2 2500.05 282.261 9
0 4 -2 2345.03 235.485 3
0 -4 2 2612.47 287.26 11
0 4 -2 2697.78 244.773 5
0 -4 2 2579.11 237.289 5
0 4 -2 2338.41 277.104 11
0 4 -2 2486.41 207.014 6
0 4 -1 4252.75 336.055 11
0 -4 1 3951.9 244.578 5
0 4 -1 3972.1 303.315 3
0 4 -1 3977.71 239.025 6
0 -4 1 4298.08 335.188 11
0 -4 1 3649.6 232.543 6
0 -4 1 3657.5 323.917 4
0 -4 1 3821.64 293.039 3
0 -4 0 2735.85 265.766 11
0 -4 0 3100.17 176.213 5
0 -4 0 3860.29 291.923 3
0 -4 0 3291.52 206.123 6
0 4 0 3280.78 204.53 6
0 4 0 3259.05 295.643 11
0 -4 0 3575.76 313.104 4
0 4 0 3330.38 276.682 3
0 -4 -1 11404.5 505.859 11
0 -4 -1 12184.9 511.468 3
0 4 1 11822.3 375.24 6
0 -4 -1 12296.1 523.129 4
0 4 1 11576.1 502.823 3
0 4 1 12346.2 521.144 11
0 -4 -1 11616.3 371.199 6
0 -4 -1 11343.1 261.887 5
0 -4 -1 12305 517.045 7
0 -4 -2 136977 1680.05 7
0 4 2 135626 1697.41 11
0 4 2 136377 1705.63 3
0 -4 -2 133923 1225.47 8
0 -4 -2 134451 823.551 5
0 -4 -2 135055 1323.07 6
0 4 2 135630 1688.75 7
0 -4 -2 135624 1692.49 11
0 -4 -2 139853 1712.86 3
0 -4 -2 135592 1002.58 1
0 -4 -3 12927.8 450.408 6
0 -4 -3 12497.2 533.833 3
0 4 3 13358.4 557.94 3
0 -4 -3 12337.1 520.74 11
0 4 3 12356 527.535 7
0 -4 -3 12931.8 317.988 5
0 -4 -3 12907.5 296.555 1
0 4 4 5366.27 293.444 8
0 4 4 5291.45 223.213 1
0 -4 -4 4915.18 250.244 5
0 -4 -4 5965.94 378.773 11
0 -4 -4 5531.1 371.09 3
0 4 4 5297.74 370.52 7
0 -4 -4 5413.07 331.785 6
0 4 4 4531.69 341.428 3
0 -4 -4 5792.09 234.219 1
0 4 4 5662.35 266.589 5
0 4 5 2194.58 200.576 5
0 4 5 1662.04 198.36 8
0 4 5 1619.65 160.621 1
0 -4 -5 2219.92 213.937 5
0 -4 -5 1691.43 220.458 2
0 -4 -5 1582.34 223.772 3
0 4 5 1675.27 234.098 3
0 -4 -5 1602.15 214.784 11
0 4 6 17850.7 622.655 5
0 -4 -6 19236.3 692.872 2
0 4 6 16800.3 543.74 1
0 -4 -6 17506.1 670.448 3
0 -4 -6 17791.3 628.088 5
0 -4 -7 -30.4424 135.507 3
0 4 7 -196.224 134.631 1
0 -4 -7 -215.87 143.752 2
0 -4 -7 2.75775 71.4534 4
0 4 7 258.549 149.652 5
0 -4 -7 99.0756 135.488 5
0 -4 -8 7509.48 510.242 5
0 -4 -8 6472.82 210.633 4
0 -4 -8 6788.69 449.831 3
0 4 8 7343.16 467.722 1
0 -4 -8 6484.27 207.25 4
0 4 9 134.854 155.157 1
0 -4 -9 -87.2975 198.79 5
0 -4 -9 -87.9126 144.889 3
0 4 10 151.128 159.323 1
0 -4 -10 76.9743 172.502 5
0 -4 -11 12868.4 841.316 5
0 4 11 12018.8 760.699 1
0 -4 -12 80.0194 225.106 5
0 4 12 -50.7039 217.957 1
0 4 13 1972.22 387.436 1
0 5 -7 4133.67 465.194 11
0 -5 7 3649.31 500.746 1
0 -5 7 3685.06 457.224 4
0 -5 6 2910.1 444.566 1
0 5 -6 2115.05 332.04 5
0 5 -6 2326.47 336.063 11
0 -5 6 1781.6 333.943 4
0 5 -5 5123.06 474.194 11
0 5 -5 5170.21 353.3 3
0 -5 5 5297.9 504.193 4
0 -5 4 5946.76 512.028 4
0 5 -4 5483.57 381.39 6
0 5 -4 5772.3 386.648 3
0 5 -4 5602.75 475.036 11
0 -5 4 5276.63 484.078 9
0 5 -3 4310.96 350.732 3
0 -5 3 4636.04 425.978 9
0 -5 3 3960.1 334.986 5
0 5 -3 4284.65 413.409 11
0 5 -3 3895.35 300.757 6
0 -5 3 4343.09 430.51 4
0 -5 2 2616.4 332.471 9
0 -5 2 2863.89 270.825 5
0 5 -2 2987.76 247.287 6
0 -5 2 2753.07 340.606 4
0 5 -2 2721.63 337.124 11
0 5 -2 2289.5 266.497 3
0 5 -1 18849.8 542.079 6
0 -5 1 17695.7 535.547 5
0 -5 1 17976.6 689.574 3
0 5 -1 17568.5 690.071 3
0 -5 1 18879.3 796.789 4
0 -5 1 17707.5 537.788 6
0 5 -1 18224.3 749.02 11
0 5 0 7719.41 483.788 11
0 5 0 7569.86 462.244 3
0 -5 0 8004.16 468.867 3
0 -5 0 7999.95 305.294 5
0 -5 0 7920.77 348.028 6
0 -5 0 8239.85 502.132 11
0 -5 0 8082.67 503.705 7
0 -5 0 8682.88 527.514 4
0 5 0 8381.57 345.539 6
0 -5 -1 4655.95 375.289 7
0 -5 -1 4768.25 189.315 5
0 5 1 4565.27 379.084 11
0 -5 -1 5328.59 397.345 4
0 -5 -1 4825.95 373.435 3
0 5 1 5307.08 393.724 3
0 -5 -1 4921.6 276.733 6
0 5 1 4912.48 268.499 6
0 -5 -1 4784.8 378.935 11
0 -5 -2 22048.5 778.143 3
0 5 2 21514.9 773.746 11
0 -5 -2 21622.4 776.086 11
0 -5 -2 21394.3 466.229 1
0 -5 -2 20633.8 326.354 5
0 -5 -2 21998.1 775.675 7
0 -5 -2 20940.5 324.083 5
0 -5 -2 20782.3 738.373 4
0 -5 -2 21320.4 555.52 8
0 -5 -2 21159.7 574.461 6
0 5 2 21024.5 761.468 3
0 5 2 21475.7 583.842 6
0 -5 -3 4897.81 376.674 11
0 5 3 5041.46 392.113 7
0 -5 -3 5300.04 189.786 5
0 -5 -3 5992.33 297.636 8
0 5 3 5538.63 414.14 3
0 -5 -3 5747.95 330.042 6
0 -5 -3 5860.22 416.217 3
0 -5 -3 5463.57 210.891 1
0 -5 -4 9090.67 438.106 6
0 5 4 9782.02 541.537 3
0 -5 -4 7892.23 479.439 11
0 -5 -4 9113.34 276.607 1
0 5 4 7816.87 490.834 7
0 -5 -4 8779.86 509.777 3
0 -5 -4 8939.51 308.276 5
0 5 5 4313.62 391.115 7
0 5 5 4516.7 386.6 3
0 5 5 4080.97 217.511 1
0 -5 -5 4727.94 277.731 5
0 -5 -5 4478.24 373.429 11
0 -5 -5 4447.59 227.094 1
0 5 5 4802.27 278.045 5
0 -5 -5 5070.22 369.387 6
0 5 5 4936.11 325.22 8
0 -5 -5 4573.53 372.308 2
0 -5 -5 4379.93 371.511 3
0 5 6 1627.89 200.807 5
0 5 6 1352.79 209.438 8
0 -5 -6 1063.29 207.087 6
0 -5 -6 882.847 203.068 2
0 5 6 1267.04 154.523 1
0 5 6 1789.64 281.106 3
0 -5 -6 1183.39 180.145 5
0 -5 -7 8010.47 467.288 5
0 5 7 7647.78 480.731 8
0 5 7 8306.97 412.004 1
0 5 7 7833.64 454.229 5
0 -5 -8 3477.04 356.259 5
0 -5 -8 3479.74 224.676 4
0 5 8 3739.25 312.74 1
0 -5 -8 3312.1 225.132 4
0 5 9 2984.03 319.955 1
0 -5 -9 2813.05 337.886 5
0 -5 -9 2665.41 157.671 4
0 -5 -10 5797.75 524.232 5
0 5 10 4870.19 438.504 1
0 5 11 3667.15 418.604 1
0 -5 -11 3231.53 437.352 5
0 -5 -12 3719.78 508.824 5
0 5 12 3832.37 462.677 1
0 5 13 -38.5012 256.712 1
0 -6 7 1563.12 366.667 4
0 6 -6 119.339 193.948 11
0 -6 6 356.607 268.455 4
0 -6 6 494.301 258.813 1
0 -6 5 9430.35 728.722 1
0 -6 5 8986.45 714.561 4
0 6 -5 9919.01 703.053 11
0 -6 4 7960.65 627.923 9
0 6 -4 8304.34 511.773 3
0 6 -4 8878.92 645.151 11
0 -6 4 8269.63 659.418 4
0 6 -3 5778.29 508.913 11
0 -6 3 5322.15 506.993 9
0 -6 3 4805.03 500.008 4
0 6 -3 4843.56 414.302 3
0 6 -2 3783.59 367.54 3
0 6 -2 3785.41 400.552 11
0 -6 2 4457.01 471.8 4
0 -6 2 3541.75 400.56 9
0 6 -2 3608.29 280.14 6
0 -6 2 3978.39 315.15 5
0 -6 1 24896.1 1009.86 4
0 6 -1 25981.9 927.147 3
0 -6 1 26803.5 696.483 5
0 -6 1 27619.5 1030.38 9
0 6 -1 25781 991.7 11
0 6 -1 24762.1 672.284 6
0 -6 0 3588.95 407.246 4
0 6 0 3475.5 378.014 11
0 -6 0 3371.43 262.009 6
0 6 0 3416.88 360.744 3
0 -6 0 3188.29 210.649 5
0 6 0 3367.75 242.912 6
0 6 1 13095.6 476.021 6
0 -6 -1 12226.2 462.77 6
0 -6 -1 12485.1 323.407 5
0 -6 -1 13230.5 693.49 4
0 6 1 13009.7 667.286 3
0 6 1 13517.2 696.251 11
0 -6 -2 57021.8 867.775 1
0 -6 -2 56094.5 992.031 8
0 6 2 58303.8 1393.16 3
0 -6 -2 57226.8 1013.14 6
0 -6 -2 55858.8 1358.97 4
0 6 2 57425.6 1394.16 11
0 -6 -3 102169 1424.34 6
0 -6 -3 102047 1310.46 8
0 -6 -3 103917 1779.3 4
0 6 3 103279 1865.65 3
0 -6 -3 104439 1001.88 1
0 -6 -4 59824.1 702.437 1
0 6 4 61915.7 1465.27 3
0 -6 -4 61804.7 1337.99 4
0 6 4 60563.4 1428.92 7
0 -6 -4 62221.5 1183.35 6
0 -6 -4 62117.7 723.17 5
0 -6 -5 47714.6 792.372 5
0 -6 -5 48292.7 1118.33 6
0 -6 -5 46071.6 660.588 1
0 6 5 46667 1299.97 3
0 -6 -5 47828.7 1133.84 4
0 6 5 47508.1 1295.92 7
0 -6 -6 9090.44 536.374 6
0 -6 -6 9167.48 413.131 5
0 6 6 9123.56 595.082 3
0 6 6 9069.43 605.658 7
0 6 6 9967.47 355.072 1
0 -6 -6 9728.57 502.162 4
0 6 6 9369.43 476.444 8
0 6 7 848.14 250.854 7
0 -6 -7 1144.49 184.698 4
0 6 7 941.578 170.215 5
0 -6 -7 916.723 187.538 5
0 6 7 758.583 140.978 1
0 6 7 800.67 205.601 8
0 -6 -7 1100.34 245.58 6
0 6 8 26310.9 878.35 5
0 -6 -8 28128.3 756.711 4
0 6 8 27884.4 776.679 1
0 -6 -8 28258.8 907.046 5
0 6 8 28108.6 963.317 8
0 -6 -8 27922.1 1055.67 6
0 -6 -9 12070.5 745.837 6
0 -6 -9 11516.6 442.958 4
0 -6 -9 13167 686.239 5
0 6 9 11890.6 686.763 8
0 6 9 11003.7 553.875 1
0 -6 -10 3200.28 397.051 5
0 -6 -10 4118.5 494.961 6
0 6 10 3528.81 434.781 8
0 6 10 4371.27 387.477 1
0 -6 -11 7944.63 682.748 6
0 -6 -11 9306.68 686.063 5
0 6 11 9891.65 634.756 1
0 -6 -12 5129.83 555.893 5
0 -6 -12 6074.49 651.316 6
0 6 12 5093.41 493.616 1
0 -6 -13 -96.9405 237.056 5
0 7 -5 2750.34 431.684 11
0 -7 5 2803.67 464.722 4
0 -7 5 2480.71 417.834 1
0 -7 4 493.006 278.693 9
0 -7 4 267.126 236.157 1
0 7 -4 -150.862 191.658 11
0 -7 4 44.2112 233.761 4
0 7 -3 462.426 187.351 11
0 7 -3 538.613 215 3
0 -7 3 712.191 263.85 4
0 -7 3 558.563 275.29 9
0 7 -2 4544.2 443.587 3
0 -7 2 4333.98 489.176 9
0 7 -2 3459.1 436.533 11
0 -7 2 4144.54 492.842 4
0 -7 1 1321.7 316.171 9
0 7 -1 1281.06 293.573 11
0 7 -1 1206.65 263.303 3
0 -7 1 1537.19 329.148 4
0 7 0 406.708 196.495 3
0 -7 0 258.96 107.548 6
0 -7 0 432.876 228.329 4
0 7 0 328.577 99.5722 6
0 7 0 476.676 213.215 11
0 -7 -1 5275.24 495.165 4
0 7 1 5511.21 513.145 11
0 -7 -1 5419.23 341.066 6
0 7 1 5262.61 323.443 6
0 7 1 5978.83 514.437 3
0 -7 -1 5005.82 198.937 5
0 -7 -2 297.725 173.592 4
0 7 2 215.814 178.688 3
0 -7 -2 256.702 122.572 6
0 -7 -2 194.721 99.3862 8
0 -7 -2 20.395 80.838 1
0 7 2 163.34 192.587 11
0 -7 -3 14348.7 751.752 4
0 -7 -3 15007.7 582.915 6
0 7 3 14021.5 766.71 3
0 -7 -3 14985.4 421.531 1
0 -7 -3 13707.7 525.291 8
0 -7 -4 1580.08 227.726 6
0 -7 -4 1567.15 269.557 4
0 -7 -4 1646.91 129.337 1
0 7 4 2311.08 364.909 3
0 -7 -5 20750.4 767.16 6
0 7 5 20160.8 932.932 3
0 -7 -5 20160.9 446.305 5
0 7 5 19080.6 894.137 7
0 -7 -5 18927.6 386.738 1
0 -7 -5 18833.4 813.864 4
0 -7 -6 9236.4 555.286 6
0 -7 -6 8667.19 541.873 4
0 7 6 9665.68 664.552 3
0 -7 -6 9073.64 379.634 5
0 7 6 9179.25 652.792 7
0 -7 -7 9211.02 586.975 6
0 7 7 9017.51 653.653 3
0 -7 -7 9611.6 456.845 5
0 7 7 9915.74 697.281 7
0 -7 -7 9201.45 534.027 4
0 7 7 8590.59 337.946 1
0 7 8 9861.03 713.406 7
0 7 8 10079.6 581.458 8
0 -7 -8 8738.07 614.862 6
0 -7 -8 9744.29 526.57 4
0 -7 -8 9636.09 516.884 5
0 7 8 9508.91 417.946 1
0 7 9 12225.1 812.636 7
0 -7 -9 13826.3 680.306 5
0 -7 -9 12450.3 556.569 4
0 -7 -9 13205.3 799.44 6
0 7 9 12307.1 696.605 8
0 7 9 13207.5 552.304 1
0 7 10 15121.9 655.991 1
0 7 10 13078 772.534 8
0 -7 -10 15771.9 920.277 6
0 -7 -10 15467.2 788.424 5
0 -7 -11 34113.7 1250.1 5
0 7 11 36586.5 1371.16 8
0 -7 -11 35384.6 1452.47 6
0 -7 -12 21708.1 1091.84 5
0 7 12 22258.9 1136.71 8
0 -7 -13 2686.15 422.761 5
0 7 13 4239.05 576.216 8
0 8 -4 7905.31 724.376 11
0 -8 4 7407.25 678.056 1
0 -8 3 1830 389.266 9
0 -8 3 2343.26 430.581 4
0 8 -3 2706.29 450.473 11
0 -8 3 2039.55 358.506 1
0 8 -2 3761.26 453.547 3
0 -8 2 3622.17 495.87 9
0 -8 2 3262 496.421 4
0 8 -2 3542.79 493.853 11
0 -8 1 16106.2 977.325 4
0 -8 1 17321.4 993.881 9
0 8 -1 16317.9 956.492 11
0 8 -1 15359.9 863.537 3
0 -8 0 34728.2 1395.85 4
0 8 0 36759.8 1328.78 3
0 -8 0 36428.3 1394.09 9
0 -8 -1 41589.9 1468.81 4
0 8 1 41524.9 1453.04 11
0 -8 -1 38709.3 922.222 6
0 8 1 41890.2 1422.4 3
0 -8 -2 11097 758.75 4
0 -8 -2 11159.3 508.316 6
0 8 2 11301.2 754.239 3
0 8 3 12800.4 795.958 3
0 -8 -3 11823.2 762.829 4
0 -8 -3 12104.9 550.491 6
0 -8 -4 1823.02 330.131 4
0 8 4 1184.31 301.012 3
0 -8 -4 1708.92 251.972 6
0 -8 -5 4617.39 402.409 6
0 -8 -5 3762.81 425.237 4
0 8 5 4872.31 521.629 3
0 -8 -6 2878.42 337.28 6
0 8 6 2243.07 361.805 7
0 8 6 3321.82 436.807 3
0 -8 -6 3033.77 358.199 4
0 8 7 270.302 199.236 3
0 8 7 148.146 234.821 7
0 -8 -7 99.4197 145.834 6
0 -8 -7 124.957 130.528 4
0 -8 -8 172.28 173.598 4
0 -8 -8 -78.3184 148.606 6
0 8 8 -45.0783 191.062 7
0 -8 -9 903.419 210.779 4
0 -8 -9 1016.39 281.407 6
0 8 9 74.7803 164.228 8
0 8 9 895.143 274.134 7
0 8 10 140.027 146.156 8
0 8 10 491.515 265.249 7
0 -8 -10 614.088 249.535 6
0 8 11 1742.05 402.385 7
0 -8 -11 1594.77 353.396 6
0 8 11 1595.2 334.97 8
0 8 12 -205.396 193.133 8
0 9 -2 5288.32 625.907 11
0 -9 1 2391.55 461.797 9
0 9 -1 1869.97 371.315 3
0 9 -1 2379.7 441.458 11
0 9 0 5895.34 628.83 11
0 9 0 7445.35 661.943 3
0 -9 0 6052.15 667.284 4
0 -9 0 5954.26 650.442 9
0 -9 -1 809.803 305.954 4
0 -9 -1 958.859 313.384 9
0 9 2 7778.45 672.389 3
0 -9 -2 7243.71 695.312 4
0 -9 -3 6002.35 612.83 4
0 9 3 5729.56 593.46 3
0 -9 -4 8597.34 687.386 4
0 -9 -4 8610 516.296 6
0 9 4 7609.74 688.581 3
0 -9 -5 9882.91 724.468 4
0 9 5 10407.1 807.318 3
0 -9 -5 9847.61 585.299 6
0 -9 -6 5665.4 546.893 4
0 9 6 7059.82 682.378 3
0 -9 -6 6497.83 504.832 6
0 9 7 2133.68 411.694 7
0 -9 -7 2750.05 386.794 4
0 -9 -7 2538.07 354.181 6
0 9 7 1932.57 382.115 3
0 -9 -8 22281.8 1015.45 6
0 9 8 23881.6 1221.13 7
0 -9 -8 20515.6 955.387 4
0 9 9 11315.7 870.285 7
0 -9 -9 11192 761.993 6
0 -9 -10 598.762 285.125 6
0 -9 -11 3140.57 488.379 6
0 10 0 790.977 301.254 3
0 10 1 702.417 348.169 3
0 10 2 1575.73 409.863 3
0 10 3 3097.36 498.693 3
0 -10 -3 4154.1 589.029 4
0 10 4 4767.79 591.292 3
0 -10 -4 4504.2 578.475 4
0 -10 -5 9135.14 764.528 4
0 10 5 9587.4 830.181 3
0 -10 -6 14614.4 931.891 4
0 10 6 14289.9 1001.68 3
0 -10 -7 3310.19 458.12 4
0 -10 -8 990.768 253.533 4
0 -10 -8 1054.14 257.584 6
0 -10 -9 -39.0887 186.117 6
0 -10 -10 1122.58 315.778 6
0 -11 -7 4484.18 585.924 4
0 -11 -8 -42.3935 248.032 4
1 -10 -10 -23.1703 282.573 6
1 -10 -9 2800.25 443.937 6
1 -10 -8 780.397 249.031 4
1 -10 -8 1816.17 371.56 6
1 -10 -7 580.876 241.271 6
1 -10 -7 1050.59 315.62 4
1 -10 -6 -2.48589 216.56 4
1 -10 -5 3092.42 480.541 4
1 -10 -4 2325.33 452.671 4
1 -9 -10 4879.22 562.006 6
1 -9 -9 26.7102 206.085 6
-1 9 9 96.5973 251.868 7
1 -9 -9 222.777 167.519 4
1 -9 -8 1750.62 368.91 6
-1 9 8 1745.15 386.753 7
-1 9 8 1684.87 382.322 3
1 -9 -8 1523.17 305.256 4
1 -9 -7 2542.37 355.716 6
-1 9 7 2466.56 415.278 3
-1 9 7 3204.59 475.613 7
1 -9 -7 2626.5 392.304 4
1 -9 -6 6960.64 612.546 4
1 -9 -6 6017.88 528.194 6
-1 9 6 6744.85 654.561 3
1 -9 -5 498.041 229.452 4
1 -9 -5 262.153 174.347 6
1 -9 -4 2043.35 305.199 6
1 -9 -4 2760.97 441.657 4
-1 9 4 3059.43 460.88 3
1 -9 -3 67.9591 199.143 4
-1 9 3 224.271 207.906 3
1 -9 -2 -242.019 268.215 4
-1 9 2 -98.3666 258.75 3
-1 9 1 1304.82 354.959 3
1 -9 -1 2041.38 416.797 4
-1 9 0 82.2235 221.841 3
1 -9 0 -115.477 219.587 9
-1 9 -1 811.465 314.786 3
-1 8 12 1393.59 353.962 8
1 -8 -11 4233.1 547.062 6
-1 8 11 3829.5 478.72 8
1 -8 -10 6086.82 602.938 6
-1 8 10 6105.56 651.789 7
-1 8 10 5580.51 541.855 8
1 -8 -9 4706.39 437.116 4
1 -8 -9 5445.19 554.129 6
-1 8 9 4668.51 547.25 3
-1 8 9 4921.94 581.13 7
-1 8 8 333.211 240.698 3
-1 8 8 823.937 325.057 7
1 -8 -8 288.857 162.848 4
1 -8 -8 838.912 247.438 6
1 -8 -7 2483.76 357.72 4
-1 8 7 2656.81 416.125 7
1 -8 -7 2664.51 365.725 6
-1 8 7 2964.86 425.648 3
-1 8 6 3713.08 480.806 3
1 -8 -6 3226.67 388.441 6
1 -8 -6 2909.76 381.83 4
-1 8 6 3647.38 462.243 7
1 -8 -5 8494.03 564.573 6
1 -8 -5 7228.58 593.888 4
1 -8 -4 9655.74 697.424 4
-1 8 4 11123.9 780.561 3
1 -8 -4 10353.7 591.32 6
1 -8 -3 807.459 210.036 6
1 -8 -3 613.004 225.01 4
-1 8 3 498.971 282.963 3
1 -8 -2 1650.29 342.709 4
1 -8 -2 1742.33 260.574 6
-1 8 2 1483.27 331.231 3
1 -8 -1 1121.31 317.702 4
-1 8 1 1050.16 294.844 3
1 -8 -1 959.053 211.592 6
1 -8 0 257.5 214.615 4
-1 8 0 203.821 197.656 3
1 -8 1 534.432 247.877 4
1 -8 1 942.447 337.289 9
-1 8 -1 337.418 212.707 3
-1 8 -1 571.252 267.293 11
-1 8 -2 1906.16 352.588 3
1 -8 2 1768.73 396.674 9
1 -8 2 2402.72 434.067 4
-1 8 -2 2219.84 425.046 11
1 -8 3 2611.18 446.14 9
-1 8 -3 3593.4 513.375 11
-1 8 -4 1417.13 355.22 11
1 -7 -12 -95.9323 193.976 5
-1 7 12 619.644 285.834 8
-1 7 11 -69.8218 204.078 8
1 -7 -11 -164.417 246.21 6
1 -7 -11 297.965 193.754 5
1 -7 -10 4543.89 427.847 5
-1 7 10 4235.39 476.574 8
1 -7 -10 4071.79 504.834 6
1 -7 -9 4884.65 510.779 6
-1 7 9 4761.42 542.281 7
1 -7 -9 5037.15 401.322 5
-1 7 9 5088.54 481.86 8
-1 7 8 23174.3 1067.78 3
-1 7 8 22450.8 1076.11 7
-1 7 8 22856.4 919.753 8
1 -7 -8 24388.2 1039.53 6
1 -7 -8 23693 748.185 5
1 -7 -7 54685.8 1481.16 6
-1 7 7 55257.1 1607.8 3
-1 7 7 52778.7 1586.12 7
1 -7 -7 56234.3 972.204 5
1 -7 -6 26172.6 966.41 6
1 -7 -6 24470.5 482.644 5
-1 7 6 25247.8 1065.15 7
-1 7 6 25221.5 1075.07 3
1 -7 -5 8143.25 533.683 6
-1 7 5 8867.11 631.738 7
-1 7 5 9015.89 654.791 3
1 -7 -4 4756.53 364.327 8
1 -7 -4 4130.5 370.619 6
-1 7 4 4050.46 442.51 3
1 -7 -3 10315.6 545.644 6
-1 7 3 10650.5 696.46 3
1 -7 -3 9422.73 508.751 8
-1 7 2 10831.3 692.438 3
1 -7 -2 10030.9 344.48 1
1 -7 -2 9307.33 511.814 8
1 -7 -2 10076.6 682.968 4
1 -7 -2 10475.6 534.082 6
-1 7 2 10265.4 529.765 6
1 -7 -2 9807.93 345.798 1
1 -7 -1 20232.6 968.688 4
1 -7 -1 20093 609.347 1
1 -7 -1 20358.5 736.265 6
-1 7 1 20478.8 951.293 3
-1 7 1 18772.1 710.048 6
-1 7 0 1325.6 214.581 6
1 -7 0 1575.18 221.639 1
-1 7 0 1831.53 323.719 3
1 -7 0 1408.46 306.189 4
1 -7 0 1639.47 259.597 6
-1 7 0 1670.07 322.829 11
-1 7 -1 6575.69 549.448 11
1 -7 1 6248.71 451.957 1
1 -7 1 5090.8 548.083 4
-1 7 -1 5823.47 527.254 3
-1 7 -2 4205.85 464.292 11
1 -7 2 3963.6 398.771 1
-1 7 -2 3463.85 415.969 3
1 -7 2 4184.17 486.934 9
1 -7 2 3560.56 480.972 4
-1 7 -3 3151.84 444.942 11
1 -7 3 2968.39 365.613 1
-1 7 -3 3531.41 404.415 3
1 -7 3 2558.05 424.107 4
1 -7 3 3627.98 481.015 9
1 -7 4 463.563 208.133 1
1 -7 4 -308.132 280.904 4
-1 7 -4 -242.78 255.977 11
1 -7 4 518.082 262.283 9
1 -7 5 458.784 212.138 1
1 -7 5 450.17 254.429 9
1 -7 5 469.061 270.637 4
1 -6 -13 6557 663.111 5
1 -6 -12 4430.29 576.203 6
-1 6 12 5332.84 589.485 8
1 -6 -12 4348.71 524.664 5
1 -6 -11 3987.14 466.479 5
1 -6 -11 4327.63 530.44 6
-1 6 11 3724.83 471.327 8
-1 6 11 3804.49 372.105 1
1 -6 -10 9162.25 616.514 5
-1 6 10 9543.22 689.47 8
1 -6 -10 10371.3 760.059 6
-1 6 10 8981.79 520.326 1
1 -6 -9 1036.52 214.153 5
-1 6 9 1018.2 172.38 1
1 -6 -9 1479.11 324.484 6
-1 6 9 1254.01 254.338 8
1 -6 -8 280.674 185.694 6
-1 6 8 118.379 89.8343 1
-1 6 8 74.7176 104.714 5
1 -6 -8 -145.938 153.341 4
-1 6 8 -48.332 149.214 8
-1 6 8 -142.185 196.265 3
1 -6 -8 -225.735 163.856 5
-1 6 7 -60.3261 131.393 8
-1 6 7 111.882 100.965 5
1 -6 -7 18.2197 116.582 5
-1 6 7 398.953 195.301 7
1 -6 -7 -2.28349 169.841 6
-1 6 7 4.60754 57.0122 1
-1 6 7 109.704 157.454 3
-1 6 6 7711.74 347.359 5
-1 6 6 7973.24 580.061 7
1 -6 -6 7968.3 529.904 6
-1 6 6 8162.08 580.59 3
1 -6 -6 7558.59 341.887 5
-1 6 5 1257.09 251.972 7
-1 6 5 1199.9 266.99 3
1 -6 -5 1190.49 228.631 6
1 -6 -5 1169.38 110.802 5
-1 6 4 6912.34 523.906 3
-1 6 4 7479.73 533.07 7
1 -6 -4 6890.5 414.816 8
1 -6 -4 7380.87 456.603 6
-1 6 3 1055.12 178.949 6
1 -6 -3 1153.22 187.605 8
1 -6 -3 1168.6 219.129 6
-1 6 3 1067.72 255.48 3
-1 6 2 14774.8 594.034 6
-1 6 2 16385.9 787.705 3
1 -6 -2 15244.8 603.141 6
1 -6 -2 14464.1 364.569 1
1 -6 -2 14494.8 368.031 1
1 -6 -1 -58.5108 117.646 6
-1 6 1 15.8568 101.333 6
1 -6 -1 208.265 98.3913 1
-1 6 1 217.452 196.345 3
-1 6 0 46787.8 1304.08 3
-1 6 0 46848.2 1044.59 6
1 -6 0 47397.4 998.882 1
1 -6 0 46049.3 1368.24 4
1 -6 0 44733.6 603.356 5
1 -6 0 46683.9 1054.02 6
-1 6 0 48232.3 1330.98 11
1 -6 1 86274.2 1918 4
-1 6 -1 89535.6 1496.37 6
1 -6 1 86634 1471.31 6
1 -6 1 88618.3 1539.35 1
-1 6 -1 90383.4 1827.42 11
1 -6 1 87623.4 1134.3 5
-1 6 -1 88545.7 1784.95 3
-1 6 -2 3259.28 391.472 11
1 -6 2 3824.26 454.35 4
-1 6 -2 3778.92 391.783 3
1 -6 2 4370.47 399.368 1
-1 6 -2 3660.76 332.507 6
1 -6 2 3191.52 382.469 9
1 -6 3 82.6729 154.195 1
1 -6 3 159.325 191.606 9
1 -6 3 158.123 170.657 4
-1 6 -3 227.21 165.562 3
-1 6 -3 -60.7314 182.311 11
1 -6 4 4494.38 517.263 4
-1 6 -4 4553.07 461.342 11
1 -6 4 4671.73 502.657 9
-1 6 -4 4676.34 424.135 3
1 -6 4 4463.28 477.191 1
1 -6 5 2296.91 372.192 9
-1 6 -5 1802.46 297.476 11
1 -6 5 1147.48 299.783 4
1 -6 5 1789.97 350.989 1
1 -6 6 428.91 217.352 1
1 -6 6 -8.26181 288.892 4
1 -6 7 5372.77 616.61 4
1 -5 -13 556.064 324.203 5
-1 5 13 935.355 300.091 1
1 -5 -12 8305.05 749.241 6
-1 5 12 9092.76 672.186 1
1 -5 -12 8998.92 742.387 5
1 -5 -11 7303.69 675.431 6
-1 5 11 6548.2 530.373 1
1 -5 -11 6215.78 589.628 5
1 -5 -10 21821.3 1067.54 6
-1 5 10 20819.1 846.415 1
1 -5 -10 22398.8 984.937 5
1 -5 -9 40355.7 1204.3 5
-1 5 9 38064.4 1261.71 8
1 -5 -9 41191.2 1365.65 6
-1 5 9 39653.8 1043.08 1
1 -5 -8 6568.22 378.188 4
1 -5 -8 7199.84 479.473 5
-1 5 8 7296.78 402.032 1
1 -5 -8 6933 542.24 6
-1 5 8 7318.64 521.331 3
-1 5 8 6912.82 518.662 8
1 -5 -7 11123.8 524.551 5
-1 5 7 10534.8 586.709 8
-1 5 7 10243.1 598.887 3
1 -5 -7 10857 498.01 4
-1 5 7 10472.5 504.508 5
-1 5 7 10909.2 420.98 1
1 -5 -7 10306.2 612.901 6
-1 5 6 78872.8 1584.61 3
-1 5 6 82180.1 917.834 1
-1 5 6 79437.3 1196.88 5
1 -5 -6 80456 1566.83 6
1 -5 -6 78560.6 1199.73 5
-1 5 6 81542.8 1490.69 8
1 -5 -5 17987.8 474.76 5
-1 5 5 15927.5 273.093 1
-1 5 5 19004.2 785.631 7
1 -5 -5 17392.8 691.792 6
-1 5 5 18424.2 478.816 5
-1 5 5 18371.2 767.809 3
1 -5 -4 24657.1 869.811 3
1 -5 -4 24852.3 402.871 5
-1 5 4 24296 871.384 3
-1 5 4 25819.2 880.063 7
1 -5 -4 25753 792.771 6
1 -5 -3 18588.4 643.365 6
1 -5 -3 17205.6 596.589 8
-1 5 3 19328.8 651.238 6
-1 5 3 17310.2 704.716 7
-1 5 3 18955.2 760.934 3
1 -5 -3 16745 718.289 3
1 -5 -3 18478.1 742.327 11
1 -5 -2 34747.4 839.74 6
1 -5 -2 33751 973.153 7
1 -5 -2 33688.2 1001.82 3
-1 5 2 35962.7 1036.98 3
1 -5 -2 35237.9 1015.41 11
1 -5 -2 32565.7 458.579 1
-1 5 2 34973.6 843.034 6
1 -5 -2 33144.2 453.023 1
1 -5 -2 33501.3 816.116 8
1 -5 -1 18897 744.445 7
1 -5 -1 18302.2 604.184 6
-1 5 1 18937.9 762.087 3
1 -5 -1 18105.6 730.451 11
-1 5 1 18179.3 601.386 6
1 -5 -1 18506 747.804 3
1 -5 0 11307.4 486.405 6
1 -5 0 11102.4 298.305 5
-1 5 0 12043.1 500.878 6
-1 5 0 11460 592.234 3
-1 5 0 11730.7 595.953 11
1 -5 0 11068.6 580.152 11
1 -5 1 8259.74 447.046 6
1 -5 1 7965.95 333.631 5
1 -5 1 7596.91 526.468 4
-1 5 -1 8355.23 514.879 3
-1 5 -1 7683.94 414.6 6
-1 5 -1 7984.63 504.524 11
-1 5 -2 9896.4 555.408 3
1 -5 2 9984.1 626.118 4
1 -5 2 9347.9 532.651 1
-1 5 -2 8681.69 540.46 11
-1 5 -2 9243 431.94 5
-1 5 -2 8674.43 467.445 6
1 -5 2 9203.59 431.784 5
1 -5 3 11162.4 629.015 1
-1 5 -3 10950.7 580.282 3
1 -5 3 9866.61 509.041 5
1 -5 3 10391.9 661.066 4
-1 5 -3 10625 551.065 6
-1 5 -3 10674.4 608.862 11
-1 5 -3 10597.8 531.74 5
1 -5 3 11095.6 639.311 9
-1 5 -4 3192.9 346.889 5
1 -5 4 3163.14 370.073 9
-1 5 -4 3787.82 355.467 3
1 -5 4 4003.1 429.61 1
1 -5 4 3405.37 411.78 4
-1 5 -4 3929.21 399.972 11
-1 5 -5 8920.42 520.804 3
1 -5 5 8447.06 638.622 4
-1 5 -5 9351.76 612.064 5
-1 5 -5 8398.33 581.525 11
1 -5 5 8770.71 673.846 1
1 -5 5 8553.05 608.299 9
1 -5 6 3163.24 456.331 4
-1 5 -6 2414.26 348.148 5
-1 5 -6 2635.97 355.461 11
1 -5 6 2692.85 420.495 1
1 -5 7 837.02 306.122 4
1 -5 7 220.241 229.04 1
-1 5 -7 769.67 275.859 5
-1 5 -8 6797.69 658.302 5
-1 4 13 4172.38 525.351 1
-1 4 12 735.061 262.607 1
1 -4 -12 1036.89 331.393 5
1 -4 -11 424.789 210.535 5
-1 4 11 307.529 202.529 1
-1 4 10 4354.62 423.823 1
1 -4 -10 4133.7 465.887 5
1 -4 -9 203.264 83.379 4
-1 4 9 132.492 134.449 1
1 -4 -9 119.607 155.726 5
1 -4 -9 106.548 114.614 3
-1 4 8 345.714 152.245 1
1 -4 -8 657.643 242.63 6
1 -4 -8 310.565 158.798 5
1 -4 -8 151.335 90.4503 4
1 -4 -8 499.346 171.296 3
1 -4 -7 312.053 187.307 6
-1 4 7 478.803 164.292 5
-1 4 7 528.037 147.149 1
1 -4 -7 377.396 159.073 3
1 -4 -7 409.097 167.574 5
1 -4 -7 245.096 108.497 4
-1 4 7 376.875 155.592 3
1 -4 -6 10248.3 547.253 2
1 -4 -6 10717.2 442.13 4
1 -4 -6 10461.2 472.102 5
-1 4 6 10367 464.72 5
1 -4 -6 10146.6 554.756 6
-1 4 6 11097.2 550.18 3
-1 4 6 9884.9 523.344 8
1 -4 -6 9939.36 521.862 3
-1 4 6 9702 380.732 1
-1 4 5 1354.42 207.719 3
1 -4 -5 2295.88 268.7 6
-1 4 5 1478.98 130.918 1
-1 4 5 1709.04 177.075 5
1 -4 -5 1667.45 224.989 3
1 -4 -5 1803.59 179.259 5
1 -4 -5 1262.67 203.041 2
-1 4 5 1536.51 210.324 8
-1 4 4 5919.02 397.699 3
-1 4 4 5313.76 146.435 1
1 -4 -4 5792.91 390 2
1 -4 -4 5851.57 245.329 5
-1 4 4 5793.44 400.122 7
-1 4 4 5664.86 338.296 8
1 -4 -4 5960.16 395.702 3
-1 4 4 5578.7 239.003 5
1 -4 -4 5706.92 362.952 6
1 -4 -3 4484.65 344.025 2
-1 4 3 5222.9 363.964 7
1 -4 -3 5028.73 363.52 11
-1 4 3 4873.05 366.72 3
1 -4 -3 5022.78 323.792 6
1 -4 -3 4353.47 287.261 8
1 -4 -3 4666.68 347.604 3
1 -4 -3 4875.9 149.121 5
-1 4 3 5487.74 337.822 6
1 -4 -2 34469.6 904.671 3
1 -4 -2 34763.6 758.939 8
-1 4 2 34414 876.21 7
1 -4 -2 36114.7 790.244 6
-1 4 2 35689.5 922.413 3
1 -4 -2 34357.6 888.827 11
-1 4 2 35834.3 796.537 6
1 -4 -1 -176.968 130.388 11
-1 4 1 368.466 158.466 3
-1 4 1 143.815 87.0767 6
1 -4 -1 75.1311 103.663 6
1 -4 -1 143.646 133.353 3
1 -4 -1 132.47 104.185 7
1 -4 0 -88.9047 110.77 6
1 -4 0 159.452 119.273 11
1 -4 0 210.779 148.796 3
-1 4 0 -111.722 122.757 3
1 -4 0 129.859 118.879 7
1 -4 0 65.9146 51.3124 5
-1 4 0 110.991 84.7637 6
-1 4 0 -17.6721 117.218 11
1 -4 1 61707.2 871.737 5
1 -4 1 60804.6 1071.05 6
-1 4 -1 61625 1071.57 6
1 -4 1 59585.2 1185.97 11
-1 4 -1 61162.4 870.634 5
-1 4 -1 59111 1189.02 3
-1 4 -1 61188.1 1211.71 11
1 -4 2 74129.2 1492.18 4
-1 4 -2 79624 1381.01 3
1 -4 2 79082.5 1187.44 5
1 -4 2 78977.8 1412.55 11
-1 4 -2 79089.5 1195.84 5
-1 4 -2 77737.7 1385.34 11
-1 4 -2 79968.7 1296.55 6
-1 4 -3 4252.99 331.696 3
1 -4 3 3441.81 342.275 1
1 -4 3 4032.14 390.079 4
1 -4 3 3594.61 333.314 9
1 -4 3 3331.36 290.765 5
1 -4 3 3199.59 327.86 11
-1 4 -3 3500.36 311.751 6
-1 4 -3 3481.75 308.724 5
-1 4 -3 3890.01 337.946 11
-1 4 -4 19457.7 692.667 3
-1 4 -4 19419.9 749.536 6
1 -4 4 18440.5 803.344 4
-1 4 -4 17703.9 719.005 11
1 -4 4 17865.8 728.143 5
1 -4 4 18690.6 764.249 9
-1 4 -4 19185.1 762.82 5
1 -4 4 19706.2 850.899 1
-1 4 -5 6862.49 508.513 5
-1 4 -5 6279.61 398.353 3
1 -4 5 5416.67 505.607 1
1 -4 5 6042.09 492.597 4
-1 4 -5 6150.91 453.315 11
1 -4 5 6374.6 473.436 9
1 -4 6 4848.19 521.112 1
-1 4 -6 5807.82 467.71 11
1 -4 6 5181.38 475.856 4
-1 4 -6 6407.79 536.578 5
1 -4 7 4886.54 491.578 4
-1 4 -7 5024.15 439.302 11
1 -4 7 4471.91 526.999 1
-1 4 -7 5725.24 551.781 5
-1 4 -8 12992.3 882.669 5
1 -4 8 12478.8 775.978 4
1 -4 8 12375.7 922.41 1
-1 3 12 -120.231 183.704 2
-1 3 12 -173.087 260.85 1
1 -3 -12 88.3398 199.008 5
1 -3 -11 3872.99 510.551 5
-1 3 11 3403.15 430.46 1
-1 3 11 3368.05 382.899 2
1 -3 -10 2396.12 380.014 5
-1 3 10 2493.08 360.199 1
-1 3 10 2337.41 333.188 2
-1 3 9 67504.1 1562.52 1
1 -3 -9 65347.5 1633.37 5
1 -3 -9 65214.7 1201.44 3
1 -3 -9 63640.2 755.126 4
-1 3 9 68223 1517.62 2
1 -3 -8 32805.7 1059.26 5
-1 3 8 31369.1 984.951 2
1 -3 -8 30993.9 589.235 4
1 -3 -8 30935.1 819.272 3
-1 3 8 30613.7 962.581 1
-1 3 7 4389.72 364.26 2
1 -3 -7 3977.49 231.361 4
1 -3 -7 3662.76 291.841 3
1 -3 -7 3543.79 336.994 5
-1 3 7 4085.22 358.272 5
-1 3 7 4162.75 329.117 1
-1 3 6 853.831 169.628 5
1 -3 -6 659.985 142.469 3
1 -3 -6 1117.1 203.718 5
-1 3 6 1117.78 167.251 1
-1 3 6 1003.71 183.471 3
1 -3 -6 830.467 124.829 4
-1 3 6 1258 207.803 2
1 -3 -5 7415.22 326.598 4
1 -3 -5 8118.9 382.518 5
-1 3 5 8013.43 379.431 5
1 -3 -5 8330.26 453.47 6
1 -3 -5 7819.93 436.383 2
-1 3 5 8249.53 413.359 3
-1 3 5 8432.87 339.061 1
1 -3 -5 8247.79 413.623 3
1 -3 -4 16557.8 581.782 6
-1 3 4 15240.6 539.875 8
1 -3 -4 15792.8 572.074 2
-1 3 4 15201.7 545.285 3
-1 3 4 15256 438.354 5
1 -3 -4 15272.9 438.676 5
1 -3 -4 15523.9 546.366 3
-1 3 4 15279.5 353.336 1
-1 3 3 60430.6 671.132 5
-1 3 3 62047.6 1080.71 3
1 -3 -3 62549.4 1073.15 3
-1 3 3 62153.9 976.955 8
1 -3 -3 61112.3 1011.08 6
1 -3 -3 62668.9 681.431 5
1 -3 -3 61558.4 1067.6 2
1 -3 -2 147944 1477.12 6
1 -3 -2 149508 1437.79 8
-1 3 2 147608 1566.26 7
-1 3 2 149710 1474.2 6
-1 3 2 148994 1646.08 3
1 -3 -2 150543 1625.87 11
1 -3 -2 152476 1652.64 3
1 -3 -1 149827 1638.85 3
1 -3 -1 149549 1426.45 6
1 -3 -1 147757 1579.8 11
1 -3 -1 149100 1558.58 7
1 -3 -1 148386 882.807 1
-1 3 1 152438 1432.77 6
-1 3 1 152849 1658.49 3
1 -3 0 59859.3 913.626 6
-1 3 0 62086.9 1060.54 3
1 -3 0 61554 1020.42 11
1 -3 0 62686.6 1064.38 3
1 -3 0 61213.8 581.924 5
-1 3 0 61630.3 1031.28 11
-1 3 0 60617.4 589.005 5
-1 3 0 62550.8 939.376 6
1 -3 0 61221.3 1028.62 7
1 -3 1 2468.35 171.03 5
-1 3 -1 2516.04 235.251 3
-1 3 -1 3164.56 254.245 11
-1 3 -1 2781.08 181.804 5
1 -3 1 2381.74 226.634 11
1 -3 1 2267.15 205.415 6
-1 3 -1 2677.62 216.77 6
-1 3 -2 42201.8 888.612 11
1 -3 2 41063.3 880.167 11
1 -3 2 40507.8 868.48 6
1 -3 2 41077 806.7 5
-1 3 -2 39972.2 800.971 5
-1 3 -2 40639.7 868.923 3
-1 3 -2 39715.8 854.719 6
1 -3 3 4176.52 350.049 1
-1 3 -3 4759.06 328.284 11
-1 3 -3 4753.28 332.332 6
1 -3 3 4544.43 330.663 9
-1 3 -3 4025.38 307.325 5
-1 3 -3 4617.32 314.09 3
1 -3 3 5095.19 338.687 5
1 -3 3 4943.29 370.403 4
1 -3 3 4709.38 325.432 11
1 -3 4 1287.01 214.717 9
-1 3 -4 1348.71 234.058 5
-1 3 -4 1255.56 197.812 11
-1 3 -4 1446.13 221.616 6
1 -3 4 1643.27 236.808 5
1 -3 4 1533.49 232.125 4
1 -3 4 1254.14 237.267 1
-1 3 -4 1549.38 193.17 3
1 -3 5 278.917 164.176 4
-1 3 -5 140.211 107.291 3
-1 3 -5 -138.94 174.233 5
1 -3 5 162.116 164.766 1
1 -3 5 440.559 193.562 9
-1 3 -5 -169.227 128.128 11
-1 3 -6 2023 216.339 3
1 -3 6 1698.45 275.37 4
-1 3 -6 1525.2 284.558 5
1 -3 6 1507.03 311.992 1
-1 3 -6 1547.04 238.795 11
-1 3 -7 1373.53 320.43 5
1 -3 7 818.072 268.864 1
-1 3 -7 926.702 216.423 11
1 -3 7 918.495 206.042 4
-1 3 -8 5717.65 586.152 5
1 -3 8 4846.41 585.325 1
1 -3 8 4579.03 435.904 4
-1 3 -9 6595.77 669.221 5
-1 2 12 1103.28 303.381 1
1 -2 -12 1557.99 401.647 5
1 -2 -11 373.19 238.973 5
-1 2 11 133.098 157.813 2
-1 2 11 289.074 240.977 1
-1 2 10 1553.46 267.138 2
-1 2 10 1607.18 303.338 1
1 -2 -10 1315.85 307.023 5
1 -2 -9 2628.82 205.887 3
1 -2 -9 2448.48 155.837 4
-1 2 9 2525.21 306.011 2
1 -2 -9 2607.31 365.182 5
-1 2 9 2015.87 297.447 1
1 -2 -8 1106.81 254.458 5
-1 2 8 1080.63 223.584 2
-1 2 8 1265.85 256.809 1
1 -2 -8 1115.11 120.6 4
1 -2 -8 1185.3 161.182 3
1 -2 -7 174.972 80.616 4
-1 2 7 85.3389 147.25 2
1 -2 -7 117.629 83.3928 3
-1 2 7 433.002 177.281 1
1 -2 -7 189.759 156.172 5
1 -2 -6 4023.53 336.155 5
-1 2 6 3108.61 274.552 1
1 -2 -6 3332.66 235.088 3
1 -2 -6 3263.18 196.991 4
-1 2 6 2727.58 265.637 2
-1 2 6 3122.22 290.234 5
1 -2 -5 14078 389.082 4
-1 2 5 14672.2 543.25 5
-1 2 5 13820.9 532.049 2
1 -2 -5 13894.6 450.714 3
1 -2 -5 15413.2 554.347 5
-1 2 5 14510.7 459.215 3
-1 2 5 13592.8 482.477 1
1 -2 -4 42895.5 795.501 5
1 -2 -4 40304.5 658.001 4
-1 2 4 41258.3 840.744 2
-1 2 4 43132.4 798.014 5
1 -2 -4 42416.7 765.324 3
-1 2 4 42343 765.007 3
1 -2 -3 15639.1 465.92 3
-1 2 3 15655.9 482.361 8
1 -2 -3 15892.8 400.286 5
-1 2 3 15818.4 489.889 2
-1 2 3 16924.3 413.459 5
1 -2 -3 15740.6 492.512 2
-1 2 3 16841.5 477.656 3
1 -2 -3 16171.5 500.624 6
1 -2 -2 166579 1468.4 2
1 -2 -2 164776 1457.55 3
-1 2 2 164730 1379.86 8
1 -2 -2 165768 926.524 5
-1 2 2 166649 925.517 5
1 -2 -2 167300 1389.64 8
1 -2 -2 165108 1412.56 6
-1 2 2 167135 1429.51 6
-1 2 2 164864 1463.42 3
-1 2 1 445953 2190.41 6
-1 2 1 451697 2408 3
1 -2 -1 448650 2192.99 6
-1 2 1 452298 2224.74 7
1 -2 -1 449655 2406.32 3
1 -2 -1 449672 2227.4 7
1 -2 -1 447244 2314.37 11
-1 2 0 25827.7 551.334 11
1 -2 0 26064 533.951 6
1 -2 0 26424.7 550.486 11
1 -2 0 25665.1 426.217 1
-1 2 0 25541.9 335.725 5
-1 2 0 26430.3 592.347 3
-1 2 0 26353 539.922 6
1 -2 0 25506.7 332.217 5
1 -2 1 65153.5 912.158 6
-1 2 -1 66752.7 914.451 6
1 -2 1 65259.9 760.767 5
-1 2 -1 63758.2 928.397 3
-1 2 -1 64729.9 767.654 5
1 -2 1 65477.8 876.88 11
1 -2 1 66170.4 891.051 1
-1 2 -1 65814.2 885.321 11
-1 2 -2 112.397 99.5924 3
1 -2 2 -133.985 117.318 1
1 -2 2 76.9613 89.6564 11
1 -2 2 -52.6817 75.9868 5
-1 2 -2 -14.2282 90.2578 6
-1 2 -2 56.0303 84.0634 11
-1 2 -3 316.449 136.802 6
1 -2 3 266.069 115.581 4
1 -2 3 312.665 111.184 9
-1 2 -3 191.689 120.643 5
1 -2 3 167.636 85.1292 5
1 -2 3 346.772 153.682 1
-1 2 -3 57.7311 90.1654 11
-1 2 -3 195.328 96.8716 3
-1 2 -4 1516.2 181.302 11
-1 2 -4 1548.85 223.158 6
1 -2 4 1502.72 196.932 4
-1 2 -4 1441.51 173.481 3
1 -2 4 1585.4 221.213 5
1 -2 4 1402.33 184.575 9
-1 2 -4 1422.81 224.194 5
1 -2 4 1587.67 249.122 1
-1 2 -5 15066 675.462 6
-1 2 -5 15329.3 698.027 5
1 -2 5 15457.8 597.048 4
-1 2 -5 16408.1 566.506 11
-1 2 -5 16075 499.686 3
1 -2 5 16800.2 760.505 1
-1 2 -6 13050.7 450.379 3
1 -2 6 12665.2 568.597 4
-1 2 -6 13021.4 703.571 5
1 -2 6 12495.5 718.44 1
-1 2 -6 13727.2 559.911 11
-1 2 -7 4354.5 252.193 3
1 -2 7 4965.35 513.786 1
-1 2 -7 5034.17 490.812 5
1 -2 7 4313.21 363.39 4
-1 2 -7 4102.72 338.306 11
1 -2 8 150.655 148.536 4
-1 2 -8 -84.0207 126.978 11
1 -2 8 345.838 229.563 1
1 -2 9 -65.2819 238.98 1
-1 2 -9 353.742 214.867 5
-1 2 -10 4152.92 544.394 5
-1 1 11 543.66 209.354 1
1 -1 -11 830.072 295.76 5
-1 1 11 310.594 146.252 2
1 -1 -10 19.8304 185.987 5
-1 1 10 -75.5047 147.988 2
-1 1 10 74.0926 173.637 1
-1 1 9 30.2878 133.076 2
-1 1 9 -65.4487 79.9362 4
1 -1 -9 -134.045 196.377 5
-1 1 9 -176.943 217.186 1
-1 1 8 2426.95 287.894 2
1 -1 -8 2475.48 183.085 4
-1 1 8 2914.46 208.253 4
-1 1 8 3131.63 375.74 1
1 -1 -8 3581.18 404.312 5
-1 1 7 -91.3676 145.823 2
1 -1 -7 33.9523 65.7457 4
-1 1 7 74.4308 75.8039 4
1 -1 -7 42.5952 59.596 3
1 -1 -7 284.712 204.192 5
1 -1 -6 4078.46 222.462 4
1 -1 -6 4888.81 389.461 5
-1 1 6 4804.2 340.256 2
-1 1 6 4903.02 243.545 4
-1 1 6 4655.41 369.243 5
1 -1 -6 4750.24 209.122 3
1 -1 -5 13115.7 370.779 4
-1 1 5 13696.9 521.375 2
-1 1 5 14096.4 564.207 5
1 -1 -5 13583.2 559.526 5
-1 1 5 14598.6 389.069 4
1 -1 -5 14577.2 357.873 3
-1 1 4 81226.3 863.786 4
1 -1 -4 81200.4 1176.39 5
-1 1 4 80837.2 1124.45 2
1 -1 -4 82929.8 830.76 3
1 -1 -4 79286.2 851.692 4
-1 1 4 80670 1176.03 5
-1 1 4 81085.4 828.87 3
1 -1 -3 4354.47 248.158 5
1 -1 -3 4131.8 192.966 3
-1 1 3 4216.23 197.391 4
-1 1 3 4348.7 199.854 3
1 -1 -3 4389.06 201.245 4
-1 1 3 4211.84 249.034 2
-1 1 3 4429.36 244.733 5
1 -1 -2 224905 1519.55 6
1 -1 -2 227912 1323.63 5
-1 1 2 231295 1545.02 2
-1 1 2 227469 1319.47 5
-1 1 2 229970 1530.62 8
1 -1 -2 228714 1343.97 4
1 -1 -2 229950 1358.06 3
-1 1 2 227043 1347.13 3
1 -1 -1 785.513 107.028 2
-1 1 1 829.017 105.452 2
-1 1 1 785.698 90.9923 6
-1 1 1 877.774 116.971 3
1 -1 -1 913.669 116.234 6
1 -1 -1 767.469 101.639 8
1 -1 0 21402.1 361.276 7
1 -1 0 22037.2 320.685 1
-1 1 0 21370.2 285.684 5
1 -1 0 21264.4 411.982 6
-1 1 0 20682.7 409.919 6
-1 1 0 20679.8 317.426 1
1 -1 0 21820.6 377.607 11
1 -1 1 220900 1412.3 1
1 -1 1 225561 1193.47 11
-1 1 -1 231814 1500.24 6
-1 1 -1 226878 1196.27 11
1 -1 1 225019 1297.75 5
-1 1 -1 224231 1293.36 5
1 -1 1 225194 1509.06 6
-1 1 -2 129008 1309.62 6
-1 1 -2 127026 978.828 11
1 -1 2 126134 982.623 11
-1 1 -2 126767 1233.79 5
1 -1 2 126971 1320.6 1
1 -1 2 127421 1230 5
-1 1 -3 17250.5 562.531 6
1 -1 3 17640.5 583.991 1
-1 1 -3 18270.3 423.239 11
1 -1 3 18345.1 557.039 5
1 -1 3 17970.8 419.764 9
-1 1 -3 17029.8 547.083 5
-1 1 -4 27230.7 781.993 5
1 -1 4 26494.5 766.044 5
1 -1 4 25351.1 608.458 4
1 -1 4 26229.8 796.083 1
-1 1 -4 25328.8 750.681 6
-1 1 -4 25763.5 567.027 11
-1 1 -5 74315.7 1062.33 11
1 -1 5 71435.3 1080.85 4
1 -1 5 72931.6 1467.56 1
-1 1 -5 73479.3 1415.49 5
1 -1 5 72769.9 1411.95 5
-1 1 -5 73768.9 1416.04 6
-1 1 -6 3206.04 360.755 5
-1 1 -6 3938.73 280.583 11
1 -1 6 3555.89 378.491 1
1 -1 6 3868.05 272.538 4
-1 1 -7 32173.3 835.203 11
1 -1 7 35242 1222.53 1
-1 1 -7 33493.9 1157.92 5
-1 1 -7 34194.6 658.658 3
1 -1 7 34268.5 824.799 4
1 -1 8 12261.5 514.146 4
1 -1 8 12205.9 784.551 1
-1 1 -8 12179.7 769.532 5
-1 1 -8 12667.5 567.305 11
-1 1 -9 1864.27 253.004 11
-1 1 -9 1424.1 334.039 5
-1 1 -10 8.88626 257.868 5
1 -1 10 193.017 238.143 1
-1 0 11 5496.69 637.672 1
1 0 -11 5401.23 640.462 5
1 0 -10 -96.3127 266.495 5
-1 0 10 573.133 302.328 1
-1 0 10 85.5812 146.587 2
-1 0 9 22945.1 665.905 4
1 0 -9 24306.3 1105.49 5
-1 0 9 24763.2 1109.2 1
-1 0 8 24325.9 665.774 4
1 0 -8 23897.5 1022.42 5
1 0 -8 24401.3 813.92 9
-1 0 8 25146 1035.17 1
1 0 -7 4064 264.236 4
-1 0 7 4321.17 282.217 4
1 0 -7 4680.39 446.871 5
1 0 -6 29426.4 655.025 4
1 0 -6 28459.4 932.457 5
-1 0 6 28996.5 657.137 4
1 0 -5 21095.3 731.905 5
-1 0 5 20074.8 711.717 5
-1 0 5 20595.3 521.143 4
1 0 -5 20814.3 517.244 4
1 0 -4 5857.76 259.625 4
-1 0 4 6327.99 275.228 4
-1 0 4 6191.32 362.183 5
1 0 -4 6577.26 373.144 5
-1 0 3 47369.8 830.436 5
1 0 -3 46263.6 840.273 5
1 0 -3 48047.7 662.633 4
-1 0 3 47499 661.897 4
1 0 -2 35481.7 514.227 4
1 0 -2 34964.9 605.42 5
-1 0 2 35778.8 348.92 3
-1 0 2 35002.4 511.795 4
-1 0 2 35556.6 600.385 5
1 0 1 4540.91 196.382 6
-1 0 -1 4451.46 178.97 5
-1 0 -1 4288.98 182.124 1
1 0 2 20657.7 483.442 1
-1 0 -2 19967.2 465.797 5
1 0 2 20046.6 466.881 5
-1 0 -2 20273.4 484.488 1
1 0 3 216425 1806.56 5
1 0 3 223659 1871.38 1
-1 0 -3 217484 1816.67 5
1 0 4 279414 2407.99 1
1 0 4 278150 2355.96 5
1 0 4 272475 1513.32 4
-1 0 -4 278531 2360.94 5
1 0 5 41127.6 1014.25 5
1 0 5 40413 632.37 4
-1 0 -5 40005.5 1013.87 5
1 0 5 39783 1026.16 1
1 0 6 23733 881.433 1
-1 0 -6 23847.9 872.019 5
1 0 6 24792.1 528.983 4
-1 0 -7 1190.21 258.747 5
1 0 7 656.831 206.501 1
1 0 7 674.618 110 4
1 0 8 46.8816 77.931 4
1 0 8 -47.0235 178.121 1
1 0 8 -4.27654 96.2597 2
-1 0 -8 55.4807 116.198 11
-1 0 -8 -3.54017 159.932 5
-1 0 -9 12397.3 812.207 5
1 0 9 12648.9 521.855 2
1 0 9 13536.8 843.973 1
-1 0 -9 12828.5 586.906 11
-1 0 -10 6205 624.608 5
1 0 10 5859.53 622.96 1
-1 0 -11 2657.62 480.681 5
1 1 -10 692.422 262.17 11
1 1 -10 755.478 348.858 5
-1 -1 10 760.853 300.83 1
1 1 -9 11395.1 698.042 11
1 1 -9 13139.3 858.223 5
-1 -1 9 11700 547.852 4
-1 -1 9 12053.9 834.697 1
1 1 -8 13805.8 644.578 9
-1 -1 8 15086.4 609.025 4
1 1 -8 16414 881.856 5
-1 -1 7 119965 1614.94 4
1 1 -7 122134 2190.79 5
1 1 -7 122503 1795.86 9
1 1 -6 96664.6 1777.65 5
1 1 -6 92583.6 1476.72 9
-1 -1 6 96179.2 1374.48 4
1 1 -6 92195 1337.72 4
1 1 -5 60500.3 1291.56 5
-1 -1 5 60254.8 1285.89 5
1 1 -5 58207.4 1096.4 9
-1 -1 5 59398.5 1015.65 4
1 1 -5 59697.9 1009.64 4
-1 -1 4 27314.5 772.932 5
-1 -1 4 25676 625.701 4
1 1 -4 27064.4 779.606 5
1 1 -4 26464.5 633.718 4
1 1 -4 26086.3 677.468 9
-1 -1 3 5680.67 281.84 4
1 1 -3 5366.05 327.918 5
1 1 -3 5197.81 266.914 4
-1 -1 3 5228.26 310.849 5
1 1 -3 5346.66 291.063 9
-1 -1 2 71699.4 879.158 4
1 1 -2 67739.4 660.787 10
1 1 -2 67506.3 902.031 9
-1 -1 2 69972.7 941.779 5
1 1 -2 67252.4 929.156 5
1 1 -2 70511.3 863.069 4
1 1 -1 281595 1554.13 4
1 1 -1 281426 1600.16 9
-1 -1 1 279185 1548.01 4
1 1 -1 281718 1350.26 10
-1 -1 1 282400 1362.68 10
-1 -1 1 284703 1570.78 5
1 1 0 14577 312.795 11
-1 -1 0 14121.7 308.545 9
1 1 1 9595.51 211.429 4
-1 -1 -1 10044 205.137 9
1 1 1 9670.18 208.71 11
-1 -1 -1 9781.62 213.624 4
-1 -1 -1 10064.1 212.985 11
-1 -1 -1 9955.75 256.789 10
-1 -1 -1 9778.15 255.826 1
1 1 2 349327 1481.78 10
-1 -1 -2 352784 1830.65 5
-1 -1 -2 346965 1495.95 10
-1 -1 -2 351577 1792.73 1
-1 -1 -2 348114 1203.85 11
1 1 2 350442 1802.66 1
1 1 2 349759 1825.67 5
1 1 3 30376 640.771 1
-1 -1 -3 30561.4 653.559 5
-1 -1 -3 30497.3 640.432 1
1 1 3 31083.7 657.546 5
1 1 4 1710.71 206.224 1
-1 -1 -4 1858.53 208.225 5
1 1 4 1390.42 180.533 5
1 1 4 1751.6 126.149 2
1 1 5 28.2352 124.714 1
1 1 5 73.3534 64.8152 2
1 1 5 -14.7363 96.2315 5
-1 -1 -5 67.6425 111.833 5
1 1 6 13.9378 129.432 1
1 1 6 -120.746 157.777 5
1 1 6 83.9877 27.5929 4
-1 -1 -6 171.893 138.824 5
-1 -1 -6 146.874 67.9058 9
1 1 6 131.228 89.6057 2
1 1 7 401.146 107.911 2
1 1 7 415.181 200.788 1
-1 -1 -7 494.083 106.759 9
-1 -1 -8 7043.97 306.004 9
-1 -1 -8 7556.08 356.349 3
1 1 8 7051.09 551.166 1
-1 -1 -8 6523.97 531.786 5
1 1 8 6657.37 353.972 2
-1 -1 -9 42.6828 214.04 5
1 1 9 1.922 189.709 1
1 1 9 138.291 95.2533 2
1 1 10 274.418 194.67 1
-1 -1 -10 215.842 231.119 5
-1 -1 -11 1364.98 328.409 5
1 1 11 1744.42 390.788 1
-1 -2 10 3740.91 556.428 1
1 2 -10 3957.65 479.167 11
1 2 -10 4313.62 566.683 5
1 2 -9 -72.6308 259.444 5
-1 -2 9 -181.746 257.005 1
-1 -2 9 -104.002 172.66 4
1 2 -9 160.171 195.046 11
1 2 -8 5067.86 466.82 11
-1 -2 8 4145.58 376.485 4
1 2 -8 3764.02 468.84 5
1 2 -7 5506.39 499.436 5
-1 -2 7 6096.64 431.903 4
1 2 -7 6276.28 490.806 11
1 2 -6 31745.3 927.42 9
-1 -2 6 32126.7 903.607 4
1 2 -6 32321.6 999.066 11
1 2 -6 30926.1 1074.27 5
1 2 -5 432.139 151.926 4
1 2 -5 343.957 144.104 9
-1 -2 5 235.364 142.466 4
1 2 -5 546.33 203.364 5
1 2 -5 31.3942 153.392 11
1 2 -4 1623.64 208.839 9
1 2 -4 1884.93 213.72 4
-1 -2 4 1717.75 147.22 10
-1 -2 4 1634.93 208.078 4
1 2 -4 1643.01 242.181 5
-1 -2 4 1997.69 254.133 5
1 2 -4 1664.05 238.367 11
1 2 -3 16944.5 591.034 5
1 2 -3 16443.4 545.182 4
1 2 -3 16495.7 579.519 11
-1 -2 3 16137.1 546.717 4
-1 -2 3 17122.3 583.189 5
1 2 -3 17184.3 564.805 9
-1 -2 3 16341.4 416.354 10
-1 -2 2 7616.74 358.066 4
-1 -2 2 7246.05 283.638 10
-1 -2 2 7845.38 354.106 5
1 2 -2 7274.4 340.468 4
1 2 -2 7264.8 347.535 9
1 2 -2 7252.24 346.045 5
-1 -2 2 7171.2 357.514 9
1 2 -2 7783.29 368.24 11
-1 -2 2 7573.77 230.359 3
-1 -2 1 20732 490.633 5
-1 -2 1 20968.8 476.925 10
1 2 -1 22530.2 548.806 9
-1 -2 1 20925.1 543.267 9
-1 -2 1 21430.4 546.957 11
-1 -2 1 21580.3 416.343 3
1 2 -1 21455.2 552.888 11
-1 -2 1 21321 537.903 4
1 2 -1 21476.5 536.798 4
1 2 0 83160.9 956.269 4
-1 -2 0 84301.7 876.132 3
-1 -2 0 83571.4 971.506 11
-1 -2 0 81168.3 954.29 9
-1 -2 0 84332.5 965.427 4
1 2 0 82952.9 974.719 11
1 2 1 514627 2238.9 11
-1 -2 -1 515432 2139.22 4
-1 -2 -1 519583 2240.26 11
1 2 1 516757 2128.67 4
-1 -2 -1 504976 2018.77 1
-1 -2 -1 518394 2187.24 7
-1 -2 -1 503493 2304.44 3
1 2 1 508091 2026.54 1
1 2 1 511556 2198.86 7
-1 -2 -2 63349.9 742.469 1
-1 -2 -2 63771.2 764.679 11
1 2 2 62738.8 648.28 4
-1 -2 -2 61914.8 759.029 5
1 2 2 61588.1 755.595 11
1 2 2 63108.6 744.182 1
-1 -2 -2 62493.6 648.307 4
1 2 3 28178.7 601.33 5
1 2 3 27615.8 571.09 1
-1 -2 -3 26784.3 591.264 5
-1 -2 -3 27051 349.769 4
-1 -2 -3 28079.2 520.92 11
-1 -2 -3 27440.6 568.951 1
-1 -2 -3 26798.8 528.57 10
-1 -2 -4 3267.77 192.698 2
1 2 4 3663.05 264.457 5
-1 -2 -4 3356.1 254.304 5
-1 -2 -4 3641.44 253.353 1
-1 -2 -4 3723.04 202.368 10
1 2 4 3873.54 258.12 1
-1 -2 -5 1122.16 121.293 10
1 2 5 1423.44 203.682 1
-1 -2 -5 1477.08 207.267 5
1 2 5 1202.13 187.398 5
-1 -2 -6 3831.47 346.172 5
1 2 6 4598.85 363.838 5
1 2 6 4013.22 338.997 1
-1 -2 -6 3206.48 250.415 3
1 2 7 15010.5 693.814 1
-1 -2 -7 13951.6 680.902 5
1 2 7 14138.3 488.391 2
-1 -2 -7 13556.8 513.678 3
-1 -2 -8 3096.65 368.684 5
1 2 8 2303.5 327.864 1
1 2 8 2703.21 240.593 2
-1 -2 -8 2711.2 245.389 3
-1 -2 -9 483.218 130.466 3
1 2 9 625.789 208.103 1
-1 -2 -9 474.451 223.508 5
1 2 10 9908.92 719.64 1
-1 -2 -10 10341.6 749.341 5
1 2 11 848.93 239.667 1
-1 -2 -11 191.13 212.273 5
1 2 12 2394.23 437.398 1
-1 -3 9 7428 730.602 1
1 3 -9 5957.24 648.764 5
1 3 -9 5668.95 544.513 11
1 3 -8 2700.42 427.128 5
1 3 -8 2582.73 364.669 11
-1 -3 8 1945.95 307.777 4
1 3 -7 2500.88 394.109 5
1 3 -7 2123.01 322.655 11
-1 -3 7 2215.97 313.422 4
1 3 -6 33266.4 999.149 6
1 3 -6 33588.7 1160.55 5
1 3 -6 34835 1100.43 11
-1 -3 6 33016 1034.25 4
-1 -3 5 25683.9 874.685 4
1 3 -5 27017.4 923.421 11
1 3 -5 27582.5 962.951 5
1 3 -5 27350 818.144 6
-1 -3 5 26941.4 613.857 10
-1 -3 4 15.5748 129.706 4
1 3 -4 180.362 155.89 5
-1 -3 4 208.277 94.4591 10
-1 -3 4 151.465 124.781 5
1 3 -4 160.471 102.277 6
1 3 -4 56.5251 138.094 11
-1 -3 3 152.39 83.052 10
-1 -3 3 -3.39787 140.738 9
1 3 -3 241.767 87.4787 3
1 3 -3 287.575 100.024 6
-1 -3 3 99.566 117.341 4
-1 -3 3 110.472 110.822 5
1 3 -3 401.95 163.792 5
1 3 -3 258.457 145.874 11
1 3 -2 27243 764.225 4
-1 -3 2 27324.8 762.908 9
1 3 -2 25597.8 566.47 3
-1 -3 2 25727.4 684.957 5
1 3 -2 27874.5 775.457 11
-1 -3 2 25561.6 744.234 4
-1 -3 2 25508.9 554.744 3
1 3 -2 26368.7 503.627 6
-1 -3 1 319.128 124.013 4
-1 -3 1 335.632 126.186 9
1 3 -1 514.53 114.856 3
1 3 -1 385.956 57.0619 6
-1 -3 1 464.509 113.538 5
1 3 -1 293.698 107.147 4
1 3 -1 309.017 140.431 11
-1 -3 1 425.59 102.346 3
-1 -3 1 432.781 143.397 11
1 3 0 3106.42 241.92 4
-1 -3 0 3204.49 259.573 4
-1 -3 0 3630.87 265.507 9
-1 -3 0 3663.38 238.644 3
1 3 0 3539.91 261.329 11
1 3 0 3640.41 242.424 3
-1 -3 0 3703.4 267.169 11
1 3 1 19382.3 554.34 11
-1 -3 -1 18274.8 519.96 4
1 3 1 19953.7 553.976 3
1 3 1 18679.7 520.443 4
-1 -3 -1 18579.7 445.504 1
-1 -3 -1 18591.9 538.947 11
-1 -3 -1 18236.1 524.547 7
-1 -3 -1 18149.9 301.935 6
-1 -3 -1 18556.8 527.151 3
1 3 2 16362.6 501.058 11
1 3 2 16837.1 508.807 7
-1 -3 -2 17704.9 471.309 4
-1 -3 -2 18047.3 421.644 5
1 3 2 16907.2 278.018 8
1 3 2 16969.1 412.446 1
-1 -3 -2 17649.6 529.814 3
-1 -3 -2 17195.2 408.966 1
-1 -3 -2 16411.1 494.954 11
1 3 3 64.8413 81.238 1
-1 -3 -3 0.24702 79.4155 5
-1 -3 -3 62.9913 84.0284 11
-1 -3 -3 118.211 73.0896 1
1 3 3 84.6142 77.5159 5
-1 -3 -3 138.595 88.4505 3
-1 -3 -3 9.54397 65.7238 4
1 3 4 173.874 96.6351 1
-1 -3 -4 24.1035 105.518 3
-1 -3 -4 76.1628 81.2465 11
-1 -3 -4 87.9448 76.0509 1
1 3 4 205.7 104.472 5
-1 -3 -4 80.5106 95.4363 5
-1 -3 -4 31.3032 54.1154 4
-1 -3 -5 1772.8 200.546 1
-1 -3 -5 2237.67 233.034 5
-1 -3 -5 1820.36 101.904 4
1 3 5 2134.78 212.078 1
-1 -3 -5 2001.31 219.124 3
1 3 5 1900.74 218.607 5
-1 -3 -5 1916.61 190.178 2
1 3 6 2246.95 250.642 1
-1 -3 -6 2223.61 216.472 2
-1 -3 -6 1812.94 217.385 3
-1 -3 -6 2351.29 199.559 10
-1 -3 -6 2208.63 265.707 5
1 3 6 2138.73 250.218 5
-1 -3 -7 788.802 162.645 3
-1 -3 -7 560.117 192.714 5
-1 -3 -7 453.76 117.513 10
1 3 7 576.427 190.434 1
-1 -3 -8 53.9024 194.021 5
-1 -3 -8 113.996 119.416 3
1 3 8 237.13 139.959 1
-1 -3 -9 19970.2 715.704 3
-1 -3 -9 20881.7 961.088 5
1 3 9 22531.5 958.006 1
-1 -3 -10 910.545 261.734 5
1 3 10 1051.2 278.382 1
1 3 11 528.028 276.904 1
-1 -3 -11 633.534 296.366 5
-1 -3 -12 4320.68 549.685 5
1 3 12 2951.96 477.253 1
-1 -4 8 308.417 207.627 4
1 4 -8 206.695 175.456 11
1 4 -7 1563.25 335.514 5
-1 -4 7 1364.07 269.206 4
1 4 -7 2061.78 340.209 11
-1 -4 6 15075.1 775.053 4
1 4 -6 16351.7 858.513 5
1 4 -6 15111.5 779.789 11
1 4 -5 545.805 229.134 5
-1 -4 5 365.102 195.32 4
-1 -4 5 594.937 139.832 10
1 4 -5 428.68 138.833 6
1 4 -5 856.763 230.732 11
1 4 -4 8847.99 427.514 6
-1 -4 4 9651.38 453.216 10
-1 -4 4 9995.35 599.708 4
1 4 -4 9682.68 583.539 11
-1 -4 3 644.585 215.822 9
1 4 -3 491.977 111.9 6
-1 -4 3 595.075 163.743 5
1 4 -3 665.257 142.07 3
1 4 -3 803.188 214.949 11
-1 -4 3 452.964 164.352 4
-1 -4 2 92.5974 153.457 11
-1 -4 2 -49.1681 149.805 4
-1 -4 2 38.1239 95.7079 3
1 4 -2 5.73957 93.1302 3
-1 -4 2 266.437 166.999 9
-1 -4 2 100.938 108.13 5
1 4 -2 69.1119 63.5356 6
1 4 -2 -217.82 161.676 11
-1 -4 1 1453.83 227.397 9
1 4 -1 1420.31 186.015 3
1 4 -1 1478.86 111.011 6
-1 -4 1 1502.52 180.71 5
-1 -4 1 1855.33 247.834 11
1 4 -1 1756.34 240.76 11
-1 -4 1 1274.85 210.464 4
-1 -4 1 1440.33 183.691 3
1 4 0 -47.1634 105.585 3
-1 -4 0 99.2257 121.572 4
-1 -4 0 207.268 143.589 11
1 4 0 54.6168 38.7498 6
-1 -4 0 116.329 82.3572 5
-1 -4 0 -20.8888 104.98 3
-1 -4 0 45.4093 46.9996 6
1 4 0 -4.5784 124.24 11
-1 -4 -1 8474.99 240.554 6
1 4 1 8988.79 448.881 11
-1 -4 -1 8565.62 418.707 3
-1 -4 -1 8154.04 424.422 11
-1 -4 -1 8276.61 425.905 4
1 4 1 8690.68 430.992 3
-1 -4 -1 8556.96 432.752 7
-1 -4 -2 214587 1424.68 6
-1 -4 -2 211805 1567.96 1
-1 -4 -2 209556 2085.15 3
-1 -4 -2 215497 2085.82 11
-1 -4 -2 211856 1952.14 4
1 4 2 208523 2058.87 11
1 4 2 215872 2119.33 3
-1 -4 -2 211989 2072.53 7
-1 -4 -3 67508.1 1039.58 4
1 4 3 68517.6 740.352 8
-1 -4 -3 67179.7 897.409 5
-1 -4 -3 67179.3 884.662 1
1 4 3 68672.9 907.686 1
1 4 3 69492.5 1232.86 3
1 4 3 67155 1161.72 11
-1 -4 -3 66314.5 1197.32 3
-1 -4 -3 64607 1137.35 11
1 4 3 66165.5 1171.41 7
-1 -4 -4 136.087 84.5753 4
-1 -4 -4 159.755 100.354 5
1 4 4 155.288 75.7343 1
1 4 4 130.685 124.312 7
-1 -4 -4 42.9814 131.284 3
-1 -4 -4 -23.3697 70.6095 1
-1 -4 -4 203.683 111.191 11
-1 -4 -5 729.853 115.762 4
-1 -4 -5 1023.69 176.623 11
-1 -4 -5 694.543 135.543 1
1 4 5 611.321 126.276 1
1 4 5 700.443 128.28 5
-1 -4 -5 808.633 163.901 3
-1 -4 -5 738.891 155.865 2
-1 -4 -5 978.612 159.227 5
-1 -4 -6 7658.37 261.816 4
-1 -4 -6 8538.11 448.599 11
-1 -4 -6 7667.87 410.217 1
-1 -4 -6 8029.24 464.213 3
1 4 6 7835.2 411.47 1
1 4 6 7492.22 432.72 5
-1 -4 -6 7778.81 417.889 2
-1 -4 -6 8127.77 447.663 5
1 4 7 167.801 148.826 5
-1 -4 -7 -19.692 147.151 5
-1 -4 -7 38.3169 29.467 4
1 4 7 239.848 148.151 1
-1 -4 -7 -1.44419 117.595 2
-1 -4 -7 -81.3066 117.335 3
-1 -4 -7 25.6538 24.5766 4
-1 -4 -7 118.389 132.747 11
-1 -4 -7 97.6494 98.3309 10
1 4 8 5234.21 419.371 1
-1 -4 -8 4977.1 402.571 3
-1 -4 -8 4258.06 401.732 5
-1 -4 -8 4691.5 315.673 10
-1 -4 -9 13623.1 754.065 5
1 4 9 13345.3 714.905 1
-1 -4 -9 11928.3 610.166 3
-1 -4 -9 12894.1 492.06 10
1 4 10 5034.2 483.655 1
-1 -4 -10 5727.3 542.909 5
-1 -4 -11 3895.66 510.035 5
1 4 11 3181.99 428.345 1
-1 -4 -12 281.547 278.832 5
1 4 12 6.98681 212.084 1
1 5 -8 13742 886.466 11
-1 -5 8 14615.8 911.22 4
1 5 -7 59.3941 227.386 11
-1 -5 7 237.705 221.708 4
1 5 -6 697.6 258.487 11
-1 -5 6 1157.32 297.341 4
1 5 -5 193.371 202.985 11
-1 -5 5 7.12258 190.267 4
-1 -5 4 628.179 220.47 4
-1 -5 4 233.283 128.607 10
1 5 -4 318.759 160.889 11
-1 -5 4 60.4093 205.467 9
1 5 -4 151.73 98.5667 6
1 5 -3 6655.68 326.778 6
1 5 -3 6298.23 498.624 11
-1 -5 3 6989.79 529.85 9
1 5 -3 6885 404.495 3
-1 -5 3 6921.34 528.87 4
-1 -5 3 6137.18 441.658 5
-1 -5 2 1601.51 285.152 4
-1 -5 2 970.672 185.19 5
1 5 -2 1226.57 253.527 11
-1 -5 2 1287.32 198.381 3
1 5 -2 993.581 125.586 6
-1 -5 2 1009.95 242.156 9
1 5 -2 1171.25 197.312 3
1 5 -1 1616.62 126.598 6
-1 -5 1 1440.42 270.895 9
-1 -5 1 1396.92 257.219 4
1 5 -1 1527.06 215.573 3
1 5 -1 1393.93 258.729 11
-1 -5 1 1726.98 200.602 5
-1 -5 1 1482.55 210.616 3
-1 -5 0 5370.27 374.032 3
1 5 0 4620.65 189.355 6
1 5 0 4815.23 396.439 11
1 5 0 4782.35 367.142 3
-1 -5 0 4662.46 395.111 9
-1 -5 0 4656.49 390.452 11
-1 -5 0 4440.39 275.291 5
-1 -5 0 4671.5 198.608 6
-1 -5 0 4635.24 387.057 4
1 5 1 4724.82 371.286 3
-1 -5 -1 4179.2 193.976 6
-1 -5 -1 4783.43 387.806 11
1 5 1 4511.63 372.056 11
-1 -5 -1 4640.58 351.387 3
-1 -5 -1 4402.95 366.322 4
-1 -5 -1 4585.84 371.987 7
1 5 2 2125.63 270.762 11
1 5 2 2123.49 272.17 3
-1 -5 -2 2453.27 271.467 4
-1 -5 -2 2176.12 259.5 11
-1 -5 -2 2253.51 168.922 6
-1 -5 -2 2332.09 266.506 3
-1 -5 -2 2280.59 263.094 7
-1 -5 -2 2186.76 186.586 1
-1 -5 -2 2051.06 135.795 8
-1 -5 -3 20284.5 736.063 11
1 5 3 22880.8 782.094 7
-1 -5 -3 21774 773.761 3
-1 -5 -3 21020.6 524.671 1
1 5 3 20908 742.513 11
-1 -5 -3 21113.5 506.026 5
1 5 3 21172.6 769.793 3
-1 -5 -3 21755.4 701.862 4
-1 -5 -3 21545.5 562.261 6
-1 -5 -4 46147.8 1097.67 11
1 5 4 47118.7 1131.17 7
-1 -5 -4 46700.7 830.605 5
1 5 4 48775.5 828.834 1
-1 -5 -4 47658.7 1158.56 3
-1 -5 -4 48371.9 940.975 6
1 5 4 49629.4 762.81 8
-1 -5 -4 46813.4 799.822 1
-1 -5 -4 46375.1 963.977 4
-1 -5 -5 385.694 153.209 3
1 5 5 189.714 156.777 7
-1 -5 -5 259.004 116.371 4
1 5 5 154.022 92.2159 1
-1 -5 -5 160.589 105.748 11
-1 -5 -5 145.922 89.5031 1
-1 -5 -5 42.5306 94.6038 5
1 5 5 83.2989 86.6824 8
-1 -5 -6 25661.1 765.572 5
1 5 6 26143.3 772.735 5
-1 -5 -6 24930.8 703.478 1
-1 -5 -6 25073.9 843.727 11
-1 -5 -6 25139.4 632.886 4
-1 -5 -6 23871.6 805.462 2
1 5 6 26772.6 722.245 1
-1 -5 -7 16655.3 636.455 1
1 5 7 16221 676.414 5
-1 -5 -7 16289.4 678.081 5
-1 -5 -7 16496.6 704.478 11
-1 -5 -7 15471.7 664.714 2
-1 -5 -7 16408 452.781 4
1 5 7 17340.7 644.779 1
-1 -5 -8 1807.75 276.683 5
1 5 8 2543.48 281.315 1
-1 -5 -8 1725.79 123.545 4
-1 -5 -8 1797.03 125.886 4
-1 -5 -9 27222.7 837.096 10
-1 -5 -9 27736.3 1052.01 5
1 5 9 29723.4 1006.65 1
-1 -5 -10 69235.8 1777.21 5
1 5 10 70936.9 1685.32 1
-1 -5 -11 7659.06 658.59 5
1 5 11 6829.04 578.434 1
1 5 12 2568.29 430.107 1
-1 -5 -12 2242.24 395.901 5
1 5 13 7000.39 663.972 1
-1 -6 7 2558.87 455.961 4
1 6 -7 1788.32 347.044 11
-1 -6 6 7983.15 702.083 4
1 6 -6 6909.24 648 11
1 6 -5 2109.95 381.088 11
-1 -6 5 2023.4 371.794 4
-1 -6 4 468.551 227.624 9
1 6 -4 332.277 220.155 11
-1 -6 4 344.421 209.937 4
1 6 -3 12275.1 743.097 11
1 6 -3 12657.4 610.063 3
-1 -6 3 11876.4 737.845 9
-1 -6 3 12388.2 763.299 4
1 6 -2 5258.79 484.197 11
-1 -6 2 4522.39 472.583 4
1 6 -2 4349.87 237.916 6
1 6 -2 4407.69 377.472 3
-1 -6 2 4866.01 398.546 3
-1 -6 2 4412.68 464.299 9
-1 -6 2 4037.98 341.727 5
-1 -6 1 22061.2 932.328 4
1 6 -1 20810.6 891.422 11
1 6 -1 21058.7 807.853 3
-1 -6 1 19780.8 771.88 3
-1 -6 1 19401.1 653.266 5
-1 -6 1 21790.9 916.76 9
1 6 -1 20869.2 461.399 6
1 6 0 49339.9 1338.94 11
-1 -6 0 51745.3 1354.33 9
-1 -6 0 50660 1353.68 4
-1 -6 0 51599 951.169 5
-1 -6 0 52935 1266.76 3
1 6 0 51184.6 691.496 6
1 6 0 52374.6 1278.27 3
-1 -6 -1 299.283 197.16 4
-1 -6 -1 189.225 77.3756 6
1 6 1 68.62 148.762 11
1 6 1 214.919 170.542 3
-1 -6 -1 27.2524 82.4961 5
-1 -6 -2 8932.5 341.918 6
1 6 2 9798.15 591.405 11
-1 -6 -2 9283.84 323.811 8
-1 -6 -2 9290.16 408.198 1
1 6 2 10365.6 593.779 3
-1 -6 -2 9649.2 559.824 4
-1 -6 -3 9626.11 385.995 1
-1 -6 -3 9488.18 344.534 5
1 6 3 10409.6 597.812 3
1 6 3 9328.3 567.076 11
-1 -6 -3 10033.2 546.844 4
-1 -6 -3 9800.34 401.32 6
1 6 4 551.637 218.912 7
-1 -6 -4 416.625 129.193 6
-1 -6 -4 521.434 111.158 5
1 6 4 620.336 212.67 3
-1 -6 -4 489.836 104.612 1
-1 -6 -4 494.491 161.862 4
-1 -6 -5 411.298 141.25 4
-1 -6 -5 492.176 106.854 1
1 6 5 676.518 134.884 1
-1 -6 -5 737.929 175.324 6
-1 -6 -5 567.08 127.456 5
1 6 5 312.448 180.906 7
1 6 6 155.367 98.3687 1
-1 -6 -6 337.426 131.533 5
-1 -6 -6 182.194 103.918 1
-1 -6 -6 389.27 147.487 4
1 6 6 491.301 197.273 7
-1 -6 -6 527.272 173.294 6
1 6 6 393.606 132.344 8
-1 -6 -7 4671.99 310.803 4
1 6 7 4325.3 342.821 8
1 6 7 4652.59 329.467 1
1 6 7 3962.39 327.946 5
-1 -6 -7 4206.93 348.334 5
-1 -6 -7 4231.74 325.321 1
1 6 7 4632.64 452.138 7
-1 -6 -8 6249.09 458.166 5
1 6 8 5689.48 399.093 1
-1 -6 -8 6186.32 326.286 4
-1 -6 -9 4771.37 444.816 5
1 6 9 4708.38 394.22 1
-1 -6 -10 2340.09 368.44 5
1 6 10 3063.96 349.072 1
1 6 11 522.95 195.608 1
-1 -6 -11 436.935 228.576 5
-1 -6 -12 6557.13 642.83 5
1 6 12 6728.38 597.816 1
1 6 13 6115.66 617.545 1
1 7 -6 3400.37 507.415 11
1 7 -5 4234.15 547.208 11
-1 -7 5 4476.41 569.118 4
1 7 -4 8005.85 677.59 11
-1 -7 4 7584.61 688.509 4
-1 -7 4 7508.66 686.84 9
-1 -7 3 31429.7 1285 9
-1 -7 3 27644.7 1240.9 4
1 7 -3 29963.7 1252.1 11
-1 -7 2 15686.5 911.47 4
-1 -7 2 15587.4 887.212 9
1 7 -2 15235.1 865.381 11
1 7 -2 15554.1 765.478 3
1 7 -1 6158.27 566.133 11
-1 -7 1 6868.13 592.367 4
1 7 -1 6675.5 512.974 3
-1 -7 1 6006.15 556.4 9
-1 -7 0 1751.37 315.154 9
-1 -7 0 992.726 269.895 4
-1 -7 0 1135.4 170.005 5
1 7 0 1238.63 270.209 11
1 7 0 1749.46 293.803 3
-1 -7 -1 24137.1 1008.39 4
1 7 1 24489.3 1014.65 11
-1 -7 -1 23597.1 766.309 1
-1 -7 -1 25012.7 622.919 5
1 7 1 23847.3 969.154 3
-1 -7 -1 23997.6 541.145 6
1 7 2 21030.8 918.564 3
-1 -7 -2 20438.1 530.241 8
-1 -7 -2 20703.4 525.088 5
-1 -7 -2 19605.1 642.189 1
1 7 2 19812.3 902.724 11
-1 -7 -2 20591.4 542.987 6
-1 -7 -2 20901.6 911.977 4
-1 -7 -3 40335 700.456 5
-1 -7 -3 40635.1 846.385 6
1 7 3 42651.7 1297.97 11
1 7 3 43283.4 1316.97 3
-1 -7 -3 40557.8 844.176 1
-1 -7 -3 41067.2 1231.51 4
-1 -7 -4 30134.8 1015.22 4
-1 -7 -4 30968.6 807.965 6
1 7 4 30908.3 1134.36 3
-1 -7 -4 29960.9 691.081 1
-1 -7 -4 30520.9 641.921 5
-1 -7 -5 26961.9 824.758 6
-1 -7 -5 26999.5 667.451 5
-1 -7 -5 26688.1 653.051 1
1 7 5 26092.4 1032.32 7
-1 -7 -5 25812.4 909.883 4
-1 -7 -6 18033.1 729.969 6
-1 -7 -6 17173.1 554.262 1
1 7 6 18375.3 885.228 7
-1 -7 -6 17874.6 607.149 5
-1 -7 -6 18213.8 740.093 4
-1 -7 -7 31841.2 928.502 4
-1 -7 -7 30586.1 879.193 5
-1 -7 -7 30607.4 1025.53 6
1 7 7 30489 789.092 1
1 7 7 32450.6 1192.16 7
-1 -7 -7 29361.3 775.74 1
1 7 7 30867.3 860.746 8
1 7 8 6939.12 420.045 1
1 7 8 6990.25 464.413 8
-1 -7 -8 6945.48 473.193 5
1 7 8 6724.99 586.435 7
-1 -7 -8 6943.63 416.504 4
-1 -7 -8 7345.63 547.638 6
1 7 9 122.537 195.172 7
1 7 9 236.73 153.448 1
-1 -7 -9 161.495 139.139 5
1 7 9 48.7671 139.266 8
-1 -7 -9 -193.099 212.081 6
-1 -7 -10 14070.1 853.544 6
1 7 10 13745.9 756.522 8
1 7 10 15252.5 721.186 1
-1 -7 -10 13954.6 772.989 5
1 7 11 1101.22 273.435 8
1 7 11 1278.99 251.814 1
-1 -7 -11 1177.66 303.208 5
-1 -7 -12 -33.075 196.371 5
-1 -7 -13 775.119 323.54 5
1 8 -4 564.742 259.07 11
1 8 -3 74.1487 234.479 11
-1 -8 3 205.037 284.978 9
-1 -8 3 361.039 253.183 4
-1 -8 2 2076.92 427.949 4
1 8 -2 1570.27 363.793 11
-1 -8 2 1723.93 388.839 9
-1 -8 1 760.253 310.213 9
1 8 -1 716.87 234.652 3
-1 -8 1 720.337 309.71 4
1 8 -1 725.382 271.112 11
1 8 0 1047.18 293.575 11
-1 -8 0 971.012 297.742 4
-1 -8 0 668.999 251.044 9
1 8 0 906.746 258.119 3
-1 -8 -1 649.277 285.596 4
-1 -8 -1 1415.94 335.751 9
1 8 1 1442.33 324.842 3
1 8 1 1147.08 332.194 11
-1 -8 -2 5744.1 271.637 5
1 8 2 7277.19 602.301 3
1 8 2 6753.08 586.499 11
-1 -8 -2 6193.39 313.536 6
-1 -8 -2 6019.83 550.971 4
1 8 3 8578.22 666.03 11
-1 -8 -3 7731.21 293.154 5
-1 -8 -3 8942.73 659.623 4
1 8 3 9770 691.352 3
-1 -8 -3 8698.26 413.201 6
-1 -8 -4 30185.2 829.045 6
1 8 4 29196.8 1191.47 3
-1 -8 -4 28672.5 576.275 5
-1 -8 -4 28945.6 1106.6 4
-1 -8 -5 36114.6 979.285 6
-1 -8 -5 33734.1 696.431 5
-1 -8 -5 35842.9 1190.08 4
-1 -8 -6 12930.3 701.733 4
-1 -8 -6 13553.5 503.444 5
-1 -8 -6 13325.4 646.657 6
1 8 6 14040.1 842.48 7
1 8 7 3086.34 416.734 7
-1 -8 -7 3778.68 381.919 6
-1 -8 -7 3587.02 301.248 5
-1 -8 -7 3188.22 351.088 4
1 8 8 1363.96 340.077 7
-1 -8 -8 1918.61 271.271 4
-1 -8 -8 1767.04 250.285 5
1 8 8 1621.34 201.772 1
-1 -8 -8 1827.46 307.804 6
-1 -8 -9 5554.77 524.085 6
-1 -8 -9 5031.1 428.112 5
1 8 9 4797.58 415.402 8
1 8 9 5441.71 584.142 7
-1 -8 -10 10942.1 676.181 5
1 8 10 11676.5 863.975 7
-1 -8 -10 11107.7 779.471 6
1 8 10 9969.34 641.309 8
-1 -8 -11 1574.53 356.233 6
-1 -8 -11 1596.41 309.372 5
1 8 11 1729.6 375.864 7
1 8 11 1998.58 335.393 8
-1 -8 -12 1471.28 327.018 5
1 8 12 932.697 296.181 8
1 9 -2 1836.89 433.17 11
1 9 -1 1496.2 340.122 11
-1 -9 1 1417.96 410.6 9
-1 -9 0 1882.16 416.561 9
1 9 0 1179.89 370.597 11
-1 -9 0 1241.58 371.168 4
-1 -9 -1 2589.53 419.379 4
-1 -9 -1 1968.78 405.585 9
1 9 1 2493.94 417.935 11
1 9 1 2180.31 391.467 3
1 9 2 647.116 256.569 11
1 9 2 939.939 311.397 3
-1 -9 -2 375.843 261.281 4
-1 -9 -2 762.199 288.828 9
-1 -9 -3 1149.18 298.767 4
1 9 3 1275.23 319.889 3
-1 -9 -4 1110.92 299.651 4
-1 -9 -5 1703.01 331.39 4
-1 -9 -5 1747.48 252.612 6
-1 -9 -6 1244.2 283.806 4
-1 -9 -6 1372.42 232.153 6
-1 -9 -7 -12.1589 155.943 4
-1 -9 -7 159.833 157.505 6
1 9 7 -126.389 218.745 7
1 9 8 1527.69 362.569 7
-1 -9 -8 2017.44 322.086 4
-1 -9 -8 2320.97 345.334 6
-1 -9 -9 325.913 193.209 6
1 9 9 513.468 253.251 7
-1 -9 -10 492.269 232.905 6
1 9 10 971.233 334.596 7
-1 -9 -11 2426.95 418.565 6
-1 -10 -2 5115.35 616.235 4
-1 -10 -2 7610.29 741.81 9
-1 -10 -3 453.044 314.033 9
-1 -10 -3 563.042 270.195 4
-1 -10 -4 2294.45 436.265 4
-1 -10 -5 487.105 235.691 4
-1 -10 -6 1437.29 337.759 4
-1 -10 -7 1330.01 297.476 4
-1 -10 -8 746.698 235.703 4
-1 -10 -9 8729.07 669.967 6
-1 -10 -10 -50.2176 191.835 6
-1 -10 -11 35.5749 255.431 6
-1 -11 -6 4615.31 595.992 4
-1 -11 -7 1367.72 373.36 4
-1 -11 -8 4406.13 538.323 4
2 -10 -9 7322 707.16 6
2 -10 -8 8365.05 724.538 6
2 -10 -8 7849.75 704.456 4
2 -10 -7 4548.65 533.546 6
2 -10 -7 5383.37 629.718 4
2 -9 -10 739.096 276.626 6
2 -9 -9 7800.67 709.522 6
2 -9 -9 6558.76 597.6 4
2 -9 -8 24261.3 1172.62 6
-2 9 8 27135.1 1334.35 7
-2 9 8 26783.7 1360.18 3
2 -9 -7 9120.17 703.369 6
-2 9 7 8590.92 787.812 3
-2 9 6 1630.32 376.976 3
2 -9 -6 2281.51 371.178 6
2 -9 -5 4579.53 547.565 4
2 -9 -5 4812.08 496.502 6
-2 9 5 5015.67 596.471 3
2 -9 -4 8465.88 736.673 4
2 -9 -4 9082.03 639.122 6
-2 9 4 9724.55 815.296 3
2 -9 -3 7137.96 562.587 6
2 -9 -3 7579.4 718.005 4
-2 9 3 7448.39 720.135 3
2 -9 -2 12862.9 935.742 4
-2 9 2 12814.9 914.17 3
-2 9 1 6129.93 663.867 3
-2 9 0 12485.6 915.776 3
-2 9 -1 1361.31 331.077 3
-2 8 12 3173.55 517.038 8
-2 8 10 1443.85 357.668 3
-2 8 10 1206.29 353.445 7
2 -8 -10 939.006 281.432 6
-2 8 9 679.073 277.896 7
2 -8 -9 306.142 205.806 6
-2 8 9 635.868 252.914 3
-2 8 8 -91.284 214.867 3
2 -8 -8 -304.989 221.123 6
2 -8 -7 266.58 215.266 6
-2 8 7 143.957 254.072 3
-2 8 7 213.688 235.741 7
2 -8 -6 182.249 195.749 6
-2 8 6 508.42 271.885 3
-2 8 6 190.654 217.549 7
2 -8 -5 10.0999 182.695 6
-2 8 5 -319.512 287.872 3
-2 8 4 2898.06 451.902 3
2 -8 -4 2400.23 338.11 6
-2 8 3 -44.9759 221.013 3
2 -8 -3 -155.354 206.409 6
2 -8 -2 1344.58 250.296 6
2 -8 -2 1339.81 341.562 4
-2 8 2 1321.47 318.245 3
-2 8 1 18826.3 1039.31 3
2 -8 -1 18315.6 836.469 6
2 -8 -1 18655 1054.7 4
2 -8 0 13882.6 951.311 4
-2 8 0 12010 846.587 3
2 -8 1 739.144 237.783 4
-2 8 -1 1361.55 347.587 3
2 -8 2 958.233 297.382 9
-2 8 -2 1109.24 277.617 3
2 -8 3 1217.23 368.593 9
-2 7 12 4929.63 599.461 8
2 -7 -11 2659.3 467.992 6
-2 7 11 3567.49 497.253 8
2 -7 -10 2816.34 435.995 6
-2 7 10 2856.6 422.927 8
-2 7 10 2482.36 388.899 3
-2 7 9 3593.99 462.036 3
-2 7 9 4440.67 509.082 7
2 -7 -9 3542.44 454.85 6
2 -7 -8 6473.54 586.806 6
-2 7 8 7255.53 611.398 3
-2 7 8 7462.26 644.227 7
-2 7 7 15277.4 880.793 7
2 -7 -7 15843.1 841.192 6
-2 7 7 14586.8 855.456 3
-2 7 6 3053.18 415.094 7
2 -7 -6 3018.23 390.657 6
-2 7 6 2695.33 405.675 3
2 -7 -5 2557.04 339.64 6
-2 7 5 2237.45 370.199 7
-2 7 5 2466.15 394.15 3
2 -7 -4 1435.38 263.592 6
-2 7 4 1694.63 352.022 3
-2 7 3 860.575 291.826 3
2 -7 -3 528.052 206.713 6
2 -7 -2 252.625 183.97 6
-2 7 2 374.141 221.811 3
2 -7 -1 577.039 116.241 1
2 -7 -1 865.749 232.583 6
-2 7 1 779.243 247.321 3
-2 7 0 6737.9 583.296 3
2 -7 0 6845.3 506.908 6
2 -7 0 6153.4 380.664 1
2 -7 0 6316.56 595.083 4
2 -7 1 5119.17 406.062 1
2 -7 1 4938.72 541.657 4
2 -7 1 5001.16 447.865 6
-2 7 -1 5871.86 550.259 3
2 -7 2 2243.36 365.644 9
2 -7 2 2297.86 403.901 4
2 -7 2 2624.88 335.449 1
-2 7 -2 2275.1 394.222 3
-2 7 -3 -5.9086 206.808 3
2 -7 3 601.876 286.055 9
2 -7 3 124.09 218.057 4
2 -7 3 -228.475 207.358 1
2 -7 4 7268.43 695.513 4
2 -7 4 6746.17 632.898 9
2 -6 -13 1310.11 327.217 5
2 -6 -12 -27.5087 224.331 5
-2 6 12 204.113 236.398 8
-2 6 11 2823.51 450.95 8
2 -6 -11 2576.64 429.036 6
2 -6 -11 2741.71 385.71 5
2 -6 -10 2606.31 425.463 6
2 -6 -10 3782.16 411.75 5
-2 6 10 2768.73 416.256 8
-2 6 9 193.106 193.421 3
2 -6 -9 -69.5049 172.985 6
-2 6 9 -157.795 81.2956 1
2 -6 -9 -169.425 164.907 5
-2 6 9 160.243 190.784 8
2 -6 -8 27088.5 1107.8 6
-2 6 8 26490 1049.61 8
-2 6 8 26119.3 816.699 5
2 -6 -8 27636.6 845.057 5
-2 6 8 25589.7 1054.58 3
-2 6 8 25973.2 533.218 1
2 -6 -7 3054.35 394.767 6
2 -6 -7 2744.06 244.399 5
-2 6 7 2843.94 241.596 5
-2 6 7 3151 388.049 3
-2 6 7 2766.44 390.025 7
-2 6 6 72.7888 57.1702 5
-2 6 6 68.4118 166.499 3
2 -6 -6 130.745 180.694 6
-2 6 6 354.223 214.227 7
2 -6 -5 8160.36 543.701 6
-2 6 5 8667.17 613.533 3
-2 6 5 8132.67 581.888 7
-2 6 4 13027.8 709.541 7
-2 6 4 11432.8 696.547 3
2 -6 -4 11584.5 619.298 6
2 -6 -4 12432.5 620.19 8
2 -6 -3 88.2095 136.762 8
-2 6 3 268.035 182.21 3
2 -6 -3 -72.9427 149.607 6
2 -6 -2 369.551 51.1717 1
2 -6 -2 359.99 50.2234 1
-2 6 2 219.497 180.655 3
2 -6 -1 18963.1 754.799 6
2 -6 -1 18603.8 495.733 1
-2 6 1 19381.6 765.393 6
-2 6 1 18497 866.051 3
2 -6 0 16207.7 711.106 6
2 -6 0 15284.4 554.579 1
-2 6 0 15210.7 800.512 3
2 -6 1 15332.6 851.83 4
2 -6 1 17248 675.431 1
2 -6 1 17085.3 755.132 6
-2 6 -1 15729.7 824.047 3
2 -6 2 5567.12 540.96 4
2 -6 2 4803.25 409.718 1
-2 6 -2 4745.46 467.277 3
2 -6 3 5088.8 455.705 1
2 -6 3 5364.39 566.069 4
-2 6 -3 4149.97 425.514 11
2 -6 3 5583.28 520.397 9
-2 6 -3 4742.11 464.329 3
2 -6 4 1126.37 333.087 4
2 -6 4 689.226 251.163 1
2 -6 4 600.374 231.881 9
-2 6 -4 744.037 213.535 3
-2 6 -4 744.149 244.595 11
2 -6 5 -87.0161 192.339 9
2 -6 5 -227.43 236.812 4
2 -6 5 62.8792 196.66 1
2 -6 6 435.038 263.993 4
2 -6 6 906.329 295.757 1
2 -5 -13 2173.7 413.38 5
-2 5 12 941.962 281.194 8
2 -5 -12 951.099 307.581 5
2 -5 -11 4675.75 564.493 6
2 -5 -11 4976.56 523.844 5
-2 5 11 4029.63 514.576 8
-2 5 11 4679.98 434.949 1
-2 5 10 12368.9 630.178 1
-2 5 10 12257 805.647 8
2 -5 -10 11374.6 713.373 5
2 -5 -10 12040.4 835.381 6
-2 5 9 2098.52 352.787 8
2 -5 -9 1651.44 331.956 6
-2 5 9 2028.37 240.273 1
2 -5 -9 2456.78 312.921 5
-2 5 9 1748.56 291.461 3
-2 5 8 1961.19 209.184 1
2 -5 -8 1343.86 269.514 6
2 -5 -8 1781.07 240.878 4
2 -5 -8 1896.77 259.8 5
-2 5 8 1422.98 225.461 5
-2 5 8 1844.35 288.175 3
-2 5 8 1356.91 261.98 8
2 -5 -7 5182.07 400.94 4
-2 5 7 4683.83 248.394 1
-2 5 7 5487.35 458.757 3
-2 5 7 4592.09 334.372 5
2 -5 -7 4658.49 342.005 5
2 -5 -7 5409.74 477.428 6
-2 5 7 4802.47 438.34 8
2 -5 -6 10705.9 434.693 5
-2 5 6 9928.94 415.817 5
-2 5 6 10323.4 586.979 8
-2 5 6 8702.33 211.646 1
-2 5 6 10209.4 612.539 3
2 -5 -6 9489.65 585.627 6
-2 5 5 155.859 58.6768 5
2 -5 -5 431.578 161.232 6
-2 5 5 239.407 174.994 3
-2 5 5 330.123 183.958 7
-2 5 4 506.655 178.399 7
-2 5 4 801.827 195.032 6
2 -5 -4 532.084 157.686 8
2 -5 -4 914.352 213.446 6
-2 5 4 1059.48 233.485 3
2 -5 -3 5831.11 399.548 8
-2 5 3 5917.93 464.272 3
-2 5 3 6792.54 438.29 6
2 -5 -3 5590.12 402.269 6
-2 5 3 5774.71 429.837 7
-2 5 2 9390.75 497.81 6
2 -5 -2 8370.36 476.155 6
-2 5 2 9309.33 573.797 3
-2 5 1 437.651 140.202 6
2 -5 -1 625.823 101.094 1
2 -5 -1 366.908 162.16 6
-2 5 1 308.849 177.028 3
2 -5 -1 528.244 168.527 7
2 -5 0 14981 639.679 6
2 -5 0 15006 508.538 1
-2 5 0 14600.9 630.023 6
-2 5 0 13981.4 701.057 3
2 -5 1 6661.89 299.971 5
-2 5 -1 6492.97 440.833 6
2 -5 1 7053.21 414.584 1
-2 5 -1 6249.3 293.098 5
-2 5 -1 6906.4 510.698 3
2 -5 1 6123.66 441.379 6
2 -5 2 4693.39 408.075 6
2 -5 2 3903.36 288.737 5
2 -5 2 4386.1 369.644 1
-2 5 -2 3731.72 285.632 5
-2 5 -2 4745.64 411.079 11
-2 5 -2 4041.99 399.811 3
-2 5 -3 11561.9 623.225 11
2 -5 3 10932.8 537.876 5
2 -5 3 10903.1 696.194 4
2 -5 3 9956.69 606.18 1
-2 5 -3 10936.2 633.671 3
-2 5 -3 10976.1 536.589 5
2 -5 3 11110.8 645.185 9
-2 5 -4 -194.341 192.001 3
2 -5 4 -86.4006 163.71 1
2 -5 4 -215.258 173.244 9
2 -5 4 -40.4761 184.755 4
-2 5 -4 -123.281 133.451 5
-2 5 -4 -97.1894 166.827 11
-2 5 -5 65.9826 147.767 3
2 -5 5 248.733 195.56 1
2 -5 5 332.095 199.336 4
2 -5 5 416.651 197.456 9
-2 5 -5 202.397 167.658 11
-2 5 -5 321.359 181.157 5
2 -5 6 5618.19 573.538 4
2 -5 6 7029.39 641.816 1
-2 5 -6 6806.81 577.086 5
2 -5 7 3343.47 449.624 4
-2 5 -7 4113.72 498.035 5
2 -5 7 3996.97 556.352 1
-2 4 13 12219.7 849.148 1
-2 4 12 274.91 189.028 1
2 -4 -12 36.1709 226.449 6
2 -4 -12 408.481 273.074 5
2 -4 -11 5944.64 616.319 6
-2 4 11 6194.92 530.083 1
2 -4 -11 7245.91 628.815 5
2 -4 -10 9764.33 729.831 6
-2 4 10 9151.51 587.075 1
2 -4 -10 10339.7 700.983 5
-2 4 9 419.397 183.411 1
-2 4 9 -134.146 168.6 2
-2 4 9 -2.74886 187.754 8
2 -4 -9 -9.24228 131.359 3
2 -4 -9 -207.795 162.87 6
2 -4 -9 397.829 181.921 5
2 -4 -8 6247.21 517.037 6
-2 4 8 6911.45 461.723 3
-2 4 8 6646.43 413.624 1
2 -4 -8 6699.56 481.249 5
2 -4 -8 6157.65 378.017 4
-2 4 8 6550.13 521.886 8
2 -4 -8 6270.7 451.322 3
2 -4 -7 36581.4 1035.65 3
2 -4 -7 36831.7 1149.84 6
-2 4 7 37371.4 833.057 1
-2 4 7 36407 977.841 5
2 -4 -7 35573 895.471 4
-2 4 7 35977.6 1023.67 3
-2 4 7 38095.5 1153.55 8
2 -4 -7 36870.4 986.888 5
2 -4 -6 234.439 145.787 3
-2 4 6 39.7867 78.3339 1
-2 4 6 154.581 100.203 5
2 -4 -6 122.59 128.328 4
-2 4 6 444.175 167.11 3
-2 4 6 190.876 163.271 8
2 -4 -6 226.338 110.97 5
2 -4 -6 204.1 165.17 6
-2 4 5 1.52494 77.2839 5
-2 4 5 226.315 151.554 3
2 -4 -5 -64.2503 117.237 6
2 -4 -5 362.001 157.222 3
2 -4 -5 169.145 92.5908 5
-2 4 5 18.453 38.5292 1
-2 4 5 138.493 118.444 8
-2 4 4 65935.2 1306.78 7
2 -4 -4 63758.9 1324.75 3
-2 4 4 68476.2 795.368 5
-2 4 4 65062.3 1344.96 3
2 -4 -4 66484.6 1302.48 6
-2 4 4 65079.3 1296.02 6
2 -4 -4 64941.5 1340.5 2
-2 4 3 41862.3 999.854 6
2 -4 -3 41978.9 1047.66 2
2 -4 -3 40245.2 1055.95 3
2 -4 -3 41203.6 974.6 8
-2 4 3 41546 1060.13 3
2 -4 -3 42620.6 1004.82 6
2 -4 -3 42527.2 1057.39 11
-2 4 3 41678.3 1001.21 7
-2 4 2 54801.7 1115.55 6
2 -4 -2 55469.4 1118.05 6
2 -4 -2 53660.7 1164.15 11
2 -4 -2 57496.8 1131.39 8
-2 4 2 58359.5 1264.07 3
-2 4 2 55148.6 1132.69 7
2 -4 -2 54707.6 1167.15 2
-2 4 1 38937.8 930.405 6
2 -4 -1 39297.7 929.725 6
2 -4 -1 37921.2 561.892 1
-2 4 1 37802 1018.89 3
2 -4 -1 39006.3 976.164 11
2 -4 -1 38514.3 945.97 7
2 -4 0 45973.8 1025.96 6
2 -4 0 45537.6 798.017 1
-2 4 0 44049.8 563.32 5
-2 4 0 45061.9 1118.64 3
2 -4 0 45410 1049 11
-2 4 0 44748.1 1016.75 6
2 -4 0 44496.9 1037.54 7
2 -4 1 1436.88 189.99 1
-2 4 -1 1207.55 145.129 5
-2 4 -1 1187.3 200.111 6
2 -4 1 1230.23 203.094 11
2 -4 1 1060.77 203.307 6
2 -4 1 1371.65 143.993 5
-2 4 -1 1422.49 237.381 3
2 -4 2 -245.084 151.395 11
2 -4 2 297.786 147.754 1
-2 4 -2 375.244 176.014 6
-2 4 -2 144.676 165.062 3
-2 4 -2 99.493 116.382 11
2 -4 2 -68.8723 157.145 6
-2 4 -2 -53.3705 102.807 5
2 -4 2 141.942 89.015 5
2 -4 3 5571.11 373.363 5
2 -4 3 5361.09 425.431 1
-2 4 -3 6076.47 392.204 5
-2 4 -3 5922.55 434.416 3
2 -4 3 5758.9 411.033 11
-2 4 -3 6105.99 410.104 11
2 -4 3 6072.27 481.077 4
2 -4 4 11324.3 594.864 9
2 -4 4 11589.6 664.272 1
-2 4 -4 11447.3 568.732 11
-2 4 -4 10598.4 574.682 5
-2 4 -4 11461.8 588.431 3
2 -4 4 12049.9 683.736 4
2 -4 5 498.873 181.563 4
2 -4 5 616.646 206.542 9
-2 4 -5 424.751 191.586 5
2 -4 5 537.756 223.535 1
-2 4 -5 498.948 169.362 3
-2 4 -5 521.135 160.03 11
2 -4 6 188.552 184.092 4
2 -4 6 93.8787 192.734 1
-2 4 -6 103.253 136.579 11
-2 4 -6 -23.7554 179.392 5
2 -4 7 220.12 166.772 4
-2 4 -7 610.463 272.343 5
2 -4 7 289.831 206.116 1
-2 4 -8 595.441 236.019 5
-2 3 13 110.852 238.75 1
-2 3 12 359.762 206.094 2
-2 3 12 854.01 294.142 1
2 -3 -12 1391.4 397.781 5
2 -3 -12 1077.41 341.006 6
-2 3 11 -19.9985 166.896 2
2 -3 -11 -415.166 263.338 6
-2 3 11 125.348 163.138 1
2 -3 -11 84.3705 201.85 5
-2 3 10 1228.91 275.442 2
-2 3 10 1135.2 259.9 1
2 -3 -10 798.413 259.461 5
2 -3 -10 1229.77 310.828 6
2 -3 -9 1624.33 291.603 6
2 -3 -9 1775.83 202.134 4
-2 3 9 1193.58 273.072 2
2 -3 -9 1360.89 290.579 5
-2 3 9 1198.15 247.003 1
-2 3 8 -114.699 119.935 3
2 -3 -8 -14.4691 167.784 6
-2 3 8 180.146 168.197 2
-2 3 8 4.66232 132.917 1
2 -3 -8 94.2586 183.429 5
2 -3 -8 -87.115 138.376 3
2 -3 -8 77.5759 99.3677 4
-2 3 7 1165.78 229.054 2
-2 3 7 1157.74 210.802 5
-2 3 7 1057.19 184.397 1
2 -3 -7 1195.13 179.81 4
-2 3 7 1132.13 183.403 3
2 -3 -7 1184.21 233.191 5
2 -3 -7 1428.02 220.098 3
2 -3 -7 920.359 221.535 6
2 -3 -6 5638.41 374.034 5
-2 3 6 5365.84 314.712 1
2 -3 -6 5633.69 366.416 3
-2 3 6 4983.9 350.034 5
-2 3 6 5906.61 432.19 2
2 -3 -6 5270.1 332.419 4
2 -3 -6 5556.64 430.489 6
-2 3 6 5373.9 357.29 3
-2 3 6 5751.79 432.421 8
2 -3 -5 88915.7 1311.44 4
2 -3 -5 89972.8 1526.91 6
-2 3 5 89977.1 1531.43 2
-2 3 5 88417.5 1395.81 3
2 -3 -5 88695.4 1404.91 3
-2 3 5 89122.1 1268.98 5
2 -3 -5 88692.8 1256.66 5
-2 3 5 90258.8 1520.52 8
2 -3 -4 22584.7 730.129 6
2 -3 -4 21064.2 710.305 2
2 -3 -4 21692.1 701.959 3
-2 3 4 21818.8 534.909 5
-2 3 4 21346.2 714.535 2
-2 3 4 21137.9 687.366 3
-2 3 4 21480 704.131 8
-2 3 3 5052.53 341.801 6
2 -3 -3 5307.53 351.119 6
2 -3 -3 5240.52 354.958 2
2 -3 -3 3964.14 309.745 3
-2 3 3 5014.66 209.409 5
-2 3 3 5170.19 353.434 3
2 -3 -3 4787.96 322.839 8
2 -3 -2 4583.5 316.529 2
2 -3 -2 4079.08 291.871 8
-2 3 2 3666.5 130.14 5
-2 3 2 3822.04 311.846 3
-2 3 2 4204.3 287.213 7
-2 3 2 4317.35 301.973 6
2 -3 -2 4273.24 303.923 6
2 -3 -1 4953.25 304.849 7
-2 3 1 4484.54 301.896 6
2 -3 -1 4872.34 181.62 1
2 -3 -1 4400.8 302.943 6
-2 3 1 4282.95 128.838 5
-2 3 1 4902.68 348.323 3
2 -3 -1 4641.41 302.988 11
2 -3 -1 4808.99 315.006 2
-2 3 0 29515.6 757.324 6
2 -3 0 29303.9 754.978 6
-2 3 0 28915.9 461.226 5
2 -3 0 29086.5 573.698 1
-2 3 0 28236 797.51 3
2 -3 0 28843.1 727.798 11
2 -3 0 28425.6 711.565 7
2 -3 1 31816.7 822.678 6
-2 3 -1 30376.7 802.26 6
2 -3 1 30078 704.827 1
2 -3 1 30794.1 604.674 5
2 -3 1 30296.6 743.134 11
-2 3 -1 30366.3 606.838 5
-2 3 -1 29422 827.999 3
-2 3 -2 29549.4 838.796 6
2 -3 2 30337.4 854.306 6
-2 3 -2 29303.7 744.214 11
2 -3 2 28461.4 694.329 5
-2 3 -2 29941.1 850.59 3
-2 3 -2 29177.2 708.046 5
2 -3 2 28997.3 798.778 1
2 -3 2 28900 737.09 11
2 -3 3 41596.7 1066.77 1
-2 3 -3 41439.7 1063.61 6
2 -3 3 41809.9 958.484 5
2 -3 3 41165.6 907.712 11
-2 3 -3 41789.7 1014.05 3
-2 3 -3 42194.8 968.779 5
-2 3 -3 43663.5 925.925 11
2 -3 4 15872.2 660.081 5
-2 3 -4 17773.6 613.902 11
2 -3 4 17209.9 764.064 1
-2 3 -4 16846.2 658.495 3
-2 3 -4 17725.9 708.129 5
2 -3 4 16367.3 624.512 9
2 -3 4 17459.7 727.709 4
2 -3 5 5283.92 379.365 9
2 -3 5 4888.55 462.788 1
-2 3 -5 4566.15 322.887 11
-2 3 -5 5693.49 398.973 3
-2 3 -5 6447.04 482.033 5
2 -3 5 5111.55 416.242 4
2 -3 6 21871.9 1016.03 1
-2 3 -6 20675.4 919.408 5
-2 3 -6 20723.9 727.744 3
-2 3 -6 20270.7 704.693 11
2 -3 6 20001.9 836.421 4
2 -3 7 1466.67 336.802 1
-2 3 -7 1559.26 337.61 5
2 -3 7 1527.44 287.556 4
-2 3 -8 4124.06 510.063 5
2 -3 8 5116.18 602.822 1
2 -3 8 4278.85 428.103 4
-2 3 -9 446.705 279.256 5
-2 2 12 1857.33 337.97 2
-2 2 12 2844.06 454.9 1
2 -2 -12 3436.97 499.162 6
2 -2 -12 2431.76 452.555 5
-2 2 11 3995.15 483.664 1
-2 2 11 3762.14 451.479 2
2 -2 -11 3473.33 473.518 5
2 -2 -11 3704.23 475.702 6
-2 2 10 12751.3 742.182 2
-2 2 10 14203.4 819.93 1
2 -2 -10 13251.2 832.254 5
-2 2 9 7270.86 529.592 2
-2 2 9 6892.35 541.292 1
2 -2 -9 6595.07 560.241 5
2 -2 -8 1217.18 172.265 4
2 -2 -8 1033.11 260.172 5
-2 2 8 1029.94 231.069 2
2 -2 -7 28815.5 964.245 5
-2 2 7 31624 726.681 3
-2 2 7 30274.9 963.381 2
2 -2 -7 29484.8 719.896 4
2 -2 -7 28645.2 973.349 6
-2 2 6 -1.35384 107.938 3
2 -2 -6 -24.489 119.438 6
2 -2 -6 43.6509 99.3765 4
-2 2 6 -69.74 151.923 2
-2 2 6 -138.698 142.457 5
2 -2 -6 221.626 151.156 5
2 -2 -5 1231.46 193.477 6
2 -2 -5 1407.83 171.759 4
-2 2 5 1497.41 229.843 8
-2 2 5 1547.32 216.866 2
2 -2 -5 1704 212.58 5
-2 2 5 1330.37 183.024 5
-2 2 5 1612.8 182.287 3
2 -2 -5 1189.81 165.242 3
2 -2 -4 236.367 115.638 4
-2 2 4 225.138 135.481 8
2 -2 -4 318.95 126.534 6
-2 2 4 354.6 154.496 2
-2 2 4 405.022 105.584 5
-2 2 4 324.405 117.539 3
2 -2 -4 313.237 123.381 5
2 -2 -3 4239.24 294.072 6
2 -2 -3 4087.31 271.798 4
-2 2 3 3927.27 282.61 6
2 -2 -3 4073.97 286.641 2
-2 2 3 4288.57 229.767 5
-2 2 3 3973.03 275.861 3
-2 2 3 3487.47 277.527 8
-2 2 3 3635.48 279.62 2
-2 2 2 6039.54 326.3 2
2 -2 -2 6145.08 337.87 6
2 -2 -2 6427.45 335.775 8
-2 2 2 6195.08 343.371 3
-2 2 2 6543.68 230.282 5
2 -2 -2 5886.23 321.808 2
-2 2 2 5913.34 167.026 1
-2 2 2 5920.43 321.085 6
-2 2 1 29790.1 599.17 7
-2 2 1 29268.7 410.972 1
2 -2 -1 28697.4 677.234 6
2 -2 -1 28949.1 406.179 1
2 -2 -1 29547 659.674 2
-2 2 1 29591.7 720.912 3
-2 2 1 29830.4 692.626 6
2 -2 0 1372.46 142.907 7
-2 2 0 1202.86 175.59 6
-2 2 0 1035.02 119.077 1
2 -2 0 949.585 153.015 6
-2 2 0 1289.84 108.929 5
2 -2 0 1215.07 123.858 1
-2 2 0 1012.11 184.939 3
2 -2 0 1353.76 150.73 11
2 -2 0 1215.56 148.142 2
2 -2 1 5152.09 265.014 11
2 -2 1 5320.06 325.286 6
2 -2 1 4570.45 257.91 1
2 -2 1 5614.76 253.3 5
-2 2 -1 5478.35 330.486 6
-2 2 -1 5149.23 245.007 5
-2 2 -2 92678.2 1382.43 6
2 -2 2 93105.7 1387.45 6
2 -2 2 92807.5 1091.61 11
2 -2 2 94195.2 1323.12 1
2 -2 2 92219.4 1194.1 5
-2 2 -2 93163.3 1204.58 5
-2 2 -2 93915.7 1095.15 11
-2 2 -3 245631 2419.1 6
-2 2 -3 247966 1828.48 11
2 -2 3 244508 2214.44 5
-2 2 -3 243609 2219.39 5
2 -2 3 240075 1827.04 11
2 -2 3 245261 2407.93 1
-2 2 -4 12073.5 593.371 6
2 -2 4 10293.7 523.07 5
2 -2 4 11807.6 601.718 1
-2 2 -4 10091.4 522.178 5
-2 2 -4 10267.8 395.756 11
2 -2 4 10747.2 428.849 9
-2 2 -5 4932.71 411.689 5
-2 2 -5 5539.7 313.509 11
2 -2 5 5799.36 470.142 1
-2 2 -5 5314.1 362.46 3
2 -2 5 5783.98 392.851 4
2 -2 5 5993.15 346.196 9
2 -2 6 3209.17 393.294 1
2 -2 6 3594.52 324.955 4
-2 2 -6 3579.75 395.812 5
-2 2 -6 3711.69 301.4 3
-2 2 -6 3230.57 255.375 11
2 -2 7 1076.02 282.529 1
-2 2 -7 509.474 142.303 11
-2 2 -7 859.243 252.305 5
-2 2 -7 390.597 138.962 3
2 -2 7 535.044 177.467 4
-2 2 -8 2672.04 400.204 5
2 -2 8 2392.77 404.673 1
2 -2 8 2917.12 323.372 4
2 -2 9 13406.3 939.934 1
-2 2 -9 12627.3 881.055 5
-2 1 11 633.382 263.913 1
-2 1 11 141.815 197.898 2
2 -1 -11 394.915 248.695 5
-2 1 10 12013.1 728.852 2
2 -1 -10 13729.9 891.226 5
-2 1 10 13145 835.544 1
-2 1 9 4640.7 441.056 2
2 -1 -9 4874.8 505.493 5
-2 1 9 4674.34 315.636 4
-2 1 8 82642.5 1249.56 4
-2 1 8 79635.9 1639.56 2
2 -1 -8 83205.6 1822.13 5
2 -1 -8 77346.6 1210.92 4
2 -1 -7 99822.5 1332.14 4
-2 1 7 102129 1756.62 2
2 -1 -7 98717.7 1839.65 5
-2 1 7 101822 1356.66 4
-2 1 6 16210.2 525.505 4
-2 1 6 16532.1 416.356 3
-2 1 6 14886.2 659.379 5
2 -1 -6 15029.6 668.963 5
2 -1 -6 15503.8 512.583 4
-2 1 6 14952.4 639.172 2
-2 1 5 2540.75 221.264 4
2 -1 -5 2370.81 248.686 6
2 -1 -5 2371.21 205.431 4
-2 1 5 2374.65 175.287 3
-2 1 5 2586.73 260.022 5
2 -1 -5 2530.88 267.423 5
-2 1 4 174321 1863.11 2
2 -1 -4 172419 1819.05 6
-2 1 4 175350 1598.28 4
-2 1 4 173759 1776.55 5
-2 1 4 172310 1400.89 3
2 -1 -4 172033 1776.32 5
2 -1 -4 174726 1576.96 4
2 -1 -3 27409.9 665.441 6
-2 1 3 27336.2 684.857 2
-2 1 3 26257.8 559.425 3
-2 1 3 27531.9 695.013 8
-2 1 3 28912.8 630.436 4
-2 1 3 27818.5 625.286 5
2 -1 -3 28672 625.71 4
-2 1 2 662.424 126.388 6
2 -1 -2 698.899 140.611 6
-2 1 2 752.64 146.1 2
2 -1 -2 487.976 122.238 4
-2 1 2 795.955 152.667 8
-2 1 2 421.776 119.382 3
-2 1 2 861.496 117.778 5
2 -1 -2 637.739 133.862 8
-2 1 1 104313 1155.3 6
2 -1 -1 105216 1163.8 4
2 -1 -1 101192 1146.9 6
-2 1 1 103608 1088.24 2
2 -1 -1 103294 829.126 1
2 -1 -1 101578 1085 2
-2 1 1 103406 827.805 1
-2 1 0 23320.7 467.132 2
-2 1 0 23369.9 443.452 1
2 -1 0 21732.4 545.854 6
-2 1 0 22919.3 554.879 6
2 -1 0 22803.3 389.812 7
2 -1 0 22179.6 459.83 2
2 -1 0 23018.6 440.05 1
-2 1 -1 7.83598 92.4954 6
-2 1 -1 -25.8234 78.0822 5
-2 1 -1 -21.234 83.7589 1
2 -1 1 -23.9054 71.3758 5
2 -1 1 -38.3681 119.069 6
2 -1 1 65.0031 53.2262 11
2 -1 1 65.4978 60.7245 2
2 -1 1 4.80689 84.7877 1
-2 1 -2 17455.8 559.809 6
2 -1 2 17463 570.558 6
2 -1 2 16713.6 526.467 1
-2 1 -2 17039.6 499.524 5
-2 1 -2 17668.7 544.081 1
2 -1 2 17024.5 348.183 11
2 -1 2 17117.6 496.254 5
-2 1 -3 5807.23 373.394 6
-2 1 -3 7158.53 235.615 11
2 -1 3 7313.32 399.713 1
2 -1 3 6703.44 366.843 5
-2 1 -3 6672.9 364.512 5
-2 1 -4 16439.9 389.541 11
2 -1 4 16471.2 628.483 5
-2 1 -4 16091.7 623.635 5
2 -1 4 16053 414.166 9
2 -1 4 16374.8 654.384 1
-2 1 -4 15805.4 653.952 6
-2 1 -5 7005.12 482.38 6
2 -1 5 6352.74 465.201 1
-2 1 -5 6973.89 284.296 11
2 -1 5 6899.06 460.178 5
-2 1 -5 6560.99 457.044 5
2 -1 5 6208.39 348.882 4
2 -1 6 102.835 155.836 1
2 -1 6 -48.9497 92.9015 4
-2 1 -6 209.017 97.5532 11
-2 1 -6 410.296 176.821 5
-2 1 -7 2638.5 370.993 5
2 -1 7 2566.99 244.867 4
-2 1 -7 2302.6 204.649 11
2 -1 7 2344.14 366.419 1
2 -1 8 5001.58 521.015 1
2 -1 8 5333.64 358.73 4
-2 1 -8 4699 505.944 5
-2 1 -8 5457.44 324.246 11
2 -1 9 514.302 263.124 1
-2 1 -9 645.04 279.304 5
2 -1 10 13240.7 952.293 1
-2 1 -10 13208.1 926.768 5
-2 0 11 2067.4 387.251 1
-2 0 11 1919.73 343.389 2
2 0 -11 1809.99 413.364 5
-2 0 10 728.729 292.788 1
-2 0 10 471.946 214.841 2
2 0 -10 513.193 273.254 5
-2 0 9 7104.94 418.751 4
2 0 -9 7567.05 640.086 5
-2 0 8 7354.44 417.257 4
2 0 -8 8249.74 618.93 5
2 0 -8 7695.85 417.382 4
2 0 -7 2443.31 238.822 4
-2 0 7 2474.6 250.925 4
2 0 -7 2640.41 132.809 10
2 0 -7 2592.88 343.827 5
-2 0 6 18540.3 597.417 4
2 0 -6 19209.6 781.978 5
2 0 -6 18692 596.773 4
2 0 -5 86830.2 1211.76 4
-2 0 5 89739.1 1231.59 4
-2 0 5 88493.1 1513.25 5
2 0 -5 91305.4 1525.59 5
-2 0 5 86612 633.031 3
-2 0 4 23722.3 607.228 4
2 0 -4 23868.2 603.262 4
2 0 -4 24350 662.078 6
-2 0 4 23782.8 711.343 5
-2 0 4 24160.8 388.733 3
2 0 -4 24620.8 723.351 5
-2 0 3 22182.5 556.548 4
2 0 -3 23270.1 579.727 6
2 0 -3 22783 559.628 4
-2 0 3 23184.4 618.627 5
2 0 -2 269311 1773.47 6
-2 0 2 270618 1863.12 5
-2 0 2 271739 1897.85 8
2 0 -2 277058 1824.72 4
-2 0 2 271746 1781.56 6
-2 0 2 271475 1826.61 4
2 0 -1 62580.2 837.275 4
2 0 -1 62285.4 790.545 6
-2 0 1 62542.8 816.678 8
-2 0 1 61996.4 755.535 1
-2 0 1 62347.3 836.31 4
2 0 -1 63605.9 830.744 8
-2 0 1 63235.9 790.063 6
2 0 0 545202 2380.24 4
-2 0 0 543864 2337.23 6
2 0 0 539672 2323.21 6
-2 0 0 535793 2379.6 4
2 0 0 545332 2203.26 1
-2 0 0 542389 2178.79 1
2 0 1 180977 1359.72 4
-2 0 -1 185200 1405.4 1
-2 0 -1 182209 1465.45 6
2 0 1 180039 1494.13 6
-2 0 -1 181971 924.465 2
-2 0 -1 184133 1385.77 5
2 0 1 185994 1409.86 1
2 0 2 46738 822.135 1
-2 0 -2 48662.9 866.635 6
2 0 2 48330.7 869.166 6
-2 0 -2 48292 803.873 5
2 0 2 48262.3 804.375 5
-2 0 -2 47565.8 823.275 1
2 0 3 98546.7 1339.83 1
-2 0 -3 97559.1 1371.7 6
2 0 3 99213.5 1317.85 5
-2 0 -3 95754.3 1289.58 5
-2 0 -3 96461.6 1344.12 1
-2 0 -4 104265 1576.66 6
2 0 4 105967 1565.41 1
2 0 4 108724 1537.61 5
-2 0 -4 107668 1549.27 5
-2 0 -4 104611 688.416 11
2 0 5 8397.48 215.839 2
-2 0 -5 9041.71 521.485 6
2 0 5 8814.46 510.46 1
2 0 5 8833.33 495.112 5
-2 0 -5 9285.83 513.098 5
-2 0 -5 9479.4 265.102 11
2 0 6 18317.4 375.165 2
2 0 6 18961 498.159 4
2 0 6 18327.4 371.275 10
2 0 6 18932.7 815.112 1
-2 0 -6 17254 765.474 5
-2 0 -6 19862.4 449.01 11
2 0 7 5128.93 227.561 2
2 0 7 5350.75 476.833 1
-2 0 -7 5208 265.453 11
-2 0 -7 5330.41 478.686 5
2 0 7 5421.74 277.286 4
-2 0 -8 415.644 244.425 5
-2 0 -8 190.773 101.454 11
2 0 8 316.352 247.585 1
2 0 8 209.078 87.8464 4
2 0 8 143.495 66.3404 2
-2 0 -9 2773.9 411.748 5
2 0 9 2911.78 427.849 1
-2 0 -10 802.643 302.382 5
2 0 10 718.277 274.047 1
2 1 -11 1713.49 344.234 11
2 1 -10 4627.26 568.911 5
-2 -1 10 3572.75 504.74 1
-2 -1 9 3314.4 333.277 4
2 1 -9 4125.99 525.558 5
-2 -1 8 2272.42 272.941 4
2 1 -8 2534.98 370.448 5
2 1 -8 2225.82 252.537 4
2 1 -7 75867.8 1363.81 4
2 1 -7 78990.3 1790.6 5
-2 -1 7 80301.8 1406.01 4
2 1 -6 52750.3 1085.87 4
2 1 -6 53425.6 1356.23 5
2 1 -6 54557.8 1237.91 9
-2 -1 6 53804.6 1105.88 4
2 1 -5 9046.09 302.001 10
-2 -1 5 8537.88 507.315 5
2 1 -5 8772.66 515.093 5
2 1 -5 9482.57 439.92 4
-2 -1 5 9055.7 438.157 4
2 1 -4 459.317 99.5586 10
2 1 -4 818.044 148.921 4
-2 -1 4 327.922 132.608 4
-2 -1 4 507.676 153.229 5
2 1 -4 511.704 172.196 5
2 1 -3 44139.5 760.696 6
-2 -1 3 45012.2 853.373 4
-2 -1 3 44590.8 925.911 5
2 1 -3 44192.3 697.407 10
2 1 -3 44349.9 838.444 4
-2 -1 2 98210.7 1169.82 4
2 1 -2 101010 1178.9 4
-2 -1 2 96032.5 1207.86 5
2 1 -2 99018.8 964.233 6
2 1 -1 16844.3 456.811 4
2 1 -1 16797.3 354.779 6
-2 -1 1 16702.5 460.638 4
-2 -1 1 17766.2 408.437 8
-2 -1 1 17023.1 353.954 6
2 1 0 114860 909.972 8
-2 -1 0 113856 911.851 6
2 1 0 113808 909.208 6
2 1 0 115995 1096.33 4
2 1 0 117115 1113.88 1
-2 -1 0 115954 1097.58 1
-2 -1 0 115733 1094.28 4
2 1 1 444.083 119.941 1
2 1 1 545.21 107.898 4
-2 -1 -1 371.804 97.301 6
2 1 1 355.533 112.225 6
-2 -1 -1 417.813 109.716 4
-2 -1 -1 656.528 120.896 1
2 1 1 413.831 80.4556 11
2 1 1 554.306 58.7603 7
-2 -1 -2 17968.8 381.968 4
-2 -1 -2 17442.9 486.531 5
2 1 2 17611.1 242.618 11
2 1 2 17456.5 266.497 9
-2 -1 -2 18178.7 491.442 6
-2 -1 -2 17248.8 482.3 1
2 1 2 17279.2 482.825 1
2 1 2 16747.6 368.556 4
2 1 3 30404.8 468.01 4
-2 -1 -3 30358.2 718.177 5
-2 -1 -3 31052.2 722.279 1
2 1 3 30587.2 712.338 5
-2 -1 -3 30461.5 724.285 6
2 1 3 29983.1 709.058 1
2 1 4 31922.3 820.594 1
2 1 4 32347.2 471.462 4
2 1 4 32112.6 819.063 5
-2 -1 -4 33556.8 831.012 5
-2 -1 -4 32966.9 831.71 1
-2 -1 -4 31671.6 344.493 11
2 1 4 32913.6 589.367 10
2 1 5 33410.5 474.195 4
2 1 5 35419.3 585.592 10
2 1 5 35836 956.513 1
2 1 5 35188.9 945.321 5
-2 -1 -5 35382.5 952.415 5
-2 -1 -5 35811.8 969.372 1
2 1 6 17951.3 340.344 4
-2 -1 -6 18245.7 760.151 5
2 1 6 18792.9 767.226 1
2 1 6 17410.8 325.144 4
-2 -1 -7 3856.26 405.75 5
2 1 7 3684.94 142.201 4
2 1 7 4088.5 405.673 1
2 1 7 3424.03 134.717 4
2 1 8 34435.9 1220.59 1
-2 -1 -8 32200.8 1188.01 5
2 1 9 1576.39 314.294 1
-2 -1 -9 1764.98 201.03 11
-2 -1 -9 1276.44 314.3 5
-2 -1 -10 3255.2 471.965 5
2 1 10 3378.58 497.702 1
2 1 11 16076 1030.27 1
-2 -1 -11 16373.4 1039.47 5
2 2 -10 520.947 275.901 5
-2 -2 10 129.412 272.492 1
2 2 -10 252.443 223.052 11
-2 -2 9 1975.38 302.224 4
2 2 -9 1332.29 307.537 11
2 2 -9 2240.69 427.715 5
2 2 -8 18737.2 992.103 5
2 2 -8 18647 926.223 11
-2 -2 8 17988.7 771.762 4
2 2 -7 12524.5 724.632 11
2 2 -7 13120 769.549 5
-2 -2 7 12560.5 626.692 4
-2 -2 6 -149.716 158.223 4
2 2 -6 -111.673 182.434 5
2 2 -6 -54.0864 113.61 4
2 2 -5 45772.6 1209.52 5
2 2 -5 45825.6 1132.67 9
2 2 -5 47121.5 1071.83 4
-2 -2 5 48032.2 1096.08 4
-2 -2 4 7571.88 458.395 5
2 2 -4 7283.83 434.714 9
2 2 -4 6566.16 390.639 4
-2 -2 4 7375.47 417.961 4
2 2 -3 625.625 149.726 4
-2 -2 3 475.635 157.261 4
-2 -2 3 551.705 67.988 3
-2 -2 3 504.652 151.265 5
2 2 -3 126.756 112.554 9
-2 -2 2 42.5031 57.818 3
2 2 -2 -12.516 113.414 4
-2 -2 2 99.5585 111.828 4
-2 -2 2 145.779 109.86 5
2 2 -2 19.31 97.53 9
2 2 -2 0.26662 85.7354 10
2 2 -2 37.6959 62.296 6
2 2 -1 16503.8 280.586 6
-2 -2 1 15956.9 503.664 4
2 2 -1 15792.4 521.051 11
2 2 -1 16424.8 516.01 9
2 2 -1 16392 469.466 10
-2 -2 1 16274.5 471.212 10
2 2 -1 16884.9 514.913 4
2 2 0 55441.9 484.722 6
-2 -2 0 56188 862.579 10
2 2 0 54568.1 850.494 4
-2 -2 0 56379.3 856.982 1
-2 -2 0 55349 482.733 6
2 2 0 55268.2 856.832 11
2 2 0 55059.2 855.503 10
-2 -2 0 55391.2 862.255 4
-2 -2 0 55316.9 544.93 8
2 2 0 55773 856.093 9
-2 -2 -1 405784 2303.46 10
2 2 1 404265 2289.32 10
2 2 1 404657 2244.2 1
-2 -2 -1 405956 1699.06 6
-2 -2 -1 411513 2118.46 11
2 2 1 409226 2084.42 11
-2 -2 -1 410952 2237.49 1
-2 -2 -1 410092 2086.24 9
-2 -2 -1 405449 1872.28 7
2 2 1 411173 2064.92 9
-2 -2 -1 407396 2135.11 4
2 2 1 409213 2139.09 4
2 2 2 173364 1496.73 10
-2 -2 -2 176110 1270.03 4
-2 -2 -2 174103 1524.62 5
-2 -2 -2 174229 1519.92 1
-2 -2 -2 175929 1206.08 9
2 2 2 175099 1239.88 11
2 2 2 174643 1519.62 1
-2 -2 -2 175371 1521.14 10
-2 -2 -2 173183 1238.85 11
2 2 2 172470 1264.13 4
2 2 2 173516 1258.08 7
-2 -2 -3 8575.17 236.443 9
2 2 3 8709.47 383.373 1
-2 -2 -3 8685.35 377.298 1
2 2 3 8965.26 346.649 10
2 2 3 9130.81 388.537 5
-2 -2 -3 9251.79 405.356 5
-2 -2 -3 8787.49 269.949 11
2 2 3 8663.76 257.094 4
-2 -2 -3 9048.92 262.467 4
-2 -2 -4 1313.3 91.5115 4
-2 -2 -4 1285.93 109.833 2
2 2 4 1369.77 91.1971 4
2 2 4 1334.69 181.686 5
-2 -2 -4 1344.95 189.058 5
-2 -2 -4 1207.09 115.198 11
2 2 4 1448.45 196.699 1
-2 -2 -4 1215.74 80.4746 9
-2 -2 -4 1401.38 194.839 1
2 2 5 9760.55 490.258 1
2 2 5 9484.34 487.549 5
-2 -2 -5 8754.52 475.513 5
-2 -2 -5 9482.22 483.214 1
-2 -2 -5 10161.5 308.02 11
2 2 6 3216.12 322.855 5
-2 -2 -6 2501.68 291.36 5
-2 -2 -6 3078.41 313.508 1
2 2 6 3660.56 344.398 1
2 2 7 5834.38 455.217 1
-2 -2 -7 5341.16 451.911 5
2 2 8 26334.8 1028.62 1
-2 -2 -8 25232.6 1024.21 5
-2 -2 -9 22727.3 769.414 3
-2 -2 -9 23003.7 1059.37 5
2 2 9 24101.3 1063.24 1
2 2 10 649.385 245.319 1
-2 -2 -10 783.957 313.056 5
2 2 11 835.874 265.07 1
-2 -2 -11 1355.23 376.924 5
2 3 -10 322.28 236.744 11
2 3 -9 3545.31 469.767 11
-2 -3 9 3317.73 399.336 4
-2 -3 8 2041.32 317.134 4
2 3 -8 2323.99 385.978 11
-2 -3 7 395.303 184.376 4
2 3 -7 162.702 189.582 11
-2 -3 6 286.262 178.767 4
2 3 -6 485.381 236.853 11
2 3 -5 2747.94 363.322 11
-2 -3 5 2120.47 297.314 4
-2 -3 4 354.573 153.08 5
2 3 -4 299.304 116.568 4
-2 -3 4 460.515 167.393 4
2 3 -4 717.616 209.723 11
2 3 -4 223.056 142.014 9
-2 -3 3 4635.04 294.725 10
2 3 -3 4795.03 376.942 11
-2 -3 3 5007.59 373.893 5
-2 -3 3 4887.51 222.262 3
2 3 -3 4389.9 341.181 4
2 3 -3 4448.25 358.487 9
-2 -3 3 5431.49 383.824 4
2 3 -2 -56.0531 110.895 4
-2 -3 2 264.212 79.628 3
-2 -3 2 -21.5182 131.107 4
-2 -3 2 -40.1588 107.276 5
2 3 -2 -55.0272 130.386 11
-2 -3 2 94.2185 103.389 10
2 3 -2 -123.714 121.907 9
-2 -3 1 3252.46 218.801 3
-2 -3 1 2997.52 262.587 4
2 3 -1 2996.2 255.672 9
2 3 -1 2851.42 268.959 11
2 3 -1 2899.51 255.875 4
-2 -3 1 3309.1 254.117 10
-2 -3 1 2988.13 283.619 9
-2 -3 0 6633.41 366.067 11
-2 -3 0 6548.06 370.451 9
-2 -3 0 6355.83 314.36 3
2 3 0 6211.92 357.58 11
2 3 0 6205.69 338.76 4
-2 -3 0 6765.03 353.926 10
-2 -3 0 6387.26 354.824 4
-2 -3 -1 2468.02 118.597 6
2 3 1 3370.55 240.296 4
-2 -3 -1 2863.24 217.292 1
-2 -3 -1 2830.78 228.227 4
-2 -3 -1 2660.13 225.508 11
-2 -3 -1 2706.55 236.272 9
2 3 1 2816.75 241.309 11
-2 -3 -1 2966.29 219.983 7
-2 -3 -1 2779.36 238.928 10
2 3 2 54355.9 884.756 11
2 3 2 55560.4 873.513 7
2 3 2 55371.8 902.353 1
-2 -3 -2 56068.6 903.869 11
2 3 2 55460.2 854.271 4
-2 -3 -2 53986.5 954.429 10
-2 -3 -2 54912.5 889.105 1
-2 -3 -2 53763.5 858.82 9
-2 -3 -2 54953.5 853.027 4
-2 -3 -2 54377.4 866.929 7
2 3 3 454.759 96.6887 4
2 3 3 547.523 123.445 1
-2 -3 -3 290.387 94.0861 4
-2 -3 -3 357.2 115.382 5
-2 -3 -3 505.967 119.865 1
-2 -3 -3 200.142 90.4002 11
2 3 3 269.239 104.153 11
2 3 3 247.007 114.866 7
-2 -3 -3 349.368 116.263 10
-2 -3 -4 4328.44 293.957 1
2 3 4 4629.8 308.074 5
-2 -3 -4 4463.72 305.885 5
2 3 4 4651.05 204.258 4
-2 -3 -4 4819.89 260.512 11
-2 -3 -4 4842.07 296.654 10
2 3 4 4675.67 303.922 1
-2 -3 -4 4901.78 211.206 4
-2 -3 -5 4374.99 158.291 4
2 3 5 5242.7 351.989 1
-2 -3 -5 4666.6 255.947 2
2 3 5 5261.43 354.332 5
-2 -3 -5 4903.45 335.081 1
-2 -3 -5 4958.76 347.184 5
-2 -3 -5 4485.67 285.741 10
-2 -3 -5 4772.39 266.601 11
-2 -3 -6 531.305 157.971 1
-2 -3 -6 618.831 130.177 11
-2 -3 -6 436.597 159.302 5
2 3 6 518.275 172.249 1
-2 -3 -6 664.65 130.094 2
2 3 6 658.006 169.653 5
2 3 7 11386.1 607.412 1
-2 -3 -7 11840 631.11 5
-2 -3 -7 12475.5 465.368 11
-2 -3 -7 11903 564.166 3
2 3 8 19764.5 863.048 1
-2 -3 -8 18655.8 598.738 11
-2 -3 -8 18196.1 851.386 5
-2 -3 -8 18617.6 729.615 3
-2 -3 -9 16494.3 703.626 3
-2 -3 -9 17268.3 894.375 5
2 3 9 18019.5 893.082 1
2 3 10 6951.2 610.05 1
-2 -3 -10 7548.69 660.176 5
-2 -3 -11 4229.29 523.615 5
2 3 11 5647.41 603.644 1
2 3 12 3767.15 538.291 1
2 4 -9 2469.97 420.432 11
-2 -4 8 264.073 243.077 4
2 4 -8 169.745 241.806 11
-2 -4 7 1619.58 322.143 4
2 4 -7 1037.03 239.981 11
-2 -4 6 356.448 191.497 4
2 4 -6 425.292 219.516 11
-2 -4 5 1057.29 253.323 4
2 4 -5 1341.28 195.075 6
2 4 -5 836.035 223.061 11
-2 -4 4 2325.93 328.055 4
2 4 -4 2203.86 212.085 6
2 4 -4 2275.79 310.543 11
-2 -4 4 2379.24 254.495 10
-2 -4 3 815.798 132.333 3
2 4 -3 1087.69 130.299 6
2 4 -3 859.431 230.622 11
-2 -4 3 975.946 193.627 5
-2 -4 3 728.781 156.097 10
-2 -4 3 662.998 190.007 4
-2 -4 2 369.965 177.622 4
2 4 -2 442.08 150.996 4
2 4 -2 346.511 56.0828 6
-2 -4 2 422.763 169.953 9
-2 -4 2 463.693 126.942 5
-2 -4 2 596.547 155.219 10
-2 -4 2 389.215 117.629 3
-2 -4 1 3149.81 278.756 10
-2 -4 1 2891.65 282.149 4
-2 -4 1 2885.67 305.662 9
-2 -4 1 3443.72 256.247 3
-2 -4 1 3300.52 273.495 5
2 4 -1 3189.27 306.779 4
-2 -4 1 3027.44 317.234 11
2 4 -1 2953.71 294.433 11
-2 -4 0 776.953 179.027 9
-2 -4 0 836.542 144.765 3
2 4 0 819.357 161.927 4
-2 -4 0 899.591 199.628 11
2 4 0 1033.44 197.443 11
-2 -4 0 1023.45 185.641 10
-2 -4 0 712.99 176.34 4
-2 -4 -1 15057.2 228.898 6
2 4 1 17840 627.205 11
-2 -4 -1 17349.5 552.78 1
-2 -4 -1 17274.9 622.045 11
2 4 1 18031.4 610.583 4
-2 -4 -1 17414.3 606.517 4
-2 -4 -1 17381.2 598 3
-2 -4 -1 17068.2 615.408 10
-2 -4 -1 16916.6 608.597 9
-2 -4 -1 17247.1 597.038 7
2 4 2 2652.98 233.866 4
-2 -4 -2 2978.47 264.578 11
-2 -4 -2 3059.64 272.167 3
2 4 2 3258.02 280.755 11
-2 -4 -2 2979.04 229.258 1
-2 -4 -2 2832.1 266.882 10
-2 -4 -2 3227.8 265.536 4
-2 -4 -2 3018.34 258.248 7
-2 -4 -2 2709.75 251.537 9
-2 -4 -3 31192.3 713.383 1
2 4 3 32354.2 721.952 4
-2 -4 -3 31821.8 729.196 5
-2 -4 -3 32329.1 838.757 10
2 4 3 32927.1 739.276 1
-2 -4 -3 30932.5 709.095 4
-2 -4 -3 31219.3 783.895 11
2 4 3 31733.2 781.582 11
-2 -4 -3 30783.1 849.503 3
2 4 3 31790 791.17 7
-2 -4 -4 1711.53 223.829 3
2 4 4 1896.33 206.136 1
-2 -4 -4 2125.14 183.981 4
-2 -4 -4 2061.78 236.485 10
-2 -4 -4 2020.41 216.402 5
2 4 4 1714.9 209.469 7
-2 -4 -4 1697.57 198.563 11
-2 -4 -4 1840.36 202.647 1
-2 -4 -5 1237.04 200.456 3
-2 -4 -5 1170.99 130.719 4
2 4 5 1035.2 176.316 1
-2 -4 -5 1128.58 174.937 1
2 4 5 1198.95 183.043 5
-2 -4 -5 843.247 177.294 5
-2 -4 -5 922.457 158.005 11
-2 -4 -5 942.825 179.926 10
-2 -4 -6 1155.57 205.174 3
-2 -4 -6 1056.03 155.715 2
-2 -4 -6 1624 214.653 10
-2 -4 -6 1155.91 102.6 4
-2 -4 -6 1420.08 212.748 1
2 4 6 1297.32 207.417 1
2 4 6 1260.15 210.935 5
-2 -4 -6 1266.81 220.17 5
-2 -4 -6 1449.19 194.024 11
-2 -4 -7 2945.27 316.069 3
-2 -4 -7 2055.33 277.398 5
2 4 7 2911.85 311.65 1
-2 -4 -7 2817.72 302.701 1
-2 -4 -7 2488.45 250.387 11
-2 -4 -7 2738.82 267.328 10
-2 -4 -7 2809.75 254.436 2
2 4 8 5939.1 479.713 1
-2 -4 -8 5464.23 353.965 10
-2 -4 -8 5701.86 478.421 5
-2 -4 -8 5830.2 379.087 11
-2 -4 -9 3990.27 439.005 5
-2 -4 -9 3690.63 320.626 11
2 4 9 2956.3 366.948 1
-2 -4 -10 7236.5 618.812 5
2 4 10 7363.57 610.866 1
2 4 11 14963.5 913.484 1
-2 -4 -11 14205.9 912.209 5
-2 -4 -12 1101.59 376.35 5
2 4 12 1013.03 287.292 1
-2 -5 8 428.349 250.512 4
2 5 -8 183.232 235.02 11
2 5 -7 9.83653 244.169 11
-2 -5 7 341.521 239.566 4
2 5 -6 1575.01 330.641 11
-2 -5 6 1470.73 330.397 4
2 5 -5 35852.6 1278.64 11
-2 -5 5 35417.6 1266.45 4
-2 -5 4 30188.8 1111.36 4
2 5 -4 31806.7 695.406 6
-2 -5 4 29873.6 920.671 10
2 5 -4 30419.4 1134.05 11
-2 -5 3 1157.6 183.413 3
-2 -5 3 851.245 243.438 4
2 5 -3 1070.26 115.614 6
-2 -5 3 966.283 260.359 9
2 5 -3 1223.51 282.582 11
-2 -5 3 1000.98 202.748 10
2 5 -2 6092.56 168.026 6
-2 -5 2 7129.64 458.673 10
-2 -5 2 6299.67 500.023 9
-2 -5 2 6627.26 442.784 5
-2 -5 2 6993.92 399.751 3
-2 -5 2 6931.79 514.486 4
2 5 -2 7042.46 510.091 11
-2 -5 1 6497.07 404.527 5
-2 -5 1 6861.48 409.221 3
2 5 -1 6070.5 450.759 11
-2 -5 1 6081.37 420.292 10
-2 -5 1 7189.35 503.697 4
-2 -5 1 6347.88 482.478 9
-2 -5 0 2844.13 332.207 4
2 5 0 2620.56 308.324 11
-2 -5 0 2781.51 321.697 9
-2 -5 0 2813.26 315.641 11
2 5 0 3012.24 314.195 4
-2 -5 0 2398.01 231.408 5
-2 -5 0 2763.02 298.096 10
-2 -5 0 2579.49 264.822 3
2 5 1 23182.5 810.67 11
-2 -5 -1 24516.3 805.661 7
-2 -5 -1 24589.4 719.275 1
-2 -5 -1 24044.6 812.753 4
-2 -5 -1 23506.4 816.957 11
2 5 1 23878.6 800.426 4
-2 -5 -1 24629.2 794.054 3
-2 -5 -1 23957.8 813.906 9
2 5 2 29934.1 893.875 11
-2 -5 -2 30976.1 900.475 3
-2 -5 -2 30065.8 896.335 11
-2 -5 -2 29772 859.514 4
-2 -5 -2 30248.8 757.794 1
-2 -5 -2 30179.3 495.142 6
-2 -5 -2 30084.3 873.706 7
-2 -5 -3 476.933 135.382 4
-2 -5 -3 235.742 144.093 3
-2 -5 -3 404.328 121.9 1
-2 -5 -3 607.813 127.859 5
-2 -5 -3 611.356 170.11 11
2 5 3 437.33 145.287 11
-2 -5 -4 38800 857.201 1
2 5 4 37719.1 990.111 7
-2 -5 -4 37893.3 859.628 5
2 5 4 38794.3 863.326 1
-2 -5 -4 38155.2 978.795 11
-2 -5 -4 38524.2 1055.23 3
2 5 4 38007.1 976.254 11
-2 -5 -4 38422.8 872.794 4
2 5 4 38397.5 566.346 8
-2 -5 -5 3860.61 298.902 1
-2 -5 -5 3944.39 306.981 5
-2 -5 -5 4392.06 346.658 11
-2 -5 -5 3988.78 366.51 3
2 5 5 4071.78 305.422 1
-2 -5 -5 4120.69 349.667 10
-2 -5 -5 3813.46 266.828 4
2 5 5 3890.59 347.641 7
-2 -5 -6 9127.64 364.619 4
-2 -5 -6 8272.69 467.766 11
-2 -5 -6 9064.42 474.091 1
-2 -5 -6 9173.13 499.425 5
-2 -5 -6 9595.08 522.347 10
2 5 6 8502.33 462.538 1
-2 -5 -7 469.154 151.282 1
-2 -5 -7 564.952 165.746 10
-2 -5 -7 373.558 133.116 2
2 5 7 716.131 174.229 1
-2 -5 -7 797.343 177.099 11
-2 -5 -7 972.241 237.894 5
-2 -5 -7 581.38 95.2095 4
-2 -5 -8 78.9895 131.317 2
2 5 8 -31.2018 141.034 1
-2 -5 -8 15.4856 161.496 5
-2 -5 -8 -123.061 132.632 11
-2 -5 -8 -206.872 133.477 10
-2 -5 -9 -72.9523 179.931 5
-2 -5 -9 255.709 149.442 11
-2 -5 -9 -198.165 167.277 10
2 5 9 83.1587 136.039 1
-2 -5 -10 4041.33 468.515 5
2 5 10 4273.68 452.794 1
-2 -5 -11 136.086 251.011 5
2 5 11 -82.735 180.522 1
-2 -5 -12 1320.65 357.115 5
2 5 12 1233.72 300.624 1
-2 -6 7 1961.36 439.079 4
2 6 -7 2393.06 448.26 11
-2 -6 6 -93.9959 226.742 4
2 6 -6 82.0923 233.918 11
-2 -6 5 6454.51 620.974 4
2 6 -5 6479.04 607.259 11
2 6 -4 9652.24 706.331 11
-2 -6 4 10478.4 739.572 4
-2 -6 3 11800.4 563.399 3
2 6 -3 13232.9 787.536 11
-2 -6 3 12080.1 763.205 9
-2 -6 3 11984.9 751.654 4
-2 -6 2 4252.84 449.761 4
-2 -6 2 5370.53 396.667 3
-2 -6 2 4190.94 372.56 5
2 6 -2 4552.62 462.344 11
-2 -6 2 4518.52 475.249 9
-2 -6 1 18919.2 704.456 5
-2 -6 1 20935 773.441 3
-2 -6 1 20294.4 904.968 4
-2 -6 1 22075.4 935.711 9
2 6 -1 20437.4 904.921 11
2 6 0 8394.84 571.277 11
-2 -6 0 8570.01 448.888 5
-2 -6 0 8119.6 506.986 3
-2 -6 0 8634.1 577.097 4
-2 -6 0 7648.62 551.214 9
2 6 1 24326.7 916.865 11
-2 -6 -1 23654.3 758.19 1
-2 -6 -1 22287.1 834.347 3
-2 -6 -1 23373.8 892.561 9
-2 -6 -1 24769.5 912.766 4
-2 -6 -2 62423.4 715.6 6
-2 -6 -2 63985.4 1185.89 1
2 6 2 63933.3 1452.72 11
-2 -6 -2 60452.1 1391.74 9
-2 -6 -2 60225.7 1366.25 4
-2 -6 -3 137575 1334.52 6
2 6 3 139164 2089.82 11
-2 -6 -3 135323 1561.29 5
-2 -6 -3 137153 1970.52 4
-2 -6 -3 136889 1660.56 1
-2 -6 -4 104665 1359.81 6
-2 -6 -4 102782 1409.13 5
2 6 4 102221 1776.86 11
-2 -6 -4 100250 1611.51 4
-2 -6 -4 101947 1426.43 1
2 6 4 101570 1792.99 7
-2 -6 -5 44632.1 975.554 1
-2 -6 -5 45658.8 1034.58 4
-2 -6 -5 44826.5 994.15 5
2 6 5 46618 1013.69 1
2 6 5 47005.4 730.567 8
2 6 5 45225.5 1220.15 7
-2 -6 -6 18015.5 653.506 1
-2 -6 -6 19339.9 647.491 4
-2 -6 -6 19987 727.929 5
2 6 6 19836.6 696.299 1
2 6 6 18990.3 569.305 8
2 6 6 19369.7 824.315 7
-2 -6 -7 527.417 160.493 1
-2 -6 -7 489.507 184.479 5
2 6 7 654.241 163.397 1
-2 -6 -7 747.196 146.507 4
2 6 7 756.204 202.406 7
-2 -6 -8 21421.1 876.753 5
2 6 8 21274.7 815.619 1
-2 -6 -8 20245.1 517.707 4
-2 -6 -9 14125.9 767.262 5
2 6 9 12967.6 691.067 1
2 6 10 1481.42 251.93 1
-2 -6 -10 1101.07 285.35 5
2 6 11 6327.94 555.948 1
-2 -6 -11 5148 555.164 5
2 6 12 6142.35 594.444 1
-2 -6 -12 6627.92 660.309 5
2 6 13 1333.06 317.52 1
2 7 -6 2248.9 428.31 11
-2 -7 5 8419.74 744.336 4
2 7 -5 9043.12 762.573 11
2 7 -4 12017.3 849.033 11
-2 -7 4 12742.2 881.043 4
2 7 -3 6141.31 598.621 11
-2 -7 3 6856.49 626.317 4
-2 -7 3 7178.54 662.615 9
-2 -7 2 3537.06 452.824 4
-2 -7 2 3016.93 418.981 9
2 7 -2 3168.17 434.587 11
-2 -7 1 3165.79 421.187 4
2 7 -1 3748.81 454.342 11
-2 -7 1 3017.96 306.148 5
-2 -7 1 3832.53 454.979 9
-2 -7 0 12317.2 753.46 4
-2 -7 0 11501.2 539.471 5
-2 -7 0 12435.1 750.677 9
2 7 0 11286.3 712.338 11
-2 -7 -1 2440.31 360.969 4
-2 -7 -1 2030.65 251.469 1
2 7 1 1875.74 310.789 11
-2 -7 -1 2660.4 254.908 5
-2 -7 -1 2138.19 352.346 9
2 7 2 591.92 225.746 11
-2 -7 -2 614.531 84.5053 6
-2 -7 -2 761.925 174.104 1
-2 -7 -2 96.1526 235.305 9
-2 -7 -2 915.282 264.245 4
-2 -7 -3 16259.4 469.778 6
-2 -7 -3 16492.4 566.801 5
2 7 3 15315.5 783.239 11
-2 -7 -3 15172.6 593.683 1
-2 -7 -3 14648 736.277 4
-2 -7 -4 4770.81 302.641 6
-2 -7 -4 4329.08 307.013 5
-2 -7 -4 3984.16 308.008 1
2 7 4 5099.56 467.748 11
-2 -7 -4 4158.68 393.725 4
-2 -7 -5 4638.71 338.456 6
-2 -7 -5 4204.17 319.555 5
-2 -7 -5 5389.12 420.747 4
2 7 5 4323.23 432.765 7
-2 -7 -5 4511.18 327.18 1
-2 -7 -6 20442.4 701.687 1
-2 -7 -6 21394.6 741.499 5
2 7 6 23388.7 752.848 1
-2 -7 -6 22108.8 793.39 4
2 7 6 21249.7 932.026 7
-2 -7 -6 22312.5 794.047 6
-2 -7 -7 45634.1 1093.77 1
-2 -7 -7 45281.2 1154.85 5
2 7 7 47519.1 1132.85 1
-2 -7 -7 47251.5 1090.85 4
2 7 7 46505.2 1415.48 7
2 7 7 48260.2 989.483 8
-2 -7 -8 16949.8 771.552 5
2 7 8 17120.2 718.971 1
2 7 8 15222.9 850.45 7
-2 -7 -8 15787.8 581.477 4
2 7 8 17108.1 676.428 8
2 7 9 18194.8 792.94 1
-2 -7 -9 16111.8 815.188 5
2 7 9 15374.3 894.101 7
-2 -7 -10 26682.4 1114.17 5
2 7 10 24207.6 984.479 1
-2 -7 -11 33765.6 1340.69 5
2 7 11 34066.1 1239.5 1
-2 -7 -12 11788 858.03 5
2 7 12 11785.4 790.052 1
2 8 -4 14524.6 996.486 11
2 8 -3 13652.5 942.864 11
-2 -8 3 13071.3 930.871 9
-2 -8 3 14126.8 973.625 4
-2 -8 2 14830.4 954.1 9
2 8 -2 16835.6 996.089 11
-2 -8 2 16697.3 1018.06 4
2 8 -1 16073.4 955.098 11
-2 -8 1 16309.7 963.109 9
-2 -8 1 15541.4 951.549 4
-2 -8 0 19965.7 1040.69 9
-2 -8 0 22680.5 1094.06 4
2 8 0 21220.7 1068.3 11
-2 -8 -1 34415.1 1310.1 4
2 8 1 35748.4 1340.11 11
-2 -8 -1 34248.8 1309.34 9
2 8 2 7590.13 625.552 11
-2 -8 -2 7611.8 473.761 1
-2 -8 -2 7879.1 637.661 9
-2 -8 -2 7897.37 618.233 4
-2 -8 -3 17849 479.5 6
-2 -8 -3 18098.2 598.42 5
2 8 3 18065.8 935.237 11
-2 -8 -3 17334.9 674.949 1
-2 -8 -3 16967.2 867.482 4
-2 -8 -4 42439.4 887.717 6
-2 -8 -4 40820 905.799 5
2 8 4 42985.7 1399.52 11
-2 -8 -4 41090.2 1297.29 4
-2 -8 -4 39808 974.513 1
-2 -8 -5 37415.1 933.934 6
-2 -8 -5 35649.6 1167.98 4
-2 -8 -5 36207.8 888.816 5
-2 -8 -5 34970.4 903.351 1
-2 -8 -6 1995.64 305.362 4
-2 -8 -6 1692.3 229.788 6
-2 -8 -6 2136.14 252.624 5
2 8 6 1827.75 329.607 7
-2 -8 -7 43.2859 135.625 4
2 8 7 43.3415 207.318 7
-2 -8 -7 57.2392 122.823 5
-2 -8 -7 158.515 134.913 6
2 8 8 642.744 255.236 7
-2 -8 -8 184.957 141.45 4
-2 -8 -8 282.002 171.143 6
2 8 8 287.731 136.854 1
-2 -8 -8 806.394 203.61 5
2 8 8 105.228 117.739 8
2 8 9 542.034 267.986 7
-2 -8 -9 276.161 176.724 6
2 8 9 335.471 150.096 1
-2 -8 -9 228.7 147.121 5
2 8 9 234.908 148.874 8
2 8 10 382.881 166.903 8
-2 -8 -10 272.232 240.12 6
2 8 10 228.974 122.332 1
2 8 10 -70.7044 242.677 7
2 8 11 890.393 370.771 7
-2 -8 -11 944.053 244.707 5
-2 -8 -12 4185.22 515.822 5
2 9 -2 4822.19 619.09 11
-2 -9 1 874.179 352.423 4
-2 -9 1 698.02 267.843 9
2 9 -1 1177.73 402.291 11
-2 -9 0 4860.42 592.791 4
2 9 0 4515.37 564.149 11
-2 -9 0 3752.72 525.852 9
-2 -9 -1 254.115 270.73 4
2 9 1 284.844 247.678 11
-2 -9 -1 119.074 252.856 9
-2 -9 -2 551.162 286.226 4
2 9 2 48.4491 217.585 11
-2 -9 -2 300.203 250.222 9
-2 -9 -3 4425.39 512.45 4
-2 -9 -3 5287.98 570.864 9
-2 -9 -4 12032.6 781.653 4
2 9 4 13107.5 860.926 11
-2 -9 -5 2392.74 369.637 4
-2 -9 -6 6738.86 453.109 6
-2 -9 -6 6901.06 571.297 4
-2 -9 -7 7537.33 512.002 6
-2 -9 -7 6546.68 537.318 4
-2 -9 -8 7413.78 553.706 6
2 9 8 7856.53 701.576 7
-2 -9 -8 7180.48 530.929 4
-2 -9 -9 8756.61 652.574 6
2 9 9 8771.72 763.957 7
2 9 10 -104.276 252.388 7
-2 -9 -10 321.547 220.565 6
-2 -9 -11 6392.66 632.227 6
2 10 2 7971.11 776.694 11
-2 -10 -2 8373.78 762.792 9
-2 -10 -2 6334.81 659.5 4
2 10 3 1045.73 325.468 11
-2 -10 -3 736.352 293.127 4
-2 -10 -3 793.996 291.761 9
-2 -10 -4 547.225 241.782 4
-2 -10 -4 875.825 340.634 9
-2 -10 -5 667.125 281.268 4
-2 -10 -6 2548.12 409.963 4
-2 -10 -7 1546.84 324.72 4
-2 -10 -8 809.13 237 4
-2 -10 -10 807.654 257.561 6
-2 -10 -11 334.143 210.815 6
-2 -11 -5 -150.74 245.056 4
-2 -11 -6 1209.81 359.011 4
-2 -11 -7 302.374 213.717 4
3 -9 -8 7932.13 718.285 6
3 -9 -7 922.955 319.062 6
3 -9 -6 1752.63 375.947 6
3 -9 -5 68.1326 221.878 6
-3 9 5 310.552 250.095 3
-3 9 4 174.521 263.073 3
3 -9 -4 627.699 271.415 6
3 -9 -3 -558.223 306.616 6
-3 8 11 1953.01 379.576 3
-3 8 10 2308.75 421.805 3
-3 8 9 10621.6 839.628 3
3 -8 -9 10880.3 843.169 6
-3 8 9 9373.58 803.36 7
-3 8 8 173.933 212.982 7
3 -8 -8 100.047 227.255 6
-3 8 8 -273.728 275.281 3
-3 8 7 1043.42 305.824 7
3 -8 -7 1554.19 360.098 6
3 -8 -6 5575.68 568.592 6
-3 8 6 4910.55 583.403 3
-3 8 5 1231.82 333.267 3
3 -8 -5 725.381 261.967 6
3 -8 -4 293.468 165.388 6
-3 8 4 101.795 245.521 3
3 -8 -3 1124.51 291.087 6
-3 8 3 1061.14 329.145 3
3 -8 -2 3800.73 437.422 6
-3 8 2 4024.31 532.457 3
3 -8 -1 3584.79 427.349 6
-3 8 1 3310.91 507.639 3
3 -8 0 2003.03 436.695 4
3 -8 0 2645.57 383.14 6
-3 8 0 2614.49 454.561 3
-3 8 -1 -158.81 277.712 3
-3 8 -2 2334.22 443.468 3
3 -8 2 1657.67 375.949 9
-3 7 11 3450.32 475.31 3
-3 7 11 3411.94 511.798 8
3 -7 -10 -380.163 270.002 6
-3 7 10 -190.521 277.235 7
-3 7 10 317.925 248.193 3
3 -7 -9 1258.9 325.403 6
-3 7 9 983.861 302.868 3
-3 7 9 1008.41 306.704 7
3 -7 -8 2305.34 368.627 6
-3 7 8 2482.57 422.681 3
-3 7 8 1937.65 371 7
3 -7 -7 13538.8 837.524 6
-3 7 7 14954.6 902.334 3
-3 7 7 15845.7 908.288 7
3 -7 -6 13382.5 804.098 6
-3 7 6 13704.7 827.474 7
-3 7 6 15307.7 912.754 3
-3 7 5 535.861 231.619 7
-3 7 5 258.282 204.429 3
3 -7 -5 261.728 212.363 6
3 -7 -4 506.008 218.255 6
-3 7 4 482.198 244.471 3
3 -7 -3 13785.3 753.195 6
-3 7 3 14064.8 867.487 3
3 -7 -2 865.881 254.02 6
-3 7 2 496.833 211.746 3
-3 7 1 851.256 301.964 3
3 -7 -1 595.874 218.898 6
3 -7 0 779.004 243.312 6
-3 7 0 852.283 312.83 3
3 -7 1 3659.36 497.334 4
3 -7 1 2720.37 392.646 6
-3 7 -1 2513.93 419.593 3
3 -7 2 -469.276 286.347 4
-3 7 -2 -383.057 279.195 3
-3 7 -3 -180.274 295.105 3
3 -7 3 -101.057 264.03 9
-3 6 11 183.194 265.998 8
3 -6 -11 -117.238 253.862 6
3 -6 -10 2094.28 396.617 6
-3 6 10 2652.52 405.878 8
-3 6 10 2901.77 416.325 3
3 -6 -9 4383.9 512.032 6
-3 6 9 5418.19 534.911 3
-3 6 9 4471.87 509.309 8
3 -6 -8 391.065 230.406 6
-3 6 8 382.289 224.188 3
3 -6 -7 556.703 255.734 6
-3 6 7 271.803 188.915 3
-3 6 7 572.02 234.791 7
-3 6 6 2386.57 362.695 7
3 -6 -6 2485 366.319 6
-3 6 6 3001.34 386.056 3
-3 6 5 863.536 247.567 7
3 -6 -5 840.347 246.894 6
-3 6 5 494.01 208.166 3
-3 6 4 511.149 205.563 7
3 -6 -4 976.685 256.971 6
-3 6 4 777.69 242.414 3
3 -6 -3 5910.47 481.883 6
-3 6 3 5667.81 534.509 3
3 -6 -2 110.449 174.254 6
-3 6 2 -106.802 198.433 3
3 -6 -1 180.956 176.424 6
3 -6 -1 248.758 85.965 1
-3 6 1 273.291 194.351 3
3 -6 0 1135.95 262.24 6
3 -6 0 1065.61 167.277 1
-3 6 0 1445.93 335.444 3
3 -6 1 8227.7 594.523 6
3 -6 1 6997.13 439.817 1
-3 6 -1 9285.37 677.837 3
3 -6 2 160.497 125.269 1
3 -6 2 461.929 228.852 6
-3 6 -2 356.279 258.654 3
3 -6 3 374.778 258.016 4
3 -6 3 54.3941 176.859 1
3 -6 3 -386.422 194.649 9
-3 6 -3 6.81996 174.032 3
3 -6 4 7048.79 595.96 1
3 -6 4 7565.3 612.984 9
-3 6 -4 7617.9 623.775 3
3 -6 4 7578.29 705.042 4
3 -6 5 5049.51 586.311 4
3 -6 5 4631.86 536.802 1
3 -5 -12 3672.04 489.359 5
3 -5 -11 558.168 237.57 6
3 -5 -11 513.478 191.567 5
-3 5 11 774.394 286.934 8
3 -5 -10 -35.8287 179.259 6
-3 5 10 73.389 110.913 1
3 -5 -10 26.0104 181.069 5
-3 5 10 -124.055 250.309 8
-3 5 10 143.994 171.718 3
3 -5 -9 8998.88 693.643 6
-3 5 9 7849.76 423.739 1
-3 5 9 8266 583.336 3
-3 5 9 7699.89 631.417 8
3 -5 -8 8562.32 644.974 6
-3 5 8 7835.63 362.046 1
-3 5 8 7817.34 485.972 5
-3 5 8 8958.71 600.619 3
-3 5 8 9197.45 656.521 8
-3 5 7 11146.3 322.982 1
-3 5 7 11114.7 511.958 5
-3 5 7 10860.8 656.706 3
-3 5 7 11636 692.136 8
3 -5 -7 12704.2 741.164 6
3 -5 -6 136057 2285.38 6
-3 5 6 139984 2291.9 3
-3 5 6 138333 1533.43 5
3 -5 -5 34973.1 1122.56 6
-3 5 5 34795.3 621.557 5
-3 5 5 34602.4 1157.1 3
-3 5 5 35204.7 1105.72 7
-3 5 4 1892.77 283.472 7
3 -5 -4 1855.78 295.525 6
-3 5 4 2115.37 308.462 3
3 -5 -3 8233.04 536.348 6
-3 5 3 8146.5 576.001 3
-3 5 3 8211.65 523.703 7
-3 5 2 14880.8 766.815 3
3 -5 -2 16626.8 732.678 6
-3 5 1 6551.56 526.446 3
3 -5 -1 5621.54 455.786 6
3 -5 -1 6447.3 278.495 1
3 -5 0 32276.8 757.104 1
3 -5 0 31310.2 1022.13 6
-3 5 0 31181.4 1108.29 3
-3 5 0 28364.2 453.673 5
3 -5 1 60079.1 1444.58 6
-3 5 -1 60013.6 910.808 5
-3 5 -1 59326.5 1527.14 3
3 -5 1 61158.2 1206.78 1
3 -5 2 20356.7 885.246 6
3 -5 2 21144.7 802.412 1
-3 5 -2 20271.1 647.503 5
-3 5 -2 20584.9 911.415 3
3 -5 3 6441.79 498.752 1
-3 5 -3 6117.68 416.954 5
-3 5 -3 5865.88 513.563 3
3 -5 4 5510.49 551.738 4
3 -5 4 4874.76 471.39 1
-3 5 -4 4301.38 391.211 5
3 -5 4 4702.6 445.147 9
-3 5 -4 4630.21 469.763 3
-3 5 -5 9505.52 621.348 5
-3 5 -5 8663.18 621.393 3
3 -5 5 8374.17 682.16 4
3 -5 5 9059.57 694.947 1
3 -5 5 8507.78 604.773 9
3 -5 6 52.9213 199.102 4
3 -5 6 149.273 252.635 1
-3 4 12 7946.1 690.398 2
-3 4 12 7585.77 625.317 1
3 -4 -12 8800.18 751.75 5
3 -4 -11 1071.24 278.938 6
-3 4 11 1102.8 298.829 2
-3 4 11 598.113 203.376 1
-3 4 11 572.208 210.765 8
3 -4 -11 1024.3 281.664 5
-3 4 10 3784.43 496.116 8
3 -4 -10 3409.35 459.465 6
-3 4 10 2991.74 418.428 2
-3 4 10 2871.37 333.969 1
3 -4 -10 3206.67 418.274 5
-3 4 9 9123.93 553.056 3
-3 4 9 9103.83 519.529 1
3 -4 -9 8982.34 600.042 5
-3 4 9 9020.91 693.093 8
-3 4 9 9669.52 690.102 2
3 -4 -9 10511.5 741.983 6
3 -4 -8 7936.22 487.133 4
-3 4 8 8548.79 620.598 2
3 -4 -8 7667.9 589.991 6
-3 4 8 8285.7 625.401 8
-3 4 8 8702.36 535.081 3
-3 4 8 9079.79 465.693 1
3 -4 -8 7961.61 516.118 5
-3 4 7 1981.6 209.307 1
3 -4 -7 2107.88 348.162 6
-3 4 7 1895.37 308.173 2
-3 4 7 1948.19 284.005 3
3 -4 -7 1610.63 261.504 4
-3 4 7 1957.73 252.093 5
-3 4 7 1707.22 300.781 8
3 -4 -6 4402.8 381.033 4
3 -4 -6 4639.86 436.794 6
-3 4 6 4323.53 310.254 5
-3 4 6 4210.09 231.053 1
-3 4 6 4921.37 442.076 8
-3 4 6 4987.43 413.8 3
3 -4 -5 3447.44 344.006 4
-3 4 5 3215.09 354.691 3
3 -4 -5 3006.08 342.146 6
-3 4 5 3094.93 136.716 1
-3 4 5 2685.51 130.241 1
-3 4 5 3625.94 255.061 5
3 -4 -4 1399.76 238.101 6
-3 4 4 1171.22 131.106 5
-3 4 4 1317.82 265.666 3
3 -4 -4 866.999 182.508 8
-3 4 4 917.647 195.031 7
-3 4 3 228.855 141.098 7
-3 4 3 80.8372 133.326 6
3 -4 -3 36.0839 156.369 6
3 -4 -3 196.191 169.606 2
-3 4 3 241.104 51.4114 5
-3 4 3 306.614 164.702 3
3 -4 -3 218.07 131.384 8
-3 4 2 4209.03 356.435 6
3 -4 -2 4011.95 362.945 6
3 -4 -2 4112.1 359.985 2
-3 4 2 3552.98 113.036 5
3 -4 -2 3796.65 138.738 1
-3 4 2 3699.76 116.957 5
-3 4 2 5441.77 430.899 3
3 -4 -2 4427.86 364.049 11
3 -4 -2 4275.3 368.965 8
-3 4 1 2114.2 266.731 6
3 -4 -1 2353.53 280.352 6
3 -4 -1 2381.4 271.465 2
-3 4 1 1703.99 101.786 5
3 -4 -1 1851.57 244.495 11
-3 4 1 1994.72 310.291 3
3 -4 -1 1958.21 152.126 1
3 -4 0 17227.1 523.947 1
3 -4 0 17848.5 681.213 2
-3 4 0 18446.9 742.258 6
3 -4 0 18615.8 743.991 6
3 -4 0 16984 671.895 11
-3 4 0 17777.9 418.704 5
-3 4 0 18022.7 783.432 3
3 -4 0 17300.4 664.274 7
3 -4 1 52517.2 1275.41 6
3 -4 1 53128.3 1060.95 1
-3 4 -1 52939 877.443 5
-3 4 -1 54495.6 1347.41 3
3 -4 1 51023.6 1141.81 11
3 -4 1 51348.7 1182.47 7
3 -4 2 96221.7 1793.08 6
3 -4 2 94954.4 1590.46 1
3 -4 2 92509.3 1349.64 5
-3 4 -2 97250.1 1388.06 5
-3 4 -2 95612.2 1810.07 3
3 -4 2 91003.8 1526.36 11
3 -4 3 19126.5 716.507 11
3 -4 3 20530.1 819.97 1
3 -4 3 17489.2 671.268 5
-3 4 -3 19880 843.955 3
-3 4 -3 18965 701.774 5
3 -4 4 21337.5 928.571 1
-3 4 -4 21397.1 821.995 5
-3 4 -4 21210.7 879.345 3
3 -4 4 22713.2 836.25 9
3 -4 5 7175.55 580.774 1
-3 4 -5 6329.7 501.175 5
-3 4 -5 6408.04 507.648 3
3 -4 5 6767.44 563.293 4
3 -4 5 5175.63 428.836 9
3 -4 6 5698.34 582.734 1
-3 4 -6 5825.01 531.455 5
3 -4 6 6151.78 547.795 4
3 -4 7 11184.9 847.722 1
-3 4 -7 11513 795.566 5
3 -4 7 9868 710.387 4
-3 4 -8 13378.2 902.631 5
-3 3 13 304.049 222.491 2
-3 3 13 169.262 222.318 1
3 -3 -12 -89.2909 215.035 5
-3 3 12 231.448 206.551 2
-3 3 12 -237.171 235.794 1
-3 3 11 6260.93 600.644 2
-3 3 11 5755.57 551.912 1
3 -3 -11 7065 686.842 6
3 -3 -11 5598.22 580.764 5
-3 3 11 5425.42 603.227 8
3 -3 -10 4176.16 498.82 6
-3 3 10 4083.66 509.917 8
-3 3 10 4011.29 466.577 2
3 -3 -10 4269.7 487.026 5
-3 3 10 4346.97 445.237 1
3 -3 -9 40194.8 1378.96 6
-3 3 9 39169.8 1315.52 2
-3 3 9 41724.6 1203.82 1
3 -3 -9 41635.7 1327.63 5
-3 3 9 40955.1 1020.39 3
-3 3 9 40539 1420.99 8
3 -3 -8 28413.5 1093.35 6
-3 3 8 28748.7 1090.42 2
3 -3 -8 28515.8 1007.11 5
-3 3 8 28520.1 859.845 3
-3 3 8 27720 1103.51 8
3 -3 -8 27249.9 837.01 4
3 -3 -7 15548.1 773.27 6
-3 3 7 15941.6 775.674 2
3 -3 -7 16184 698.328 5
-3 3 7 15851.4 646.655 3
-3 3 7 15569.1 789.722 8
3 -3 -7 15233.8 634.259 4
3 -3 -6 44565.3 1215.22 6
-3 3 6 44687.5 1220.02 2
-3 3 6 45725 1064.09 5
-3 3 6 46862.3 1101.6 3
3 -3 -6 45020 1070.65 4
-3 3 6 45177.6 1240.96 8
3 -3 -5 94708.7 1549.96 4
-3 3 5 99145.7 1717.13 2
3 -3 -5 95666.8 1687.33 6
-3 3 5 95622 1370.78 5
-3 3 5 95380.2 1562.76 3
-3 3 5 93300.5 1680.83 8
3 -3 -4 23136.2 798.199 6
3 -3 -4 22594.6 759.203 4
-3 3 4 21753.3 778.777 2
-3 3 4 22097.9 578.617 5
-3 3 4 20673.8 732.254 3
-3 3 4 22005.4 430.785 1
-3 3 4 22239.4 791.837 6
-3 3 3 59070.4 1226.32 6
3 -3 -3 58210.2 1221.15 2
-3 3 3 56087.5 573.86 1
3 -3 -3 59143.8 1234.84 6
-3 3 3 56831.4 1210.4 3
-3 3 3 58103 810.862 5
3 -3 -3 57676.5 1215.36 8
-3 3 3 57477.4 1096.5 7
-3 3 2 71543.4 1319.96 6
3 -3 -2 70666.4 1314.05 6
-3 3 2 68721.6 1141.95 7
-3 3 2 67918.6 675.051 1
-3 3 2 70664.5 1362.67 3
3 -3 -2 70050.5 1278.12 2
3 -3 -2 69889.4 1305.23 8
-3 3 1 14896.1 608.982 6
3 -3 -1 14173.1 563.848 2
-3 3 1 15380.8 358.084 5
-3 3 1 14651.5 639.307 3
-3 3 1 14227.3 381.519 1
3 -3 -1 15752.4 587.115 11
3 -3 -1 14205.4 375.467 1
3 -3 -1 15323.3 621.952 6
-3 3 0 31884.3 900.447 6
3 -3 0 30045 785.33 11
3 -3 0 31192.5 802.208 2
3 -3 0 30223.5 876.998 6
3 -3 0 31506.7 767.683 7
-3 3 0 32006.7 582.498 5
-3 3 0 31476.9 942.877 3
3 -3 0 30819.4 657.864 1
3 -3 1 12081 493.018 2
-3 3 -1 11538.7 566.986 6
3 -3 1 11621.4 471.775 1
3 -3 1 11135.6 563.919 6
-3 3 -1 10610.9 397.134 5
-3 3 -1 10670.1 569.352 3
3 -3 1 10419 461.204 11
3 -3 1 11376.5 487.555 7
-3 3 -2 28877.9 916.639 6
3 -3 2 30061.8 951.51 6
3 -3 2 28664 825.788 1
3 -3 2 27872.2 730.324 5
-3 3 -2 29232.7 933.864 3
-3 3 -2 28484.2 739.389 5
3 -3 2 28398.2 741.85 11
3 -3 3 6901.3 502.23 6
3 -3 3 6076.78 430.702 1
3 -3 3 6822.55 380.418 11
3 -3 3 6992.72 417.664 5
-3 3 -3 7289.62 489.93 3
-3 3 -3 6474.65 405.825 5
3 -3 4 209.373 151.029 1
3 -3 4 236.865 152.231 5
-3 3 -4 317.414 152.31 5
-3 3 -4 198.334 172.175 3
3 -3 4 58.7926 107.227 9
3 -3 5 181.791 141.024 4
3 -3 5 172.335 190.85 1
-3 3 -5 434.101 176.166 5
-3 3 -5 230.512 182.342 3
3 -3 5 193.192 142.692 9
3 -3 6 -2.27761 142.833 4
-3 3 -6 34.8014 148.874 3
-3 3 -6 -213.531 206.125 5
3 -3 6 377.938 203.719 1
3 -3 6 -85.3503 139.227 9
3 -3 7 1405.34 267.737 4
3 -3 7 1097.22 285.665 1
-3 3 -7 1533.62 322.45 5
3 -3 8 2503.45 428.707 1
-3 3 -8 2484.83 427.904 5
-3 3 -9 4203.68 564.012 5
-3 2 12 707.785 305.022 1
-3 2 12 758.819 222.496 2
3 -2 -12 581.344 279.486 6
3 -2 -11 -3.58041 201.156 6
-3 2 11 768.218 273.385 2
3 -2 -11 -223.295 245.291 5
-3 2 11 437.604 233.075 1
3 -2 -10 1952.21 365.795 6
-3 2 10 1878.62 344.165 1
-3 2 10 1739.35 332.174 2
3 -2 -10 1632.42 336.387 5
3 -2 -9 484.269 238.434 6
-3 2 9 677.519 234.682 2
3 -2 -9 959.756 286.324 5
-3 2 8 316.802 115.387 3
3 -2 -8 545.809 205.179 6
3 -2 -8 519.952 171.503 4
-3 2 8 563.27 223.58 2
3 -2 -8 369.008 211.245 5
3 -2 -7 133.266 138.437 4
-3 2 7 294.181 180.802 2
3 -2 -7 454.876 209.596 5
3 -2 -7 356.267 199.632 6
-3 2 7 89.7995 112.124 3
-3 2 7 640.022 223.655 8
3 -2 -6 33887.9 1028.54 6
-3 2 6 35549.6 1060.69 2
-3 2 6 34375 978.025 5
-3 2 6 35374.9 843.697 3
-3 2 6 35729.8 1091.17 8
3 -2 -6 34457.6 890.068 4
3 -2 -5 4517.92 329.307 4
3 -2 -5 4676.22 376.849 6
-3 2 5 4695.15 392.245 2
-3 2 5 4009.57 371.694 8
-3 2 5 4204.16 315.119 5
-3 2 5 3983.51 301.528 3
-3 2 4 331.169 124.545 6
3 -2 -4 275.141 135.683 6
-3 2 4 439.115 166.464 2
3 -2 -4 284.194 115.851 4
-3 2 4 451.527 121.996 5
-3 2 4 325.758 126.098 3
-3 2 4 400.744 151.308 8
-3 2 3 56657.6 1126.5 6
3 -2 -3 57657.9 1113.99 4
3 -2 -3 54602 1119.29 6
-3 2 3 55902.9 1115.25 2
-3 2 3 54315.4 1064.26 3
-3 2 3 56639.8 754.844 1
-3 2 3 54976.3 888.785 5
3 -2 -3 55505.9 1131.37 8
3 -2 -2 6414.55 390.819 4
-3 2 2 6380.31 374.839 6
-3 2 2 6455.2 367.284 2
3 -2 -2 6554.72 392.244 6
3 -2 -2 6543.95 382.414 2
-3 2 2 6974.8 406.467 3
-3 2 2 6536.24 243.966 1
3 -2 -2 6426.54 385.152 8
-3 2 1 10346.3 479.204 6
3 -2 -1 10875.5 495.036 6
-3 2 1 10031.4 319.803 1
3 -2 -1 10397.9 440.582 2
3 -2 -1 11016.2 337.215 1
-3 2 1 11228.8 385.09 7
3 -2 0 7638.63 428.69 6
3 -2 0 7432.32 356.222 2
-3 2 0 8113.19 432.283 6
-3 2 0 8467.32 315.778 5
-3 2 0 7734.65 326.462 1
3 -2 0 7306.99 314.561 1
3 -2 0 7768.14 319.385 7
3 -2 1 46170.1 879.936 1
-3 2 -1 48416.8 1061.94 6
3 -2 1 46282.7 823.15 2
3 -2 1 46114.1 1047.8 6
-3 2 -1 49007.9 833.383 5
-3 2 -1 47178.3 901.584 1
3 -2 1 47936.6 827.773 11
3 -2 1 47256.3 815.818 7
3 -2 2 22186 546.426 2
-3 2 -2 21586.3 754.05 6
3 -2 2 22290.5 691.467 1
3 -2 2 23376.6 790.791 6
3 -2 2 21461.6 631.302 5
-3 2 -2 23413.2 656.901 5
3 -2 2 22442.9 550.754 11
-3 2 -3 29765.4 942.303 6
3 -2 3 30576.5 958.958 6
3 -2 3 29228 880.595 1
3 -2 3 29438.2 607.468 2
3 -2 3 29312.8 821.433 5
-3 2 -3 31283.4 844.859 5
3 -2 3 29297.5 625.788 11
3 -2 4 21838.9 833.156 1
3 -2 4 21434.6 781.562 5
-3 2 -4 22333.5 800.657 5
3 -2 5 4794.95 437.565 1
-3 2 -5 4204.23 409.458 5
3 -2 5 4772.77 305.717 9
3 -2 6 522.883 221.529 1
-3 2 -6 366.063 219.342 5
3 -2 6 334.819 153.578 4
-3 2 -7 -195.302 215.183 5
3 -2 7 -95.3778 138.835 4
3 -2 7 -246.543 181.271 1
-3 2 -7 181.263 163.653 3
3 -2 8 791.436 279.928 1
-3 2 -8 1155.9 294.675 5
-3 2 -9 -103.394 293.637 5
3 -2 9 67.7986 186.834 1
-3 1 12 -73.6962 224.842 2
3 -1 -12 377.786 260.177 6
-3 1 11 3869.54 479.122 2
3 -1 -11 4879.69 595.035 5
-3 1 11 4418.78 543.559 1
3 -1 -11 3914.25 512.011 6
3 -1 -10 60.3711 171.636 6
-3 1 10 105.936 179.031 2
3 -1 -10 -49.9274 213.91 5
-3 1 10 339.137 152.119 4
3 -1 -9 5704.85 527.268 6
-3 1 9 6214.05 420.396 4
-3 1 9 6955.26 572.295 2
3 -1 -9 5979.9 565.56 5
3 -1 -8 10956.4 671.246 6
-3 1 8 12857.9 717.393 2
3 -1 -8 12126.4 732.72 5
-3 1 8 11663 550.05 4
3 -1 -8 11412.2 539.832 4
3 -1 -7 -25.1152 153.538 6
3 -1 -7 93.9959 113.822 4
-3 1 7 -152.183 141.944 4
-3 1 7 -17.73 168.826 2
3 -1 -7 105.282 178.55 5
-3 1 7 -4.45186 74.9857 3
3 -1 -6 450.216 189.134 6
3 -1 -6 730.312 162.211 4
-3 1 6 489.032 159.158 4
-3 1 6 651.504 208.617 2
-3 1 6 442.317 114.134 3
-3 1 5 8087.96 421.047 4
-3 1 5 7716.37 447.381 5
-3 1 5 8045.58 356.191 3
3 -1 -5 8074.45 422.63 4
3 -1 -5 7292.2 438.356 6
-3 1 5 7768.07 483.385 8
3 -1 -4 221083 2228.29 6
-3 1 4 224961 2131.07 4
-3 1 4 223440 2315.16 2
-3 1 4 220374 1873.09 3
-3 1 4 230877 2173.69 5
-3 1 4 226764 2351.73 8
3 -1 -4 220664 2094.59 4
-3 1 3 56662.7 1065.1 6
3 -1 -3 56620.9 1064.61 6
-3 1 3 56989.9 1053.3 4
3 -1 -3 56365 1044.28 4
-3 1 3 55217.8 1081.31 2
-3 1 3 54564.3 962.224 3
-3 1 3 56244.1 978.454 5
-3 1 3 56116.1 1097.32 8
-3 1 2 80.8616 71.8492 1
-3 1 2 63.7005 90.191 6
3 -1 -2 184.172 125.186 6
3 -1 -2 186.284 128.519 4
-3 1 2 106.453 123.35 2
3 -1 -2 137.596 110.418 8
-3 1 1 240.321 100.582 6
-3 1 1 358.75 86.152 1
3 -1 -1 172.412 131.882 6
-3 1 1 236.398 115.045 2
3 -1 -1 366.069 143.845 4
3 -1 -1 291.312 89.0143 1
3 -1 0 1002.55 133.452 1
-3 1 0 895.379 165.939 6
-3 1 0 755.617 121.251 2
3 -1 0 906.437 171.651 6
3 -1 0 1003.75 176.217 4
-3 1 0 824.124 124.133 1
-3 1 -1 399.649 141.211 6
3 -1 1 202.286 141.678 6
3 -1 1 344.758 93.8713 2
3 -1 1 255.131 72.7017 7
3 -1 1 324.305 111.653 1
-3 1 -1 208.963 101.988 5
-3 1 -1 144.161 98.0235 1
3 -1 2 62086.5 1095.8 1
-3 1 -2 64379.2 1212.88 6
3 -1 2 61760.9 1200.44 6
3 -1 2 63142.3 738.54 2
-3 1 -2 63150.6 1047.59 5
-3 1 -2 63822.8 1116.88 1
3 -1 2 63342.3 723.647 11
-3 1 -3 8039.41 427.245 5
-3 1 -3 7749.92 463.585 6
3 -1 3 8124.21 240.879 2
3 -1 3 7865.3 446.89 1
3 -1 3 8072.84 489.11 6
3 -1 3 8355.41 434.545 5
3 -1 3 7962.91 241.689 11
-3 1 -3 7776.68 447.271 1
3 -1 4 396.167 179.923 1
3 -1 4 339.006 53.4402 2
3 -1 4 346.514 148.46 5
-3 1 -4 590.226 179.181 5
3 -1 5 18365.9 800.732 1
-3 1 -5 18753.4 775.232 5
3 -1 5 18675.4 449.2 9
3 -1 6 147.131 147.822 1
-3 1 -6 86.9566 161.219 5
3 -1 6 -53.2592 115.46 4
-3 1 -7 27.6367 183.489 5
3 -1 7 111.432 120.291 4
3 -1 7 145.12 206.671 1
-3 1 -7 188.424 52.3579 11
3 -1 8 24.8679 114.257 4
3 -1 8 564.386 261.725 1
-3 1 -8 373.568 227.478 5
-3 1 -9 3159 477.364 5
3 -1 9 3513.12 495.41 1
-3 1 -10 670.993 295.574 5
-3 0 12 509.166 245.456 2
3 0 -11 10612.4 814.087 6
-3 0 11 9286.89 728.797 2
-3 0 11 10999.8 855.941 1
3 0 -10 10065.9 733.01 6
-3 0 10 8785.55 682.429 2
3 0 -10 8261.49 728.644 5
3 0 -9 4799.13 522.518 5
-3 0 9 4601.78 383.64 4
3 0 -9 4072.98 453.763 6
3 0 -8 9743.58 622.546 6
-3 0 8 9888.24 533.238 4
3 0 -8 10857.7 720.258 5
3 0 -8 9667.7 342.196 10
3 0 -8 9825.93 522.629 4
3 0 -7 1657.85 231.111 4
-3 0 7 1295.26 225.586 4
3 0 -7 1610.56 271.533 6
3 0 -7 1621.23 300.371 5
-3 0 6 4923 363.12 4
3 0 -6 4907.59 386.843 6
-3 0 6 5494.96 206.272 3
3 0 -6 4784.4 349.864 4
-3 0 5 3331.83 297.301 4
-3 0 5 3997.21 347.308 5
-3 0 5 3490.05 196.281 3
3 0 -5 3684.64 299.51 4
3 0 -5 3659.87 317.419 6
3 0 -4 28951.2 766.469 6
-3 0 4 28350.5 579.07 3
3 0 -4 27885.6 752.476 4
-3 0 4 28415.8 812.329 5
-3 0 4 28351.8 825.019 8
-3 0 4 28731.4 771.123 4
3 0 -3 71740.5 1120.91 6
-3 0 3 71658.9 1180.17 5
-3 0 3 67159.9 1173.6 8
-3 0 3 71816.9 1117.35 6
-3 0 3 72557.2 1163.58 4
3 0 -3 69619.3 1140.78 4
-3 0 2 132.996 112.371 8
-3 0 2 22.6288 98.0389 6
3 0 -2 -135.855 127.783 6
3 0 -2 -54.9293 112.039 4
-3 0 2 -80.8339 122.495 4
3 0 -2 -73.7964 101.425 8
3 0 -1 19386.5 573.089 4
-3 0 1 19936.7 584.32 4
3 0 -1 19062.9 540.622 6
-3 0 1 21034.9 559.683 6
-3 0 1 20517.9 520.458 1
3 0 -1 19710.1 562.056 8
-3 0 0 5569.56 312.61 4
-3 0 0 5220.22 295.179 6
3 0 0 5610.2 312.62 6
3 0 0 5972.99 293.089 1
-3 0 0 5867.1 286.341 1
3 0 0 6148.67 325.633 4
3 0 1 1336.59 167.919 1
-3 0 -1 1167.96 169.874 6
3 0 1 1195.72 187.265 6
3 0 1 1298.22 176.703 4
-3 0 -1 967.042 109.349 2
-3 0 -1 1137.85 151.569 5
-3 0 -1 1352.03 162.188 1
3 0 2 37114.3 768.869 4
-3 0 -2 37951.1 864.855 6
3 0 2 36271 862.497 6
-3 0 -2 36184.8 810.697 1
-3 0 -2 36784.7 798.53 5
3 0 2 37256.8 818.559 1
3 0 3 79776.5 1325.46 1
3 0 3 81047.5 1138.8 4
-3 0 -3 80615.6 1379.54 6
3 0 3 79656.1 1289.14 5
-3 0 -3 82085.5 1342.24 1
-3 0 -3 80302.3 1289.6 5
3 0 4 109978 1343.14 4
3 0 4 110907 1709.37 1
-3 0 -4 108067 1741.29 6
3 0 4 109540 1658.78 5
-3 0 -4 108892 1632.31 5
-3 0 -4 108609 1700.82 1
3 0 4 101674 696.699 9
3 0 5 13136.3 652.462 1
-3 0 -5 13783.5 657.431 5
3 0 6 11638.5 664.653 1
-3 0 -6 10803.6 636.854 5
3 0 7 20.3979 80.5512 4
3 0 7 38.7062 141.524 1
3 0 7 100.126 92.1292 4
-3 0 -7 21.8933 165.397 5
3 0 7 21.9333 74.3142 10
3 0 8 13.4613 81.0718 4
3 0 8 -113.745 198.168 1
-3 0 -8 -62.6176 173.237 5
-3 0 -9 7255.85 652.441 5
3 0 9 6679.16 641.15 1
3 0 10 3048.13 467.978 1
-3 0 -10 2678.57 442.246 5
3 1 -11 4230.78 507.014 6
3 1 -10 8885.99 692.896 6
-3 -1 9 9425.03 577.842 4
3 1 -9 8267.84 615.738 6
3 1 -8 1293.48 259.265 6
-3 -1 8 2105.71 291.458 4
3 1 -7 56269.9 1339.88 6
3 1 -7 52935 1228.23 4
-3 -1 7 56031.8 1271.54 4
3 1 -6 35504.4 987.328 6
3 1 -6 38005.8 750.392 10
3 1 -6 35385.5 970.951 4
-3 -1 6 37115 998.477 4
3 1 -5 19340.7 689.191 4
-3 -1 5 17892.6 667.606 4
-3 -1 5 17939.9 287.887 3
3 1 -5 19145.7 556.09 10
3 1 -5 17749.4 640.46 6
3 1 -4 76074.6 1185.28 6
-3 -1 4 74789.7 1407.61 5
-3 -1 4 74116.2 1272.93 4
3 1 -4 74385.4 1278.25 4
3 1 -3 255098 1983.34 6
-3 -1 3 261569 2389.02 5
3 1 -3 256587 2264.36 4
-3 -1 3 254567 2265.47 4
-3 -1 2 42358.4 746.15 6
3 1 -2 42532 749.485 6
-3 -1 2 42324.2 831.273 8
3 1 -2 40653.2 863.385 4
-3 -1 2 42688.8 887.944 4
-3 -1 1 40306.8 826.372 4
-3 -1 1 40743.7 700.249 6
3 1 -1 41395 703.156 6
3 1 -1 41397.2 829.917 4
-3 -1 1 41773.3 816.82 1
3 1 -1 41275.1 743.478 8
-3 -1 1 41109.2 744.485 8
-3 -1 0 30074.7 681.107 4
-3 -1 0 30135.9 616.363 6
3 1 0 29137.1 600.286 6
3 1 0 28508.7 663.699 1
-3 -1 0 29315.2 662.829 1
3 1 0 28104.2 660.153 4
-3 -1 -1 132597 1372.49 4
-3 -1 -1 131688 1367.78 6
3 1 1 133184 1395.8 6
3 1 1 134194 1439.36 1
-3 -1 -1 131226 1430.31 1
3 1 1 132214 1368.55 4
3 1 2 24291.4 573.808 4
-3 -1 -2 24365.5 657.291 1
-3 -1 -2 24246.8 575.29 4
-3 -1 -2 24232.5 647.179 6
-3 -1 -2 25630.8 677.962 5
3 1 2 23449 363.294 11
3 1 2 23705.6 651.954 6
3 1 2 23808 651.567 1
3 1 3 24432.6 564.23 4
-3 -1 -3 23942.4 721.185 6
-3 -1 -3 23470.1 696.235 1
-3 -1 -3 24011 697.961 5
3 1 3 22469.9 686.401 1
3 1 4 2961.13 204.278 4
-3 -1 -4 2639.43 289.756 6
3 1 4 3001.86 289.519 5
-3 -1 -4 2837.44 283.773 1
3 1 4 2919.27 285.02 1
-3 -1 -4 2474.98 263.549 5
3 1 5 3396.41 213.407 4
3 1 5 3594.67 346.626 1
3 1 5 3868.61 261.269 10
-3 -1 -5 3603.16 349.286 6
3 1 5 4052.02 355.72 5
-3 -1 -5 3792.83 351.147 5
-3 -1 -5 3866.21 349.066 1
3 1 6 12737.9 672.6 1
3 1 6 13876.1 454.422 10
-3 -1 -6 12342.4 657.495 5
3 1 6 13645.8 398.644 4
3 1 7 50.5106 61.3405 4
3 1 7 35.8859 161.3 1
3 1 7 12.0486 58.6964 4
-3 -1 -7 -114.966 176.934 5
3 1 7 88.1511 78.9516 10
3 1 8 429.781 228.159 1
3 1 8 364.989 61.8124 4
-3 -1 -8 646.225 251.521 5
3 1 9 374.173 201.851 1
-3 -1 -9 -96.4288 229.119 5
3 1 10 222.55 221.431 1
-3 -1 -10 45.2165 189.363 5
3 2 -11 262.416 257.386 11
3 2 -10 -2.00542 201.432 6
3 2 -10 -72.629 250.406 11
3 2 -9 -123.381 187.599 6
-3 -2 9 -96.6836 197.02 4
3 2 -9 275.678 249.062 11
3 2 -8 130.597 172.06 6
-3 -2 8 579.568 211.04 4
3 2 -7 3899.58 368.79 6
-3 -2 7 4261.4 405.115 4
-3 -2 6 193.813 162.923 4
3 2 -6 362.91 155.559 6
3 2 -5 1174.75 214.213 4
3 2 -5 1203.75 192.058 6
-3 -2 5 1124.45 225.178 4
3 2 -4 4535.48 292.031 6
-3 -2 4 4908.02 395.689 5
-3 -2 4 4481.38 183.267 3
3 2 -4 4547 290.566 10
3 2 -4 4395.81 373.784 9
3 2 -4 4477.03 352.055 4
-3 -2 4 4479.12 363.347 4
3 2 -3 41137.8 747.253 6
-3 -2 3 39455.6 1000.67 5
3 2 -3 42154 856.954 10
3 2 -3 40779.6 1018.82 9
3 2 -3 41919.9 982.08 4
-3 -2 3 40838.9 972.279 4
3 2 -2 9284.25 318.018 6
-3 -2 2 8481.24 435.364 4
3 2 -2 9077.36 408.49 10
3 2 -2 8801.45 436.988 4
-3 -2 1 37818.9 584.55 6
3 2 -1 38962.2 595.516 6
3 2 -1 38201.4 818.188 10
-3 -2 1 38229 681.5 8
3 2 -1 39307.9 856.628 4
-3 -2 1 38196.9 851.574 4
3 2 0 322.909 126.611 4
-3 -2 0 339.938 77.8753 6
-3 -2 0 427.985 140.733 4
3 2 0 260.076 82.2218 6
3 2 0 365.277 86.901 8
3 2 0 370.42 129.71 11
3 2 0 436.96 134.532 10
-3 -2 0 256.511 119.859 1
3 2 0 520.274 139.361 9
-3 -2 -1 14297 407.051 6
3 2 1 13875.7 431.455 11
3 2 1 14046.5 410.518 6
3 2 1 14468.5 444.404 9
3 2 1 14460.2 475.302 4
3 2 1 13972.9 494.729 1
-3 -2 -1 13685.7 487.874 1
3 2 1 13627.7 505.22 10
-3 -2 -1 14450.4 476.189 4
-3 -2 -1 14081.2 336.13 7
-3 -2 -2 15266.1 459.357 4
-3 -2 -2 14660.3 474.783 6
3 2 2 15142.1 391.357 11
3 2 2 15491.2 534.656 1
3 2 2 15415.3 528.695 10
3 2 2 14859.4 399.974 9
-3 -2 -2 14904.2 521.517 1
3 2 2 15031 454.89 4
3 2 2 15171.5 344.327 7
-3 -2 -3 18793.7 478.477 4
-3 -2 -3 18706.6 617.408 1
-3 -2 -3 19112 612.47 6
3 2 3 19101 579.634 10
-3 -2 -3 18183.6 613.737 5
3 2 3 18835.6 375.228 11
3 2 3 19142.6 625.744 1
3 2 3 19081.4 481.773 4
-3 -2 -4 46694.9 695.595 4
-3 -2 -4 47404.9 1047.8 6
-3 -2 -4 45206.5 1029.04 1
3 2 4 46944.9 1052.2 5
-3 -2 -4 47611.8 1053.62 5
3 2 4 45820.6 883.653 10
-3 -2 -4 46271.7 519.469 11
3 2 4 47063.7 703.787 4
3 2 4 47681.3 1051.42 1
3 2 5 138966 1935.76 1
3 2 5 135811 1933.31 5
-3 -2 -5 133105 1917.4 1
-3 -2 -5 136821 1927.07 5
3 2 5 138939 1528.58 10
-3 -2 -5 137235 1968.99 6
3 2 5 137404 1094.94 4
3 2 6 61451.7 1405.48 1
-3 -2 -6 57260.3 527.422 11
-3 -2 -6 58452.1 1377.4 5
3 2 6 62561 1005.27 10
3 2 6 56932.7 604.884 4
3 2 7 8042.72 568.144 1
-3 -2 -7 7716.24 557.915 5
-3 -2 -7 7905.7 213.739 11
3 2 8 1139.34 278.522 1
-3 -2 -8 706.97 229.979 5
-3 -2 -8 1020.52 89.0368 11
3 2 9 930.388 255.018 1
-3 -2 -9 1022.24 302.638 5
3 2 10 12185.3 833.882 1
-3 -2 -10 11161.9 830.43 5
-3 -2 -11 3745.5 548.821 5
3 2 11 3399.9 510.501 1
3 3 -10 3988.62 536.976 11
3 3 -9 381.374 283.07 11
3 3 -9 346.742 160.133 6
-3 -3 9 433.879 232.292 4
3 3 -8 1929.22 295.217 6
-3 -3 8 1745.18 321.105 4
3 3 -8 998.086 288.613 11
3 3 -7 10515.6 578.455 6
3 3 -7 11579.4 768.713 11
-3 -3 7 10332.4 647.167 4
3 3 -6 63456.3 1268.93 6
3 3 -6 63977.4 1659.54 11
-3 -3 6 65065.7 1528.62 4
-3 -3 5 70285 1522.99 4
3 3 -5 70911.5 1637.72 11
3 3 -5 70248.3 1198.11 6
3 3 -4 16364.7 510.302 6
-3 -3 4 15827.6 369.962 3
3 3 -4 16589.3 773.176 11
-3 -3 4 15857.3 704.182 4
3 3 -3 19759.3 480.201 6
3 3 -3 19859.2 742.213 4
-3 -3 3 19477.8 487.388 3
-3 -3 3 18849.7 731.408 5
3 3 -3 19991.3 788.454 11
3 3 -3 20165 765.13 9
-3 -3 3 18617.1 730.94 4
-3 -3 2 439.655 99.6548 3
3 3 -2 212.11 124.603 4
3 3 -2 643.242 196.049 11
3 3 -2 500.903 79.3435 6
-3 -3 2 759.702 184.305 4
-3 -3 2 508.058 146.561 5
3 3 -2 322.75 144.496 9
-3 -3 1 20697.5 492.664 8
3 3 -1 20073.4 337.11 6
3 3 -1 19785 694.017 11
3 3 -1 20156 640.762 10
3 3 -1 18290.3 652.713 9
3 3 -1 20042.1 680.66 4
-3 -3 1 20502.3 692.695 4
-3 -3 0 79269 695.157 6
3 3 0 81833.9 707.012 6
-3 -3 0 83991.2 1292.43 1
3 3 0 80665.2 1275.67 11
3 3 0 83684 1287.7 10
3 3 0 83480.5 1282.87 9
3 3 0 84557.2 1307.86 4
-3 -3 0 80057 1282.97 4
-3 -3 -1 82678.2 848.483 6
-3 -3 -1 82801.5 1228.29 4
-3 -3 -1 84631.2 1268.63 1
3 3 1 87114.7 1227.28 11
3 3 1 83691.4 1297.14 10
3 3 1 85720 1210.01 9
3 3 1 85416.3 1249.44 4
3 3 1 83483.5 714.462 8
-3 -3 -1 82786.8 1062.55 7
-3 -3 -2 106428 1161.19 6
-3 -3 -2 104139 1271.11 11
3 3 2 104338 1414.49 1
3 3 2 102767 1245.77 11
3 3 2 105091 1450.28 10
-3 -3 -2 102904 1388 1
-3 -3 -2 101715 1253.05 9
3 3 2 103894 1289.95 4
-3 -3 -2 103783 1287.26 4
-3 -3 -3 136436 1535.59 6
-3 -3 -3 135959 1676.96 5
3 3 3 138842 1354.02 11
-3 -3 -3 138770 1371.96 11
3 3 3 138439 1685.59 1
3 3 3 136006 1634.52 10
3 3 3 139732 1398.29 4
-3 -3 -3 137523 1319.34 9
3 3 3 139241 1383.15 7
-3 -3 -3 138308 1393.62 4
-3 -3 -3 137957 1667.23 1
-3 -3 -4 4783.16 346.866 1
-3 -3 -4 5123.26 358.456 5
-3 -3 -4 5035.32 255.431 11
3 3 4 5169.24 253.873 11
3 3 4 5352.77 363.027 1
3 3 4 5124.1 329.348 10
3 3 4 5178.56 255.809 4
-3 -3 -4 5178.85 241.124 9
-3 -3 -4 4905.31 250.575 4
3 3 5 391.45 79.3525 4
-3 -3 -5 246.92 141.036 1
-3 -3 -5 379.779 87.1759 4
3 3 5 338.2 139.172 1
3 3 5 420.591 148.534 5
-3 -3 -5 87.6996 136.929 5
-3 -3 -5 539.441 96.5448 11
-3 -3 -6 6062.26 268.313 11
3 3 6 5555.77 171.534 4
-3 -3 -6 5729.33 252.581 2
-3 -3 -6 5662.66 439.34 5
3 3 6 5943.53 436.942 1
-3 -3 -7 772.999 213.947 5
-3 -3 -7 879.785 122.047 11
3 3 7 680.672 194 1
-3 -3 -8 1203.33 272.352 5
-3 -3 -8 742.293 111.085 11
3 3 8 751.612 231.765 1
3 3 9 5396.43 528.431 1
-3 -3 -9 4699.83 508 5
-3 -3 -10 492.982 249.382 5
3 3 10 190.826 198.456 1
-3 -3 -11 330.569 253.196 5
3 3 11 479.618 299.846 1
-3 -4 9 -555.491 302.451 4
3 4 -9 -118.016 309.784 11
-3 -4 8 7.93156 191.719 4
3 4 -8 749.234 277.625 11
3 4 -7 11.4111 117.89 6
-3 -4 7 -183.619 211.571 4
3 4 -7 -316.398 290.558 11
3 4 -6 201.708 119.2 6
-3 -4 6 410.368 218.069 4
3 4 -6 368.69 224.935 11
3 4 -5 2156.46 220.522 6
-3 -4 5 1866.11 324.396 4
3 4 -4 1349.46 156.228 6
-3 -4 4 1444.93 270.854 4
-3 -4 4 1782.15 162.235 3
3 4 -4 1944.76 341.317 11
3 4 -3 1820.53 138.186 6
-3 -4 3 1530.13 263.853 4
-3 -4 3 1789.81 176.017 3
3 4 -3 1764.62 305.368 11
3 4 -2 1250.38 74.6269 6
-3 -4 2 1609.44 188.191 3
-3 -4 2 1674.78 237.091 10
3 4 -2 1120.18 76.1205 6
-3 -4 2 1282.4 243.872 4
3 4 -2 1321.42 251.118 11
-3 -4 2 1247.66 216.583 5
3 4 -1 4430.54 362.234 4
3 4 -1 5291.17 410.926 11
-3 -4 1 4749.06 311 3
-3 -4 1 4458.26 345.855 10
3 4 -1 4251.44 359.607 9
-3 -4 1 4558.06 384.045 4
-3 -4 0 23591.7 406.708 8
-3 -4 0 24566.8 801.973 9
3 4 0 24715 784.03 4
-3 -4 0 24898.6 761.267 1
3 4 0 24304.4 788.503 11
-3 -4 0 25764.8 738.923 3
-3 -4 0 24995.8 784.699 10
-3 -4 0 24632.9 795.512 4
-3 -4 -1 4043.6 154.154 6
3 4 1 5158.65 348.102 4
3 4 1 4562.82 343.245 11
-3 -4 -1 4240.56 317.978 1
-3 -4 -1 3726.62 321.649 10
-3 -4 -1 4389.94 342.123 11
-3 -4 -1 4297.88 305.352 7
-3 -4 -1 4137.35 335.188 9
-3 -4 -1 3345.37 302.344 4
-3 -4 -2 131138 1562.33 7
-3 -4 -2 132715 1185.69 6
3 4 2 134528 1665.56 11
3 4 2 137101 1696.47 1
-3 -4 -2 136373 1696.23 11
-3 -4 -2 134116 1668.52 1
-3 -4 -2 136649 1806.06 10
3 4 2 135022 1651.79 4
-3 -4 -2 132596 1646.89 9
-3 -4 -2 134812 1648.33 4
-3 -4 -3 154496 1661.74 4
-3 -4 -3 148034 1784.12 1
-3 -4 -3 152025 1797.04 5
-3 -4 -3 153562 1717.34 11
3 4 3 151531 1811.53 1
3 4 3 150670 1697.38 11
-3 -4 -3 148137 1886.22 10
3 4 3 149553 1638.23 4
-3 -4 -3 147425 1647.04 9
3 4 3 151297 1673.34 7
-3 -4 -4 3610.66 301.147 1
-3 -4 -4 4962.33 292.632 4
-3 -4 -4 4646.98 346.873 5
-3 -4 -4 4292.38 296.599 11
3 4 4 4232.6 289.392 11
3 4 4 4194.46 323.746 1
-3 -4 -4 4739.84 352.598 10
3 4 4 4510.93 271.643 4
-3 -4 -4 4144.25 275.903 9
3 4 4 4551.55 319.097 7
-3 -4 -5 32915.6 922.025 1
3 4 5 34707.8 946.431 1
-3 -4 -5 33653.8 944.714 5
-3 -4 -5 34032.1 781.477 11
-3 -4 -5 33513.4 905.795 10
3 4 5 34314.8 663.931 4
-3 -4 -5 34596.1 701.682 9
-3 -4 -5 32832.6 657.86 4
-3 -4 -6 43067.9 639.457 4
-3 -4 -6 43157.6 876.112 11
-3 -4 -6 43085.7 1129.89 1
-3 -4 -6 42750.5 1143.14 5
-3 -4 -6 43239.3 728.468 9
3 4 6 44019.5 1142.68 1
-3 -4 -6 42930.6 854.333 2
-3 -4 -7 17365.9 544.926 2
-3 -4 -7 16176.1 546.814 11
-3 -4 -7 19819.4 838.126 5
-3 -4 -7 17055 414.027 9
3 4 7 18252.8 788.359 1
-3 -4 -8 8336.64 600.141 5
-3 -4 -8 8081.53 394.602 11
-3 -4 -8 6915.38 215.001 9
3 4 8 7534.73 554.289 1
-3 -4 -9 32790.9 1241.64 5
3 4 9 33339.4 1222.99 1
3 4 10 11220.6 769.277 1
-3 -4 -10 10935.9 784.002 5
-3 -4 -11 227.999 226.847 5
3 4 11 431.312 205.907 1
3 4 12 1369.99 357.302 1
-3 -5 8 2072.69 393.098 4
3 5 -8 2235.33 433.657 11
-3 -5 7 1755.35 362.078 4
3 5 -7 2509.79 439.893 11
-3 -5 6 4057.25 496.436 4
3 5 -6 3343.1 439.934 11
3 5 -5 7907.39 365.802 6
3 5 -5 7852.58 641.947 11
-3 -5 5 7873.48 626.264 4
3 5 -4 27200.2 549.613 6
-3 -5 4 29000.2 1124.61 4
3 5 -4 25518.8 540.771 6
-3 -5 4 26942.7 661.164 3
3 5 -4 29455.9 1146.26 11
3 5 -3 973.567 73.7594 6
3 5 -3 1144.25 78.6041 6
-3 -5 3 1411.18 286.51 4
3 5 -3 764.849 244.098 11
-3 -5 3 1208.51 227.508 10
-3 -5 3 1203.4 172.781 3
-3 -5 2 242.203 191.601 4
3 5 -2 271.388 192.798 11
-3 -5 2 336.365 174.582 10
-3 -5 2 387.006 131.422 3
-3 -5 1 1499.35 280.868 4
3 5 -1 1724.14 300.025 11
-3 -5 1 1849.05 244.483 5
-3 -5 1 1328.35 234.643 10
-3 -5 1 1226.97 274.875 9
-3 -5 1 1495.97 210.521 3
-3 -5 0 1718.71 274.821 4
-3 -5 0 1277.04 214.671 1
3 5 0 1463.79 258.743 11
-3 -5 0 911.153 191.023 10
-3 -5 0 1269.95 262.916 9
-3 -5 0 1416.48 209.785 3
-3 -5 -1 1473.89 223.006 7
3 5 1 1405.68 233.807 4
-3 -5 -1 1409.25 241.767 4
-3 -5 -1 1001.63 189.376 3
-3 -5 -1 1239.3 210.651 11
3 5 1 1115.64 222.517 11
-3 -5 -1 1073.08 222.825 10
-3 -5 -1 1380.7 214.633 1
-3 -5 -1 1391.28 226.603 9
-3 -5 -2 2265.59 251.492 7
-3 -5 -2 2627.54 294.441 3
-3 -5 -2 2502.9 153.602 6
-3 -5 -2 2531.27 276.098 4
-3 -5 -2 2517.82 264.706 1
-3 -5 -2 1974.38 266.986 11
3 5 2 2827.21 309.159 11
-3 -5 -2 2671.15 296.407 10
3 5 2 2951.87 297.337 4
-3 -5 -2 2488.81 286.197 9
3 5 3 37964.3 947.977 1
-3 -5 -3 36633.8 965.775 11
3 5 3 37306.3 970.721 11
-3 -5 -3 39089 952.768 4
-3 -5 -3 37221.7 1046.84 3
-3 -5 -3 37694.3 1045.06 10
3 5 3 38592.5 938.863 4
-3 -5 -3 37246.8 924.647 1
-3 -5 -3 38096.9 960.003 9
3 5 4 3792.35 325.145 11
-3 -5 -4 3698.99 313.521 5
3 5 4 3567.51 312.531 1
-3 -5 -4 3172.58 302.811 11
3 5 4 3787.49 292.98 4
-3 -5 -4 3438.31 340.206 10
-3 -5 -4 2875.01 272.361 9
-3 -5 -4 3273.76 277.053 4
-3 -5 -4 3581.87 309.753 1
3 5 4 3734.55 329.838 7
-3 -5 -5 13265.9 589.856 1
-3 -5 -5 13898.4 617.919 5
3 5 5 13157.7 597.07 1
3 5 5 13046.7 487.118 4
-3 -5 -5 12878.8 618.542 10
-3 -5 -5 12820.4 561.301 11
-3 -5 -5 13216.5 530.561 9
-3 -5 -5 13663.2 504.556 4
3 5 5 13246.8 599.696 7
-3 -5 -6 18623.8 734.777 1
-3 -5 -6 19475.1 770.489 5
3 5 6 18402.9 741.492 7
-3 -5 -6 19009.2 679.793 11
3 5 6 20115.6 764.779 1
-3 -5 -6 18755.8 744.19 10
-3 -5 -6 19605.8 546.948 4
-3 -5 -7 20591.2 694.499 2
-3 -5 -7 20527.4 708.269 11
-3 -5 -7 21172.6 861.348 5
3 5 7 20940.6 835.73 1
-3 -5 -7 19603.1 764.512 10
-3 -5 -7 20624.1 467.814 4
3 5 8 16296.3 791.142 1
-3 -5 -8 15040.3 613.484 11
-3 -5 -8 17049.7 638.717 2
-3 -5 -8 16887.1 830.881 5
-3 -5 -9 8822.68 652.884 5
-3 -5 -9 8368.62 331.055 9
3 5 9 8147.14 604.3 1
-3 -5 -10 18762.4 998.587 5
3 5 10 21197.3 1019.5 1
3 5 11 3754.14 487.933 1
-3 -5 -11 4666.58 558.822 5
3 5 12 1126.68 307.324 1
-3 -5 -12 732.22 298.673 5
-3 -6 7 940.005 318.665 4
3 6 -7 1168.36 383.79 11
-3 -6 6 5671.98 609.077 4
3 6 -6 5029.78 591.084 11
3 6 -5 6855.6 637.177 11
-3 -6 5 7190.66 652.35 4
-3 -6 4 1165.88 313.037 4
3 6 -4 768.093 265.073 11
-3 -6 3 12531.8 561.765 3
3 6 -3 13122.5 799.286 11
-3 -6 3 13168.7 798.72 4
-3 -6 2 4570.09 462.476 4
-3 -6 2 4274.34 353.064 3
3 6 -2 4495.51 477.608 11
-3 -6 1 43.975 180.383 4
-3 -6 1 352.634 218.175 9
-3 -6 1 -75.9908 155.263 5
3 6 -1 53.5716 189.375 11
-3 -6 1 206.652 160.101 3
-3 -6 0 8402.5 510.289 3
3 6 0 8052.95 575.106 11
-3 -6 0 8226.12 583.284 9
-3 -6 0 8533.37 585.208 4
-3 -6 -1 1021.37 247.135 9
-3 -6 -1 581.809 197.134 4
3 6 1 1021.41 246.19 11
-3 -6 -1 710.624 164.672 1
-3 -6 -2 1439.68 94.4034 6
-3 -6 -2 1369.43 94.0489 6
-3 -6 -2 1549.1 267.329 4
3 6 2 1620.07 285.524 11
-3 -6 -2 1106.36 247.615 9
-3 -6 -2 1893.14 243.838 1
-3 -6 -3 39873.8 690.232 6
3 6 3 38657.7 1108.91 11
-3 -6 -3 36614.8 1058.13 9
-3 -6 -3 37431.8 971.878 1
3 6 3 40000.5 1086.24 4
-3 -6 -3 39725.7 1077.99 4
-3 -6 -4 6145.52 408.327 1
-3 -6 -4 5311.74 377.288 5
3 6 4 6354.48 410.209 1
3 6 4 6843.12 477.997 11
-3 -6 -4 6655.66 458.276 9
-3 -6 -4 6950.52 451.853 4
-3 -6 -5 10050.1 525.414 1
-3 -6 -5 10542.1 548.571 5
3 6 5 10888.4 553.765 1
3 6 5 10795.6 583.947 11
-3 -6 -5 10408.6 542.045 9
3 6 5 9709.91 300.825 8
-3 -6 -5 10622.7 516.999 4
3 6 5 10690 596.254 7
3 6 6 157.572 167.993 7
-3 -6 -6 49.5981 122.151 1
-3 -6 -6 171.365 127.385 4
-3 -6 -6 -42.5423 132.543 5
3 6 6 176.347 146.41 1
3 6 7 15238.7 707.962 1
-3 -6 -7 14009.5 704.621 5
-3 -6 -7 15197.2 528.445 4
3 6 7 13917.2 730.512 7
-3 -6 -8 31384 1103.05 5
3 6 8 33079.7 1097.69 1
3 6 8 31054.9 1116.13 7
-3 -6 -8 29844.6 598.457 4
3 6 9 2281.53 330.698 1
-3 -6 -9 1855.03 333.244 5
3 6 10 1863.37 325.488 1
-3 -6 -10 1338.01 285.762 5
3 6 11 342.776 196.364 1
-3 -6 -11 448.567 268.442 5
3 6 12 3952.98 524.808 1
-3 -6 -12 3012.46 465.1 5
3 7 -5 12140.5 904.712 11
-3 -7 5 12412.2 905.732 4
3 7 -4 10440.9 809.409 11
-3 -7 4 9873.83 781.552 4
3 7 -3 18543.6 1023.25 11
-3 -7 3 18698.2 1025.56 4
3 7 -2 26849.4 1192.6 11
-3 -7 2 28175.1 1214.9 9
-3 -7 2 27969.6 1213.62 4
3 7 -1 21414.9 1020.4 11
-3 -7 1 20562.2 1005.55 4
-3 -7 1 20691.7 1007.76 9
-3 -7 0 1479.32 292.333 4
3 7 0 1057.65 279.076 11
-3 -7 0 1276.99 237.642 5
-3 -7 0 2060.32 366.388 9
-3 -7 -1 22610.5 979.739 4
3 7 1 23221.6 999.611 11
-3 -7 -1 24067.6 1014.97 9
-3 -7 -2 31329.1 972.184 1
3 7 2 33738.1 1174.48 11
-3 -7 -2 32393.9 1138.7 9
-3 -7 -2 33267.2 1142.31 4
-3 -7 -3 15017.2 392.939 6
3 7 3 15571.3 789.581 11
-3 -7 -3 13741.1 628.372 1
-3 -7 -3 13943.3 733.871 9
-3 -7 -3 14584.5 739.628 4
-3 -7 -4 1014.64 222.003 4
-3 -7 -4 883.618 140.726 6
-3 -7 -4 1041.21 199.2 1
-3 -7 -4 784.372 163.769 5
3 7 4 952.127 265.526 11
-3 -7 -4 1232.12 255.824 9
-3 -7 -5 21599.2 779.219 1
-3 -7 -5 22212.6 788.163 5
3 7 5 21860.3 904.778 11
-3 -7 -5 21545.7 866.872 9
-3 -7 -5 21824.6 822.859 4
-3 -7 -6 8051.27 507.72 5
3 7 6 8606.92 523.287 1
-3 -7 -6 9092.4 516.497 4
3 7 6 8480.27 303.193 8
3 7 6 8073.56 584.297 7
3 7 7 949.4 264.164 7
-3 -7 -7 938.834 191.84 4
3 7 7 1309.57 179.482 8
-3 -7 -7 1264.07 259.754 5
3 7 7 1237.92 234.744 1
-3 -7 -8 6252.53 517.415 5
3 7 8 5564.44 456.848 1
-3 -7 -8 4840.42 325.278 4
3 7 8 6086.13 548.13 7
3 7 9 421.701 167.664 1
-3 -7 -9 402.488 208.586 5
3 7 9 542.38 268.073 7
3 7 10 2013.83 327.291 1
-3 -7 -10 1275.2 317.677 5
3 7 10 1772.4 359.614 7
3 7 11 508.649 217.806 1
-3 -7 -11 1104.63 324.96 5
3 7 12 10.3249 199.383 1
-3 -7 -12 -55.5482 223.135 5
3 8 -4 -240.307 301.994 11
-3 -8 3 192.431 270.415 4
3 8 -3 166.156 237.872 11
-3 -8 2 1365.62 339.679 4
3 8 -2 1608.09 354.613 11
-3 -8 2 2047.63 432.082 9
-3 -8 1 1489.37 332.072 4
3 8 -1 1571.31 335.619 11
-3 -8 1 1907.21 405.636 9
-3 -8 0 4581.25 537.946 4
3 8 0 4420.87 527.698 11
-3 -8 0 4307.03 511.052 9
-3 -8 -1 3855.85 470.407 4
3 8 1 4144.99 479.963 11
-3 -8 -1 4055.52 501.994 9
-3 -8 -2 19386.2 957.334 4
-3 -8 -2 20060.8 986.037 9
3 8 2 18432.7 953.604 11
-3 -8 -3 4811.03 482.038 4
3 8 3 4610.6 482.377 11
-3 -8 -3 4665.4 491.505 9
-3 -8 -4 15465.9 485.063 6
-3 -8 -4 15914.3 655.063 5
3 8 4 15966.2 863.27 11
-3 -8 -4 15379.4 829.465 9
-3 -8 -4 15386.2 808.158 4
-3 -8 -5 38770 910.006 6
-3 -8 -5 36796.9 1018.32 5
3 8 5 36197.6 1272.61 11
-3 -8 -5 38853.1 1273.9 9
-3 -8 -5 38500.3 1217.23 4
-3 -8 -6 5532.71 403.569 6
-3 -8 -6 5675.77 427.547 5
-3 -8 -6 4786.35 412.946 4
3 8 7 4913.23 513.713 7
-3 -8 -7 5762 446.581 6
-3 -8 -7 6099.61 468.686 5
3 8 7 5773.42 452.28 1
-3 -8 -7 6606.34 473.615 4
-3 -8 -8 8174.03 568.359 5
3 8 8 9025.97 579.282 1
-3 -8 -8 9428.33 524.149 4
3 8 8 9530.78 706.95 7
-3 -8 -9 10409.9 684.372 5
3 8 9 10986.3 672.475 1
3 8 9 10362.2 762.266 7
-3 -8 -10 3974.79 471.487 5
3 8 10 4220.94 448.359 1
3 8 10 3746.58 490.364 7
3 8 11 1483.81 275.469 1
-3 -8 -11 1126.27 300.494 5
3 8 11 748.391 303.531 7
-3 -8 -12 -309.128 264.197 5
3 9 -1 7353.13 713.279 11
-3 -9 1 8867.17 804.24 9
-3 -9 1 7878.76 739.313 4
-3 -9 0 899.5 343.792 4
3 9 0 189.1 210.722 11
-3 -9 0 1106.1 358.747 9
-3 -9 -1 3779.64 525.07 4
3 9 1 3977.46 506.778 11
-3 -9 -1 3134.22 503.059 9
-3 -9 -2 344.095 225.608 4
3 9 2 287.799 234.091 11
-3 -9 -2 25.2496 233.24 9
-3 -9 -3 4750.6 541.158 4
-3 -9 -3 4378.35 357.014 5
3 9 3 4748.16 546.59 11
-3 -9 -3 4003.56 505.489 9
-3 -9 -4 115.635 189.827 4
-3 -9 -4 134.692 105.28 5
3 9 4 614.868 236.469 11
-3 -9 -4 547.992 277.305 9
-3 -9 -5 1504.46 318.416 4
-3 -9 -5 1648.79 242.288 5
3 9 5 2205.75 378.422 11
-3 -9 -5 1392.16 303.502 9
-3 -9 -6 4663.06 361.288 6
-3 -9 -6 4016.49 437.201 4
-3 -9 -6 4044.69 369.559 5
-3 -9 -6 3372.63 448.458 9
-3 -9 -7 272.098 177.399 4
-3 -9 -7 335.676 123.993 6
-3 -9 -7 353.868 168.156 5
3 9 8 4379.68 541.827 7
-3 -9 -8 4143.59 419.848 6
-3 -9 -8 3397.52 377.49 4
-3 -9 -8 3533.57 390.238 5
3 9 9 181.512 205.648 7
-3 -9 -9 -185.885 167.095 6
-3 -9 -9 34.3666 149.901 5
3 9 10 -85.5006 295.339 7
-3 -9 -10 -128.395 188.846 6
-3 -9 -10 -46.656 194.047 5
-3 -9 -11 189.428 245.873 6
-3 -9 -11 -19.6878 207.642 5
3 10 2 8455.93 774.48 11
-3 -10 -2 7617.64 738.267 9
-3 -10 -2 7582.78 748.92 4
-3 -10 -3 -33.6762 232.85 4
3 10 3 167.488 199.755 11
-3 -10 -3 -49.0449 245.157 9
3 10 4 3083.22 486.198 11
-3 -10 -4 2358.77 433.129 4
-3 -10 -4 3190.4 489.715 9
-3 -10 -5 19228.3 1082.92 9
-3 -10 -5 16770.6 979.951 4
-3 -10 -6 11947.4 850.411 9
-3 -10 -6 11498.6 789.495 4
-3 -10 -7 1631.73 327.829 4
-3 -10 -7 1254.96 340.628 9
-3 -10 -8 4066.83 509.56 9
-3 -11 -5 2069.64 428.418 4
-3 -11 -6 -374.876 275.604 4
-3 -11 -7 187.093 254.778 4
-3 -11 -8 2406.93 438.73 9
-3 -11 -9 6471.75 655.554 9
4 -9 -7 4095.69 542.105 6
4 -9 -6 1696.56 405.187 6
4 -9 -5 8278.12 727.98 6
4 -9 -4 13420.8 907.67 6
4 -9 -3 1995.73 368.29 6
-4 8 9 3430.9 504.977 3
-4 8 8 5902.75 628.714 7
4 -8 -8 5258.1 605.488 6
-4 8 8 4874.07 612.652 3
-4 8 7 6049.47 626.584 7
4 -8 -7 5839.27 626.47 6
-4 8 7 5168.81 629.854 3
4 -8 -6 1665.44 376.345 6
-4 8 6 1466.55 367.487 3
4 -8 -5 190.193 234.659 6
-4 8 5 -96.4465 271.577 3
4 -8 -4 8052.92 679.285 6
-4 8 4 8930.56 796.224 3
4 -8 -3 3167.98 436.056 6
-4 8 3 2983.33 500.925 3
4 -8 -2 240.004 209.896 6
-4 8 2 -82.969 265.338 3
4 -8 -1 -975.876 319.532 6
-4 8 1 -46.7548 279.358 3
4 -8 0 425.515 267.099 6
-4 7 11 112.954 251.569 3
-4 7 10 1983.94 444.093 7
-4 7 10 1828.73 362.355 3
4 -7 -9 1016.1 303.075 6
-4 7 9 844.995 316.282 3
4 -7 -8 9195.08 754.211 6
-4 7 8 9497.91 768.501 3
-4 7 8 9158.29 751.198 7
4 -7 -7 17120.8 986.575 6
-4 7 7 17585.7 1014.42 3
-4 7 6 173.948 227.648 7
4 -7 -6 196.136 196.225 6
-4 7 6 236.145 216.183 3
4 -7 -5 3373.47 457.268 6
-4 7 5 3314.79 484.543 3
4 -7 -4 127.547 196.768 6
-4 7 4 25.7245 234.86 3
4 -7 -3 1344.78 299.509 6
-4 7 3 1465 343.921 3
4 -7 -2 1351.63 307.676 6
-4 7 2 1521.49 343.343 3
4 -7 -1 10112.7 727.124 6
-4 7 1 11090.9 839.518 3
4 -7 0 6844.01 611.35 6
-4 7 0 8253.5 730.1 3
4 -7 1 6292.29 603.12 6
-4 7 -1 7693.58 720.244 3
-4 7 -2 1350.67 348.226 3
4 -7 3 -157.157 197.111 9
-4 7 -3 112.157 261.016 3
-4 6 11 993.373 291.107 3
-4 6 11 -66.7721 201.724 8
4 -6 -10 4060.53 556.048 6
-4 6 10 3254.81 491.76 8
-4 6 10 3315.32 439.043 3
4 -6 -9 -54.0777 222.51 6
-4 6 9 59.9007 213.974 3
4 -6 -8 1372.58 323.453 6
-4 6 8 1245.11 315.858 3
-4 6 8 1196.86 317.271 7
4 -6 -7 290.511 225.033 6
-4 6 7 200.66 187.503 3
-4 6 7 460.567 225.035 7
-4 6 6 3460.43 420.493 7
4 -6 -6 2787.33 414.048 6
-4 6 6 2634.34 400.556 3
-4 6 5 359.658 231.376 7
4 -6 -5 356.961 231.376 6
-4 6 5 283.804 209.309 3
-4 6 4 2121.8 362.396 3
4 -6 -4 1775.47 317.86 6
4 -6 -3 4825.46 487.215 6
-4 6 3 4883.97 520.929 3
4 -6 -2 -150.25 200.586 6
-4 6 2 -83.6253 195.132 3
4 -6 -1 8281.2 624.455 6
-4 6 1 8750.07 693.578 3
4 -6 0 2319.62 377.729 6
-4 6 0 2082.57 390.256 3
4 -6 1 5436.34 539.971 6
-4 6 -1 5474.17 575.071 3
4 -6 2 4049.73 492.898 6
-4 6 -2 3680.8 489.902 3
4 -6 3 2899.57 468.484 4
-4 6 -3 3636.63 497.127 3
4 -6 4 672.514 308.222 4
-4 6 -4 792.564 295.041 3
-4 5 11 3443.08 517.305 8
-4 5 10 2195.4 342.807 3
4 -5 -10 1850.8 393.76 6
-4 5 10 1787.19 369.876 8
4 -5 -9 747.637 247.828 6
-4 5 9 936.564 278.948 3
-4 5 9 813.665 270.473 8
4 -5 -8 6329.13 599.256 6
-4 5 8 6453.37 547.855 3
4 -5 -7 6740.79 600.344 6
-4 5 7 5941.87 529.151 3
4 -5 -6 1.80948 176.154 6
-4 5 6 262.243 101.099 5
-4 5 6 367.253 228.957 3
-4 5 6 584.278 234.174 7
-4 5 5 -117.213 202.159 7
4 -5 -5 -81.7515 210.849 6
-4 5 5 -85.6425 70.5455 5
-4 5 5 -357.888 224.01 3
4 -5 -4 3794.89 422.865 6
-4 5 4 3521.98 165.948 5
-4 5 4 4349.06 408.579 7
-4 5 4 4471.3 461.344 3
4 -5 -3 5406.49 477.861 6
-4 5 3 5512.62 504.932 3
4 -5 -2 16356 801.75 6
-4 5 2 15747 833.325 3
4 -5 -1 281.914 87.1049 1
4 -5 -1 438.143 204.18 6
-4 5 1 276.796 202.327 3
4 -5 0 1744.14 308.042 6
4 -5 0 1360.79 182.557 1
-4 5 0 1888.9 146.36 5
-4 5 0 1780.9 332.971 3
-4 5 -1 630.916 228.843 3
4 -5 1 1176.13 283.084 6
4 -5 1 815.279 175.488 1
-4 5 -1 815.652 141.181 5
4 -5 2 715.185 259.351 6
-4 5 -2 806.671 151.73 5
-4 5 -2 1422.35 308.817 3
4 -5 2 924.327 217.892 1
-4 5 -3 4156.59 480.122 3
4 -5 3 3743.06 393.092 1
4 -5 4 7177.18 578.939 1
-4 5 -4 6912.85 609.146 3
4 -5 4 8261.16 699.577 4
4 -5 4 6925.22 543.458 9
4 -5 5 1156.15 280.457 1
4 -5 5 1104.36 317.359 4
-4 5 -5 1729.05 351.65 3
4 -5 6 5267.99 597.542 1
4 -5 6 3978.25 529.472 4
4 -4 -11 2128.15 392.741 6
-4 4 11 2274.47 424.527 2
-4 4 11 1804.35 393.417 8
-4 4 10 2077.45 307.427 3
4 -4 -10 1827.72 359.546 6
-4 4 10 2575.54 408.052 2
-4 4 10 2733.2 433.042 8
-4 4 10 2514.31 310.474 1
4 -4 -9 9055.05 711.258 6
-4 4 9 9752.1 726.161 2
-4 4 9 8309.4 565.409 3
-4 4 9 9008.27 518.381 1
-4 4 9 8290.47 692.074 8
4 -4 -8 8948.51 662.536 6
-4 4 8 7514.99 617.742 2
-4 4 8 8933.98 465.11 1
-4 4 8 8380.31 564.699 3
-4 4 8 9543.36 695.152 8
4 -4 -7 42594.2 1362.32 6
-4 4 7 41463.6 1360.27 2
-4 4 7 39125.6 1065.66 5
-4 4 7 41546.4 1229.01 3
-4 4 7 39485.2 1323.7 8
-4 4 6 24691.6 1006.77 2
4 -4 -6 26755 1046.62 6
-4 4 6 24442.5 758.376 5
-4 4 6 25513.1 552.925 1
-4 4 6 24641.4 955.328 3
4 -4 -5 18340 845.568 6
-4 4 5 17619.7 577.834 5
-4 4 5 17337 799.801 3
-4 4 5 17879.8 362.457 1
4 -4 -4 52198.4 1370.72 6
-4 4 4 53369.5 872.239 5
-4 4 4 53901.2 1393.34 3
-4 4 4 52619.8 1238.62 7
4 -4 -3 9749.6 596.886 6
-4 4 3 10024.7 625.847 3
-4 4 3 9648.97 329.887 5
-4 4 3 9605.94 514.819 7
4 -4 -2 11163.4 625.656 6
-4 4 2 12066.4 335.06 5
-4 4 2 10105.3 624.232 3
4 -4 -1 14958.3 672.926 11
4 -4 -1 13860.6 705.449 6
-4 4 1 14876.2 392.443 5
-4 4 1 14929.3 762.141 3
4 -4 -1 14342.7 446.845 1
4 -4 0 22081.3 889.5 6
4 -4 0 22602.3 812.922 2
-4 4 0 24217.7 567.038 5
-4 4 0 24381.9 986.884 3
4 -4 0 24063.9 836.067 11
4 -4 0 23563.2 666.429 1
4 -4 0 23400.1 782.27 7
4 -4 1 9549.96 522.754 2
4 -4 1 10192.5 641.02 6
-4 4 -1 10434.9 433.042 5
-4 4 -1 10215.2 654.347 3
4 -4 1 10104.4 534.662 11
4 -4 1 10127.8 541.411 7
4 -4 1 10223.7 502.197 1
4 -4 2 9974.64 547.278 1
4 -4 2 10270.2 534.028 2
4 -4 2 11200.5 690.891 6
-4 4 -2 10396.1 490.614 5
-4 4 -2 10376.5 670.338 3
4 -4 2 10406.3 532.894 11
4 -4 3 3033.82 398.803 6
-4 4 -3 2741.07 298.971 5
-4 4 -3 2894.06 385.313 3
4 -4 4 269.493 195.868 1
-4 4 -4 220.548 151.603 5
-4 4 -4 176.598 187.551 3
4 -4 5 1896.41 363.879 1
4 -4 5 2194.56 367.063 4
-4 4 -5 2027.61 302.403 5
-4 4 -5 2256.49 338.831 3
4 -4 6 6441.18 588.05 4
4 -4 6 5852.67 594.635 1
-4 4 -6 6372.43 576.346 5
4 -4 7 908.967 306.295 1
-4 4 -7 417.935 221.274 5
-4 3 12 1984.68 385.073 2
-4 3 12 1383.88 315.743 1
4 -3 -11 2039.61 397.668 6
-4 3 11 1319.84 336.705 2
-4 3 11 1330.71 309.092 1
-4 3 11 1433.05 377.934 8
4 -3 -10 2571.13 437.171 6
-4 3 10 1429.45 328.336 2
-4 3 10 1883.76 383.484 8
-4 3 10 2084.53 311.654 1
4 -3 -9 382.671 255.409 6
-4 3 9 -29.9579 119.135 3
-4 3 9 269.21 211.618 2
-4 3 9 382.845 220.453 8
4 -3 -8 206.913 173.624 6
-4 3 8 505.247 164.839 3
-4 3 8 328.002 212.934 8
-4 3 8 106.816 176.182 2
4 -3 -7 354.875 204.284 6
-4 3 7 525.865 218.574 2
-4 3 7 411.426 178.844 3
-4 3 7 499.679 192.556 8
4 -3 -6 15173.5 766.2 6
-4 3 6 17663.7 825.162 2
-4 3 6 16677.6 671.859 5
-4 3 6 17270.5 729.787 3
-4 3 6 16649.7 811.647 8
4 -3 -5 115326 1992.25 6
-4 3 5 117518 2011.37 2
-4 3 5 115582 1602.65 5
-4 3 5 118319 1310.41 1
-4 3 5 116762 1872.69 3
4 -3 -4 38591.5 1126.69 6
-4 3 4 38637.7 1105.57 2
-4 3 4 38940.3 667.005 1
-4 3 4 38820 1088.4 3
-4 3 4 38791 846.435 5
4 -3 -3 19471.2 786.404 6
-4 3 3 19069.5 787.469 3
-4 3 3 19792.1 550.847 5
-4 3 3 19097.2 650.82 7
-4 3 3 21321.7 463.335 1
4 -3 -2 27379.8 916.881 6
-4 3 2 25911.2 536.398 1
4 -3 -2 24917.1 828.339 2
-4 3 2 26592.1 938.203 3
-4 3 2 26305.7 723.561 7
4 -3 -1 26926 912.208 6
4 -3 -1 26396.8 825.623 2
-4 3 1 27436.7 600.864 5
-4 3 1 27086.5 626.859 1
-4 3 1 25402.2 923.343 3
4 -3 -1 27701.4 622.922 1
4 -3 0 34393.1 1042.53 6
4 -3 0 33716.3 891.506 2
-4 3 0 34479.4 717.008 5
-4 3 0 34414.7 1077.57 3
-4 3 0 34023.6 791.559 1
4 -3 0 35294.3 906.39 11
4 -3 0 33477.8 770.602 1
4 -3 1 69010.4 1521.56 6
4 -3 1 69702.3 1239.22 2
-4 3 -1 71822.8 1141.33 5
-4 3 -1 70057.4 1561.21 3
4 -3 1 68287.5 1216.08 11
4 -3 1 69655.1 1238.37 1
4 -3 1 69717.2 1196.28 7
4 -3 2 44588.7 1100.16 1
4 -3 2 42610.3 938.828 2
4 -3 2 46258.2 1292.79 6
-4 3 -2 45741.9 1289.1 3
-4 3 -2 45859.7 1010.81 5
4 -3 2 44166.5 951.794 11
4 -3 2 43892.3 1010.81 7
4 -3 3 26182.3 924.124 1
4 -3 3 25542.9 697.556 2
4 -3 3 26025.3 1020.62 6
-4 3 -3 25870.4 991.842 3
-4 3 -3 24808.9 823.455 5
4 -3 3 25189 703.23 11
4 -3 4 30886.3 1087.98 1
-4 3 -4 31289 1100.71 3
-4 3 -4 32198.6 1030.12 5
4 -3 5 7244.16 583.443 1
-4 3 -5 7102.45 542.716 3
-4 3 -5 6626.28 521.011 5
4 -3 5 6306.1 408.25 9
4 -3 6 11882.7 794.9 1
-4 3 -6 12050 718.889 3
-4 3 -6 13717.3 804.297 5
4 -3 6 11722 714.442 4
4 -3 7 4909.59 552.192 1
4 -3 7 4784.7 467.079 4
-4 3 -7 4622.34 515.681 5
-4 3 -8 6186.83 619.898 5
-4 2 12 24549.2 1253.7 2
-4 2 12 23956.1 1246.87 1
4 -2 -11 22943.2 1189.63 6
-4 2 11 23067.7 1172.79 2
-4 2 11 22014.6 1230.82 8
-4 2 11 20853.3 1079.18 1
-4 2 10 5553.42 571.965 2
4 -2 -10 5714.69 582.219 6
-4 2 10 5350.83 590.442 8
-4 2 9 9629.32 700.909 2
-4 2 9 9517.51 452.834 3
4 -2 -9 9855.85 703.882 6
-4 2 9 9955.24 748.875 8
4 -2 -8 6854.74 564.513 6
-4 2 8 6877.58 570.368 2
-4 2 8 6832.72 404.287 3
-4 2 8 7986.09 643.721 8
4 -2 -7 26318.1 1020.32 6
-4 2 7 26457.9 1034.14 2
-4 2 7 27658.2 819.223 3
-4 2 7 27388.1 1080.9 8
4 -2 -6 6821.83 502.784 6
-4 2 6 7030.23 537.328 2
-4 2 6 7075.52 471.991 5
-4 2 6 5843.43 390.408 3
-4 2 6 6453.03 507.157 8
4 -2 -6 7300.26 474.327 4
4 -2 -5 16955.3 697.323 4
4 -2 -5 18048.4 771.105 6
-4 2 5 18226.7 785.765 2
-4 2 5 18021.3 675.82 3
-4 2 5 17747 674.865 5
-4 2 5 18410.6 794.202 8
4 -2 -4 24607 863.609 6
-4 2 4 24799.9 866.155 2
4 -2 -4 25201 841.824 4
-4 2 4 24807.2 810.901 3
-4 2 4 25864.9 647.583 1
-4 2 4 26709.6 759.267 5
-4 2 3 5839 411.797 6
4 -2 -3 5591.29 405.664 4
4 -2 -3 5317.93 405.27 6
-4 2 3 6039.09 415.155 2
-4 2 3 5778.62 290.406 1
-4 2 3 5511.28 400.493 3
-4 2 3 5870.58 331.399 5
4 -2 -3 5845.58 416.843 8
-4 2 2 73.1528 121.98 6
4 -2 -2 -24.6501 135.945 6
-4 2 2 88.6816 120.694 2
4 -2 -2 49.4152 128.189 4
-4 2 2 60.8488 69.3447 1
4 -2 -2 -38.3223 114.183 8
-4 2 2 -50.6287 90.8002 7
-4 2 1 9489.26 514.858 6
4 -2 -1 8961.01 516.81 4
4 -2 -1 8034.74 473.617 6
-4 2 1 9367.42 372.733 1
4 -2 -1 8458.64 357.763 1
-4 2 1 8632.89 437.897 2
4 -2 0 -21.4061 90.1661 1
-4 2 0 63.2041 120.151 6
4 -2 0 -24.2171 161.562 6
-4 2 0 95.9894 88.8485 5
-4 2 0 27.1467 85.105 1
-4 2 -1 5630.13 423.583 6
4 -2 1 5967.55 441.714 6
4 -2 1 5806.3 329.903 2
-4 2 -1 5897.94 334.566 5
-4 2 -1 6565.15 381.448 1
4 -2 1 6253.18 331.146 11
4 -2 1 6388.93 307.038 7
4 -2 1 5740.24 354.738 1
-4 2 -2 756.376 159.615 5
4 -2 2 889.221 144.349 7
4 -2 2 796.441 246.259 6
-4 2 -2 740.674 168.24 1
4 -2 2 691.574 135.006 2
4 -2 2 829.479 177.888 1
4 -2 2 714.558 127.337 11
4 -2 3 39562.4 1091.62 1
4 -2 3 41123 1210.96 6
4 -2 3 41893.5 747.21 2
4 -2 3 40108.5 727.995 11
-4 2 -3 40827.2 1035.44 5
4 -2 4 11318.6 642.498 1
4 -2 4 11881.8 367.491 2
-4 2 -4 11145.4 597.901 5
-4 2 -5 565.281 203.153 5
4 -2 5 381.967 123.727 9
4 -2 6 5171.48 529.077 1
-4 2 -6 4833.41 480.379 5
4 -2 7 15832.5 938.109 1
-4 2 -7 15401.3 775.119 3
-4 2 -7 15305.1 879.805 5
4 -2 7 14174.4 716.903 4
4 -2 8 2196.87 410.702 1
-4 2 -8 2324.49 421.924 5
-4 2 -9 2610.18 440.285 5
-4 1 12 5871.38 640.387 2
4 -1 -11 -32.6099 211.589 6
-4 1 11 -69.7748 216.464 2
4 -1 -10 2683.42 413.324 6
-4 1 10 2522.08 397.319 2
-4 1 10 2536.2 316.075 4
4 -1 -9 5191.57 517.903 6
-4 1 9 4757.16 416.997 4
-4 1 9 5143.35 523.6 2
-4 1 9 4635.77 549.403 8
4 -1 -8 4681.31 466.207 6
-4 1 8 3930.27 373.392 4
-4 1 8 5010.83 501.299 2
-4 1 8 3712.41 238.968 3
-4 1 8 4524.8 491.192 8
4 -1 -7 2725.45 350.95 6
-4 1 7 2475.4 302.699 4
-4 1 7 3412.34 403.652 2
-4 1 7 2869.54 239.942 3
-4 1 7 2526.48 350.663 8
4 -1 -6 25100.1 915.938 6
-4 1 6 23617.3 832.916 4
-4 1 6 24334 943.397 2
-4 1 6 25088.8 699.625 3
-4 1 6 27529.2 1011.42 8
4 -1 -6 25477.7 857.966 4
4 -1 -5 27221.8 900.506 6
-4 1 5 29868.1 912.809 4
-4 1 5 28341.5 966.206 2
-4 1 5 27668.1 757.186 3
-4 1 5 27685.5 888.957 5
-4 1 5 28254.6 962.849 8
4 -1 -5 26231.5 845.953 4
-4 1 4 141858 1943.63 6
4 -1 -4 145942 1963.44 6
-4 1 4 144474 1937.24 4
-4 1 4 144643 2037.64 2
-4 1 4 141289 1737.08 3
-4 1 4 146773 1870.54 5
-4 1 4 145586 2034.96 8
4 -1 -4 143133 1926 4
4 -1 -3 62862.8 1255.21 4
-4 1 3 62364.1 1232.22 6
4 -1 -3 64400.1 1262.59 6
-4 1 3 62263.9 1253.22 2
-4 1 3 63253.9 1048.94 1
4 -1 -3 64270.1 1287.26 8
4 -1 -2 3166.41 298.378 4
-4 1 2 2911.88 283.842 6
4 -1 -2 2344.27 253.967 6
-4 1 2 2834.36 270.954 2
-4 1 2 2996.48 226.861 1
4 -1 -2 2596.24 273.023 8
-4 1 1 33.2914 120.726 6
4 -1 -1 114.346 133.346 6
-4 1 1 155.406 115.875 2
4 -1 -1 41.6569 136.065 4
-4 1 1 -41.6523 80.4939 1
4 -1 -1 159.061 91.1508 1
-4 1 1 62.4436 65.9562 7
4 -1 0 6408.75 414.092 4
-4 1 0 6724.98 344.818 1
-4 1 0 6877.11 415.987 6
-4 1 0 6870.54 343.321 2
4 -1 0 6613.73 415.985 6
4 -1 0 6930.06 353.355 1
4 -1 1 3381.44 316.575 4
-4 1 -1 3042.92 290.975 6
-4 1 -1 3503.73 280.231 1
4 -1 1 3081.16 317.927 6
-4 1 -1 3573.95 267.294 5
4 -1 1 3144.78 265 1
-4 1 -2 2853.77 311.748 6
4 -1 2 2755.8 310.996 6
-4 1 -2 2965.91 279.538 1
-4 1 -2 2824.56 263.464 5
4 -1 2 2248.36 257.242 4
4 -1 2 2597.77 267.098 1
4 -1 2 2809.33 179.518 11
4 -1 3 39187.8 1049.57 1
4 -1 3 40403.9 1145.09 6
-4 1 -3 41180.3 1013.62 5
-4 1 -3 40334.8 1071.46 1
4 -1 3 38705.9 540.599 11
4 -1 4 16089.1 729.231 1
-4 1 -4 15625.8 683.594 5
4 -1 5 2127.15 318.288 1
-4 1 -5 1476.29 269.096 5
4 -1 5 1827.84 151.651 9
4 -1 6 487.965 198.827 1
-4 1 -6 344.045 172.639 5
4 -1 7 -92.9374 186.791 1
4 -1 7 -123.983 110.76 4
-4 1 -7 -85.1973 208.645 5
4 -1 8 -139.188 191.951 1
-4 1 -8 -4.38412 238.176 5
4 -1 9 139.063 273.812 1
-4 1 -9 130.596 193.463 5
4 0 -11 43.8207 235.358 6
-4 0 11 164.828 293.595 2
4 0 -10 -181.613 227.964 6
-4 0 10 100.552 150.474 4
-4 0 10 -226.78 225.269 2
4 0 -9 2832.65 381.243 6
-4 0 9 3016.25 356.587 4
4 0 -8 463.321 191.739 6
-4 0 8 321.227 183.567 4
4 0 -8 347.994 133.063 10
4 0 -7 1058.58 246.843 6
-4 0 7 931.386 237.15 4
-4 0 7 1263.17 122.98 3
4 0 -6 823.384 196.745 6
4 0 -6 768.754 194.638 4
-4 0 6 757.039 208.837 4
-4 0 6 799.603 129.065 3
-4 0 6 900.437 252.843 8
-4 0 5 30625 924.044 4
4 0 -5 29438.9 902.006 6
-4 0 5 29285 686.366 3
-4 0 5 31295.6 1000.83 8
4 0 -5 29664.1 902.971 4
4 0 -4 3456.58 307.176 6
4 0 -4 2857.52 294.078 4
-4 0 4 3426.44 325.064 4
-4 0 4 2922.35 306.114 5
-4 0 4 2954.15 315.423 8
-4 0 3 -12.5504 98.3545 6
4 0 -3 44.2116 112.429 6
4 0 -3 -43.8756 136.527 4
-4 0 3 8.97277 152.02 4
-4 0 3 41.7771 132.47 8
-4 0 2 46631.1 976.128 6
-4 0 2 44961.6 1029.42 4
4 0 -2 45580.3 976.387 6
-4 0 2 47032.9 931.984 1
4 0 -2 45869.3 1007.62 8
4 0 -2 46965.6 1046.73 4
4 0 -1 7325.61 418.082 4
-4 0 1 7919.46 433.272 4
-4 0 1 7218.48 394.154 6
4 0 -1 7514.42 406.618 6
4 0 -1 7151.16 400.216 8
-4 0 1 7088.13 363.357 1
-4 0 0 1358.48 200.733 6
4 0 0 1298.24 206.79 6
4 0 0 993.091 193.451 4
-4 0 0 1240.67 170.161 1
4 0 0 916.951 157.635 1
4 0 1 3152.1 277.644 4
-4 0 -1 3314.17 262.823 1
-4 0 -1 3306.22 296.895 6
4 0 1 3584.83 308.011 6
-4 0 -1 3493.53 217.039 2
4 0 1 2980.56 266.621 1
-4 0 -2 16.5551 51.5115 2
-4 0 -2 119.728 89.7318 1
-4 0 -2 77.9283 124.078 6
4 0 2 132.927 154.732 6
4 0 2 149.219 119.99 1
4 0 2 219.671 130.796 4
-4 0 -2 52.4086 106.323 5
4 0 3 8667.54 437.792 4
-4 0 -3 8852.83 510.837 6
4 0 3 8686.68 513.525 6
4 0 3 8644.92 487.868 1
-4 0 -3 10082.9 523.239 1
-4 0 -3 9672.56 497.945 5
4 0 4 105022 1778.13 1
4 0 4 101987 1491.21 4
-4 0 -4 101483 1697.34 5
4 0 5 6361.77 389.554 4
4 0 5 6232.66 487.846 1
-4 0 -5 6426.75 480.857 5
4 0 6 1157 199.071 4
-4 0 -6 1328.94 295.872 5
4 0 6 1109.66 274.021 1
-4 0 -7 3971.84 445.483 5
4 0 7 4070.47 453.719 1
-4 0 -8 574.601 262.521 5
4 0 8 654.2 259.281 1
-4 0 -9 -93.1013 221.144 5
4 0 9 -184.656 300.522 1
-4 0 -10 4136.32 593.03 5
4 1 -11 197.582 225.149 6
4 1 -10 4050.64 497.355 6
4 1 -9 3418.47 408.547 6
-4 -1 9 3840.48 408.577 4
4 1 -8 1088.1 244.244 6
-4 -1 8 702.024 210.098 4
4 1 -8 1064.72 157.531 10
4 1 -7 2744.75 334.709 6
-4 -1 7 2540.92 326.318 4
4 1 -7 2366.77 238.686 10
-4 -1 6 22866.3 856.568 4
4 1 -6 21830 808.508 6
-4 -1 6 20955.1 402.534 3
4 1 -6 22045.1 703.471 10
4 1 -5 12.4385 139.963 4
4 1 -5 129.452 119.254 6
-4 -1 5 383.962 177.662 4
4 1 -4 2776.42 264.038 6
4 1 -4 2765.45 298.212 4
-4 -1 4 2626.32 298.722 4
-4 -1 4 2515.07 302.22 5
-4 -1 4 2092.9 265.456 8
-4 -1 3 4894.03 375.366 4
-4 -1 3 5193.03 326.049 6
4 1 -3 5210.72 330.155 6
-4 -1 3 5069.43 379.139 5
-4 -1 3 5040.93 364.962 8
4 1 -3 4730.26 358.731 4
-4 -1 2 3135.56 250.315 6
4 1 -2 2952.06 249.43 6
-4 -1 2 2894.26 292.598 4
-4 -1 2 3289.42 277.071 1
-4 -1 2 3101.14 266.819 8
4 1 -2 3266.04 302.127 4
4 1 -1 13599.1 508.457 8
-4 -1 1 12843.2 546.964 4
-4 -1 1 13519.2 486.095 6
4 1 -1 13230.2 483.735 6
-4 -1 1 13878.3 536.526 1
4 1 -1 13855.6 558.075 4
-4 -1 0 2075.12 218.813 1
-4 -1 0 1472.68 181.873 6
4 1 0 1500.91 185.322 6
4 1 0 1660.27 210.664 4
-4 -1 0 1965.74 240.819 4
4 1 0 1695.2 206.375 1
-4 -1 -1 13144.4 517.936 4
-4 -1 -1 12482.9 502.465 6
4 1 1 12931 520.766 6
4 1 1 12638 519.431 1
-4 -1 -1 12852.6 516.821 1
4 1 1 13280.1 520.844 4
4 1 2 1299.57 211.785 1
-4 -1 -2 1262.54 209.52 6
4 1 2 1215.69 182.466 4
4 1 2 1601.54 223.169 6
-4 -1 -2 1290.94 189.335 4
-4 -1 -2 1417.81 202.832 5
-4 -1 -2 1511.54 212.224 1
4 1 3 13096.4 496.856 4
4 1 3 12889.8 576.743 1
-4 -1 -3 11898.4 557.422 6
-4 -1 -3 12729.5 260.233 2
-4 -1 -3 12182.9 566.818 1
-4 -1 -3 14000 593.027 5
-4 -1 -4 1837.2 257.625 6
4 1 4 1363.45 174.145 4
4 1 4 1402.33 238.083 1
-4 -1 -4 1573.64 236.037 5
-4 -1 -4 1138.9 219.484 1
4 1 4 1312.82 82.0928 9
4 1 5 6974.24 494.078 1
4 1 5 7981.38 383.797 4
-4 -1 -5 6811.5 486.532 5
4 1 6 6185.47 336.145 4
4 1 6 6236.57 513.112 1
-4 -1 -6 6521.3 507.149 5
4 1 6 6245.31 375.552 10
4 1 7 1093.39 151.236 4
-4 -1 -7 1116.3 281.499 5
4 1 7 869.195 151.738 10
4 1 7 795.462 221.849 1
-4 -1 -8 4460.07 494.181 5
4 1 8 4131.4 269.735 10
4 1 8 3693.12 461.174 1
-4 -1 -9 2756.66 446.702 5
4 1 9 2527.53 413.952 1
-4 -1 -10 4960.6 598.295 5
4 1 10 3897.59 534.263 1
4 2 -10 5489.19 543.465 6
4 2 -10 6045.01 669.975 11
-4 -2 9 9415.67 656.436 4
4 2 -9 9713.65 663.379 6
4 2 -8 4750.79 432.506 6
-4 -2 8 4571.69 453.871 4
4 2 -7 2047.05 293.491 6
-4 -2 7 1589.25 283.428 4
4 2 -6 3722.1 339.162 6
-4 -2 6 3474.2 377.366 4
4 2 -6 3190.64 275.619 10
4 2 -5 5792.25 376.587 6
4 2 -5 5719.18 375.939 10
-4 -2 5 5925.31 459.598 4
4 2 -4 15885.9 566.178 6
4 2 -4 14771.7 588.26 10
4 2 -4 15229.7 675.406 4
-4 -2 4 16485.2 707.511 4
4 2 -3 18240.2 560.052 6
-4 -2 3 17740.5 718.215 5
4 2 -3 17667.2 639.399 10
-4 -2 3 18267.3 651.866 8
4 2 -3 18869.6 723.51 4
-4 -2 3 17441.2 702.686 4
-4 -2 2 13460.7 450.495 6
4 2 -2 13309.6 452.471 6
-4 -2 2 12909.7 501.894 8
4 2 -2 12876.7 577.364 4
-4 -2 2 13502.1 595.521 4
-4 -2 1 22818.3 568.268 6
4 2 -1 22269 567.255 6
-4 -2 1 22526.5 721.615 1
4 2 -1 21458 710.823 4
-4 -2 1 22281.4 725.322 4
-4 -2 0 3628.03 241.107 6
4 2 0 3621.96 248.647 6
-4 -2 0 3413.64 284.367 1
4 2 0 3469.5 237.251 8
4 2 0 3664.68 292.368 4
-4 -2 0 3769.8 312.379 4
-4 -2 -1 51726.6 1014.59 4
-4 -2 -1 50777.4 919.925 6
4 2 1 50540.4 929.35 6
4 2 1 51247.5 893.838 11
4 2 1 49473.2 1043.31 1
-4 -2 -1 49524.1 1038.43 1
4 2 1 50863.8 1006.19 4
-4 -2 -1 50808.4 595.237 7
-4 -2 -2 19582.8 611.852 4
-4 -2 -2 19164.3 615.512 6
4 2 2 21010.5 647.894 6
4 2 2 20326.2 499.384 11
4 2 2 19094.7 669.157 1
4 2 2 19203.7 524.896 9
-4 -2 -2 20305.5 684.98 1
4 2 2 19721.5 612.153 4
4 2 3 331.403 133.23 1
4 2 3 235.31 108.239 4
-4 -2 -3 272.887 148.964 6
-4 -2 -3 126.655 111.633 4
-4 -2 -3 117.763 120.32 5
4 2 3 198.217 66.3001 11
-4 -2 -3 279.143 128.982 1
4 2 3 202.039 75.2376 9
4 2 3 291.367 68.837 7
-4 -2 -4 70415.4 1383.71 6
-4 -2 -4 70841 1403.3 1
-4 -2 -4 68595.9 1387.14 5
4 2 4 69915.9 1250.93 10
4 2 4 70749.7 1411.6 1
4 2 4 70608.4 1073.87 4
-4 -2 -5 12487 634.28 5
4 2 5 13208.3 550.522 10
4 2 5 12710.5 649.544 1
4 2 5 12040.7 429.815 4
-4 -2 -6 2269.85 325.308 5
4 2 6 2099.3 312.556 1
4 2 6 1955.6 226.345 10
4 2 6 2107.89 180.28 4
4 2 7 7591.92 576.93 1
-4 -2 -7 8506.82 602.481 5
4 2 7 8647.46 431.893 10
4 2 7 7875.36 292.181 4
4 2 8 10277.8 716.742 1
-4 -2 -8 11228.2 736.672 5
4 2 9 -429.725 263.371 1
-4 -2 -9 142.36 196.543 5
-4 -2 -10 -49.9248 198.236 5
4 2 10 -237.455 206.892 1
-4 -3 9 -135.278 213.23 4
4 3 -9 655.729 317.947 11
4 3 -8 -201.899 206.072 6
-4 -3 8 267.828 201.764 4
4 3 -8 104.766 235.271 11
4 3 -7 204.457 143.031 6
-4 -3 7 237.798 197.873 4
4 3 -7 67.5096 239.518 11
4 3 -6 2780.64 284.107 6
-4 -3 6 2777.21 377.659 4
4 3 -6 3614.35 446.467 11
4 3 -5 9151.45 452.226 6
4 3 -5 8458.79 640.557 11
-4 -3 5 8825.86 261.624 3
-4 -3 5 9224.78 606.89 4
-4 -3 4 1288.06 140.145 3
4 3 -4 1276.48 169.508 6
-4 -3 4 1116.27 245.083 4
4 3 -4 1055.58 189.389 10
4 3 -3 5628.72 290.434 6
4 3 -3 6012.35 401.864 10
-4 -3 3 5236.64 437.8 4
4 3 -2 40239.6 687.203 6
4 3 -2 37582.9 1073.72 11
4 3 -2 38819.3 977.891 10
4 3 -2 37252.1 1050.39 9
4 3 -2 37828.3 1036.39 4
-4 -3 2 37979.1 842.946 8
-4 -3 2 38346.3 1061.67 4
-4 -3 1 46969.7 700.656 6
4 3 -1 47211.8 709.976 6
-4 -3 1 47113.6 1115.05 1
4 3 -1 46269.1 1106.53 11
4 3 -1 47042 1079.99 10
4 3 -1 46550.1 1111.71 9
4 3 -1 46728.2 1110.14 4
-4 -3 1 46697.2 831.077 8
-4 -3 1 45451.6 1094.32 4
-4 -3 0 7613.53 301.445 6
4 3 0 8366.44 317.341 6
-4 -3 0 7289.44 436.914 1
4 3 0 7809.89 445.39 11
4 3 0 7425.6 445.766 10
4 3 0 8666.97 460.898 9
4 3 0 8046.67 451.554 4
-4 -3 0 7945.74 458.081 4
-4 -3 -1 2418.89 256.177 1
-4 -3 -1 2666.09 204.7 6
4 3 1 2572.6 209.614 6
4 3 1 2741.51 267.78 4
-4 -3 -1 2749.75 274.045 4
4 3 1 2662.63 271.512 1
4 3 1 2849.49 188.307 8
4 3 1 2743.42 259.975 11
4 3 1 2889.18 288.93 10
4 3 1 3006.28 267.92 9
-4 -3 -1 2543.24 196.149 7
-4 -3 -2 57434.7 974.14 6
4 3 2 59429.4 1195.37 1
4 3 2 57077.3 982.186 11
-4 -3 -2 55983.3 1160.76 1
4 3 2 58709.1 1194.94 10
4 3 2 58048.6 997.388 9
4 3 2 56952.9 1076.19 4
-4 -3 -2 57374.5 1076.79 4
-4 -3 -3 18696.8 589.537 4
-4 -3 -3 18357.4 625.795 6
-4 -3 -3 17232.9 665.501 5
4 3 3 19137.6 687.934 10
4 3 3 17516.4 673.057 1
4 3 3 18139.3 510.69 11
4 3 3 17948.2 579.514 4
4 3 3 17918 474.261 7
-4 -3 -3 17966.6 680.151 1
-4 -3 -4 55887.1 964.571 4
-4 -3 -4 54588.9 1228.92 1
-4 -3 -4 56830.7 1197.19 6
-4 -3 -4 57280.6 1260.18 5
4 3 4 55970.4 814.815 11
4 3 4 57122.7 1262.55 1
4 3 4 59586.2 1203.21 10
4 3 4 57166 971.414 4
4 3 4 58453.4 921.727 7
-4 -3 -5 39870.9 767.186 4
-4 -3 -5 39793.7 1104.84 6
-4 -3 -5 39879.2 1116.2 5
4 3 5 42183 1010.26 10
4 3 5 41412.6 1133.91 1
4 3 5 40252.5 761.669 4
-4 -3 -6 32490 481.739 2
-4 -3 -6 38250.4 1159.54 5
4 3 6 35257.1 919.133 10
4 3 6 36417.3 652.214 4
4 3 6 36023.9 1129.9 1
-4 -3 -7 63949.5 1590.4 5
4 3 7 60806.9 664.484 4
4 3 7 59370.6 1545.31 1
4 3 8 10903 719.366 1
-4 -3 -8 10668.9 715.819 5
-4 -3 -9 4074.63 495.576 5
4 3 9 2517.39 399.518 1
4 3 10 12641.4 881.257 1
-4 -3 -10 11951.5 854.519 5
4 3 11 8907.19 777.403 1
-4 -3 -11 8491.32 774.441 5
-4 -4 9 1686.93 371.446 4
-4 -4 8 2876.18 438.25 4
4 4 -8 3559.11 514.644 11
-4 -4 7 3498.58 457.61 4
4 4 -7 3185.31 485.862 11
4 4 -6 17620.3 651.13 6
4 4 -6 18179.9 990.91 11
-4 -4 6 18267.4 927.145 4
4 4 -5 2698 239.925 6
-4 -4 5 3756.52 432.294 4
4 4 -5 3455.37 446.63 11
4 4 -4 8767.57 357.294 6
-4 -4 4 9703.92 378.64 3
4 4 -4 8860.94 631.499 11
-4 -4 4 8884.9 608.054 4
4 4 -3 25152.7 514.439 6
4 4 -3 23910.4 971.076 11
-4 -4 3 24049 664.802 3
-4 -4 3 25231.4 958.459 4
4 4 -2 6121.52 215.622 6
4 4 -2 6390.03 502.71 11
-4 -4 2 6327.27 372.424 3
-4 -4 2 6676.83 360.251 8
-4 -4 2 6120.16 479.378 4
4 4 -1 2910.59 139.051 6
-4 -4 1 3098.19 344.932 4
-4 -4 1 2903.46 318.398 1
4 4 -1 2694.76 307.57 11
-4 -4 1 3437.18 228.846 8
4 4 0 4972.46 395.351 11
-4 -4 0 4761.52 189.084 6
-4 -4 0 5183.48 387.561 1
4 4 0 5138.69 399.434 10
4 4 0 5040.03 393.404 9
4 4 0 4879.89 374.08 4
-4 -4 0 4473 383.215 4
-4 -4 -1 62010.4 792.131 6
4 4 1 60503.9 1224.2 11
-4 -4 -1 61380.9 1275.43 1
4 4 1 65764.8 1336.76 10
4 4 1 63418.3 1243.7 9
4 4 1 63435.9 1277.9 4
-4 -4 -1 65268.4 1290.06 4
-4 -4 -1 62609.5 1097.56 7
-4 -4 -2 8735.37 355.134 6
4 4 2 10082.6 514.611 1
4 4 2 8738.96 445.806 11
4 4 2 9420.28 516.369 10
-4 -4 -2 9241.66 495.371 1
4 4 2 9616.18 488.469 4
4 4 2 9555.53 278.487 8
-4 -4 -2 9591.54 482.211 4
-4 -4 -2 9086 408.429 7
4 4 3 903.365 173.78 4
-4 -4 -3 852.622 172.46 4
-4 -4 -3 656.261 157.771 1
-4 -4 -3 530.196 145.649 11
4 4 3 929.313 165.691 11
4 4 3 1090.88 213.793 10
4 4 3 851.811 183.112 1
-4 -4 -4 8539.54 500.703 1
-4 -4 -4 8889.4 463.21 6
-4 -4 -4 7744.23 476.898 5
-4 -4 -4 8624.17 416.344 11
4 4 4 8066.14 386.538 11
4 4 4 8330.19 496.867 1
4 4 4 8877.25 420.865 4
4 4 4 8340.07 404.02 7
-4 -4 -4 8157.81 404.723 4
4 4 5 882.829 133.43 4
4 4 5 1056.64 233.668 1
-4 -4 -5 702.981 146.907 4
-4 -4 -5 771.904 181.456 6
-4 -4 -5 673.768 214.618 5
-4 -4 -5 1010.14 164.867 11
4 4 5 896.911 172.731 7
-4 -4 -6 47856.4 811.516 4
-4 -4 -6 47255.6 859.452 11
-4 -4 -6 46341.9 1271.71 5
4 4 6 46804.7 1268.94 1
4 4 6 48015.7 800.658 4
-4 -4 -7 7979.82 332.361 2
-4 -4 -7 7779.62 574.417 5
-4 -4 -7 8541.22 356.194 11
4 4 7 8629.93 272.818 4
4 4 7 8613.71 587.69 1
4 4 8 66.4838 137.213 1
-4 -4 -8 35.5225 66.1973 11
4 4 9 1743.86 335.143 1
-4 -4 -9 1401.87 337.461 5
-4 -4 -10 902.842 311.357 5
4 4 10 1172.85 312.433 1
4 4 11 3727.2 508.857 1
-4 -4 -11 3261.71 487.965 5
-4 -5 8 787.474 304.155 4
-4 -5 7 4029.71 498.636 4
4 5 -7 4372.77 553.051 11
-4 -5 6 1926.72 371.432 4
4 5 -6 1871.21 371.979 11
4 5 -5 9424.29 723.328 11
-4 -5 5 8701.87 670.09 4
4 5 -4 36073.4 573.923 6
4 5 -4 34293.4 1289.87 11
-4 -5 4 36401 1291.11 4
4 5 -3 10648.5 697.906 11
-4 -5 3 9015.6 446.757 3
-4 -5 3 8523.79 621.892 4
4 5 -2 16554.6 828.202 11
-4 -5 2 18199 665.89 3
-4 -5 2 16774 815.272 4
4 5 -1 23209.4 925.949 11
-4 -5 1 25083.1 812.734 3
-4 -5 1 24550.9 577.845 8
-4 -5 1 25351.3 955.694 4
4 5 0 27576.5 964.194 11
-4 -5 0 28559.2 895.05 3
-4 -5 0 28958.1 983.273 4
-4 -5 -1 21969 345.732 6
-4 -5 -1 25727 874.979 1
-4 -5 -1 24858.8 853.412 3
4 5 1 22823.2 840.099 11
-4 -5 -1 26138.6 897.91 4
-4 -5 -1 24772.7 808.016 7
-4 -5 -2 18777.1 459.671 6
-4 -5 -2 19153.8 757.431 11
4 5 2 18664.3 729.96 11
-4 -5 -2 19472.6 745.372 1
4 5 2 20072.8 750.969 4
-4 -5 -2 20308.7 706.129 7
-4 -5 -2 19071.8 745.987 9
-4 -5 -2 19124.1 745.645 4
4 5 3 113.52 102.827 4
-4 -5 -3 -156.508 148.258 4
-4 -5 -3 81.4986 157.813 1
-4 -5 -3 -121.924 104.554 6
-4 -5 -3 41.7762 125.875 11
4 5 3 -36.2266 127.346 1
4 5 3 -2.11672 126.747 11
-4 -5 -3 -69.3152 143.826 9
4 5 3 2.67816 22.4759 8
-4 -5 -4 18740.8 695.492 11
-4 -5 -4 18135.7 630.405 6
4 5 4 18826.4 683.353 11
-4 -5 -4 19710.1 761.188 5
4 5 4 19348.9 764.135 1
4 5 4 18970.2 666.242 4
-4 -5 -4 18838.7 669.75 9
-4 -5 -4 18631.4 664.836 4
-4 -5 -4 18983.5 752.08 1
-4 -5 -5 12684 596.179 6
-4 -5 -5 14785.4 693.222 5
-4 -5 -5 13783.2 580.949 11
4 5 5 13761.8 663.282 1
4 5 5 14525.2 584.533 11
4 5 5 13931.8 536.822 4
-4 -5 -5 13664.3 547.326 9
-4 -5 -5 13821.8 541.867 4
4 5 5 13615.8 596.605 7
4 5 6 260.425 174.974 1
4 5 6 190.031 95.2842 4
-4 -5 -6 183.587 119.348 4
-4 -5 -6 387.067 180.888 5
-4 -5 -6 328.867 134.196 11
-4 -5 -6 285.054 121.847 9
4 5 6 88.5241 153.357 7
-4 -5 -7 11330.2 395.875 4
-4 -5 -7 9660.99 454.287 2
-4 -5 -7 10866.9 665.968 5
-4 -5 -7 11034.5 500.664 11
4 5 7 12101.9 691.311 1
-4 -5 -7 11341.4 423.661 9
4 5 7 10940.2 591.831 7
-4 -5 -8 5714.62 347.867 2
-4 -5 -8 5204.08 493.195 5
-4 -5 -8 5699.83 361.226 11
4 5 8 5972.56 519.414 1
4 5 9 9.68805 180.741 1
-4 -5 -9 254.657 222.491 5
4 5 10 4160.24 489.429 1
-4 -5 -10 6098.15 596.492 5
4 5 11 14.6542 181.548 1
-4 -5 -11 -74.3932 217.23 5
-4 -6 7 4282.44 577.644 4
-4 -6 6 56.1544 248.04 4
4 6 -6 -181.949 276.731 11
-4 -6 5 173.572 235.467 4
4 6 -5 1020.09 351.031 11
-4 -6 4 955.956 293.54 4
4 6 -4 1630.26 372.807 11
-4 -6 3 2590.89 400.11 4
4 6 -3 2208.59 377.594 11
-4 -6 2 151.491 179.883 4
4 6 -2 597.598 264.533 11
-4 -6 2 422.691 154.745 3
-4 -6 1 33048.3 1000.54 3
4 6 -1 32208 1173.55 11
-4 -6 1 33387.4 670.022 8
-4 -6 1 33870.2 1203.63 4
4 6 0 36588.4 1214.84 11
-4 -6 0 37624.7 1231.42 9
-4 -6 0 37708.8 1223.67 4
4 6 1 12353.7 690.973 11
-4 -6 -1 11721.8 682.478 9
-4 -6 -1 12572.9 689.82 4
-4 -6 -2 9036.07 246.298 6
4 6 2 9370.02 585.768 11
-4 -6 -2 10714.9 624.131 9
-4 -6 -2 9755.95 591.381 4
-4 -6 -3 58951.3 905.339 6
4 6 3 58728.3 1377.54 11
-4 -6 -3 57481.7 1356.35 9
-4 -6 -3 61111.7 1369.78 4
-4 -6 -4 22554 670.01 6
-4 -6 -4 21305.1 816.284 5
4 6 4 21708 833.442 1
4 6 4 22238.1 836.996 11
-4 -6 -4 21733.5 797.389 4
4 6 4 22231.3 797.862 4
-4 -6 -4 22033.4 816.639 9
4 6 5 769.614 206.752 7
4 6 5 1131.01 180.717 4
-4 -6 -5 894.778 207.187 4
-4 -6 -5 1024.24 220.055 5
-4 -6 -5 564.543 185.695 11
4 6 5 976.534 221.107 11
4 6 5 1166.66 240.324 1
-4 -6 -5 1075.61 217.642 9
-4 -6 -6 44172.5 1255.18 5
-4 -6 -6 42390.9 1119.78 11
4 6 6 44585.3 1246.09 1
-4 -6 -6 44777.1 1071.22 9
-4 -6 -6 45269.2 1023.21 4
4 6 6 45180.6 1215.73 7
-4 -6 -7 26239.8 1016.44 5
4 6 7 25378.2 979.409 1
-4 -6 -7 25877.9 777.398 9
-4 -6 -7 24066.6 840.375 11
4 6 7 25111.9 947.088 7
-4 -6 -7 25821.7 704.094 4
-4 -6 -8 6785.14 309.437 4
-4 -6 -8 6571.7 433.765 2
4 6 8 7871.88 585.747 1
-4 -6 -8 6712.09 566.352 5
-4 -6 -8 7411.48 401.433 9
4 6 8 6630.19 524.896 7
-4 -6 -9 7102.82 619.137 5
4 6 9 6381.75 567.227 1
4 6 10 2049.78 370.506 1
-4 -6 -10 2044.16 365.572 5
4 6 11 1753.82 349.404 1
-4 -6 -11 1891.31 368.74 5
4 6 12 512.92 240.27 1
-4 -7 5 1327.65 404.685 4
4 7 -5 1719.72 423.952 11
4 7 -4 14077.2 959.346 11
-4 -7 4 16242.8 994.164 4
4 7 -3 28437.8 1283.31 11
-4 -7 3 29576 1299.03 4
-4 -7 2 195.067 261.644 4
4 7 -2 154.873 202.911 11
-4 -7 1 319.916 252.458 4
4 7 -1 528.929 268.301 11
4 7 0 4859.18 500.361 11
-4 -7 0 6295.88 575.822 9
-4 -7 0 5530.02 529.47 4
4 7 1 13413.1 785.532 11
-4 -7 -1 13565.5 789.573 9
-4 -7 -1 11869.4 738.149 4
-4 -7 -2 1454.77 281.299 4
4 7 2 1124.55 280.271 11
-4 -7 -2 1136.42 308.169 9
-4 -7 -3 1991.79 146.418 6
4 7 3 2177.36 321.637 11
-4 -7 -3 1853.47 147.641 6
-4 -7 -3 1547.68 278.32 4
-4 -7 -3 2758.1 369.65 9
-4 -7 -4 284.846 172.139 4
-4 -7 -4 230.397 103.908 6
-4 -7 -4 320.158 175.509 5
4 7 4 173.181 149.076 11
-4 -7 -4 265.468 193.147 9
-4 -7 -5 120.583 157.613 4
-4 -7 -5 417.78 175.804 5
4 7 5 526.927 189.572 1
4 7 5 123.1 185.608 11
-4 -7 -5 485.202 198.63 9
-4 -7 -6 14850.2 746.044 5
4 7 6 13684.7 716.504 1
-4 -7 -6 14155.1 690.695 9
4 7 6 13111.8 339.928 8
-4 -7 -6 13831.7 641.935 4
4 7 6 14391.3 746.877 7
-4 -7 -7 26140.7 1019.76 5
4 7 7 27921.7 1033.34 1
-4 -7 -7 25929.8 898.522 9
-4 -7 -7 27110.8 830.718 4
4 7 7 25942.1 1026.04 7
4 7 8 3866.66 432.174 7
-4 -7 -8 5239.88 496.441 5
4 7 8 4631.94 453.081 1
-4 -7 -8 4863.2 390.291 9
-4 -7 -8 4789.38 329.145 4
-4 -7 -9 10054 706.581 5
4 7 9 10484.2 708.487 1
4 7 9 10569.6 733.189 7
-4 -7 -10 7731.12 666.975 5
4 7 10 9883.64 723.777 1
4 7 10 9496.08 729.761 7
-4 -7 -11 6410.56 674.634 5
4 7 11 7448.74 657.899 1
4 7 11 6873.42 641.34 7
4 7 12 5936.77 643.344 1
-4 -8 3 5717.97 650.723 4
4 8 -3 6638.71 684.416 11
-4 -8 2 2191.54 413.024 4
4 8 -2 2222.44 440.117 11
4 8 -1 9734.04 765.627 11
-4 -8 1 10609.1 814.213 4
4 8 0 20243.1 1064.94 11
-4 -8 0 19440.8 1051.94 9
-4 -8 0 19056.5 1026.58 4
4 8 1 15330.9 908.036 11
-4 -8 -1 14399.2 887.279 9
-4 -8 -1 14642.8 876.718 4
-4 -8 -2 1837.58 349.005 4
4 8 2 2335.9 375.27 11
-4 -8 -2 2662.57 381.206 9
4 8 3 16211.2 885.804 11
-4 -8 -3 16084.3 879.601 9
-4 -8 -3 16780.1 879.923 4
-4 -8 -4 25049.5 580.906 6
-4 -8 -4 25710.7 922.068 5
4 8 4 24879.6 1075.7 11
-4 -8 -4 26018.7 1084.14 9
-4 -8 -4 24346.6 1023.44 4
-4 -8 -5 15061.4 565.846 6
-4 -8 -5 14081.2 707.924 5
4 8 5 13947.8 798.688 11
-4 -8 -5 13463.3 763.495 9
-4 -8 -5 13399 732.134 4
-4 -8 -6 1897.63 293.696 4
-4 -8 -6 1129.36 259.534 5
-4 -8 -6 1705.13 301.976 9
4 8 7 3766.9 456.259 7
-4 -8 -7 4529.71 442.543 5
-4 -8 -7 4323.9 435.09 9
4 8 7 4705.73 442.799 1
-4 -8 -7 4403.33 396.658 4
4 8 8 -254.5 238.427 7
-4 -8 -8 263.787 206.196 5
4 8 8 29.0142 139.391 1
-4 -8 -8 -133.774 181.005 9
4 8 9 230.143 233.326 7
-4 -8 -9 94.9558 166.3 5
4 8 9 -196.907 177.293 1
4 8 10 1870.16 390.319 7
-4 -8 -10 1491.37 315.286 5
4 8 10 1677.71 330.169 1
4 8 11 1261.44 326.309 1
-4 -8 -11 1081.39 268.634 5
4 8 11 1672.99 382.057 7
4 8 12 2949.28 441.54 1
-4 -9 1 1195.83 346.575 4
4 9 -1 1441.93 361.963 11
-4 -9 0 2715.79 477.799 4
4 9 0 2205.01 426.971 11
-4 -9 0 2439.62 444.78 9
-4 -9 -1 1164.17 314.083 4
4 9 1 831.101 293.887 11
-4 -9 -1 649.83 281.281 9
4 9 2 7286.82 667.026 11
-4 -9 -2 8193.02 715.34 9
-4 -9 -2 6054.62 615.961 4
-4 -9 -3 4981.5 558.661 4
4 9 3 5895.29 614.581 11
-4 -9 -3 5923.18 611.673 9
-4 -9 -4 390.491 206.903 4
-4 -9 -4 641.238 167.944 5
4 9 4 1014.18 297.79 11
-4 -9 -4 943.221 318.306 9
-4 -9 -5 2714.85 400.713 4
-4 -9 -5 3234.57 359.677 5
4 9 5 3821.57 486.73 11
-4 -9 -5 3701 475.529 9
-4 -9 -6 1739.47 322.677 4
-4 -9 -6 1314.55 253.599 5
-4 -9 -6 2166.81 353.293 9
-4 -9 -7 8547.39 594.446 5
-4 -9 -7 8173.09 646.103 9
-4 -9 -7 8221.84 591.492 4
-4 -9 -8 5266.12 466.079 6
-4 -9 -8 5027.5 493.68 5
4 9 8 4710.02 462.677 1
-4 -9 -8 4679.18 487.318 9
-4 -9 -9 18006.1 939.672 5
4 9 9 16877.8 887.922 1
-4 -9 -9 19617.4 921.355 9
4 9 9 19177.7 1067.63 7
-4 -9 -10 8093.48 671.438 5
4 9 10 8140.6 651.709 1
4 9 10 9069.33 762.742 7
4 9 11 3193.21 498.299 7
-4 -9 -11 2660.11 436.262 5
-4 -10 -2 3857.15 565.958 4
4 10 2 4081.92 569.35 11
-4 -10 -2 3485.75 536.588 9
-4 -10 -3 1520 355.891 4
4 10 3 898.306 303.152 11
-4 -10 -3 1378.42 385.936 9
-4 -10 -4 1582.68 365.262 4
4 10 4 2073.49 429.064 11
-4 -10 -4 2214.89 454.884 9
-4 -10 -5 5574.06 597.214 4
4 10 5 6504.93 652.171 11
-4 -10 -5 5611.63 616.509 9
-4 -10 -6 2687.87 430.2 4
-4 -10 -6 3503.77 494.524 9
-4 -10 -7 1260.93 317.549 4
-4 -10 -7 227.869 238.979 9
-4 -10 -8 392.091 249.414 9
-4 -10 -9 229.137 197.41 9
-4 -11 -5 605.703 328.668 4
-4 -11 -6 1828.55 393.162 4
-4 -11 -7 5713.76 588.518 4
-4 -11 -7 4814.63 583.935 9
-4 -11 -8 743.243 322.517 9
-5 8 8 118.479 241.959 7
5 -8 -6 2555.5 458.426 6
5 -8 -5 2350.28 452.226 6
5 -8 -4 3035.81 473.966 6
5 -8 -3 6498.84 661.303 6
5 -8 -2 2188.55 403.392 6
5 -8 -1 456.759 254.271 6
-5 7 10 1965.92 394.496 3
-5 7 9 2952.35 483.274 3
-5 7 9 3110.6 472.187 7
-5 7 8 630.504 250.073 7
5 -7 -8 725.456 341.72 6
-5 7 8 1296.5 370.652 3
-5 7 7 2017.42 372.143 7
5 -7 -7 2015.54 403.329 6
-5 7 7 1445.26 338.716 3
-5 7 6 496.506 248.846 7
5 -7 -6 -132.447 225.607 6
-5 7 6 279.266 245.073 3
5 -7 -5 853.824 322.079 6
-5 7 5 -12.9818 257.37 3
5 -7 -4 701.49 287.267 6
-5 7 4 747.872 290.853 3
5 -7 -3 10881.5 814.228 6
-5 7 3 10746.3 851.849 3
5 -7 -2 592.687 264.867 6
-5 7 2 418.181 268.071 3
5 -7 -1 -119.851 271.577 6
-5 7 1 233.818 232.079 3
5 -7 0 868.766 327.682 6
-5 7 0 1019.41 345.17 3
5 -7 1 -164.218 219.963 6
-5 6 10 4715.1 555.408 3
5 -6 -9 5055.84 606.035 6
-5 6 9 3196.94 472.652 3
-5 6 9 4512.99 548.391 7
5 -6 -8 3223.97 485.012 6
-5 6 8 2667.48 444.634 3
-5 6 8 2774.64 444.887 7
5 -6 -7 6530.33 651.474 6
-5 6 7 6139.64 609.247 3
-5 6 7 7473.46 633.992 7
5 -6 -6 13721.4 885.896 6
-5 6 6 14370.3 912.767 3
-5 6 6 13431.6 798.875 7
-5 6 5 4906.37 480.505 7
5 -6 -5 4867.27 542.67 6
-5 6 5 4697.89 553.389 3
5 -6 -4 -117.856 224.139 6
-5 6 4 276.609 208.739 3
5 -6 -3 17758.8 954.083 6
-5 6 3 17833.4 1028.59 3
5 -6 -2 6196.41 586.176 6
-5 6 2 6637.7 641.328 3
5 -6 -1 1535.27 337.952 6
-5 6 1 1366.59 336.51 3
5 -6 0 7065.28 637.797 6
-5 6 0 7382.22 695.335 3
5 -6 1 2243.97 400.939 6
-5 6 -1 3496.18 494.939 3
5 -6 2 -35.6529 193.825 6
-5 6 -2 -93.0572 219.409 3
-5 6 -3 383.175 289.294 3
5 -5 -10 693.968 308.725 6
-5 5 10 649.096 268.402 8
-5 5 10 757.89 249.658 3
5 -5 -9 2274.52 447.862 6
-5 5 9 2345.21 377.256 3
5 -5 -8 6181.16 636.118 6
-5 5 8 7048.11 597.121 3
5 -5 -7 4256.44 509.787 6
-5 5 7 3572.36 439.281 3
-5 5 7 3167.38 421.618 7
5 -5 -6 19261.6 1000.4 6
-5 5 6 19464.9 973.201 3
-5 5 6 19674.4 909.614 7
5 -5 -5 18675.5 967.866 6
-5 5 5 16875.1 908.962 3
-5 5 5 18015.3 831.326 7
5 -5 -4 7303.21 606.856 6
-5 5 4 7387.49 287.806 5
-5 5 4 7496.85 631.133 3
-5 5 4 7864.51 539.512 7
5 -5 -3 5982.48 551.84 6
-5 5 3 4997.83 198.046 5
-5 5 3 5405.15 534.54 3
5 -5 -2 17972.5 922.819 6
-5 5 2 19029.9 979.902 3
5 -5 -1 9311.18 681.014 6
-5 5 1 10673.4 753.189 3
5 -5 -1 9161.36 395.654 1
5 -5 0 10832 742.569 6
-5 5 0 10868.9 775.964 3
5 -5 0 10611.9 494.764 1
5 -5 1 14715.8 885.154 6
-5 5 -1 14211.8 883.804 3
5 -5 1 16033 679.835 1
5 -5 2 7653.64 667.352 6
-5 5 -2 7940.38 681.215 3
5 -5 2 8388.85 548.397 1
5 -5 3 4857.91 463.076 1
-5 5 -3 5520.43 581.926 3
5 -5 4 1900.36 307.412 1
-5 5 -4 2703.7 425.654 3
5 -5 5 13479 935.919 4
5 -4 -10 757.731 263.751 6
-5 4 10 345.24 229.03 2
-5 4 10 582.612 252.359 8
-5 4 10 292.655 177.003 3
5 -4 -9 -226.842 208.049 6
-5 4 9 -104.746 221.224 2
-5 4 9 173.003 168.715 3
-5 4 9 190.227 247.689 8
-5 4 8 385.166 232.28 8
5 -4 -8 319.305 231.613 6
-5 4 8 233.289 193.951 2
-5 4 8 332.495 190.981 3
5 -4 -7 -174.508 225.141 6
-5 4 7 239.52 202.583 2
-5 4 7 374.412 205.125 3
-5 4 6 13340.4 794.063 2
5 -4 -6 11664.3 756.979 6
-5 4 6 12755.6 583.097 5
-5 4 6 13190 756.048 3
5 -4 -5 5936.69 544.461 6
-5 4 5 5568.91 360.421 5
-5 4 5 6230.97 536.328 3
-5 4 5 6253.13 465.322 7
-5 4 5 5756.91 248.329 1
-5 4 4 1554.43 259.426 7
-5 4 4 1457.44 122.528 1
5 -4 -4 1373.83 284.003 6
-5 4 4 1358.29 167.85 5
-5 4 4 1755.18 320.809 3
5 -4 -3 6737.91 544.02 6
-5 4 3 6790.38 270.561 1
-5 4 3 8064.13 613.795 3
-5 4 3 6784.17 333.105 5
-5 4 3 6830.8 453.513 7
5 -4 -2 929.016 274.938 6
-5 4 2 874.901 126.231 1
-5 4 2 512.97 105.326 5
-5 4 2 868.365 257.886 3
5 -4 -1 8734.88 626.271 6
-5 4 1 8723.83 365.514 5
-5 4 1 9655.1 681.15 3
5 -4 -1 8465.21 395.504 1
5 -4 0 11947.1 731.609 6
-5 4 0 11957.6 462.607 5
-5 4 0 11840.4 762.028 3
5 -4 0 12074.9 520.855 1
5 -4 1 3424.93 431.711 6
-5 4 -1 3582.12 284.986 5
-5 4 -1 3991.02 479.992 3
5 -4 1 3769.42 337.082 1
5 -4 1 3491.44 328.81 7
5 -4 2 29812.6 1200.97 6
-5 4 -2 30954 894.951 5
-5 4 -2 30787 1226.6 3
5 -4 2 30170.4 998.718 1
5 -4 3 8315.35 687.008 6
-5 4 -3 7408.57 639.313 3
-5 4 -3 8039.54 512.32 5
5 -4 3 7557.01 552.134 1
5 -4 4 6139.12 549.672 1
-5 4 -4 7244.86 623.939 3
-5 4 -4 6435.61 498.351 5
5 -4 5 13606 856.109 1
-5 4 -5 15371.7 906.08 3
5 -4 6 10567.1 828.185 1
5 -4 6 9122.97 734.227 4
-5 3 11 10562.9 854.84 2
5 -3 -10 8977.94 756.133 6
-5 3 10 10111.2 810.032 2
-5 3 10 8951.1 790.47 8
5 -3 -9 1621.68 337.345 6
-5 3 9 1944.2 381.099 2
-5 3 9 1983.58 290.544 3
-5 3 9 2231.39 405.108 8
5 -3 -8 5761.64 572.707 6
-5 3 8 5702.02 566.344 2
-5 3 8 6024.57 474.514 3
-5 3 8 5614.06 560.418 8
5 -3 -7 30096.6 1184.88 6
-5 3 7 30859.2 1212.45 2
-5 3 7 29134.3 856.514 1
-5 3 7 30224.1 1037.63 3
-5 3 7 30713.3 1214.5 8
5 -3 -6 26690.4 1084.49 6
-5 3 6 25799 1065.26 2
-5 3 6 26730.8 981.295 3
-5 3 6 26804.9 751.93 1
5 -3 -5 69037.8 1671.07 6
-5 3 5 66374.4 1623.1 2
-5 3 5 66457.4 1547.62 3
-5 3 5 68614.9 1331.67 5
-5 3 5 66435 1079.02 1
-5 3 4 37224.8 1172.93 2
5 -3 -4 37961.4 1213.28 6
-5 3 4 38778.6 1195.71 3
-5 3 4 37340.1 918.831 5
-5 3 4 39033.4 774.316 1
-5 3 3 8378.31 356.675 1
-5 3 3 8255.35 543.136 2
5 -3 -3 9038.85 606.193 6
-5 3 3 8275.19 586.059 3
-5 3 3 8715.94 423.698 5
-5 3 3 8998.21 467.627 7
5 -3 -2 1325.09 294.834 6
-5 3 2 1530.75 175.405 1
-5 3 2 1569.51 283.979 3
-5 3 1 1821.35 212.255 1
5 -3 -1 1299.41 268.269 6
-5 3 1 1226.91 178.89 5
-5 3 1 1032.45 276.769 3
5 -3 -1 1295.28 176.877 1
5 -3 0 2074 233.754 1
-5 3 0 1752.99 207.383 5
-5 3 0 1861.71 218.451 1
5 -3 0 2199.05 327.821 6
-5 3 0 1748.76 304.809 3
5 -3 0 2235.24 262.065 11
5 -3 1 2931.38 301.912 1
5 -3 1 3577.28 407.231 6
-5 3 -1 2882.35 293.849 1
-5 3 -1 3081.72 274.652 5
5 -3 1 2853.8 287.842 2
-5 3 -1 3515.95 423.071 3
5 -3 1 2850.33 280.019 11
5 -3 2 18681.2 901.35 6
5 -3 2 15616.9 603.686 2
-5 3 -2 16275.9 850.717 3
-5 3 -2 17710.9 683.869 5
5 -3 2 15295.1 588.793 11
5 -3 2 15808.9 704.037 1
5 -3 2 16099.4 604.753 7
5 -3 3 8816.57 669.282 6
-5 3 -3 9499.55 668.009 3
-5 3 -3 10126 566.691 5
5 -3 3 10036.8 615.701 1
-5 3 -4 -21.8941 148.158 5
5 -3 4 131.424 171.173 1
-5 3 -4 199.112 226.675 3
5 -3 5 5513.37 547.953 1
-5 3 -5 6257.2 531.921 5
-5 3 -5 5129.54 526.695 3
-5 3 -6 131.613 185.326 5
-5 3 -6 -143.741 224.104 3
5 -3 6 93.1143 190.862 1
-5 3 -7 178.492 200.181 5
5 -3 7 -196.139 221.05 1
-5 2 12 1240.92 337.149 1
5 -2 -11 3923.04 525.015 6
-5 2 11 4459.89 569.245 2
5 -2 -10 2783.78 438.34 6
-5 2 10 2536.02 420.653 2
-5 2 10 1375.3 363.527 8
5 -2 -9 -319.668 248.557 6
-5 2 9 -225.634 210.963 2
-5 2 9 71.5425 234.533 8
-5 2 9 53.4732 127.339 3
5 -2 -8 8821.81 665.785 6
-5 2 8 9391.75 713.664 2
-5 2 8 7777.82 479.327 3
-5 2 8 8327.1 680.615 8
5 -2 -7 6373.84 547.77 6
-5 2 7 6415.61 562.065 2
-5 2 7 6466.18 448.028 3
-5 2 7 5799.88 536.754 8
5 -2 -6 9064.38 611.916 6
-5 2 6 8937.05 626.732 2
-5 2 6 8830.09 527.032 3
-5 2 6 9267.54 651.753 8
5 -2 -5 17449.3 822.242 6
-5 2 5 16354.4 801.383 2
-5 2 5 15644.5 711.229 3
-5 2 5 15569.9 597.955 1
-5 2 5 16506.3 700.6 5
5 -2 -4 5720.87 471.371 6
-5 2 4 5316.81 450.946 2
-5 2 4 4743.43 424.792 3
-5 2 4 5675.35 393.565 5
-5 2 4 5534.95 341.006 1
5 -2 -3 20382.8 832.562 6
-5 2 3 20497.4 806.937 2
-5 2 3 20599.1 830.298 3
-5 2 3 20533 614.608 1
-5 2 2 11224.2 575.648 2
5 -2 -2 12715.2 656.501 6
-5 2 2 11856.7 468.696 1
-5 2 2 12192 449.199 7
-5 2 1 12075.4 561.024 2
5 -2 -1 12047.8 651.768 6
-5 2 1 11133.7 476.261 1
5 -2 -1 12211.5 496.259 1
-5 2 0 3835.4 305.716 1
5 -2 0 3584.46 370.75 6
-5 2 0 3869.65 304.981 5
5 -2 0 4082.96 316.104 1
5 -2 1 17936.2 812.94 6
-5 2 -1 19893.2 680.458 5
-5 2 -1 18903.8 700.145 1
5 -2 1 19090.2 617.57 11
5 -2 1 18723.2 690.842 1
5 -2 2 23534.7 963.636 6
-5 2 -2 24366.9 801.797 5
-5 2 -2 24086.5 860.417 1
5 -2 2 23690.4 638.562 11
5 -2 2 23399.3 830.386 1
5 -2 2 24520.6 618.912 7
5 -2 3 18260.3 897.044 6
5 -2 3 16767.6 487.396 11
-5 2 -3 15822.7 695.409 5
5 -2 3 16863.2 766.972 1
5 -2 3 16594.2 564.432 7
-5 2 -4 2987.95 337.534 5
5 -2 4 3670.71 395.654 1
5 -2 5 6410.58 549.391 1
-5 2 -5 7452.83 562.227 5
-5 2 -6 979.039 266.201 5
5 -2 6 494.509 205.747 1
5 -2 7 2541.97 345.023 4
-5 2 -7 2357.73 401.069 5
5 -2 7 3084.42 456.174 1
-5 2 -8 2227.75 417.286 5
5 -1 -11 -10.1687 228.698 6
-5 1 11 13.1308 300.247 2
5 -1 -10 1559.05 362.951 6
-5 1 10 1297.6 351.877 2
-5 1 10 1393.79 349.219 8
5 -1 -9 300.735 229.43 6
-5 1 9 465.835 240.725 2
-5 1 9 62.6143 166.033 4
-5 1 9 110.497 234.184 8
5 -1 -8 533.937 236.356 6
-5 1 8 343.493 217.741 2
-5 1 8 736.087 232.302 4
-5 1 8 313.809 120.49 3
-5 1 8 190.828 193.021 8
5 -1 -7 1707.1 304.374 6
-5 1 7 1676.58 330.23 2
-5 1 7 1273.31 272.73 4
-5 1 7 1169.65 192.554 3
-5 1 7 1724.35 318.889 8
5 -1 -6 77.2493 171.191 6
-5 1 6 237.109 181.734 4
-5 1 6 -237.443 211.257 2
-5 1 6 -69.2956 123.756 3
-5 1 6 182.823 195.767 8
5 -1 -5 2273.54 313.757 6
-5 1 5 1825.3 310.412 2
-5 1 5 1693.89 292.319 4
-5 1 5 1932.97 267.327 3
-5 1 5 1721.14 291.719 8
5 -1 -4 7092.06 490.931 6
-5 1 4 7611.38 526.499 2
-5 1 4 6572.32 408.354 1
-5 1 4 7461.03 473.525 5
5 -1 -3 3159.3 349.278 6
-5 1 3 2987.69 328.966 2
-5 1 3 2958.9 267.258 1
-5 1 2 321.886 117.301 1
-5 1 2 290.779 153.857 6
5 -1 -2 204.668 180.622 6
-5 1 2 348.464 139.486 2
-5 1 1 2394.29 287.272 6
5 -1 -1 1710.2 257.331 6
-5 1 1 2474.9 264.911 2
5 -1 -1 2370.33 245.522 1
-5 1 1 2139.38 224.093 1
5 -1 -1 2210.65 280.055 8
-5 1 1 2209.46 155.735 7
-5 1 0 11669.6 513.101 1
-5 1 0 11108.9 483.082 2
5 -1 0 10554.3 580.829 6
5 -1 0 11909.7 524.195 1
5 -1 1 671.737 175.843 1
5 -1 1 319.253 200.776 6
-5 1 -1 574.064 152.228 1
-5 1 -1 696.438 167.121 5
5 -1 2 2178.59 273.465 1
5 -1 2 2757.05 366.906 6
5 -1 2 2167.01 178.341 11
-5 1 -2 2111.84 263.069 5
-5 1 -2 2255.25 279.051 1
5 -1 2 2320.74 151.631 7
5 -1 3 1459.85 308.085 6
5 -1 3 1487.25 251.671 1
-5 1 -3 1496.04 244.493 5
5 -1 3 1152.9 111.896 11
-5 1 -4 15087 723.42 5
5 -1 4 14622 739.321 1
5 -1 5 7072.59 560.501 1
-5 1 -5 7403.46 555.861 5
-5 1 -6 1418.52 292.359 5
5 -1 6 1756.7 321.509 1
-5 1 -7 570.396 265.163 5
5 -1 7 119.032 185.679 1
-5 1 -8 4281.67 541.429 5
5 -1 8 4606.87 562.083 1
-5 1 -9 5753.18 657.602 5
5 0 -11 20269.8 1120.48 6
5 0 -10 23341.7 1139.42 6
-5 0 10 24477.2 1041.51 4
-5 0 10 25134 1252.25 2
-5 0 10 24599.1 1280 8
5 0 -9 -211.914 238.472 6
-5 0 9 -375.464 211.07 4
-5 0 9 -559.445 315.855 8
5 0 -8 1092.36 277.426 6
-5 0 8 1225.43 289.982 4
-5 0 8 1345.88 343.177 8
5 0 -7 -56.5765 180.116 6
-5 0 7 -165.623 199.851 4
-5 0 7 -59.0237 86.7911 3
-5 0 7 -107.451 184.064 8
5 0 -6 883.682 207.08 6
-5 0 6 1390.62 275.393 4
-5 0 6 1133.62 182.583 3
-5 0 6 1321.03 274.987 8
5 0 -5 4008.57 379.688 6
-5 0 5 3611.57 382.934 4
-5 0 5 4108.59 325.228 3
-5 0 5 3903.82 401.761 8
-5 0 4 25870.7 866.352 6
-5 0 4 26045.6 926.454 4
5 0 -4 25810.3 869.921 6
-5 0 4 27351.5 866.632 1
-5 0 4 25957.9 922.562 8
-5 0 3 1684.32 237.485 6
5 0 -3 1404.55 230.352 6
-5 0 3 1156.43 241.823 4
-5 0 3 1644.53 209.803 1
-5 0 2 1333.36 203.084 6
5 0 -2 915.49 213.812 6
5 0 -2 875.166 195.809 4
-5 0 2 1417.58 248.819 4
5 0 -2 1257.26 217.954 8
-5 0 2 1190.14 187.309 1
-5 0 1 9.18371 99.3333 1
-5 0 1 -192.184 145.27 6
5 0 -1 82.8782 154.319 6
5 0 -1 -14.4522 138.338 4
-5 0 1 76.077 143.624 4
5 0 -1 56.0722 140.84 8
5 0 0 15696.6 672.325 4
-5 0 0 16734.8 676.591 6
5 0 0 16756.1 677.19 6
-5 0 0 17419.7 597.006 2
5 0 0 16756 634.213 1
-5 0 0 16032.2 615.984 1
5 0 1 5684.75 415.702 4
-5 0 -1 5599.65 380.989 1
-5 0 -1 6149.53 429.477 6
5 0 1 6103.46 446.452 6
-5 0 -1 5704.09 315.581 2
5 0 1 6118.22 403.21 1
-5 0 -2 2739.87 195.466 2
5 0 2 2326.66 280.033 1
-5 0 -2 2646.5 294.431 1
5 0 2 2791.38 339.443 6
5 0 2 2512.5 288.321 4
-5 0 -2 2596.83 292.63 5
5 0 3 6900.94 450.001 4
5 0 3 6069.51 488.423 6
-5 0 -3 6155.91 444.903 5
5 0 3 5936.42 183.373 11
5 0 3 6769.14 469.137 1
5 0 4 9441.65 529.435 4
-5 0 -4 9626.57 577.896 5
5 0 4 9986.26 607.411 1
5 0 5 2104.67 276.386 4
5 0 5 1749.55 275.411 1
-5 0 -5 1530.84 272.499 5
5 0 6 2099.84 271.097 4
-5 0 -6 2141.12 337.466 5
5 0 6 2101.51 346.667 1
-5 0 -7 4088.18 470.416 5
5 0 7 4513.14 500.002 1
5 0 8 5907.79 600.366 1
-5 0 -8 4734.22 545.549 5
-5 0 -9 -48.585 250.679 5
5 0 9 989.443 331.395 1
5 1 -11 971.594 293.968 6
5 1 -10 473.716 218.907 6
-5 -1 10 457.319 268.358 8
-5 -1 9 5343.73 512.871 4
5 1 -9 4810.67 496.145 6
-5 -1 9 5977.37 625.436 8
5 1 -8 -71.0862 180.942 6
-5 -1 8 -150.496 220.621 4
-5 -1 8 93.7339 181.961 8
5 1 -8 -40.3629 134.815 10
5 1 -7 1167.82 250.607 6
-5 -1 7 1159.76 289.134 4
5 1 -7 1142.88 217.258 10
-5 -1 7 1277.66 119.392 3
-5 -1 7 1694.09 333.241 8
5 1 -6 1161.78 234.198 6
-5 -1 6 965.584 249.98 4
-5 -1 6 1172.37 159.25 3
-5 -1 6 1405.43 294.335 8
-5 -1 5 5029.16 447.264 4
5 1 -5 5574.1 420.244 6
-5 -1 5 5891.2 484.046 8
-5 -1 4 9763.95 580.695 4
5 1 -4 9740.21 516.452 6
-5 -1 4 9600.05 562.821 8
-5 -1 3 107843 1612.63 6
-5 -1 3 110722 1839.35 4
5 1 -3 107103 1616.38 6
-5 -1 3 106151 1743.34 1
-5 -1 3 109144 1731.14 8
-5 -1 2 67144.9 1399.67 4
-5 -1 2 67109.2 1239.78 6
5 1 -2 66506.9 1242.42 6
-5 -1 2 66781.8 1310.42 1
5 1 -2 64655 1282.55 8
5 1 -2 65441 1385.04 4
-5 -1 1 19.2735 105.569 6
5 1 -1 69.4428 118.002 6
5 1 -1 -182.782 166.734 4
-5 -1 1 128.229 185.708 4
5 1 -1 -83.7417 113.661 8
-5 -1 1 70.8147 103.89 1
-5 -1 0 551.721 146.7 1
-5 -1 0 654.227 155.657 6
5 1 0 333.258 128.622 6
5 1 0 547.041 187.335 4
-5 -1 0 380.378 194.359 4
5 1 0 644.266 165.474 1
5 1 0 537.969 150.789 8
-5 -1 -1 14918.9 627.896 4
-5 -1 -1 14697.4 613.733 6
5 1 1 14457.6 616.324 6
5 1 1 15011.2 629.301 1
-5 -1 -1 13395.2 587.345 1
5 1 1 13241.4 591.825 4
5 1 2 2267.89 274.339 1
-5 -1 -2 2509.8 288.1 6
5 1 2 2335.42 268.197 4
5 1 2 2427.68 290.753 6
-5 -1 -2 2401.08 284.545 5
-5 -1 -2 2720.08 282.129 1
5 1 3 16957.5 656.7 4
-5 -1 -3 16770.1 379.904 2
5 1 3 15850.3 325.491 11
5 1 3 16827.6 739.299 6
-5 -1 -3 16141.7 694.825 5
5 1 3 16494.1 709.983 1
5 1 4 16777.3 636.847 4
-5 -1 -4 15507.1 719.123 5
5 1 4 16470.9 757.301 1
5 1 5 15363.2 612.727 4
-5 -1 -5 16751.6 800.843 5
5 1 5 16048.9 788.575 1
5 1 6 20803 701.725 4
-5 -1 -6 20444.9 929.067 5
5 1 6 21311.2 968.499 1
-5 -1 -7 526.946 215.698 5
5 1 7 637.691 256.293 1
5 1 7 306.363 141.885 10
-5 -1 -8 308.674 225.727 5
5 1 8 522.556 212.949 1
5 1 9 8379.21 742.078 1
-5 -1 -9 8186.01 734.043 5
5 2 -9 3026.78 392.683 6
-5 -2 9 3193.84 424.633 4
5 2 -8 533.687 216.472 6
-5 -2 8 -60.4044 207.953 4
-5 -2 7 8539.89 627.18 4
5 2 -7 7008.14 505.875 6
5 2 -7 7553.55 463.846 10
-5 -2 7 7849.19 625.266 8
5 2 -6 530.951 187.502 6
-5 -2 6 943.927 244.342 4
-5 -2 6 859.26 107.713 3
5 2 -6 956.195 207.743 10
-5 -2 6 1024.38 266.781 8
5 2 -5 92.1201 131.12 6
-5 -2 5 102.604 197.129 4
5 2 -5 13.442 135.312 10
-5 -2 5 96.8175 161.456 8
5 2 -4 6668.35 412.269 6
5 2 -4 6723.42 461.263 10
-5 -2 4 6719.02 468.438 8
-5 -2 4 6693.89 501.184 4
-5 -2 3 468.595 123.633 6
5 2 -3 368.802 134.133 6
-5 -2 3 791.149 236.226 4
-5 -2 3 583.25 185.812 8
-5 -2 2 284.381 115.17 6
5 2 -2 328.809 135.676 6
-5 -2 2 120.091 156.042 4
-5 -2 2 468.095 182.84 1
-5 -2 1 1809.25 202.943 6
5 2 -1 1433.03 229.108 4
5 2 -1 1751.23 201.216 6
-5 -2 1 1751.7 255.437 4
-5 -2 1 1942.63 251.318 1
5 2 -1 1810.66 213.727 8
-5 -2 0 232.148 140.692 1
-5 -2 0 45.7505 96.2514 6
5 2 0 412.874 171.571 4
5 2 0 169.644 108.51 6
-5 -2 0 209.14 166.858 4
5 2 0 18.8761 89.9842 8
-5 -2 -1 47902.1 1108.03 4
-5 -2 -1 49202.5 1047.2 6
5 2 1 49074.5 1058.72 6
5 2 1 46224 1122.97 1
-5 -2 -1 49595.1 1151.51 1
5 2 1 47623.6 1108.53 4
-5 -2 -2 8734.03 479.099 4
-5 -2 -2 7998.43 456.468 6
5 2 2 8472.96 478.755 6
5 2 2 7805.27 485.653 1
5 2 2 8962.13 377.462 11
-5 -2 -2 8638.86 507.724 1
5 2 2 8031.92 454.285 4
5 2 3 2801.65 311.122 1
5 2 3 2683.05 265.777 4
-5 -2 -3 2683.23 295.268 6
-5 -2 -3 2695.99 272.908 4
-5 -2 -3 3272.87 347.126 5
5 2 3 2585.68 177.147 11
5 2 3 2607.69 212.278 9
-5 -2 -4 39829.4 1135.25 5
5 2 4 34983.1 406.825 11
5 2 4 36367.1 1092.31 1
5 2 4 37286.5 617.047 9
5 2 4 37696.3 585.477 7
5 2 4 38324.3 925.816 4
-5 -2 -5 81042.6 1711.62 5
5 2 5 84568.8 1547.29 10
5 2 5 81525.2 1736.46 1
5 2 5 81416.6 1310.39 4
-5 -2 -6 16411.8 828.287 5
5 2 6 16148.3 685.399 10
5 2 6 16929.2 837.094 1
5 2 6 16795.5 579.468 4
-5 -2 -7 6111.49 549.744 5
5 2 7 6774.52 436.658 10
5 2 7 6947.79 591.357 1
-5 -2 -8 24810.6 1131.72 5
5 2 8 24381.5 795.286 10
5 2 8 24508.3 1144.57 1
5 2 9 3760.15 496.809 1
-5 -2 -9 3542.69 502.075 5
5 2 10 8102.42 759.394 1
-5 -2 -10 7912.88 742.057 5
-5 -3 9 2351.48 413.695 4
5 3 -9 2087.15 434.125 11
5 3 -8 6619.71 506.938 6
5 3 -8 7411.42 716.718 11
-5 -3 8 8352.76 673.182 4
5 3 -7 3736.22 363.155 6
-5 -3 7 3502.5 446.17 4
5 3 -7 3685.92 502.428 11
5 3 -6 14474.6 640.341 6
-5 -3 6 14614.5 817.95 4
5 3 -5 50124.8 1097.44 6
-5 -3 5 51607.5 862.132 3
5 3 -5 49997.8 1224.54 10
-5 -3 5 54242.6 1395.14 8
-5 -3 5 51450.3 1447.54 4
5 3 -4 19474.1 641.247 6
5 3 -4 18250.5 746.617 10
-5 -3 4 20191.3 795.963 8
-5 -3 4 18546.6 854.232 4
5 3 -3 45891.6 911.938 6
5 3 -3 45262.2 1165.18 10
-5 -3 3 46416.3 1104.21 8
-5 -3 3 45813.3 1271.82 4
-5 -3 2 109752 1340.91 6
5 3 -2 110880 1348.97 6
5 3 -2 112015 1827.37 10
-5 -3 2 109500 1556.97 8
-5 -3 2 106259 1868.92 4
-5 -3 1 99109 1259.29 6
5 3 -1 101358 1278.39 6
5 3 -1 98482.8 1719.4 11
5 3 -1 99554.8 1718.79 10
5 3 -1 99411.2 1737.36 9
-5 -3 1 102282 1769.87 4
-5 -3 0 28409.9 699.143 6
5 3 0 27929.6 698.842 6
5 3 0 28651 870.417 11
-5 -3 0 26600.3 889.387 1
5 3 0 28736.7 926.846 10
5 3 0 29403.5 897.507 9
5 3 0 28131.9 703.489 8
5 3 0 28956 917.364 4
-5 -3 0 28247.3 910.714 4
-5 -3 -1 31107.7 922.031 4
-5 -3 -1 30542.8 763.597 6
5 3 1 31467.8 783.755 6
5 3 1 28099.6 905.722 1
5 3 1 30056.8 832.729 11
-5 -3 -1 31083.3 950.801 1
5 3 1 30032.3 949.23 10
5 3 1 31763.6 879.527 9
5 3 1 29884.4 721.454 8
5 3 1 29107 887.808 4
-5 -3 -1 28675 596.107 7
-5 -3 -2 13838.4 606.009 4
-5 -3 -2 13310.7 544.063 6
5 3 2 13493 640.152 1
5 3 2 14368.3 529.778 11
5 3 2 14295 661.088 10
5 3 2 13394.1 536.127 9
-5 -3 -2 13595 638.908 1
5 3 2 13719.8 594.479 4
-5 -3 -3 15472.6 614.635 4
-5 -3 -3 15000.4 623.495 6
-5 -3 -3 14181.6 671.444 5
5 3 3 15013.5 490.95 11
5 3 3 14926.3 687.235 1
5 3 3 16087 701.477 10
5 3 3 15939.5 531.843 9
5 3 3 15252.1 605.86 4
-5 -3 -4 8662.91 451.382 4
-5 -3 -4 8071.39 503.998 6
-5 -3 -4 8166.69 533.292 5
5 3 4 8253.23 321.308 11
5 3 4 8694.68 553.316 1
5 3 4 8150.34 510.634 10
5 3 4 7727.49 422.327 4
5 3 4 8482.21 325.836 7
-5 -3 -5 31189 1074.44 5
5 3 5 30404.3 951.993 10
5 3 5 30226.5 1047.21 1
5 3 5 29635.6 780.761 4
5 3 5 31046.3 700.757 7
-5 -3 -6 54262.9 1461.91 5
5 3 6 54332.2 1262.24 10
5 3 6 53499.5 1465.95 1
5 3 6 54821.5 988.8 4
5 3 7 16.7282 71.3952 4
5 3 7 -150.571 199.805 1
5 3 7 132.02 142.484 10
5 3 8 1561.2 313.449 1
-5 -3 -8 1268.6 316.616 5
5 3 9 2197.93 389.98 1
-5 -3 -9 1852.48 363.36 5
-5 -3 -10 7916.05 746.341 5
5 3 10 7669 717.224 1
-5 -4 9 638.287 297.65 4
-5 -4 8 1751.17 388.851 4
5 4 -8 1802.72 426.818 11
-5 -4 7 70.8642 223.1 4
5 4 -7 507.629 274.064 11
5 4 -6 86.5547 94.8254 6
-5 -4 6 315.883 229.688 4
5 4 -6 26.4052 279.321 11
5 4 -5 2651.16 244.424 6
-5 -4 5 3237.18 421.782 4
5 4 -5 2478.09 403.506 11
-5 -4 4 1074.46 161.583 3
5 4 -4 833.097 135.291 6
-5 -4 4 884.195 269.464 4
5 4 -4 970.228 279.409 11
-5 -4 4 941.521 212.462 8
5 4 -3 11357.8 397.967 6
5 4 -3 11970.5 735.897 11
5 4 -3 11069 609.286 10
-5 -4 3 12053.1 568.373 8
-5 -4 3 12409.7 725.371 4
5 4 -2 51123.3 782.206 6
5 4 -2 49119.4 1381.26 11
5 4 -2 49102.4 1258.3 10
-5 -4 2 50301.5 1039.18 8
-5 -4 2 50318.6 1373.68 4
-5 -4 1 15414.3 425.408 6
5 4 -1 16333.7 442.901 6
5 4 -1 16919.6 781.087 11
5 4 -1 15957.1 731.579 10
-5 -4 1 15980.5 760.203 4
-5 -4 0 44613.1 760.344 6
5 4 0 44773.9 777.514 6
5 4 0 43523.5 1152.86 11
5 4 0 43799.7 1183.33 10
-5 -4 0 44610.6 1201.91 4
-5 -4 -1 47231.6 860.168 6
5 4 1 47907 1142.5 11
5 4 1 48961.7 1254.23 10
5 4 1 47146.7 1143.26 9
5 4 1 48773.8 1207.61 4
-5 -4 -1 47031.1 1182.21 4
-5 -4 -1 47261.1 942.862 7
-5 -4 -2 31980 773.754 6
5 4 2 32482 1017.87 1
5 4 2 30919.2 869.698 11
5 4 2 30792.8 994.645 10
5 4 2 32448.6 894.826 9
5 4 2 31999.6 948.741 4
5 4 2 31727.9 657.961 8
-5 -4 -2 31303.4 731.765 7
-5 -4 -2 30722.3 921.831 4
-5 -4 -3 49712.9 1061.25 6
5 4 3 50859.4 1288.64 1
5 4 3 51169.5 1049.63 11
5 4 3 54168.3 1310.03 10
5 4 3 54215 1180.47 4
-5 -4 -3 54017.2 1176.37 4
-5 -4 -4 37215 945.062 4
-5 -4 -4 36702 1003.67 6
-5 -4 -4 36774.2 1115.73 5
5 4 4 34954.2 810.979 11
5 4 4 36872.7 1121.78 1
5 4 4 36451.6 1082.48 10
5 4 4 36914.2 937.735 4
-5 -4 -5 83223.6 1337.16 4
-5 -4 -5 82379.5 1725.39 5
5 4 5 82204.4 1138.7 11
5 4 5 80218.2 1711.73 1
5 4 5 83088.5 1615.43 10
5 4 5 83063.7 1336.21 4
5 4 5 80417.6 1239.73 7
-5 -4 -6 68441.5 1137.03 4
-5 -4 -6 65757.3 1622.03 5
5 4 6 67519.6 1463.8 10
5 4 6 66066.8 1618.84 1
5 4 6 68392.5 1127.05 4
5 4 6 66729.2 1224.57 7
-5 -4 -7 32574.9 558.579 2
-5 -4 -7 37387.5 1298.58 5
5 4 7 37099.8 1269.83 1
5 4 7 35921.8 725.268 4
-5 -4 -8 12555.3 804.458 5
5 4 8 12147.8 776.133 1
-5 -4 -9 14296.1 906.854 5
5 4 9 13665.2 890.138 1
5 4 10 998.885 312.064 1
-5 -4 -10 648.716 252.309 5
-5 -5 8 2116.11 414.492 4
5 5 -7 1847.49 414.439 11
-5 -5 7 2560.14 465.751 4
-5 -5 6 3654.7 502.172 4
5 5 -6 3858.83 529.531 11
5 5 -5 9696.93 766.682 11
-5 -5 5 10296.2 753.334 4
5 5 -4 32133.4 1303.68 11
-5 -5 4 33185.6 1038.88 8
-5 -5 4 34571.5 1305.05 4
-5 -5 3 1837.57 336.546 4
5 5 -3 2033.54 343.978 11
-5 -5 3 2151.45 262.852 8
-5 -5 3 1692.84 216.971 3
-5 -5 2 419.346 141.518 3
-5 -5 2 205.816 236.92 4
5 5 -2 217.43 192.908 11
-5 -5 2 311.506 128.71 8
-5 -5 1 543.146 263.41 4
5 5 -1 259.839 214.12 11
-5 -5 0 2089.63 129.188 6
-5 -5 0 2435.3 325.743 4
5 5 0 2500.65 331.648 11
-5 -5 -1 1118.65 201.09 7
-5 -5 -1 1292.39 136.518 6
-5 -5 -1 1051.72 229.805 4
5 5 1 1377.18 260.288 11
-5 -5 -2 3162.25 230.588 6
-5 -5 -2 2622.69 322.549 4
5 5 2 3201.54 327.152 11
-5 -5 -2 3765.09 310.862 7
-5 -5 -3 26205.6 721.144 6
5 5 3 27376.8 975.456 1
5 5 3 27181.8 864.715 11
5 5 3 27444.5 897.6 4
5 5 3 26039.6 515.225 8
-5 -5 -3 26328.7 885.783 4
-5 -5 -4 4013.39 336.885 6
-5 -5 -4 3981.58 393.513 5
5 5 4 4207.01 412.251 1
5 5 4 4049.22 332.466 11
5 5 4 3451.38 326.31 4
-5 -5 -4 4536.7 372.085 4
-5 -5 -5 9881.76 566.567 6
-5 -5 -5 11873.1 671.891 5
-5 -5 -5 10692 519.626 11
5 5 5 10525.6 645.512 1
5 5 5 10835 507.478 11
5 5 5 10628.9 509.266 4
5 5 5 10013.9 499.648 7
-5 -5 -5 10347.9 518.909 4
5 5 6 379.506 139.38 7
5 5 6 429.231 183.392 1
5 5 6 419.831 123.943 4
-5 -5 -6 422.853 145.288 4
-5 -5 -6 587.209 206.326 5
-5 -5 -6 735.896 171.391 11
-5 -5 -7 3246.75 258.035 4
5 5 7 3573.07 419.161 1
-5 -5 -7 3146.64 262.495 11
-5 -5 -7 2859.36 379.922 5
5 5 7 3476.66 247.419 4
5 5 7 3293.59 336.001 7
-5 -5 -8 17677.6 940.551 5
5 5 8 16417.3 894.878 1
5 5 8 15877.9 739.87 7
5 5 9 -263.878 248.907 1
-5 -5 -9 -69.4738 199.811 5
5 5 10 5382.15 595.718 1
-5 -5 -10 4908.33 571.326 5
5 5 11 14463.2 985.097 1
-5 -6 6 4632.24 572.078 4
5 6 -6 3732.15 541.867 11
5 6 -5 7627.97 724.37 11
-5 -6 5 7388.05 695.906 4
-5 -6 4 3365.33 466.72 4
5 6 -4 4451.72 542.093 11
5 6 -3 -11.9194 199.673 11
-5 -6 3 172.276 148.749 8
5 6 -2 20536.3 1017.45 11
-5 -6 2 20443.4 647.365 8
-5 -6 2 20544.9 1018.73 4
-5 -6 1 959.768 269.278 4
5 6 -1 1373.34 290.729 11
-5 -6 0 2886.49 382.209 4
5 6 0 2263.28 347.403 11
5 6 1 8042.92 580.925 11
-5 -6 -1 8941.4 616.857 4
-5 -6 -2 929.602 275.883 4
-5 -6 -2 467.759 93.7108 6
5 6 2 705.344 232.623 11
-5 -6 -3 273.989 207.924 4
-5 -6 -3 366.81 112.206 6
5 6 3 443.564 186.182 11
-5 -6 -4 3731.47 310.248 6
-5 -6 -4 3669.12 371.679 4
-5 -6 -4 3304.93 364.7 5
5 6 4 3641.81 394.752 1
5 6 4 3926.46 369.155 11
5 6 4 2770.8 120.958 8
5 6 5 1394.28 230.055 4
-5 -6 -5 1300.06 247.687 4
-5 -6 -5 1361.25 225.45 6
-5 -6 -5 1824.7 304.921 5
5 6 5 1351.81 229.814 11
5 6 5 2090.65 329.212 1
5 6 6 286.614 163.229 7
5 6 6 -2.08891 96.2331 4
-5 -6 -6 73.3474 153.076 4
-5 -6 -6 -195.971 169.807 5
-5 -6 -6 -144.212 161.903 11
5 6 6 235.256 171.747 1
5 6 7 54.5808 144.414 7
-5 -6 -7 322.04 136.666 4
-5 -6 -7 389.333 167.532 5
-5 -6 -7 79.4208 123.125 11
5 6 7 455.431 207.31 1
5 6 8 1854.9 292.463 7
5 6 8 1472.28 303.7 1
-5 -6 -8 1771.33 347.685 5
5 6 9 -101.038 191.3 1
-5 -6 -9 33.8856 232.866 5
5 6 9 205.432 158.331 7
5 6 10 362.202 218.786 1
-5 -6 -10 132.576 218.557 5
5 6 10 224.566 175.875 7
5 6 11 545.379 258.639 1
-5 -7 4 855.365 318.997 4
5 7 -4 1108.16 333.362 11
-5 -7 3 4236.14 546.53 4
5 7 -3 4874.48 596.862 11
5 7 -2 7490.56 671.305 11
-5 -7 2 8227.57 701.308 4
5 7 -1 11534 794.585 11
-5 -7 1 12097.6 819.369 4
5 7 0 11092.6 754.758 11
-5 -7 0 11035 743.01 4
5 7 1 35657.3 1287.07 11
-5 -7 -1 33209.3 1249.61 4
5 7 2 6854.48 564.456 11
-5 -7 -2 8206.58 608.193 4
-5 -7 -3 636.456 225.946 4
-5 -7 -3 920.604 120.539 6
5 7 3 746.671 238.256 11
-5 -7 -3 205.343 201.521 9
-5 -7 -4 8706.85 416.866 6
-5 -7 -4 9043.21 601.937 5
5 7 4 9516.15 625.621 11
-5 -7 -4 8763.7 593.236 9
-5 -7 -4 9358.06 609.924 4
-5 -7 -5 312.689 154.759 4
-5 -7 -5 -4.78984 111.854 6
-5 -7 -5 97.2203 161.088 5
5 7 5 167.65 168.92 1
5 7 5 48.0431 144.893 11
-5 -7 -5 36.9393 164.966 9
-5 -7 -6 1014.04 216.231 4
-5 -7 -6 640.747 192.664 5
5 7 6 1115.14 249.854 11
5 7 6 1022.06 258.123 1
-5 -7 -6 1121.94 245.442 9
5 7 7 411.303 187.107 7
-5 -7 -7 802.862 260.031 5
-5 -7 -7 658.739 176.297 4
5 7 7 817.11 234.748 1
-5 -7 -7 377.38 180.179 9
-5 -7 -8 11824.5 779.885 5
5 7 8 12585.1 803.059 1
5 7 8 11798.8 714.867 7
5 7 9 916.845 264.199 1
5 7 9 1202.13 295.971 7
-5 -7 -9 713.627 235.531 5
5 7 10 -52.0101 203.267 1
-5 -7 -10 -72.3622 203.882 5
5 7 10 -145.749 216.318 7
5 7 11 215.817 215.684 1
-5 -7 -11 -351.147 319.533 5
5 7 11 -317.241 283.852 7
5 7 12 82.5504 264.603 7
-5 -8 2 240.868 278.854 4
5 8 -2 95.9887 257.122 11
-5 -8 1 -21.8809 245.21 4
5 8 -1 -243.63 271.162 11
5 8 0 15808.6 964.137 11
-5 -8 0 15120.4 939.004 4
-5 -8 -1 2580.55 433.512 4
5 8 1 2054.83 392.12 11
-5 -8 -2 2440.35 389.042 4
5 8 2 2886.12 429.369 11
-5 -8 -2 2650.84 414.242 9
5 8 3 7303.09 616.006 11
-5 -8 -3 6772.01 602.7 9
-5 -8 -3 6964.97 582.364 4
-5 -8 -4 4740.41 480.916 4
-5 -8 -4 5129.33 475.076 5
5 8 4 4498.88 495.51 11
-5 -8 -4 5279.19 521.616 9
-5 -8 -5 7349.17 562.988 5
5 8 5 6790.27 567.414 11
-5 -8 -5 7471.47 588.067 9
-5 -8 -5 7662.54 583.148 4
-5 -8 -6 3180.36 375.014 4
-5 -8 -6 3239.01 405.903 5
5 8 6 2951.65 381.88 11
-5 -8 -6 2826.85 386.567 9
-5 -8 -7 8170.66 633.314 5
5 8 7 8149.39 628.251 1
-5 -8 -7 8223.4 584.014 9
-5 -8 -7 8104.48 543.048 4
-5 -8 -8 10118.8 731.414 5
5 8 8 11957.3 777.107 1
-5 -8 -8 10063.3 610.97 9
5 8 8 11447 754.827 7
-5 -8 -9 10809.1 778.984 5
5 8 9 10199.2 746.416 1
5 8 9 9360.48 708.376 7
5 8 10 2719.4 414.561 7
-5 -8 -10 3306.35 480.724 5
5 8 10 2749.55 440.939 1
5 8 11 513.925 252.217 7
5 8 11 677.062 277.323 1
-5 -9 0 2823.78 476.069 4
5 9 0 1700.65 394.773 11
-5 -9 -1 5236.39 606.296 4
5 9 1 4400.81 553.506 11
-5 -9 -2 739.633 282.892 4
5 9 2 1744.58 368.225 11
-5 -9 -2 1961.99 432.145 9
-5 -9 -3 3660.23 486.084 4
5 9 3 3659.65 488.591 11
-5 -9 -3 3337.83 497.362 9
-5 -9 -4 4457.32 512.613 4
-5 -9 -4 3886.29 419.339 5
5 9 4 4740.6 532.391 11
-5 -9 -4 4186.51 520.003 9
-5 -9 -5 1927.48 333.112 4
-5 -9 -5 2009.81 337.303 5
5 9 5 2044.48 359.325 11
-5 -9 -5 2254.13 406.58 9
-5 -9 -6 363.688 223.224 4
-5 -9 -6 541.848 223.583 5
5 9 6 1148.41 301.443 11
-5 -9 -6 539.085 250.433 9
-5 -9 -7 2357.38 337.43 4
-5 -9 -7 3078.4 406.796 5
-5 -9 -7 3284.31 424.376 9
-5 -9 -8 600.352 226.448 5
5 9 8 6.04037 184.723 1
-5 -9 -8 38.5662 217.094 9
-5 -9 -9 786.784 261.713 5
5 9 9 1111.98 268.062 1
5 9 10 693.628 250.795 7
-5 -9 -10 536.676 232.111 5
5 9 10 340.469 220.374 1
5 9 11 -24.4853 238.811 7
5 9 11 -12.3628 189.641 1
-5 -10 -2 11337.1 907.272 4
-5 -10 -3 5446.05 612.788 4
5 10 3 6605.65 698.82 11
-5 -10 -3 5800.64 676.765 9
5 10 4 7465.81 730.579 11
-5 -10 -4 7919.33 741.889 9
-5 -10 -4 7433.94 696.377 4
5 10 5 15339.7 994.646 11
-5 -10 -5 15332.5 972.578 9
-5 -10 -5 16070.7 968.75 4
-5 -10 -6 21035.1 978.623 5
5 10 6 20236.5 1115.94 11
-5 -10 -6 20271.9 1097.12 9
-5 -10 -6 19813.7 1044.82 4
-5 -10 -7 4730.63 496.605 4
-5 -10 -7 4534.5 482.66 5
-5 -10 -7 4444.56 538.286 9
-5 -10 -8 12793.5 850.682 9
-5 -11 -5 1978.01 448.793 4
-5 -11 -6 8.73792 258.977 4
-5 -11 -7 635.717 276.526 9
-6 7 8 1852.8 411.464 7
-6 7 7 4206.58 522.937 7
6 -7 -5 6537.25 689.093 6
6 -7 -4 5540.04 644.086 6
6 -7 -3 1667.1 405.624 6
6 -7 -2 4380.98 602.858 6
6 -7 -1 6768.33 711.798 6
-6 6 10 5989.19 644.432 3
-6 6 9 -454.039 322.756 3
-6 6 9 232.754 228.044 7
-6 6 8 5361.27 603.666 3
-6 6 8 4341.59 528.651 7
-6 6 7 2750.23 400.483 7
6 -6 -7 2048.44 441.733 6
-6 6 7 3412.9 521.509 3
-6 6 6 777.696 271.578 7
6 -6 -6 1522.86 346.644 6
-6 6 6 1302.89 326.052 3
6 -6 -5 1758.67 378.87 6
-6 6 5 1743.88 377.959 3
6 -6 -4 3084.91 476.934 6
-6 6 4 2620.56 446.203 3
6 -6 -3 427.758 262.068 6
-6 6 3 823.304 338.506 3
6 -6 -2 -612.082 328.562 6
-6 6 2 52.2404 239.906 3
6 -6 -1 2684.65 476.056 6
-6 6 1 1907.62 404.592 3
6 -6 0 1375.88 339.228 6
-6 6 0 631.349 311.35 3
6 -6 1 1007.3 294.997 6
-6 5 10 2811.15 429.14 3
-6 5 9 548.487 263.887 3
6 -5 -8 3789.28 537.687 6
-6 5 8 2964.84 448.082 3
6 -5 -7 5870.01 621.566 6
-6 5 7 5110.85 570.893 3
-6 5 7 6148.86 566.112 7
6 -5 -6 6067.43 615.795 6
-6 5 6 4947.18 555.74 3
-6 5 6 5628.29 518.005 7
-6 5 5 1311.43 262.192 7
6 -5 -5 1492.46 346.045 6
-6 5 5 974.647 289.098 3
6 -5 -4 2138.35 379.882 6
-6 5 4 2602.24 413.959 3
6 -5 -3 136.901 212.411 6
-6 5 3 657.549 303.175 3
6 -5 -2 15534.9 922.973 6
-6 5 2 15080.9 946.569 3
6 -5 -1 238.381 227.488 6
-6 5 1 -84.8523 229.017 3
6 -5 0 301.492 285.382 6
-6 5 0 24.1496 226.323 3
6 -5 1 60.9085 223.039 6
-6 5 -1 218.965 238.089 3
6 -5 2 -2.51122 256.381 6
-6 5 -2 -388.787 313.107 3
-6 5 -3 741.75 309.981 3
-6 5 -4 3993.26 539.927 3
6 -4 -9 33602.1 1477.6 6
-6 4 9 32366 1449.33 2
-6 4 9 31669.2 1226.23 3
-6 4 8 6812.83 651.895 2
6 -4 -8 5553.82 614.646 6
-6 4 8 6538.35 581.829 3
-6 4 7 7721.03 684.911 2
6 -4 -7 6848.1 647.382 6
-6 4 7 5554.8 549.263 3
6 -4 -6 20809.6 1067.2 6
-6 4 6 19491.2 979.975 3
-6 4 6 19121.5 873.191 7
6 -4 -5 2079.99 383.841 6
-6 4 5 1785.72 345.508 3
-6 4 5 2042.33 294.324 7
6 -4 -4 12496.4 794.461 6
-6 4 4 12451 798.324 3
-6 4 4 13101.1 653.208 7
6 -4 -3 17664.2 936.091 6
-6 4 3 18039.7 603.686 5
-6 4 3 18092.4 952.829 3
6 -4 -2 12639.3 797.496 6
-6 4 2 12739 498.272 5
-6 4 2 12749.8 834.744 3
6 -4 -1 6020.36 574.56 6
-6 4 1 5707.04 344.479 5
-6 4 1 6271.73 603.238 3
6 -4 -1 5041.31 347.121 1
6 -4 0 12477 812.643 6
-6 4 0 13359.5 545.278 5
-6 4 0 12323.2 835.936 3
6 -4 0 13948.7 610.425 1
6 -4 1 1480.55 237.618 1
6 -4 1 1891.3 371.526 6
-6 4 -1 1347.28 212.59 5
-6 4 -1 1669.83 342.893 3
6 -4 2 -33.8168 141.036 1
6 -4 2 -306.396 232.885 6
-6 4 -2 -75.5991 228.914 3
6 -4 3 387.86 242.952 6
6 -4 3 511.096 218.091 1
-6 4 -3 37.732 215.553 3
6 -4 4 749.514 252.356 1
-6 4 -4 1377.49 379.648 3
6 -4 5 1667.95 348.315 1
-6 4 -5 1482.67 355.775 3
6 -3 -10 725.611 304.958 6
6 -3 -9 174.011 209.734 6
-6 3 9 223.367 266.302 2
-6 3 9 122.03 148.976 3
-6 3 9 236.393 227.222 8
6 -3 -8 -300.004 264.385 6
-6 3 8 33.8375 214.939 2
-6 3 8 15.0053 173.293 3
6 -3 -7 2732 410.204 6
-6 3 7 2262.69 377.052 2
-6 3 7 3170.24 383.412 3
6 -3 -6 1115.9 318.665 6
-6 3 6 1442.09 323.995 2
-6 3 6 915.841 239.54 3
6 -3 -5 15364.6 861.438 6
-6 3 5 15974.2 857.619 2
-6 3 5 15830.5 836.331 3
-6 3 5 15438.8 573.547 1
-6 3 4 19389.4 909.165 2
6 -3 -4 19636.8 947.08 6
-6 3 4 18839.9 912.321 3
-6 3 4 18218.5 708.798 5
-6 3 4 19346.5 617.91 1
-6 3 4 18711.1 726.283 7
-6 3 3 17286.6 586.466 1
6 -3 -3 16942.4 874.685 6
-6 3 3 18550 922.55 3
-6 3 3 19419.6 686.81 7
6 -3 -2 31036.2 1175.22 6
-6 3 2 29843.3 790.927 1
-6 3 2 31053.9 1199.67 3
6 -3 -1 68752.7 1735.52 6
-6 3 1 68003.2 1271.83 1
-6 3 1 69031.2 1265.04 5
-6 3 1 67188.8 1760.26 3
6 -3 -1 68606.4 1273.66 1
6 -3 0 29578.6 1159.7 6
-6 3 0 30916.8 873.13 5
-6 3 0 29403.7 1202.17 3
-6 3 0 28884.8 897.424 1
6 -3 0 28386.9 875.343 1
6 -3 1 12432.7 797.938 6
-6 3 -1 11698.4 569.177 5
-6 3 -1 11636.5 783.56 3
6 -3 1 11276.1 599.199 1
6 -3 2 5583.02 561.44 6
-6 3 -2 5006.82 408.645 5
6 -3 2 5118.44 447.319 1
6 -3 3 4159.64 514.638 6
6 -3 3 4007.23 429.012 1
-6 3 -3 4417.57 411.479 5
-6 3 -3 4833.14 555.455 3
-6 3 -4 12150.7 839.814 3
-6 3 -4 11022.6 675.352 5
6 -3 4 10880.2 726.445 1
6 -3 5 3569.1 493.003 1
-6 3 -5 3361.07 418.626 5
-6 3 -5 3777.13 498.807 3
-6 3 -6 19326.7 1076.68 3
-6 3 -6 19699.1 1031.36 5
6 -3 6 17427.8 1037.7 1
6 -2 -10 4678.62 577.52 6
-6 2 10 3846.28 558.622 2
6 -2 -9 8638.2 729.277 6
-6 2 9 8969.19 762.398 2
-6 2 9 7496.39 704.968 8
6 -2 -8 1782.22 375.634 6
-6 2 8 1468.17 353.962 2
-6 2 8 1420.33 261.59 3
-6 2 8 1733.62 353.163 8
6 -2 -7 6197.24 568.638 6
-6 2 7 6555.02 614.755 2
-6 2 7 5048.89 439.5 3
-6 2 7 4632.99 522.715 8
6 -2 -6 15690.5 858.628 6
-6 2 6 16499.7 894.501 2
-6 2 6 14773.5 742.765 3
-6 2 6 14410.1 658.732 1
6 -2 -5 23713.6 1015.91 6
-6 2 5 24072.6 1026.84 2
-6 2 5 24110.6 958.045 3
-6 2 5 22882.8 776.644 1
6 -2 -4 13325.8 748.974 6
-6 2 4 13275.2 737.28 2
-6 2 4 13187.3 733.229 3
-6 2 4 12992.4 561.916 1
6 -2 -3 14862 788.602 6
-6 2 3 16236.7 771.114 2
-6 2 3 15635.5 601.901 1
-6 2 3 16862 593.112 7
-6 2 2 420.587 117.602 7
6 -2 -2 450.142 220.698 6
-6 2 2 353.298 180.058 2
-6 2 2 302.283 121.841 1
-6 2 1 64.2558 99.4046 1
-6 2 1 282.934 148.031 2
6 -2 -1 451.04 247.54 6
6 -2 -1 99.5115 134.596 1
6 -2 0 2135.9 347.184 6
-6 2 0 1809.76 245.442 1
-6 2 0 2027.83 259.893 5
6 -2 0 2152.57 264.737 1
6 -2 1 75.3036 127.418 1
6 -2 1 15.9818 209.539 6
-6 2 -1 164.601 156.408 5
6 -2 1 494.779 142.074 11
6 -2 2 158.963 164.051 1
6 -2 2 103.028 208.069 6
-6 2 -2 160.752 148.874 5
6 -2 2 176.691 102.395 11
6 -2 3 2291.18 325.429 1
6 -2 3 2454.49 381.618 6
-6 2 -3 1998.36 288.367 5
6 -2 4 577.689 213.616 1
-6 2 -4 433.258 193.942 5
6 -2 5 967.77 234.631 1
-6 2 -5 813.623 260.926 5
-6 2 -6 6104.81 570.493 5
6 -2 6 6829.24 662.338 1
-6 2 -7 10551.7 806.146 5
6 -2 7 10937.4 874.69 1
6 -1 -10 258.771 249.78 6
-6 1 10 1588.45 381.71 2
6 -1 -9 3751.26 491.82 6
-6 1 9 3541.34 494.837 2
-6 1 9 3823.91 537.61 8
6 -1 -8 1295.5 321.471 6
-6 1 8 1997.7 396.01 2
-6 1 8 831.537 186.949 3
-6 1 8 1448.62 332.8 8
6 -1 -7 146.675 198.101 6
-6 1 7 -147.209 197.254 2
-6 1 7 -58.1271 139.671 3
-6 1 7 -21.7947 198.371 8
6 -1 -6 11851 726.901 6
-6 1 6 12877.6 783.744 2
-6 1 6 12319.6 633.741 3
-6 1 6 12977.5 790.708 8
6 -1 -5 4068.71 430.445 6
-6 1 5 4796.49 478.16 2
-6 1 5 4274.95 403.068 3
6 -1 -4 35234.1 1160.08 6
-6 1 4 36546.4 1191.09 2
-6 1 4 36127.3 1008.23 1
6 -1 -3 50395.6 1357.53 6
-6 1 3 51592.5 1348.58 2
-6 1 3 51071.7 1158.8 1
6 -1 -2 3512.77 385.856 6
-6 1 2 3589.33 360.023 2
-6 1 2 3796.61 319.319 1
-6 1 2 3837.35 239.87 7
6 -1 -1 5299.53 478.269 6
-6 1 1 4805.19 383.531 2
6 -1 -1 4791.87 367.206 1
-6 1 1 4650.08 356.919 1
-6 1 0 6792.89 422.566 2
-6 1 0 7298.91 458.165 1
6 -1 0 7274.24 535.332 6
6 -1 0 6294.46 434.583 1
6 -1 1 13389.6 740.48 6
-6 1 -1 11504.4 583.867 5
6 -1 1 11183.4 589.181 1
6 -1 2 4083.02 460.773 6
-6 1 -2 4148.4 387.369 5
6 -1 2 4528.46 274.025 11
6 -1 2 4579 402.627 1
6 -1 3 40714.9 1368.55 6
-6 1 -3 42408.1 1208.7 5
6 -1 3 38355.7 632.036 11
6 -1 3 40728.7 1241.63 1
-6 1 -4 30313.6 1086.3 5
6 -1 4 29845.1 1128.86 1
-6 1 -5 2074.81 330.778 5
6 -1 5 2169.75 353.637 1
6 -1 6 1130.43 266.751 1
-6 1 -6 982.512 260.977 5
-6 1 -7 22240.4 1125.57 5
6 -1 7 21764.1 1162.83 1
-6 1 -8 5894.26 643.512 5
6 0 -10 4060.49 523.126 6
-6 0 10 2822.41 409.338 4
6 0 -9 367.597 261.524 6
-6 0 9 716.048 290.346 4
-6 0 9 439.964 294.107 2
-6 0 9 1163.06 358.857 8
6 0 -8 -181.596 208.957 6
-6 0 8 224.079 209.631 4
-6 0 8 -1.14636 226.493 8
6 0 -7 1195.65 264.304 6
-6 0 7 690.502 233.341 4
-6 0 7 860.709 173.585 3
-6 0 7 1236.35 294.047 8
6 0 -6 2170.84 331.065 6
-6 0 6 2714.58 390.984 4
-6 0 6 2474.51 287.64 3
-6 0 6 2337.33 358.165 8
6 0 -5 122.972 152.102 6
-6 0 5 708.128 235.418 4
-6 0 5 944.501 235.581 8
6 0 -4 3524.98 377.81 6
-6 0 4 3809.33 421.819 4
-6 0 3 62144 1517.64 4
6 0 -3 60251.8 1408.34 6
-6 0 3 65288.1 1385.51 1
-6 0 2 2924.13 303.384 1
6 0 -2 3141.8 354.278 6
-6 0 2 2931.1 375.983 4
6 0 -1 2427.87 317.185 6
-6 0 1 2646.95 288.356 1
-6 0 1 2317.23 296.872 2
-6 0 1 2395.66 136.141 7
6 0 0 441.351 203.1 6
-6 0 0 413.295 166.687 2
-6 0 0 763.825 184.643 1
6 0 0 414.087 168.675 1
6 0 1 733.503 216.959 6
-6 0 -1 646.966 150.615 2
-6 0 -1 775.524 209.023 5
6 0 1 713.513 192.609 1
-6 0 -2 4609.43 286.459 2
6 0 2 4579.88 457.917 6
-6 0 -2 4826.5 406.027 5
6 0 2 4690.22 407.492 1
6 0 3 237.841 175.66 1
6 0 3 28.7536 197.277 6
-6 0 -3 134.9 139.041 5
6 0 3 113.604 52.5391 11
6 0 4 3458.17 396.802 1
-6 0 -4 3486.01 381.365 5
6 0 4 3038.84 147.49 7
6 0 5 3333.3 434.501 1
-6 0 -5 3615.08 405.436 5
6 0 6 1307.43 323.379 1
-6 0 -6 876.657 276.86 5
-6 0 -7 8730.46 704.042 5
6 0 7 6928.26 660.217 1
6 0 8 1754.49 374.909 1
-6 0 -8 1408.82 343.569 5
6 1 -10 1234.95 320.059 6
-6 -1 10 1445.33 397.108 4
6 1 -9 513.1 237.711 6
-6 -1 9 456.817 265.435 4
-6 -1 9 321.107 230.22 8
6 1 -8 1268.77 281.235 6
-6 -1 8 1370.85 334.22 4
6 1 -8 890.593 219.4 10
-6 -1 8 1597.81 355.54 8
6 1 -7 791.586 246.213 6
-6 -1 7 711.358 281.57 4
-6 -1 7 898.672 284.342 8
6 1 -6 1946.75 304.756 6
-6 -1 6 2259.69 367.909 4
-6 -1 6 2025.43 238.039 3
-6 -1 6 2455.56 354.057 8
6 1 -5 699.035 212.396 6
-6 -1 5 1046.34 274.604 4
6 1 -4 3597.53 360.082 6
-6 -1 4 3446.12 405.449 4
-6 -1 4 3792.49 396.284 8
-6 -1 3 22544.1 930.484 4
6 1 -3 21401.9 803.449 6
-6 -1 2 16803.6 696.337 6
-6 -1 2 16467.2 787.612 4
6 1 -2 17617.7 715.375 6
-6 -1 1 778.541 185.734 6
6 1 -1 698.062 198.092 6
-6 -1 1 603.701 227.659 4
6 1 -1 764.235 202.025 8
6 1 0 1466.44 260.448 6
-6 -1 0 1014.97 253.04 4
6 1 0 1383.44 244.034 1
6 1 0 1492.14 233.629 8
6 1 1 97.2834 173.779 6
-6 -1 -1 -143.8 198.535 4
6 1 1 -52.2751 140.445 1
6 1 2 2740.55 341.932 6
-6 -1 -2 2267.41 217.447 2
-6 -1 -2 2375.26 315.053 5
6 1 2 1627.82 265.07 1
6 1 3 3527.59 386.404 1
-6 -1 -3 2883.06 195.042 2
6 1 3 3286.68 394.353 6
-6 -1 -3 2181.3 301.748 5
6 1 3 3032.45 180.802 11
-6 -1 -4 43034.1 1288.66 5
6 1 4 42744.8 1298.66 1
-6 -1 -5 29454.4 1111.19 5
6 1 5 26624.5 414.139 9
6 1 5 28532.6 1129.46 1
6 1 6 959.112 253.462 1
-6 -1 -6 973.075 296.203 5
6 1 7 -172.231 238.086 1
-6 -1 -7 -401.224 268.347 5
6 1 7 157.422 153.549 10
6 1 8 747.831 289.436 1
-6 -1 -8 917.123 306.262 5
-6 -1 -9 6230.39 679.137 5
6 2 -9 5554.17 527.674 6
-6 -2 9 4501.37 539.744 4
-6 -2 9 4380.13 575.335 8
6 2 -8 2227.31 333.828 6
-6 -2 8 2617.68 422.195 4
-6 -2 8 2493.93 424.745 8
6 2 -7 4431.05 446.897 6
-6 -2 7 4476.4 528.515 4
6 2 -7 4565.84 416.839 10
-6 -2 7 3952.23 481.337 8
6 2 -6 2762.05 329.957 6
-6 -2 6 3457.71 433.631 4
6 2 -6 2794.36 336.472 10
-6 -2 6 2313.49 353.151 8
6 2 -5 93.3071 148.406 6
-6 -2 5 176.259 217.139 4
6 2 -5 400.168 193.408 10
-6 -2 5 414.595 193.248 8
-6 -2 4 19324 910.148 4
6 2 -4 20694.7 773.863 6
-6 -2 4 20161.2 853.123 8
-6 -2 3 12600.8 716.255 4
-6 -2 3 13415.1 597.136 6
6 2 -3 13043.2 602.416 6
-6 -2 2 312.382 150.875 6
6 2 -2 171.86 139.605 6
-6 -2 2 86.5338 195.039 4
-6 -2 1 36782.7 1129.84 4
-6 -2 1 37539.3 979.093 6
6 2 -1 36976.4 974.399 6
6 2 -1 37392.4 1013.82 8
-6 -2 0 10355.8 604.239 4
-6 -2 0 11989.8 571.056 6
6 2 0 11447.3 567.374 6
6 2 0 11316.1 556.975 8
-6 -2 -1 288.898 127.513 6
6 2 1 266.667 145.108 6
-6 -2 -1 275.787 203.579 4
6 2 1 564.303 193.65 1
-6 -2 -2 24159.7 860.105 4
6 2 2 24011.4 876.012 6
6 2 2 23531.4 903.81 1
6 2 2 24236.5 678.645 11
6 2 3 14094.2 716.465 6
-6 -2 -3 14048.3 712.07 5
6 2 3 13636.7 428.995 11
6 2 3 13423.8 705.864 1
6 2 3 12967.9 627.723 4
-6 -2 -4 14369.2 368.899 2
-6 -2 -4 14770.2 757.639 5
6 2 4 14574.3 294.019 11
6 2 4 14480.7 759.405 1
6 2 4 15017.6 471.21 9
6 2 4 14881.2 663.619 4
-6 -2 -5 3411.42 409.987 5
6 2 5 4234.82 444.556 1
6 2 5 3940.74 192.271 7
6 2 5 3645.86 342.272 4
6 2 6 4936.85 507.08 1
-6 -2 -6 4637.77 489.924 5
6 2 6 5107.44 442.264 10
6 2 6 4889.01 369.671 4
6 2 7 2341.71 382.884 1
-6 -2 -7 2398.07 377.722 5
6 2 7 2208.25 297.286 10
6 2 8 222.661 234.506 1
-6 -2 -8 -250.959 278.152 5
6 2 8 55.4851 122.231 10
6 2 9 2238.25 438.506 1
-6 -2 -9 3253.99 510.367 5
-6 -3 9 409.636 287.027 4
-6 -3 9 -552.087 391.599 8
-6 -3 8 -194.002 248.257 4
6 3 -8 -324.971 284.66 11
-6 -3 8 -477.596 254.458 8
6 3 -7 266.712 165.712 6
-6 -3 7 696.158 263.186 4
-6 -3 7 408.72 221.359 8
6 3 -6 236.712 148.141 6
-6 -3 6 335.997 231.782 4
6 3 -6 203.33 192.217 10
-6 -3 6 262.913 191.497 8
6 3 -5 106.367 125.85 6
-6 -3 5 -377.54 233.706 4
6 3 -5 -260.593 191.214 10
-6 -3 5 -38.029 173.68 8
6 3 -4 3812.85 323.15 6
-6 -3 4 4325.3 474.495 4
6 3 -4 4314.8 420.813 10
-6 -3 4 5076.09 441.808 8
6 3 -3 -77.436 131.008 6
-6 -3 3 212.442 223.911 4
6 3 -3 355.211 187.152 10
-6 -3 3 332.885 140.864 8
-6 -3 2 16837.1 823.301 4
-6 -3 2 15338 582.756 6
6 3 -2 16207.1 603.734 6
6 3 -2 16699.2 785.264 10
-6 -3 1 62591.4 1499.48 4
-6 -3 1 64184.3 1184.22 6
6 3 -1 64383.3 1185.24 6
6 3 -1 63466.3 1509.56 10
-6 -3 0 8910.11 576.814 4
-6 -3 0 8783.71 461.353 6
6 3 0 9285.39 474.476 6
6 3 0 10211.6 568.807 11
6 3 0 8468.33 569.177 10
6 3 0 8854.99 460.711 8
-6 -3 -1 13370.4 670.893 4
-6 -3 -1 12569.8 561.745 6
6 3 1 12819 581.774 6
6 3 1 12393.2 664.996 1
6 3 1 12611.6 588.464 11
6 3 1 13019 703.654 10
6 3 1 12969.3 617.372 9
6 3 1 13330.1 562.44 8
-6 -3 -1 12645.5 369.927 7
-6 -3 -2 16266.7 721.02 4
-6 -3 -2 14790.1 639.953 6
6 3 2 15783.8 671.398 6
6 3 2 15186.1 744.567 1
6 3 2 15661.3 593.873 11
6 3 2 16211.5 772.288 10
6 3 2 15705.1 639.463 9
-6 -3 -3 36698.5 1046.67 4
-6 -3 -3 35345.4 1134.22 5
6 3 3 35618.4 1145.34 1
6 3 3 34916.5 799.548 11
6 3 3 34267.3 1117.41 10
6 3 3 34903.6 864.151 9
6 3 3 34466.6 1018.69 4
-6 -3 -4 22760.5 809.182 4
-6 -3 -4 22142.8 937.064 5
6 3 4 22967.9 552.794 11
6 3 4 22825.1 948.474 1
6 3 4 22532.8 906.533 10
6 3 4 22332.8 613.434 9
6 3 4 21748.1 790.569 4
-6 -3 -5 24208.3 1004.23 5
6 3 5 23067.1 996.14 1
6 3 5 24458.1 942.794 10
6 3 5 23618.2 794.627 4
6 3 5 24172.5 530.43 7
-6 -3 -6 8576.17 642 5
6 3 6 9804.63 605.858 10
6 3 6 9117.02 658.866 1
6 3 6 8400.94 462.976 4
6 3 6 8226 369.589 7
-6 -3 -7 14266.8 862.496 5
6 3 7 17098.3 780.697 10
6 3 7 14738.3 877.968 1
-6 -3 -8 9303.94 743.701 5
6 3 8 10274.7 602.539 10
6 3 8 9016.41 732.077 1
-6 -3 -9 12053.3 894.041 5
6 3 9 11974.9 890.899 1
-6 -4 8 25492.1 1241.8 8
-6 -4 8 27552.7 1315.63 4
6 4 -7 12100.3 927.445 11
-6 -4 7 12399.4 821.472 8
-6 -4 7 11618 848.068 4
6 4 -6 6629.84 666.314 11
-6 -4 6 6971.49 588.481 8
-6 -4 6 7146.09 647.082 4
6 4 -5 241.577 134.219 6
-6 -4 5 187.106 226.458 4
6 4 -5 -394.862 237.727 11
-6 -4 5 219.232 172.978 8
6 4 -4 5399.5 346.176 6
-6 -4 4 5968.91 556.234 4
6 4 -4 6241.18 592.354 11
6 4 -4 5451.12 475.301 10
-6 -4 4 5675.77 455.928 8
6 4 -3 31695.2 770.585 6
6 4 -3 30507.7 1206.72 11
6 4 -3 28715.6 1056.01 10
-6 -4 3 31371.6 960.833 8
-6 -4 3 32871.9 1208.17 4
6 4 -2 16454.5 543.532 6
6 4 -2 16721 805.091 10
6 4 -2 16927.1 869.678 11
-6 -4 2 16877.3 865.45 4
-6 -4 1 30972.4 734.324 6
6 4 -1 32309.3 765.403 6
6 4 -1 30345.7 1084.1 11
6 4 -1 32725.1 1116.8 10
-6 -4 1 31094.7 1118.78 4
-6 -4 0 21907.2 647.166 6
6 4 0 22439.1 663.877 6
6 4 0 21361.5 861.94 11
6 4 0 22945.9 937.223 10
-6 -4 0 21929.5 904.404 4
-6 -4 -1 851.238 153.487 7
-6 -4 -1 796.046 157.48 6
-6 -4 -1 426.664 207.731 4
6 4 1 407.274 162.145 6
6 4 1 493.167 196.348 11
6 4 1 597.164 218.584 10
6 4 1 541.105 132.317 8
-6 -4 -2 7924.05 532.012 4
-6 -4 -2 7108.68 424.222 6
6 4 2 7545.75 545.088 1
6 4 2 8136.63 480.08 11
6 4 2 8127.9 573.047 10
6 4 2 7472.96 474.118 9
6 4 2 7296.06 386.13 8
-6 -4 -3 2644.35 287.964 6
-6 -4 -3 3113.36 350.089 4
6 4 3 2936.66 288.439 11
6 4 3 2581.69 336.827 1
6 4 3 2572.95 344.912 10
6 4 3 3024.72 294.833 9
6 4 4 1820.51 261.123 4
-6 -4 -4 2243.25 298.015 4
-6 -4 -4 2109.45 334.965 5
6 4 4 1928.35 213.339 11
6 4 4 2347.77 328.092 10
6 4 4 2353.95 347.707 1
6 4 5 877.52 183.791 4
-6 -4 -5 894.706 206.345 4
-6 -4 -5 389.622 194.731 5
6 4 5 800.423 130.529 11
6 4 5 727.552 251.905 10
6 4 5 846.747 230.682 1
-6 -4 -6 16669.6 885.32 5
6 4 6 14377.1 821.231 1
6 4 6 15987.8 777.997 10
6 4 6 15440 620.328 4
6 4 6 15492.8 546.511 7
-6 -4 -7 6340.35 580.62 5
6 4 7 5095.81 456.532 10
6 4 7 4973.87 525.65 1
6 4 7 5202.64 358.679 7
6 4 8 1949.7 377.216 1
-6 -4 -8 1640.79 353.204 5
-6 -4 -9 17368.4 1036.51 5
6 4 9 14403.1 948.211 1
-6 -5 7 5433.58 637.545 4
-6 -5 7 4476.92 525.452 8
-6 -5 6 1668.08 397.209 4
6 5 -6 1098.02 352.522 11
-6 -5 6 1990.94 327.752 8
-6 -5 5 4811.22 560.533 4
6 5 -5 4901.22 588.271 11
-6 -5 5 6038.01 511.181 8
6 5 -4 34064.5 1395.84 11
-6 -5 4 30355.8 1019.86 8
-6 -5 4 30629.4 1286.88 4
6 5 -3 9265.94 702.451 11
-6 -5 3 8549.23 504.29 8
-6 -5 3 7704.03 652.495 4
6 5 -2 17559.4 439.045 6
6 5 -2 19744.8 976.263 11
-6 -5 2 18158.9 936.372 4
6 5 -1 95842.8 1068.91 6
6 5 -1 98074.5 2050.37 11
6 5 -1 102237 2042.1 10
-6 -5 1 98054.4 2070.22 4
-6 -5 0 78936.7 1038.9 6
6 5 0 79618.9 1757.72 11
6 5 0 80119 1796.63 10
-6 -5 0 80690.5 1819.3 4
-6 -5 -1 7052.01 353.564 6
6 5 1 6640.79 505.699 11
6 5 1 6156.7 526.144 10
-6 -5 -1 6228.42 407.316 7
-6 -5 -1 7665 559.811 4
-6 -5 -2 22606.7 686.027 6
6 5 2 24178.3 886.864 11
6 5 2 24722.7 1007.41 10
6 5 2 24117.8 587.149 8
-6 -5 -2 21718.1 704.436 7
-6 -5 -2 23843.9 937.976 4
-6 -5 -3 1414.02 224.507 6
-6 -5 -3 1306.44 273.107 4
6 5 3 1568.87 287.469 1
6 5 3 1626.18 251.374 11
6 5 3 1166.1 286.918 10
6 5 3 1129.65 147.981 8
-6 -5 -4 -21.4688 124.907 6
-6 -5 -4 88.0199 161.54 4
-6 -5 -4 148.078 179.643 5
6 5 4 -26.2047 115.518 11
6 5 4 121.307 183.224 10
6 5 4 116.907 166.353 1
-6 -5 -5 25262.9 864.226 4
-6 -5 -5 25060.4 1045.79 5
6 5 5 25480.1 1056.61 1
6 5 5 24901.9 760.724 11
6 5 5 24041.8 988.685 10
6 5 5 23679.2 839.698 4
-6 -5 -6 25215.1 825.65 4
-6 -5 -6 25226.2 1083.6 5
6 5 6 26864.7 1117.39 1
6 5 6 25884.5 826.386 4
6 5 6 26543.5 799.067 7
-6 -5 -7 13520.3 565.021 4
-6 -5 -7 12924.1 814.421 5
6 5 7 14302.5 863.166 1
6 5 7 12291.3 577.79 7
-6 -5 -8 5589 576.302 5
6 5 8 5373.73 559.315 1
6 5 8 6119.94 442.805 7
6 5 9 1552.53 340.786 1
-6 -5 -9 1338.11 327.766 5
6 5 9 1451.86 252.436 7
6 5 10 1997.02 378.211 1
-6 -5 -10 1416.76 386.043 5
-6 -6 5 -344.491 330.395 4
6 6 -5 94.4763 221.43 11
-6 -6 4 1359.88 362.617 4
6 6 -4 1464.49 363.339 11
-6 -6 3 -196.567 252.607 4
6 6 -3 277.006 264.037 11
-6 -6 2 -5.32578 209.31 4
6 6 -2 -390.545 258.748 11
-6 -6 1 3151.68 418.571 4
6 6 -1 3679.01 455.503 11
-6 -6 0 344.97 251.602 4
6 6 0 401.217 237.482 11
-6 -6 -1 1368.24 127.12 6
-6 -6 -1 1548.94 307.611 4
6 6 1 1233.45 280.548 11
-6 -6 -2 2506.38 213.819 6
-6 -6 -2 2290.12 345.338 4
6 6 2 2759.29 349.935 11
-6 -6 -3 8253.13 424.566 6
6 6 3 8349.41 560.14 11
-6 -6 -3 9597.46 616.888 4
-6 -6 -4 14696.5 634.179 6
-6 -6 -4 15227.4 814.788 5
6 6 4 16026.7 838.768 1
6 6 4 16340.4 740.323 11
6 6 4 16033 430.49 8
-6 -6 -4 15990.6 766.254 4
-6 -6 -5 685.367 225.637 4
-6 -6 -5 722.388 241.205 5
6 6 5 803.413 200.451 11
6 6 5 700.606 233.472 1
-6 -6 -6 10204 571.576 4
-6 -6 -6 10339.1 712.399 5
6 6 6 11554.7 756.679 1
6 6 6 11036.1 559.766 11
-6 -6 -7 16153.8 662.773 4
-6 -6 -7 16389.8 918.018 5
6 6 7 18253.8 962.359 1
6 6 7 16428.4 725.908 7
-6 -6 -8 5783.3 599.344 5
6 6 8 5872.15 571.61 1
6 6 8 4604.83 416.445 7
6 6 9 1260.59 270.379 7
6 6 9 743.083 278.049 1
-6 -6 -9 1306.8 361.344 5
6 6 10 3351.93 514.585 1
-6 -6 -10 3261.52 508.042 5
-6 -7 4 3785.89 571.626 4
6 7 -3 13073.7 949.626 11
-6 -7 3 12791 914.955 4
-6 -7 2 536.951 298.318 4
6 7 -2 -19.4336 270.627 11
-6 -7 1 1135.22 352.825 4
6 7 -1 2049.6 387.854 11
6 7 0 9032.61 693.559 11
-6 -7 0 7774.72 677.403 4
-6 -7 -1 1069.1 315.702 4
6 7 1 429.119 231.527 11
-6 -7 -2 307.457 233.395 4
6 7 2 16.5636 205.687 11
-6 -7 -3 3054.18 401.15 4
6 7 3 2349.23 332.4 11
-6 -7 -4 719.029 245.974 4
-6 -7 -4 431.28 187.167 5
6 7 4 462.558 210.098 11
-6 -7 -5 1026.94 285.567 4
-6 -7 -5 873.929 259.705 5
6 7 5 1042.7 255.892 1
6 7 5 1165.09 270.513 11
-6 -7 -6 2440.45 320.313 4
-6 -7 -6 2345.59 360.652 5
6 7 6 2102.24 302.176 11
6 7 6 1640.05 333.123 1
-6 -7 -7 -64.28 135.755 4
-6 -7 -7 -60.078 184.523 5
6 7 7 174.899 235.281 1
6 7 8 3333.71 381.897 7
-6 -7 -8 3235.12 461.914 5
6 7 8 3338.06 454.724 1
6 7 9 1644.35 301.555 7
-6 -7 -9 1880.05 359.108 5
6 7 9 2502.37 434.971 1
6 7 10 160.089 206.523 1
-6 -7 -10 546.702 306.753 5
-6 -8 2 152.584 319.554 4
6 8 -2 -302.792 293.346 11
-6 -8 1 4133.69 562.702 4
6 8 -1 4433.07 595.479 11
-6 -8 0 4334.89 551.59 4
6 8 0 4178.98 540.031 11
6 8 1 7685.71 679.637 11
-6 -8 -1 7756.96 687.572 4
-6 -8 -2 4693.47 538.375 4
6 8 2 4803.63 522.348 11
-6 -8 -3 3269.71 437.271 4
6 8 3 2862.25 431.104 11
-6 -8 -4 944.388 250.291 4
-6 -8 -4 1304.36 273.873 5
6 8 4 1823.1 332.311 11
-6 -8 -5 7381.86 614.128 5
6 8 5 8060.77 628.075 11
-6 -8 -5 8910.3 654.253 4
-6 -8 -6 1009.18 260.39 4
-6 -8 -6 1028.47 294.391 5
6 8 6 816.723 261.274 1
6 8 6 498.875 212.085 11
-6 -8 -7 3425.29 378.15 4
-6 -8 -7 4369.57 507.164 5
6 8 7 4451.09 514.891 1
-6 -8 -8 7653.06 674.854 5
6 8 8 7958.04 691.543 1
6 8 9 2824.22 408.458 7
-6 -8 -9 2035.16 404.32 5
6 8 9 2801.43 429.908 1
6 8 10 1695.67 339.533 7
6 8 10 1844.59 375.151 1
-6 -9 0 555.763 374.575 4
6 9 0 420.885 332.854 11
-6 -9 -1 1926.76 418.864 4
6 9 1 1458.12 364.688 11
6 9 2 9358.23 785.777 11
-6 -9 -2 10076.3 809.942 4
-6 -9 -3 484.432 255.227 4
6 9 3 724.267 279.468 11
-6 -9 -4 642.967 274.062 4
-6 -9 -4 520.892 215.013 5
6 9 4 1137 318.333 11
-6 -9 -5 973.512 317.066 4
-6 -9 -5 1343.8 312.774 5
6 9 5 1089.57 285.153 11
-6 -9 -6 229.009 202.581 4
-6 -9 -6 -49.4446 198.502 5
6 9 6 109.008 199.734 11
-6 -9 -7 9370.26 725.449 5
-6 -9 -7 10280.5 681.506 4
-6 -9 -8 6238.71 626.952 5
6 9 8 7284.17 675.707 1
-6 -9 -9 5713.04 603.069 5
6 9 9 4412.59 535.306 1
6 9 10 6631.36 672.149 1
6 10 3 9004.34 806.479 11
-6 -10 -3 9877.17 832.192 4
-6 -10 -4 963.567 261.672 5
6 10 4 913.378 290.016 11
-6 -10 -5 1175.01 352.171 4
-6 -10 -5 1323.53 301.036 5
6 10 5 1425.34 359.748 11
-6 -10 -6 1053.02 272.58 4
-6 -10 -6 1907.52 371.442 5
6 10 6 1390.17 349.605 11
-6 -10 -6 1787.4 375.463 9
-6 -10 -7 -139.638 191.708 5
-6 -10 -7 -48.9896 269.361 9
-6 -10 -8 -25.5168 227.541 5
-6 -10 -9 118.773 208.207 5
-7 5 9 4145.85 539.573 3
-7 5 8 1151.66 342.121 3
-7 5 8 916.525 288.943 7
-7 5 7 -80.3029 207.052 7
-7 5 7 -30.227 258.207 3
-7 5 6 14.3519 193.821 7
7 -5 -6 171.47 280.345 6
-7 5 6 -521.129 308.412 3
7 -5 -5 3025.07 486.386 6
-7 5 5 3031.25 479.794 3
7 -5 -4 5696.53 619.096 6
-7 5 4 6146.64 661.085 3
7 -5 -3 3263.88 508.684 6
-7 5 3 3299.55 508.618 3
7 -5 -2 21212.4 1170.61 6
-7 5 2 20361.2 1175 3
7 -5 -1 6356.43 654.659 6
-7 5 1 7065.82 722.06 3
7 -5 0 1010.38 370.536 6
-7 5 0 267.102 284.607 3
-7 4 9 1266.51 316.138 3
7 -4 -8 630.407 341.082 6
-7 4 8 215.977 250.607 2
-7 4 8 617.227 256.665 3
7 -4 -7 -154.011 252.502 6
-7 4 7 511.564 307.905 2
-7 4 7 171.002 222.257 3
7 -4 -6 1211.05 333.028 6
-7 4 6 1278.82 317.098 3
-7 4 6 1165.65 251.824 7
-7 4 5 3149.94 348.411 7
7 -4 -5 3536.55 494.071 6
-7 4 5 3897.29 508.911 3
-7 4 4 219.387 142.432 7
7 -4 -4 183.566 273.611 6
-7 4 4 233.211 227.73 3
7 -4 -3 6791.47 652.72 6
-7 4 3 5784.55 597.273 3
7 -4 -2 300.351 257.256 6
-7 4 2 -252.694 314.968 3
7 -4 -1 1738.75 368.89 6
-7 4 1 1393.01 383.538 3
7 -4 0 5535.93 624.268 6
-7 4 0 5641.99 630.508 3
7 -4 1 409.421 229.885 6
-7 4 -1 824.484 348.51 3
7 -4 2 -57.0059 238.851 6
-7 4 -2 1157.81 375.916 3
-7 4 -3 1673.81 429.074 3
7 -3 -8 937.43 327.935 6
-7 3 8 1049.14 331.372 2
-7 3 8 969.702 262.625 3
7 -3 -7 7416.88 685.662 6
-7 3 7 7769 690.522 2
-7 3 7 7297.55 614.362 3
7 -3 -6 2193.51 387.937 6
-7 3 6 2805.92 431.851 2
-7 3 6 1366.69 305.332 3
-7 3 5 8396.12 670.594 2
7 -3 -5 7759.18 677.508 6
-7 3 5 7806.59 636.088 3
-7 3 5 8653.1 547.695 7
-7 3 4 5839.93 555.728 2
7 -3 -4 5987.01 571.814 6
-7 3 4 5608.98 564.245 3
-7 3 4 6012.93 424.568 7
7 -3 -3 684.725 259.528 6
-7 3 3 754.643 270.059 3
7 -3 -2 3999.03 486.67 6
-7 3 2 3011.42 311.129 5
-7 3 2 4423.31 533.175 3
7 -3 -1 64.4094 201.946 6
-7 3 1 101.146 128.58 5
7 -3 -1 102.194 122.021 1
-7 3 1 354.813 244.424 3
-7 3 0 91.93 119.36 5
-7 3 0 -117.826 213.428 3
7 -3 0 184.845 144.588 1
7 -3 1 684.27 282.148 6
-7 3 -1 290.548 178.792 5
-7 3 -1 391.378 284.946 3
7 -3 1 627.323 202.752 1
7 -3 2 2150.5 324.015 1
7 -3 2 1936.15 395.906 6
-7 3 -2 2150.06 311.482 5
-7 3 -2 2608.71 458.807 3
7 -3 3 557.544 229.231 1
7 -3 3 352.325 237.542 6
-7 3 -3 761.139 221.226 5
-7 3 -3 111.96 241.131 3
7 -3 4 -81.2235 207.081 1
-7 3 -4 240.062 254.505 3
7 -3 5 80.967 177.142 1
-7 3 -5 -578.53 366.699 3
7 -2 -9 3799.21 532.961 6
7 -2 -8 16267.2 996.292 6
-7 2 8 17813.3 1069.34 2
-7 2 8 17005.1 840.924 3
7 -2 -7 13440.2 883.683 6
-7 2 7 13181.8 890.419 2
-7 2 7 12417.3 732.924 3
7 -2 -6 4634.31 513.138 6
-7 2 6 4169.55 508.123 2
-7 2 6 5156.39 503.199 3
7 -2 -5 1121.49 292.439 6
-7 2 5 1145.34 289.29 2
-7 2 5 829.14 281.82 3
7 -2 -4 1942.38 328.479 6
-7 2 4 1514 230.643 1
-7 2 4 1381.18 272.529 2
-7 2 4 1492.83 330.742 3
-7 2 3 8311.67 607.194 2
7 -2 -3 8648.24 669.959 6
-7 2 3 7831.86 478.435 1
-7 2 3 7721.49 404.169 7
-7 2 2 20001.4 763.711 1
-7 2 2 20427.5 890.141 2
7 -2 -2 19757.5 968.834 6
7 -2 -1 13812.9 821.448 6
-7 2 1 16030 712.4 5
7 -2 -1 13735.6 655.391 1
7 -2 0 7621.96 630.77 6
-7 2 0 6950.93 488.139 5
7 -2 0 7666.81 518.476 1
7 -2 1 16652.2 952.823 6
-7 2 -1 18089.8 787.688 5
7 -2 1 16842.4 791.329 1
7 -2 2 1537.32 269.251 1
7 -2 2 1889.57 382.307 6
-7 2 -2 1506.73 269.172 5
7 -2 3 81.5125 161.482 1
7 -2 3 668.696 302.382 6
-7 2 -3 737.989 208.862 5
7 -2 4 2769.91 399.827 1
-7 2 -4 2550.54 361.559 5
7 -2 5 6050.96 600.034 1
-7 2 -5 6075.91 579.741 5
7 -2 6 1786.68 345.845 1
-7 2 -6 1590.95 336.327 5
7 -1 -9 2605.54 460.703 6
-7 1 9 2108.12 425.537 8
7 -1 -8 1617.62 344.712 6
-7 1 8 1076.11 319.9 2
-7 1 8 1086.33 320.841 8
7 -1 -7 1021.9 290.8 6
-7 1 7 862.752 293.203 2
-7 1 7 1155.78 249.081 3
7 -1 -6 -93.3198 213.867 6
-7 1 6 343.072 244.119 2
-7 1 6 -80.2234 176.586 3
7 -1 -5 12921 794.919 6
-7 1 5 12033.3 780.033 2
-7 1 5 10805.8 674.519 3
7 -1 -4 2713.95 388.353 6
-7 1 4 1657.23 303.245 2
7 -1 -3 10.5136 172.659 6
-7 1 3 124.108 168.32 2
-7 1 2 1126.45 136.8 7
7 -1 -2 547.307 180.694 6
-7 1 2 948.079 226.399 2
7 -1 -1 164.446 200.051 6
-7 1 1 123.715 134.215 2
-7 1 0 32530.5 977.352 2
7 -1 0 32782 1214.47 6
-7 1 0 33203.7 1063.39 5
7 -1 0 32792.5 1060.91 1
7 -1 1 2602.27 408.436 6
-7 1 -1 2292.9 305.66 5
7 -1 1 2445.94 332.143 1
7 -1 2 4634.78 504.912 6
-7 1 -2 4009.42 412.75 5
7 -1 2 4242.71 423.287 1
7 -1 3 -128.594 181.117 1
7 -1 3 -161.628 268.478 6
-7 1 -3 -61.3317 143.707 5
7 -1 4 2245.12 362.008 1
-7 1 -4 1589 283.981 5
7 -1 5 -17.3994 199.412 1
-7 1 -5 94.2945 186.733 5
7 -1 6 4830.83 565.727 1
-7 1 -6 4812.23 533.915 5
-7 1 -7 7972.43 724.65 5
7 0 -10 17167.4 1061.29 6
-7 0 10 19108.3 1079.16 4
7 0 -9 4073.53 526.349 6
-7 0 9 3805.89 487.092 4
-7 0 9 2929.57 507.986 8
7 0 -8 1331.92 298.71 6
-7 0 8 575.235 290.932 4
-7 0 8 934.984 326.828 2
-7 0 8 1008.76 296.342 8
-7 0 7 6104.98 599.722 4
7 0 -7 5549.2 545.61 6
-7 0 7 6102.75 625.775 2
-7 0 7 6322.1 459.035 3
-7 0 7 6252.68 609.015 8
-7 0 6 9056.95 693.361 4
7 0 -6 8769.58 655.525 6
-7 0 6 9840.08 749.485 2
-7 0 6 8988.05 567.406 3
7 0 -5 2309.68 352.354 6
-7 0 5 2579.42 388.565 4
-7 0 4 15113.5 841.737 4
7 0 -4 14184.5 776.577 6
-7 0 4 15309.8 843.774 2
7 0 -3 2974.34 359.118 6
-7 0 3 3322.3 413.885 4
-7 0 3 3891.15 429.902 2
7 0 -2 16355.8 807.233 6
-7 0 2 17098.4 795.029 2
7 0 -1 13937 747.19 6
-7 0 1 14039.7 687.228 2
7 0 0 10868.1 674.573 6
-7 0 0 11539.4 591.552 2
7 0 0 10171.4 608.75 1
-7 0 -1 26114.5 805.979 2
7 0 1 25919.6 1063.47 6
-7 0 -1 25949.4 975.438 5
7 0 1 27683.7 1010.61 1
-7 0 -2 18512 611.214 2
7 0 2 18903.8 940.347 6
-7 0 -2 18735.7 850.272 5
7 0 2 18335.9 855.989 1
7 0 3 11248.5 768.848 6
-7 0 -3 9799.41 644.505 5
7 0 3 9140.48 633.577 1
7 0 4 -176.15 194.578 1
-7 0 -4 265.055 184.646 5
7 0 5 4165.43 476.823 1
-7 0 -5 4142.22 469.825 5
7 0 6 2923.2 444.361 1
-7 0 -6 2682.8 434.241 5
7 0 7 20.6732 212.25 1
-7 0 -7 -4.80077 208.545 5
-7 -1 10 2096.48 411.185 4
7 1 -9 -101.912 245.379 6
-7 -1 9 -26.1949 230.327 4
7 1 -8 320.724 228.336 6
-7 -1 8 -12.5229 255.973 4
7 1 -7 398.223 207.03 6
-7 -1 7 504.771 284.855 4
-7 -1 7 187.881 226.18 8
7 1 -6 302.831 225.561 6
-7 -1 6 670.843 266.501 4
-7 -1 6 319.521 160.192 3
-7 -1 6 552.823 249.87 8
7 1 -5 202.096 191.989 6
-7 -1 5 -109.386 223.323 4
7 1 -4 4187.15 423.233 6
-7 -1 4 4284.74 493.139 4
-7 -1 3 16227.7 867.238 4
7 1 -3 16751.2 787.769 6
-7 -1 2 19612.8 934.841 4
7 1 -2 19852.9 846.596 6
7 1 -1 1269.46 257.533 6
-7 -1 1 1822.26 348.196 4
-7 -1 0 22810.5 960.595 4
7 1 0 23710.9 940.458 6
7 1 0 23101.2 923.832 1
7 1 1 33703.5 1150.06 6
-7 -1 -1 34523.4 942.331 2
7 1 1 34325.5 1137.62 1
-7 -1 -2 5546.27 351.5 2
7 1 2 4824.14 472.029 6
-7 -1 -2 5421.98 485.145 5
7 1 2 4539.29 441.332 1
-7 -1 -3 7059.01 333.511 2
7 1 3 7331.96 606.799 6
-7 -1 -3 6530.7 534.644 5
7 1 3 6468.87 287.63 11
7 1 3 6971.12 554.369 1
-7 -1 -4 24418.6 1043.91 5
7 1 4 25365.3 1077.54 1
7 1 5 869.268 263.225 1
-7 -1 -5 537.872 219.968 5
7 1 6 5426.88 561.651 1
-7 -1 -6 6442.36 618.201 5
-7 -1 -7 13550.8 909.56 5
7 1 7 12877.3 741.719 10
7 1 7 12481.1 888.824 1
-7 -1 -8 14325.9 965.421 5
-7 -2 9 29877.9 1362.78 4
7 2 -8 296.544 180.151 6
-7 -2 8 -30.9878 292.203 4
-7 -2 8 327.851 252.438 8
7 2 -7 314.362 181.922 6
-7 -2 7 893.281 298.674 4
7 2 -7 263.175 178.515 10
-7 -2 7 487.235 239.735 8
7 2 -6 437.737 216.464 6
-7 -2 6 820.911 295.962 4
7 2 -6 966.878 246.526 10
-7 -2 6 96.6432 188.934 8
7 2 -5 262.798 170.872 6
-7 -2 5 160.017 234.214 4
7 2 -5 -157.061 235.108 10
-7 -2 5 -21.6859 187.929 8
7 2 -4 3717.5 379.307 6
-7 -2 4 3692.75 465.701 4
-7 -2 3 14446.3 832.353 4
7 2 -3 14792.5 693.241 6
-7 -2 2 37970.9 1284.14 4
7 2 -2 36053.1 1071.3 6
7 2 -1 5291.77 429.665 6
-7 -2 1 5491.5 513.945 4
7 2 0 1637.25 291.25 6
-7 -2 0 1374.24 297.193 4
-7 -2 -1 8808.97 605.009 4
7 2 1 8808.4 580.885 6
7 2 1 8008.07 571.268 1
7 2 2 1937.13 317.55 6
-7 -2 -2 1284.43 256.06 4
-7 -2 -2 1279.3 273.344 5
7 2 2 1672.84 230.14 11
7 2 2 1883.82 301.15 1
7 2 3 5139.05 486.226 6
-7 -2 -3 5640.61 507.374 5
7 2 3 5900.78 316.915 11
7 2 3 5826.69 522.62 1
7 2 4 2067.74 339.436 1
-7 -2 -4 1588.7 151.075 2
-7 -2 -4 1637.51 318.043 5
7 2 4 1582.64 114.753 11
7 2 4 2193.35 225.571 9
-7 -2 -5 8813.44 661.575 5
7 2 5 8973 682.027 1
-7 -2 -6 9949.49 730.823 5
7 2 6 11417.7 795.801 1
7 2 6 10938.7 709.609 10
-7 -2 -7 5952.4 618.711 5
7 2 7 4833.23 466.699 10
7 2 7 6372.86 637.893 1
-7 -2 -8 13197 929.51 5
7 2 8 13767.2 968.128 1
-7 -3 8 537.018 270.237 4
-7 -3 8 993.811 316.072 8
-7 -3 7 6494.55 653.799 4
-7 -3 7 6007.89 594.77 8
-7 -3 6 10442.7 803.246 4
7 3 -6 10328 616.61 6
7 3 -6 11844.8 731.959 10
-7 -3 6 10495.9 739.852 8
-7 -3 5 15442.4 924.507 4
7 3 -5 15831.4 722.033 6
7 3 -5 15169.1 821.061 10
-7 -3 5 15186.4 830.053 8
-7 -3 4 6554.37 609.091 4
7 3 -4 5545.17 420.491 6
7 3 -4 5421.12 515.579 10
-7 -3 3 26307.4 865.677 6
-7 -3 3 28718.4 1166.94 4
7 3 -3 29914.3 928.032 6
7 3 -3 28986 1123.47 10
-7 -3 2 59235.6 1621.12 4
-7 -3 2 57099.9 1248.87 6
7 3 -2 61609.1 1310.93 6
7 3 -2 61864.7 1629.41 10
-7 -3 1 36227.5 1250.43 4
-7 -3 1 34737.1 990.781 6
7 3 -1 37069.7 1024.93 6
7 3 -1 37123.2 1260.16 10
-7 -3 0 7930.58 595.748 4
-7 -3 0 7308.1 482.739 6
7 3 0 7838.32 499.652 6
7 3 0 8158.56 555.613 11
7 3 0 7993.8 623.166 10
7 3 0 7343.83 478.846 8
-7 -3 0 7668.29 319.815 7
-7 -3 -1 22918.4 957.619 4
7 3 1 21169.8 831.832 6
7 3 1 24093.7 857.408 11
7 3 1 24157 1030.65 10
7 3 1 21141.5 798.402 8
7 3 2 186.41 193.391 6
-7 -3 -2 -83.7552 221.016 4
7 3 2 350.586 159.856 11
7 3 2 331.653 211.968 1
7 3 2 141.037 208.299 10
7 3 2 169.993 172.568 9
-7 -3 -3 38.843 181.527 4
-7 -3 -3 496.621 230.29 5
7 3 3 26.8854 107.83 11
7 3 3 270.972 186.101 10
7 3 3 -57.9025 151.936 1
7 3 3 277.887 147.021 9
-7 -3 -4 11039.1 718.855 5
7 3 4 11943.9 755.389 1
7 3 4 11333.3 411.553 11
7 3 4 10088.9 665.295 10
7 3 4 11181.6 487.563 9
-7 -3 -5 8027.86 289.599 2
-7 -3 -5 8618.13 655.661 5
7 3 5 9486.54 696.319 1
7 3 5 9803.87 666.013 10
-7 -3 -6 12715.3 819.34 5
7 3 6 12867.7 843.151 1
7 3 6 12818.5 753.452 10
7 3 7 529.611 244.224 1
-7 -3 -7 332.95 254.11 5
7 3 7 217.93 162.92 10
7 3 8 831.271 289.697 1
-7 -3 -8 988.618 299.266 5
7 3 8 998.984 250.288 10
-7 -4 8 -320.134 319.798 8
-7 -4 7 2226.57 444.211 4
-7 -4 7 1304.71 310.165 8
-7 -4 6 2213.09 413.008 4
7 4 -6 1669.71 399.246 11
-7 -4 6 1938.78 350.984 8
-7 -4 5 -255.713 273.872 4
7 4 -5 287.249 308.206 11
7 4 -5 588.635 217.196 10
-7 -4 5 236.91 186.667 8
-7 -4 4 6765.9 632.805 4
7 4 -4 5619.97 389.044 6
7 4 -4 6400.67 630.89 11
7 4 -4 5870.89 551.079 10
-7 -4 4 6570.71 510.414 8
-7 -4 3 9887.12 724.335 4
7 4 -3 9276.61 476.861 6
7 4 -3 9462.63 719.615 11
7 4 -3 9157.51 658.488 10
-7 -4 2 9365.05 699.042 4
-7 -4 2 8488.73 453.746 6
7 4 -2 8900.38 462.878 6
7 4 -2 8753.79 665.283 11
7 4 -2 9856.67 672.639 10
-7 -4 1 245.691 112.523 6
7 4 -1 281.16 145.433 6
-7 -4 1 109.272 197.651 4
7 4 -1 295.199 208.466 11
7 4 -1 286.494 206.243 10
-7 -4 0 15592.5 835.846 4
-7 -4 0 17481.5 667.172 6
7 4 0 16477.1 658.871 6
7 4 0 18592.2 854.653 11
7 4 0 16950.3 868.946 10
-7 -4 0 16398.6 578.451 7
-7 -4 -1 41149.9 1298.69 4
-7 -4 -1 41359.8 1063.83 6
7 4 1 40384.6 1071.17 6
7 4 1 42433.2 1204.59 11
7 4 1 44387.7 1397.53 10
7 4 1 41812.6 1031.81 8
-7 -4 -1 41423.2 813.205 7
-7 -4 -2 21922.8 932.487 4
7 4 2 20821.6 952.791 1
7 4 2 20414.7 788.736 11
7 4 2 20589.4 963.289 10
7 4 2 19689.1 721.808 8
-7 -4 -3 55994.2 1438.08 4
-7 -4 -3 56873.7 1580.2 5
7 4 3 51750.1 1535.2 1
7 4 3 53996.6 1178.61 11
7 4 3 52465.7 1520.85 10
7 4 3 51054.8 1216.54 9
-7 -4 -4 34417 1102.3 4
-7 -4 -4 32684.1 1215.72 5
7 4 4 34800.4 1275.83 1
7 4 4 35021.5 869.562 11
7 4 4 33520.6 1220.12 10
7 4 4 32251 883.889 9
-7 -4 -5 11372 627.029 4
-7 -4 -5 10830.4 731.381 5
7 4 5 10962.4 747.237 1
7 4 5 10870.1 416.982 11
7 4 5 12083.2 741.718 10
-7 -4 -6 11631.9 793.036 5
7 4 6 12812.8 834.094 1
7 4 6 10778.2 705.028 10
-7 -4 -7 19840.4 1067.86 5
7 4 7 19355.6 1055.43 1
7 4 7 18751.9 913.465 10
7 4 8 988.153 341.511 1
-7 -4 -8 760.719 288.144 5
7 4 8 618.533 197.611 10
-7 -5 6 10236.1 853.276 4
-7 -5 5 8.81913 279.542 4
7 5 -5 378.54 275.555 11
-7 -5 5 357.614 210.446 8
-7 -5 4 1135.29 356.436 4
7 5 -4 1896.76 392.752 11
-7 -5 4 1807.25 266.158 8
-7 -5 3 2544.64 425.872 4
7 5 -3 3077.71 487.763 11
7 5 -3 2576.3 381.09 10
7 5 -2 4116.38 277.131 6
-7 -5 2 4288.77 496.591 4
7 5 -2 5246.04 553.967 11
7 5 -2 4982.93 515.261 10
-7 -5 1 1343.29 327.604 4
7 5 -1 900.355 161.268 6
7 5 -1 1460.15 310.612 11
7 5 -1 1106.46 270.929 10
-7 -5 0 153.406 153.738 7
-7 -5 0 -281.944 249.811 4
7 5 0 65.8798 189.275 11
7 5 0 -137.271 240.159 10
-7 -5 -1 222.357 101.733 7
-7 -5 -1 636.748 161.19 6
-7 -5 -1 130.846 200.407 4
7 5 1 156.216 177.83 11
7 5 1 411.89 190.38 10
-7 -5 -2 5033.71 481.214 4
-7 -5 -2 4123.17 350.41 6
7 5 2 5048.75 442.38 11
7 5 2 5061.85 520.344 10
7 5 2 4296.73 307.486 8
-7 -5 -3 1439.83 294.781 4
7 5 3 1573.41 309.883 1
7 5 3 1255.26 257.564 11
7 5 3 1230.08 278.21 10
7 5 3 1287.31 184.323 8
-7 -5 -4 2096.89 327.522 4
-7 -5 -4 2192.93 372.545 5
7 5 4 1881.35 247.26 11
7 5 4 2056.8 339.116 1
7 5 4 1999.46 338.399 10
-7 -5 -5 3424.14 377.668 4
-7 -5 -5 2883.04 414.82 5
7 5 5 3258.81 293.382 11
7 5 5 3616.6 429.73 10
7 5 5 3412.05 442.774 1
-7 -5 -6 134.182 151.346 4
-7 -5 -6 85.3127 217.77 5
7 5 6 0.94569 162.12 10
7 5 6 -52.096 163.854 1
-7 -5 -7 10676.5 789.436 5
7 5 7 11303.5 811.867 1
7 5 8 1037.27 253.813 1
-7 -5 -8 1350.9 335.128 5
7 5 9 4102.08 551.893 1
-7 -5 -9 4490.95 584.316 5
-7 -6 4 1204.89 357.931 4
7 6 -4 901.395 390.105 11
-7 -6 3 862.996 322.798 4
7 6 -3 120.395 240.371 11
7 6 -2 11363.5 836.811 11
-7 -6 2 12469.8 862.43 4
-7 -6 1 4688.12 531.249 4
7 6 -1 5117.1 545.225 11
-7 -6 0 4005.63 492.046 4
7 6 0 3147.71 437.164 11
7 6 1 12189.9 750.466 11
-7 -6 -1 14148.4 833.199 4
-7 -6 -2 3532.77 430.818 4
7 6 2 2006.08 321.775 11
-7 -6 -3 1717.4 320.278 4
7 6 3 1252.19 267.766 11
-7 -6 -4 8900.21 622.85 4
-7 -6 -4 8843.22 672.428 5
7 6 4 8868.41 680.372 1
7 6 4 8187.64 547.196 11
-7 -6 -5 1354.97 273.468 4
-7 -6 -5 1286.61 297.239 5
7 6 5 1281.82 232.708 11
7 6 5 1091.37 276.223 1
-7 -6 -6 1046.66 232.396 4
-7 -6 -6 1636.38 352.686 5
7 6 6 754.267 168.328 11
7 6 6 1271.35 291.913 1
-7 -6 -7 4299.07 517.047 5
7 6 7 6080.59 633.938 1
-7 -6 -8 808.476 329.175 5
7 6 8 298.349 194.513 1
7 6 9 4.01481 211.136 1
-7 -6 -9 688.623 282.87 5
-7 -7 3 913.024 374.939 4
7 7 -3 922.012 319.747 11
-7 -7 2 76.6052 256.581 4
7 7 -2 9.10026 216.495 11
-7 -7 1 3178.3 486.478 4
7 7 -1 3130.34 482.87 11
-7 -7 0 3677.55 504.717 4
7 7 0 4540.66 551.4 11
-7 -7 -1 4836.09 543.565 4
7 7 1 5193.42 548.759 11
-7 -7 -2 1613.4 356.038 4
7 7 2 1788.46 334.038 11
-7 -7 -3 823.165 281.498 4
7 7 3 1497.13 293.768 11
-7 -7 -4 4048.83 474.498 4
-7 -7 -4 5003.98 538.738 5
7 7 4 4204.87 453.438 11
-7 -7 -5 248.375 219.334 4
-7 -7 -5 -109.281 204.132 5
7 7 5 -166.078 195.359 1
7 7 5 56.5721 151.369 11
-7 -7 -6 7814.18 570.231 4
-7 -7 -6 7777.91 680.619 5
7 7 6 8197.3 691.954 1
7 7 6 8396.36 556.881 11
-7 -7 -7 277.022 201.817 5
7 7 7 569.526 237.444 1
-7 -7 -8 700.033 289.228 5
7 7 8 798.581 267.945 1
7 7 9 3563.29 530.53 1
-7 -8 1 1424.51 379.992 4
7 8 -1 1170.41 335.579 11
-7 -8 0 193.545 283.863 4
7 8 0 -164.108 294.182 11
-7 -8 -1 3192.45 510.81 4
7 8 1 2607.61 409.796 11
-7 -8 -2 2529.63 448.024 4
7 8 2 2683.44 427.528 11
-7 -8 -3 988.344 305.361 4
7 8 3 300.44 222.497 11
-7 -8 -4 1853.51 364.716 4
-7 -8 -4 1526.95 318.868 5
7 8 4 1613.3 322.301 11
-7 -8 -5 4899.72 510.014 4
-7 -8 -5 4691.28 537.621 5
7 8 5 4700.72 497.842 11
-7 -8 -6 1623.17 341.169 4
-7 -8 -6 1822.93 374.127 5
7 8 6 2192.28 350.644 11
-7 -8 -7 136.796 183.612 5
7 8 7 412.508 247.355 1
-7 -8 -8 2242.94 405.794 5
7 8 8 1574.2 362.772 1
7 9 1 13727.6 985.817 11
7 9 2 12956.8 927.257 11
-7 -9 -2 13613.3 973.24 4
7 9 3 10399.7 820.14 11
-7 -9 -3 8846.87 770.503 4
-7 -9 -4 2730.33 462.817 4
-7 -9 -4 2403.8 411.347 5
7 9 4 2328.75 401.758 11
-7 -9 -5 974.57 314.775 4
-7 -9 -5 295.997 219.764 5
7 9 5 642.013 275.261 11
-7 -9 -6 229.713 239.863 4
-7 -9 -6 785.671 275.03 5
7 9 6 203.793 204.351 11
-7 -9 -7 5596.76 606.843 5
-7 -9 -8 2827.5 455.199 5
7 9 8 2218.76 420.779 1
-7 -10 -4 5956.21 688.566 4
-7 -10 -4 6653.38 654.143 5
-7 -10 -5 13756 904.8 5
7 10 5 15343.8 1013.76 11
-7 -10 -5 16234.3 1018.8 4
-7 -10 -6 30791.8 1375.22 5
7 10 6 33931.5 1453.37 11
-7 -10 -6 33707.3 1408.65 4
-7 -10 -7 7108.47 678.103 5
-8 4 8 13076.7 916.892 3
-8 4 7 386.901 263.487 3
-8 4 6 691.534 282.216 3
8 -4 -5 755.068 309.247 6
-8 4 5 205.303 250.741 3
8 -4 -4 2702.12 503.147 6
-8 4 4 2918.67 489.705 3
8 -4 -3 5635.94 631.175 6
-8 4 3 3691.13 534.254 3
8 -4 -2 11192.4 875.251 6
-8 4 2 13623.9 994.862 3
8 -4 -1 7488.27 746.864 6
-8 4 1 7359.76 761.719 3
-8 3 8 82.156 211.035 3
8 -3 -7 58.0614 282.47 6
-8 3 7 -162.505 245.419 2
-8 3 7 -275.304 262.725 3
8 -3 -6 264.029 233.387 6
-8 3 6 -173.892 208.002 2
-8 3 6 447.349 284.656 3
-8 3 5 3404.09 476.272 2
8 -3 -5 3296.19 507.628 6
-8 3 5 3960.67 530.319 3
-8 3 4 1535.06 368.355 2
8 -3 -4 959.167 316.607 6
-8 3 4 1681.22 388.813 3
8 -3 -3 1009.91 341.697 6
-8 3 3 1224.73 360.767 3
8 -3 -2 5067.04 587.361 6
-8 3 2 3920.36 380.83 5
-8 3 2 4997.73 584.154 3
8 -3 -1 24181.6 1222.54 6
-8 3 1 24586.8 923.358 5
-8 3 1 24567.1 1265.8 3
8 -3 0 2795.21 473.372 6
-8 3 0 2604.75 475.144 3
8 -3 1 210.396 274.565 6
-8 3 -1 260.303 299.933 3
-8 3 -2 4057.93 597.53 3
8 -2 -8 8901.11 787.346 6
-8 2 7 6778.59 680.894 2
8 -2 -7 5837.11 646.604 6
-8 2 7 5530.56 553.716 3
8 -2 -6 361.691 213.357 6
-8 2 6 771.453 286.468 2
-8 2 6 -8.36043 228.964 3
8 -2 -5 3766.97 506.797 6
-8 2 5 3602.85 495.33 2
-8 2 5 3794.37 492.45 3
8 -2 -4 1514.25 329.303 6
-8 2 4 2333.4 379.809 2
-8 2 4 1512.63 351.986 3
-8 2 3 3928.06 461.273 2
8 -2 -3 4075.31 500.329 6
-8 2 3 3890.2 509.05 3
-8 2 2 849.8 260.559 2
8 -2 -2 667.924 306.031 6
8 -2 -1 9013.23 727.724 6
-8 2 1 9163.29 596.513 5
8 -2 0 25422.1 1222.43 6
-8 2 0 25600.5 997.558 5
8 -2 0 23843.9 975.026 1
8 -2 1 -130.547 286.325 6
-8 2 -1 177.293 166.477 5
8 -2 1 -320.415 166.356 1
8 -2 2 158.669 271.981 6
-8 2 -2 31.7791 169.867 5
8 -2 2 -337.414 243.229 1
8 -2 3 -276.26 201.392 1
8 -2 3 2.73568 240.75 6
-8 2 -3 -53.8693 149.464 5
8 -2 4 26.2034 228.261 1
-8 2 -4 391.102 240.057 5
8 -2 5 1333.54 326.612 1
8 -1 -8 7031.59 698.861 6
8 -1 -7 431.078 284.973 6
-8 1 7 37.7276 266.797 2
-8 1 7 422.058 222.587 3
8 -1 -6 2102.88 398.448 6
-8 1 6 2177.11 404.064 2
-8 1 6 2387.09 352.851 3
-8 1 5 5809.47 588.981 2
8 -1 -5 4858.52 529.947 6
-8 1 5 4211.69 474.635 3
8 -1 -4 3286.58 449.431 6
-8 1 4 3330.89 428.451 2
8 -1 -3 6442.69 587.386 6
-8 1 3 6800.86 589.795 2
8 -1 -2 9421.58 723.165 6
-8 1 2 11213.3 695.498 2
-8 1 1 25750.1 995.685 2
8 -1 -1 25346.8 1141.7 6
-8 1 0 14315.5 700.331 2
8 -1 0 15562.4 918.138 6
-8 1 0 14473.6 766.983 5
8 -1 0 14543.4 774.644 1
8 -1 1 16197.6 966.037 6
-8 1 -1 15545.6 808.63 5
8 -1 1 16375 851.738 1
8 -1 2 9273.87 759.097 6
-8 1 -2 10701.9 703.354 5
8 -1 2 10025.5 696.215 1
8 -1 3 9830.25 806.086 6
-8 1 -3 9037.43 663.462 5
8 -1 3 9618.12 702.871 1
8 -1 4 3298.49 453.079 1
-8 1 -4 3671.28 466.237 5
-8 1 -5 6949.68 654.166 5
8 -1 5 8119.08 719.438 1
-8 1 -6 6262.53 655.778 5
8 0 -9 1270.16 355.963 6
8 0 -8 2166.01 402.238 6
-8 0 8 1485.75 355.946 4
8 0 -7 -292.666 226.315 6
-8 0 7 240.468 292.419 2
-8 0 7 320.722 273.307 4
8 0 -6 -215.82 242.72 6
-8 0 6 -172.477 226.429 2
-8 0 6 253.302 250.996 4
-8 0 6 -93.4341 176.224 3
8 0 -5 2169.53 366.811 6
-8 0 5 2080.55 397.891 2
8 0 -4 7770.54 635.79 6
-8 0 4 8276.37 661.977 2
8 0 -3 33665.1 1266.79 6
-8 0 3 35366.2 1279.57 2
8 0 -2 2849.77 400.549 6
-8 0 2 2354.55 345.601 2
8 0 -1 1927.89 359.702 6
-8 0 1 1894.1 299.74 2
8 0 0 342.64 229.614 6
-8 0 0 271.993 156.739 2
8 0 0 166.096 155.936 1
-8 0 -1 1543.85 236.026 2
8 0 1 1329.92 320.539 6
-8 0 -1 1705.87 298.958 5
8 0 1 853.237 239.99 1
8 0 2 10030.1 755.626 6
-8 0 -2 9517.85 664.447 5
8 0 2 9442.09 677.068 1
8 0 3 1.16397 234.544 6
-8 0 -3 -64.0602 202.495 5
8 0 3 -255.324 194.896 1
8 0 4 255.4 200.519 1
-8 0 -4 135.856 185.191 5
-8 0 -5 14291 895.019 5
8 0 5 14640.6 945.732 1
8 0 6 3248.18 485.538 1
-8 0 -6 4202.72 535.545 5
8 1 -9 369.059 230.454 6
-8 -1 8 16653.8 1060.23 4
8 1 -8 14768.7 914.812 6
-8 -1 8 14843.9 1014.6 8
8 1 -7 2347.37 383.778 6
-8 -1 7 3060.72 485.761 4
8 1 -6 513.786 270.976 6
-8 -1 6 603.542 287.216 4
-8 -1 6 695.905 235.378 3
-8 -1 5 13780.6 889.049 4
8 1 -5 11836.4 757.209 6
-8 -1 4 14793.9 912.41 4
8 1 -4 15570.7 841.386 6
8 1 -3 819.263 226.126 6
-8 -1 3 539.204 262.342 4
-8 -1 2 17441.6 953.079 4
8 1 -2 16215.4 843.215 6
-8 -1 1 13954.9 848.544 4
8 1 -1 13023.6 763.613 6
8 1 0 6778.21 576.195 6
-8 -1 0 7102.8 513.837 2
8 1 1 409.578 247.651 6
-8 -1 -1 69.4731 137.638 2
8 1 1 180.436 185.254 1
-8 -1 -2 2851.68 272.883 2
8 1 2 2351.89 390.61 6
-8 -1 -2 3156.44 406.823 5
8 1 2 3158.36 416.107 1
8 1 3 5318.87 557.002 6
-8 -1 -3 4972.25 519.989 5
8 1 3 6537.69 587.438 1
-8 -1 -4 3054.94 435.055 5
8 1 4 2949.15 414.816 1
-8 -1 -5 8326.41 689.096 5
8 1 5 8604.02 715.381 1
8 1 6 -6.31039 214.455 1
-8 -1 -6 15.5492 206.927 5
-8 -1 -7 148.581 263.999 5
-8 -2 8 688.593 262.369 8
8 2 -7 2274.31 365.519 6
-8 -2 7 3179.04 508.719 4
8 2 -7 2051.94 343.811 10
-8 -2 7 2635.6 448.676 8
8 2 -6 5024.88 497.387 6
-8 -2 6 5652.08 617.534 4
8 2 -6 6666.26 612.137 10
-8 -2 5 11608.6 846.738 4
8 2 -5 11408.9 708.393 6
8 2 -4 3019.44 374.644 6
-8 -2 4 3783.78 501.517 4
8 2 -3 1266.89 293.547 6
-8 -2 3 536.75 253.434 4
8 2 -2 3518.8 406.401 6
-8 -2 2 3245.62 472.303 4
8 2 -1 4917.53 470.554 6
-8 -2 1 5696.09 572.074 4
-8 -2 0 17741.2 932.364 4
8 2 0 15293.2 800.514 6
-8 -2 -1 8444.82 652.704 4
8 2 1 9224.1 646.732 6
8 2 1 8614.39 639.029 1
8 2 2 33994.8 1243.5 6
-8 -2 -2 31788.6 1219.78 5
8 2 2 31504.9 1214.84 1
8 2 2 31202.4 897.558 11
8 2 3 12206.7 796.345 6
-8 -2 -3 13042.2 531.336 2
-8 -2 -3 12348.3 786.899 5
8 2 3 13026.1 816.477 1
-8 -2 -4 443.056 244.913 5
8 2 4 293.007 218.409 1
8 2 5 -76.2331 171.325 1
-8 -2 -5 310.709 249.015 5
8 2 6 976.973 288.514 1
-8 -2 -6 820.791 312.901 5
8 2 6 647.591 264.475 10
8 2 7 -37.6554 204.853 1
-8 -2 -7 91.4245 198.587 5
8 2 7 -366.486 247.963 10
-8 -3 7 3114.36 510.225 4
-8 -3 7 3254.89 449.727 8
-8 -3 6 6127.95 654.216 4
8 3 -6 6606.76 607.727 10
-8 -3 6 5440.89 553.912 8
8 3 -5 -28.9338 144.51 6
-8 -3 5 579.469 323.174 4
8 3 -5 172.54 193.367 10
8 3 -4 276.154 174.877 6
-8 -3 4 -155.831 258.918 4
8 3 -4 198.924 231.206 10
8 3 -3 977.76 228.285 6
8 3 -3 922.498 270.621 10
8 3 -2 6080.53 469.852 6
-8 -3 2 6053.83 599.848 4
8 3 -2 6475.68 598.701 10
-8 -3 1 10358 749.285 4
8 3 -1 10176.6 622.518 6
8 3 -1 11186.1 783.359 10
-8 -3 0 6432.57 594.698 4
8 3 0 6522.99 516.696 6
8 3 0 6914.3 538.083 11
-8 -3 -1 23385.9 1052.92 4
8 3 1 23837.3 966.713 6
8 3 1 23473.8 903.521 11
-8 -3 -2 29638.7 1163.43 4
8 3 2 28377.4 1097.32 6
8 3 2 29307.6 1197.04 1
8 3 2 28503.5 910.249 11
8 3 2 31621.1 1272.7 10
-8 -3 -3 20848.4 958.233 4
-8 -3 -3 23060.3 1075.28 5
8 3 3 20918.2 1040.73 1
8 3 3 22293 725.184 11
8 3 3 21393.3 1049.62 10
-8 -3 -4 7046.76 633.03 5
8 3 4 7607.25 652.872 1
8 3 4 6162.1 579.322 10
-8 -3 -5 5408.37 571.138 5
8 3 5 5885.56 575.901 10
8 3 5 5177.85 556.748 1
8 3 6 141.131 190.08 1
-8 -3 -6 506.397 247.774 5
8 3 6 198.944 209.956 10
8 3 7 3553.49 500.054 1
-8 -3 -7 4346.6 561.084 5
8 3 7 3024.51 424.958 10
-8 -4 7 6243.08 618.609 8
-8 -4 6 5042.74 624.147 4
8 4 -6 3650.87 452.545 10
-8 -4 6 4078.27 498.018 8
-8 -4 5 6538.98 680.468 4
8 4 -5 6227.66 691.767 11
8 4 -5 5697.89 560.732 10
-8 -4 4 2441.93 430.348 4
8 4 -4 2663.2 480.815 11
8 4 -4 1925.48 374.842 10
8 4 -3 3460.41 341.551 6
-8 -4 3 4304.48 544.182 4
8 4 -3 3254.31 491.855 11
8 4 -3 3653.27 467.794 10
-8 -4 2 8740.91 724.79 4
8 4 -2 7836.84 498.543 6
8 4 -2 8665.51 704.138 11
8 4 -2 9394.5 720.07 10
-8 -4 1 10477.6 761.801 4
8 4 -1 9242.53 550.174 6
8 4 -1 9244.38 676.239 11
8 4 -1 10945.5 768.029 10
8 4 0 435.666 165.448 6
-8 -4 0 1303.84 326.059 4
8 4 0 1159.52 267.549 11
8 4 0 1051.68 290.766 10
8 4 1 588.344 218.041 6
-8 -4 -1 493.014 228.063 4
8 4 1 452.71 218.7 11
8 4 1 365.323 237.557 10
-8 -4 -2 177.129 237.203 4
8 4 2 617.757 199.102 11
8 4 2 181.35 218.971 10
-8 -4 -3 337.788 223.773 4
-8 -4 -3 -329.624 235.902 5
8 4 3 146.206 156.072 11
8 4 3 79.8109 191.242 1
8 4 3 45.8774 187.734 10
-8 -4 -4 1056.47 296.616 4
-8 -4 -4 1380.09 328.431 5
8 4 4 1429.1 318.874 10
8 4 4 2211.12 401.6 1
-8 -4 -5 102.253 193.765 5
8 4 5 206.531 202.299 10
8 4 5 5.74983 206.467 1
-8 -4 -6 7316.33 682.064 5
8 4 6 8704.79 740.141 1
8 4 6 8973.74 709.97 10
-8 -4 -7 15822.9 1013.6 5
8 4 7 13669.7 961.325 1
8 4 7 15095 896.346 10
8 4 8 547.512 241.224 10
-8 -5 4 13367.8 964.383 4
8 5 -4 13862 979.315 11
8 5 -4 13575 867.952 10
-8 -5 3 12198.5 884.757 4
8 5 -3 12939.4 916.237 11
8 5 -3 13422.6 865.225 10
-8 -5 2 8669.58 738.197 4
8 5 -2 8436.8 703.85 11
8 5 -2 9170.11 732.286 10
-8 -5 1 16844.1 992.241 4
8 5 -1 16219.6 647.123 6
8 5 -1 16190.9 934.107 11
8 5 -1 17968.2 999.291 10
-8 -5 0 41881.1 1489.62 4
8 5 0 44300.4 1117.47 6
8 5 0 43343.4 1436.57 11
8 5 0 41641.1 1500.9 10
-8 -5 -1 7670.76 643.743 4
8 5 1 6344.88 536.914 11
8 5 1 7324.34 650.683 10
-8 -5 -2 14822.2 857.989 4
8 5 2 16068.3 798.812 11
8 5 2 15922.7 938.66 10
-8 -5 -3 18548 936.355 4
8 5 3 18980.1 1018.24 1
8 5 3 19060.8 812.72 11
8 5 3 17717.7 986.374 10
-8 -5 -4 7416.3 588.311 4
-8 -5 -4 7555.4 658.079 5
8 5 4 7493.2 670.187 1
8 5 4 6891.89 461.537 11
8 5 4 7753.19 666.63 10
-8 -5 -5 10338.9 677.971 4
-8 -5 -5 10957.1 798.676 5
8 5 5 11101.3 816.375 1
8 5 5 10852 778.598 10
-8 -5 -6 8888.42 605.462 4
-8 -5 -6 9200.49 759.525 5
8 5 6 9506.84 789.653 1
8 5 6 10863.4 778.52 10
-8 -5 -7 4896.77 597.289 5
8 5 7 4994.78 535.421 10
8 5 7 4901.2 592.348 1
-8 -6 3 1258.24 393.843 4
8 6 -3 1570.12 385.003 11
-8 -6 2 7.70603 265.488 4
8 6 -2 700.462 293.903 11
-8 -6 1 6839.39 666.681 4
8 6 -1 6583.19 641.644 11
8 6 0 8563.87 691.71 11
8 6 0 9436.12 750.411 10
-8 -6 0 10341 791.351 4
-8 -6 -1 1557.4 360.569 4
8 6 1 1895.41 349.042 11
8 6 1 1908.37 388.505 10
-8 -6 -2 -236.115 285.052 4
8 6 2 -152.737 216.002 11
8 6 2 196.871 258.448 10
-8 -6 -3 3769.27 452.356 4
8 6 3 4061.86 426.938 11
8 6 3 3809.7 493.664 10
-8 -6 -4 15168.1 859.101 4
-8 -6 -4 15131.5 933.568 5
8 6 4 16145.9 977.109 1
8 6 4 15668.4 765.917 11
8 6 4 17106.2 992.713 10
-8 -6 -5 362.85 207.432 4
-8 -6 -5 700.585 307.752 5
8 6 5 455.009 266.918 1
-8 -6 -6 -109.442 201.721 4
-8 -6 -6 158.534 227.571 5
8 6 6 66.4256 210.978 1
-8 -6 -7 8216.46 739.588 5
8 6 7 8000.92 743.152 1
8 7 -2 5087.2 652.899 11
-8 -7 1 1573.47 409.293 4
8 7 -1 1511.7 378.855 11
8 7 0 15155.7 961.786 11
-8 -7 0 16777 1046.58 4
8 7 1 13379 872.728 11
-8 -7 -1 14057.1 920.759 4
-8 -7 -2 2949.28 449.773 4
8 7 2 3537.85 466.007 11
-8 -7 -3 4494.12 523.323 4
8 7 3 4201.36 475.244 11
-8 -7 -4 6704.85 611.479 4
-8 -7 -4 6745.99 655.884 5
8 7 4 5724.75 522.007 11
-8 -7 -5 833.541 260.09 4
8 7 5 348.38 189.537 1
8 7 5 544.613 164.746 11
-8 -7 -6 6482.81 553.69 4
-8 -7 -6 6596.46 665.635 5
8 7 6 5456.09 618.789 1
-8 -7 -7 9564.95 814.156 5
8 7 7 10569.7 860.521 1
8 8 0 114.136 273.181 11
-8 -8 -1 -402.527 382.184 4
8 8 1 -171.818 271.93 11
-8 -8 -2 -120.356 254.823 4
8 8 2 -21.4132 228.891 11
-8 -8 -3 4320.54 553.812 4
8 8 3 3929.38 499.144 11
-8 -8 -4 5041.95 572.017 4
-8 -8 -4 6082.57 624.063 5
8 8 4 5579.19 572.383 11
-8 -8 -5 10227.8 755.957 4
-8 -8 -5 10260.4 819.733 5
8 8 5 9672.55 698.076 11
-8 -8 -6 4139.55 499.167 4
-8 -8 -6 3770.44 524.394 5
8 9 2 949.081 312.211 11
-8 -9 -3 987.559 348.17 4
8 9 3 1109.71 341.074 11
-8 -9 -4 404.968 315.148 4
-8 -9 -4 1117.98 367.691 5
8 9 4 1168.48 305.134 11
-8 -9 -5 -26.0817 283.737 4
-8 -9 -5 -49.3518 265.296 5
8 9 5 -220.396 246.702 11
-9 3 7 1695.9 348.131 3
-9 3 6 1037.01 360.125 3
-9 3 5 289.311 215.436 2
-9 3 5 129.033 244.378 3
-9 2 7 10547.5 814.42 3
-9 2 6 105.897 288.967 3
9 -2 -5 98.6467 250.22 6
-9 2 5 -401.273 268.215 2
-9 2 5 9.97605 243.485 3
-9 2 4 969.129 274.973 2
9 -2 -4 1258.21 374.678 6
-9 2 4 787.512 342.613 3
-9 2 3 2518.94 411.377 2
9 -2 -3 1735.32 415.863 6
-9 2 3 1488.19 363.411 3
9 -2 -2 1172.13 344.405 6
-9 2 2 511.138 208.671 5
9 -2 -1 3859.95 538.47 6
-9 2 1 4195.36 457.573 5
9 -2 0 1392.33 367.645 6
-9 2 0 1920.98 325.848 5
-9 2 -1 3291.13 412.589 5
9 -1 -6 4920.73 597.813 6
-9 1 6 5715.5 649.51 2
-9 1 6 5291.36 577.232 3
9 -1 -5 431.685 304.663 6
-9 1 5 1203.36 327.349 2
-9 1 5 703.277 297.66 3
9 -1 -4 67.9605 271.035 6
-9 1 4 125.559 193.811 2
9 -1 -3 1388.95 353.575 6
-9 1 3 924.514 282.654 2
9 -1 -2 273.411 249.527 6
-9 1 2 741.768 266.589 2
-9 1 1 2661.54 374.944 2
9 -1 -1 2070.61 375.045 6
-9 1 1 1948.53 338.988 5
9 -1 0 2859.73 466.923 6
-9 1 0 3128.08 409.968 5
9 -1 1 1326.58 406.651 6
-9 1 -1 671.022 231.209 5
9 -1 1 1028.03 276.33 1
9 -1 2 489.506 312.1 6
-9 1 -2 24.428 183.71 5
9 -1 2 630.9 264.348 1
-9 1 -3 2053.71 370.835 5
9 -1 3 2705.68 407.734 1
-9 1 -4 1872.35 336.823 5
9 -1 4 1790.2 389.123 1
9 0 -7 22138.4 1187.09 6
9 0 -6 32011.4 1398.24 6
-9 0 6 33213.4 1504.55 2
-9 0 6 29758.1 1233.62 3
9 0 -5 967.181 314.857 6
-9 0 5 1326.9 355.63 2
9 0 -4 8786.63 725.105 6
-9 0 4 11451.1 827.118 2
9 0 -3 9528.1 742.916 6
-9 0 3 9406.92 703.325 2
-9 0 2 5744.72 552.475 2
9 0 -2 5120.14 552.825 6
9 0 -1 20169.7 1067.85 6
-9 0 1 21951 982.304 2
-9 0 0 53531.1 1429.31 2
9 0 0 53217.9 1752.94 6
-9 0 0 54295.4 1626.54 5
9 0 1 42600.7 1598.04 6
-9 0 -1 42145.4 1453.07 5
9 0 1 41293.8 1441.09 1
9 0 2 14168.6 961.242 6
-9 0 -2 11507.5 793.906 5
9 0 2 13093.9 848.319 1
9 0 3 9388.52 820.881 6
-9 0 -3 8945.98 700.749 5
9 0 3 8845.25 727.065 1
-9 0 -4 2024.91 384.475 5
9 0 4 1750.46 386.067 1
-9 0 -5 1174.85 357.551 5
9 1 -7 -824.93 302.155 6
9 1 -6 6238.8 629.886 6
-9 -1 6 5163.47 622.268 4
9 1 -5 -103.774 221.139 6
-9 -1 5 387.631 297.491 4
-9 -1 5 -64.0531 234.018 2
9 1 -4 4.16035 212.631 6
-9 -1 4 -25.3835 216.071 4
-9 -1 4 -127.415 324.926 2
9 1 -3 61.5922 196.757 6
-9 -1 3 132.538 254.733 4
-9 -1 3 406.847 261.436 2
9 1 -2 7552.5 643.787 6
-9 -1 2 9342.16 691.516 2
9 1 -1 3380.07 469.614 6
-9 -1 1 2685.02 391.497 2
9 1 0 8667.05 698.893 6
-9 -1 0 7972.54 578.249 2
-9 -1 -1 25051 926.183 2
9 1 1 25291.1 1186.93 6
-9 -1 -1 25054.9 1135.85 5
9 1 1 23977.5 1128.03 1
9 1 2 15499.7 968.027 6
-9 -1 -2 16480.8 946.083 5
9 1 2 15999.5 943.741 1
9 1 3 4040.38 537.332 6
-9 -1 -3 3994.29 498.99 5
9 1 3 4133.57 505.004 1
-9 -1 -4 14728.9 937.697 5
9 1 4 13212.6 915.241 1
-9 -1 -5 2850.12 461.866 5
9 1 5 4008.53 543.446 1
9 2 -7 4089.83 527.908 10
9 2 -6 11656.9 782.946 6
9 2 -6 11298.7 850.235 10
9 2 -5 1511.85 327.173 6
-9 -2 5 1777.81 394.773 4
9 2 -4 921.759 257.553 6
-9 -2 4 1493.03 380.739 4
-9 -2 3 11405.2 863.954 4
9 2 -3 11020.3 729.614 6
-9 -2 2 9914.46 784.818 4
9 2 -2 8475.51 641.897 6
9 2 -1 719.954 238.216 6
-9 -2 1 535.35 247.86 4
9 2 0 3770.31 458.765 6
-9 -2 0 4988.64 559.281 4
9 2 1 2332.02 377.672 6
-9 -2 -1 1725.11 290.191 2
9 2 1 2038.28 306.674 11
-9 -2 -2 6246.12 456.553 2
9 2 2 5286.73 568.377 6
9 2 2 6120.72 600.701 1
-9 -2 -2 4859.34 538.121 5
9 2 3 448.085 304.594 6
-9 -2 -3 544.336 241.267 5
9 2 3 546.114 270.671 1
-9 -2 -4 -323.611 285.873 5
9 2 4 644.876 285.885 1
-9 -2 -5 4204.04 548.193 5
9 2 5 5879.57 627.317 10
9 2 5 4673.35 579.236 1
9 2 6 6576.66 658.381 10
9 3 -6 3483.52 501.25 10
-9 -3 5 3625.62 553.852 4
9 3 -5 5279.76 609.398 10
9 3 -4 6967.54 564.439 6
-9 -3 4 6685.11 694.628 4
9 3 -4 7785.16 702.755 10
9 3 -3 3071.43 397.638 6
-9 -3 3 2672.86 464.192 4
9 3 -3 2609.6 430.793 10
9 3 -2 365.562 207.101 6
-9 -3 2 420.667 290.227 4
9 3 -2 622.904 261.28 10
-9 -3 1 11344.2 834.879 4
9 3 -1 10518.6 682.56 6
9 3 -1 12353.7 791.887 11
9 3 -1 11403.1 842.597 10
9 3 0 1714.31 317.793 6
-9 -3 0 2089.66 369.658 4
9 3 0 1448.96 310.596 11
9 3 0 1914.15 405.084 10
9 3 1 5530.19 543.103 6
-9 -3 -1 5585.61 582.029 4
9 3 1 5949.42 500.435 11
9 3 1 6423.98 654.905 10
-9 -3 -2 6183.1 607.301 4
9 3 2 6409.6 599.88 6
-9 -3 -2 5755.83 592.696 5
9 3 2 5890.05 600.109 1
9 3 2 5531.29 443.882 11
9 3 2 6707.45 670.038 10
-9 -3 -3 1091.71 296.652 5
9 3 3 694.796 271.487 10
-9 -3 -4 926.76 309.731 5
9 3 4 242.673 239.866 10
9 3 4 571.246 296.198 1
-9 -3 -5 235.414 236.205 5
9 3 5 565.827 275.692 10
9 3 5 720.184 279.01 1
9 3 6 2363.35 438.688 10
9 3 7 447.291 264.091 10
9 4 -6 714.026 276.97 10
9 4 -5 4633.52 546.8 10
-9 -4 4 12837.3 963.436 4
9 4 -4 12796.6 969.632 11
9 4 -4 13945.7 938.868 10
-9 -4 3 487.977 261.234 4
9 4 -3 866.264 356.838 11
9 4 -3 351.336 236.12 10
9 4 -2 714.665 228.278 6
-9 -4 2 867.135 315.382 4
9 4 -2 1460.78 336.756 11
9 4 -2 1065.96 292.641 10
9 4 -1 1138.59 254.743 6
-9 -4 1 1650.42 356.757 4
9 4 -1 1361.51 350.231 11
9 4 -1 1382.78 333.374 10
9 4 0 230.464 181.719 6
-9 -4 0 502.499 281.919 4
9 4 0 486.224 230.869 11
9 4 0 108.905 210.969 10
-9 -4 -1 11882.5 833.688 4
9 4 1 11148.1 703.736 6
9 4 1 11323.7 706.361 11
9 4 1 12099.3 856.704 10
-9 -4 -2 12027.3 815.051 4
9 4 2 11792.6 665.756 11
9 4 2 10761.1 820.99 10
-9 -4 -3 3904.74 483.559 4
-9 -4 -3 4041.02 504.916 5
9 4 3 4325.12 557.101 1
9 4 3 4846.32 567.654 10
9 4 4 6143.89 640.457 1
-9 -4 -4 4694.61 562.562 5
9 4 4 5297.53 584.991 10
-9 -4 -5 2697.1 435.228 5
9 4 5 4180.43 517.58 10
9 4 5 3055.07 456.236 1
9 4 6 195.113 275.995 10
9 4 7 1398.82 329.563 10
9 5 -4 1400.4 379.723 10
9 5 -3 2333.92 457.717 11
9 5 -3 2051.45 423.691 10
-9 -5 2 530.333 301.313 4
9 5 -2 144.21 251.135 11
9 5 -2 336.802 263.999 10
-9 -5 1 -128.476 286.909 4
9 5 -1 73.5867 238.784 11
9 5 -1 23.7796 214.129 10
9 5 0 -90.712 160.92 6
-9 -5 0 357.636 267.394 4
9 5 0 184.118 188.851 11
9 5 0 12.4646 224.896 10
-9 -5 -1 218.041 271.194 4
9 5 1 -37.9186 187.044 11
9 5 1 -258.955 271.802 10
-9 -5 -2 353.421 271.427 4
9 5 2 279.974 176.216 11
9 5 2 925.105 353.788 10
-9 -5 -3 83.0232 236.995 4
-9 -5 -3 13.4338 216.655 5
9 5 3 211.421 148.729 11
9 5 3 108.066 207.47 10
-9 -5 -4 1234.94 290.199 4
-9 -5 -4 1682.76 367.855 5
9 5 4 1466.68 360.419 1
9 5 4 1043.99 303.367 10
-9 -5 -5 256.884 190.236 4
-9 -5 -5 89.8611 217.336 5
9 5 5 11.9781 312.852 1
9 5 5 400.068 234.116 10
9 5 6 61.0947 226.866 10
9 5 7 4700.33 566.519 10
9 6 -2 4296.03 580.04 11
9 6 -2 4891.64 588.835 10
-9 -6 1 8535.64 791.611 4
9 6 -1 8097.59 735.981 11
9 6 -1 8023.37 750.613 10
-9 -6 0 89.3481 289.621 4
9 6 0 -562.003 316.677 11
9 6 0 366.975 292.26 10
-9 -6 -1 744.418 303.384 4
9 6 1 875.309 276.676 11
9 6 1 841.841 335.447 10
-9 -6 -2 24207.7 1203.25 4
9 6 2 24735.7 1097.73 11
9 6 2 25076.1 1260.92 10
-9 -6 -3 4367.16 546.757 4
9 6 3 4586.76 469.799 11
9 6 3 4306.02 561.501 10
-9 -6 -4 10770.7 776.938 4
-9 -6 -4 10915.5 856.364 5
9 6 4 10872.7 848.431 10
-9 -6 -5 21738.7 1052.2 4
-9 -6 -5 21407.4 1201.76 5
9 6 5 21170.4 1198.4 1
9 6 5 22295.2 1197.55 10
9 7 0 -29.7164 252.592 11
-9 -7 -1 3772.01 570.669 4
9 7 1 3384.41 485.472 11
-9 -7 -2 1064.59 342.066 4
9 7 2 1255.48 343.107 11
-9 -7 -3 2016.94 406.883 4
9 7 3 2138.6 356.233 11
-9 -7 -4 4712.42 560.745 4
-9 -7 -4 4388.23 564.275 5
-9 -7 -5 6089.66 602.975 4
9 8 1 4014.87 541.184 11
9 8 2 12245.5 897.003 11
-9 -8 -3 3165.96 504.862 4
9 8 3 3130.28 472.292 11
-9 -8 -4 495.035 254.759 4
9 8 4 134.964 217.749 11
-9 -8 -5 216.566 253.874 4
-10 1 6 616.391 311.444 3
-10 1 5 4240.87 573.95 3
-10 1 4 1176.29 365.405 2
-10 1 3 3802 497.527 2
-10 1 2 7730.53 650.839 2
-10 1 1 4202.53 483.093 5
-10 1 0 2782.66 429.835 5
-10 1 -1 8008.2 682.848 5
-10 1 -2 3790.83 480.948 5
-10 0 5 2054.91 419.488 3
10 0 -4 169.145 214.017 6
-10 0 4 56.5829 227.87 2
10 0 -3 450.954 295.981 6
-10 0 3 -171.928 273.902 2
10 0 -2 512.81 278.279 6
-10 0 2 220.836 199.562 2
-10 0 1 -17.7188 167.727 2
10 0 -1 397.093 308.397 6
10 0 0 380.05 302.468 6
-10 0 0 376.405 224.043 5
-10 0 -1 6155.6 628.859 5
-10 0 -2 1312.22 319.617 5
10 0 2 1353.02 340.651 1
-10 0 -3 7882.05 728.411 5
10 0 3 7697.96 722.606 1
10 1 -6 4480.53 576.616 6
10 1 -5 11738.1 879.744 6
10 1 -4 10739.1 833.302 6
-10 -1 4 11422.2 882.037 2
10 1 -3 298.71 260.308 6
-10 -1 3 386.542 243.656 2
10 1 -2 8957.75 759.706 6
-10 -1 2 9411.49 749.15 2
10 1 -1 7641.86 697.285 6
-10 -1 1 8922.19 685.878 2
-10 -1 0 7508.16 584.039 2
10 1 0 7224.72 700.163 6
10 1 1 1538.15 378.006 6
-10 -1 -1 2824.92 453.434 5
10 1 2 975.021 317.841 6
-10 -1 -2 1293.59 335.178 5
10 1 2 1433.32 346.408 1
-10 -1 -3 424.977 272.144 5
10 1 3 1378.86 332.109 1
10 2 -5 9973.24 775.085 6
10 2 -4 981.155 289.615 6
10 2 -3 6415.7 616.584 6
10 2 -2 -24.3794 258.641 6
-10 -2 2 -57.7419 249.341 4
10 2 -1 -37.5657 271.916 6
-10 -2 1 -97.5736 245.776 2
10 2 0 15208.7 955.114 6
-10 -2 0 14951.2 850.438 2
10 2 1 7506.11 692.751 6
-10 -2 -1 7852.28 725.417 5
10 2 2 5036.69 611.57 6
-10 -2 -2 4196.89 568.502 5
10 2 2 3727.08 525.435 1
-10 -2 -3 9871.9 822.071 5
10 2 3 9814.21 814.785 1
10 3 -3 451.629 203.134 6
10 3 -2 1359.77 305.928 6
10 3 -2 1798.89 408.6 11
10 3 -2 2005.67 469.364 10
10 3 -1 3900.53 484.789 6
-10 -3 1 5414.79 644.454 4
10 3 -1 5104.12 565.172 11
10 3 -1 4975.13 625.992 10
10 3 0 845.044 290.151 6
-10 -3 0 1163.02 361.83 4
10 3 0 1560.36 320.633 11
10 3 0 1607.51 400.578 10
10 3 1 -153.476 227.136 6
-10 -3 -1 183.964 269.463 4
10 3 1 -80.0018 258.95 10
10 3 2 2612.2 460.601 6
-10 -3 -2 2442.36 445.79 5
10 3 2 2526.95 510.819 10
10 3 3 6993.69 715.222 1
-10 -3 -3 6614.36 685.784 5
10 3 3 7790.22 760.504 10
10 4 -3 1562.46 377.512 11
10 4 -2 666.805 363.848 11
10 4 -1 108.713 177.335 6
-10 -4 1 -59.5037 252.07 4
10 4 -1 220.114 268.378 11
10 4 -1 -178.538 249.659 10
10 4 0 219.364 216.603 6
-10 -4 0 -1.33473 253.362 4
10 4 0 100.304 219.771 11
10 4 0 382.874 271.055 10
10 4 1 3373.48 460.087 6
-10 -4 -1 4607.47 590.556 4
10 4 1 3174.83 407.13 11
10 4 1 3900.99 556.401 10
-10 -4 -2 2084.51 404.558 4
-10 -4 -2 694.973 313.02 5
10 4 2 1886.64 420.414 10
10 5 -2 1180.44 379.602 11
10 5 -1 961.103 296.527 11
10 5 0 19083.6 1050.58 11
-10 -5 -1 1751.59 410.024 4
10 5 1 2625.49 409.382 11
-10 -5 -2 1939.56 387.109 4
-10 -5 -3 20734.9 1141.67 4
-10 -5 -4 6311.84 643.803 4
10 6 0 8514.31 738.697 11
10 6 1 2735.46 446.19 11
-10 -6 -2 -8.02394 288.204 4
-10 -6 -3 -230.783 270.56 4
-10 -6 -4 -209.912 282.755 4
-10 -6 -5 302.199 230.952 4
10 7 1 10411.7 834.456 11
10 7 2 3007.37 456.472 11
-10 -7 -4 21296.3 1192.65 4
-11 -1 2 6166.23 645.639 2
11 2 -3 491.947 275.366 6
11 2 -2 3713.17 542.849 6
-11 -2 2 2634.68 440.387 2
11 2 -1 637.129 302.388 6
11 3 -2 1557.26 412.078 11
11 3 -1 2059.46 400.31 6
11 3 0 631.171 317.191 6
11 3 1 2175.05 441.368 6
11 4 -1 114.812 263.198 11
11 4 1 -166.503 316.358 6
loop_
_exptl_oxdiff_crystal_face_indexfrac_h
_exptl_oxdiff_crystal_face_indexfrac_k
_exptl_oxdiff_crystal_face_indexfrac_l
_exptl_oxdiff_crystal_face_x
_exptl_oxdiff_crystal_face_y
_exptl_oxdiff_crystal_face_z
-0.0001 0.0000 0.9983 0.0738 0.0262 0.0133
0.0001 -0.0000 -0.9983 -0.0738 -0.0262 -0.0133
-0.9985 -0.0000 -0.0004 0.0187 -0.0879 0.0096
0.9985 0.0000 0.0004 -0.0187 0.0879 -0.0096
1.0014 4.9925 2.9946 -0.0390 0.0261 0.4215
-1.0014 -4.9925 -2.9946 0.0390 -0.0261 -0.4215
