#------------------------------------------------------------------------------
#$Date: 2021-03-18 12:51:15 +0200 (Thu, 18 Mar 2021) $
#$Revision: 263122 $
#$URL: file:///home/coder/svn-repositories/cod/cif/1/56/11/1561124.cif $
#------------------------------------------------------------------------------
#
# This file is available in the Crystallography Open Database (COD),
# http://www.crystallography.net/
#
# All data on this site have been placed in the public domain by the
# contributors.
#
data_1561124
loop_
_publ_author_name
'Yan, Juan-zhi'
'Lu, Li-ping'
'Zhu, Miao-li'
'Feng, Si-si'
_publ_section_title
;
 Self-assembly of novel manganese (II) compounds based on
 bifunctional-group ligands: Synthesis, structures, and magnetic
 properties
;
_journal_name_full               'Journal of Solid State Chemistry'
_journal_page_first              351
_journal_page_last               359
_journal_paper_doi               10.1016/j.jssc.2018.03.035
_journal_volume                  262
_journal_year                    2018
_chemical_formula_sum            'C4 H5 Mn N3 O6'
_chemical_formula_weight         246.05
_space_group_crystal_system      monoclinic
_space_group_IT_number           14
_space_group_name_Hall           '-P 2ybc'
_space_group_name_H-M_alt        'P 1 21/c 1'
_atom_sites_solution_hydrogens   geom
_atom_sites_solution_primary     direct
_atom_sites_solution_secondary   difmap
_cell_angle_alpha                90
_cell_angle_beta                 95.2560(10)
_cell_angle_gamma                90
_cell_formula_units_Z            4
_cell_length_a                   7.1596(7)
_cell_length_b                   10.2117(10)
_cell_length_c                   10.5182(11)
_cell_measurement_reflns_used    1302
_cell_measurement_temperature    298(2)
_cell_measurement_theta_max      25.6
_cell_measurement_theta_min      2.78
_cell_volume                     765.77(13)
_computing_cell_refinement       'SAINT (Bruker, 2000)'
_computing_data_collection       'SMART (Bruker, 2000)'
_computing_data_reduction        SAINT
_computing_molecular_graphics    'Bruker SHELXTL'
_computing_publication_material  'Bruker SHELXTL'
_computing_structure_refinement  'SHELXL-2014/7 (Sheldrick, 2014)'
_computing_structure_solution    'SHELXS-97 (Sheldrick, 2008)'
_diffrn_ambient_temperature      298(2)
_diffrn_measured_fraction_theta_full 1.000
_diffrn_measured_fraction_theta_max 1.000
_diffrn_measurement_device_type  'Bruker Smart Apex II'
_diffrn_radiation_monochromator  graphite
_diffrn_radiation_source         'fine-focus sealed tube'
_diffrn_radiation_type           MoK\a
_diffrn_radiation_wavelength     0.71073
_diffrn_reflns_av_R_equivalents  0.0363
_diffrn_reflns_av_unetI/netI     0.0231
_diffrn_reflns_Laue_measured_fraction_full 1.000
_diffrn_reflns_Laue_measured_fraction_max 1.000
_diffrn_reflns_limit_h_max       8
_diffrn_reflns_limit_h_min       -8
_diffrn_reflns_limit_k_max       12
_diffrn_reflns_limit_k_min       -12
_diffrn_reflns_limit_l_max       12
_diffrn_reflns_limit_l_min       -12
_diffrn_reflns_number            7977
_diffrn_reflns_point_group_measured_fraction_full 1.000
_diffrn_reflns_point_group_measured_fraction_max 1.000
_diffrn_reflns_theta_full        25.050
_diffrn_reflns_theta_max         25.050
_diffrn_reflns_theta_min         2.786
_exptl_absorpt_coefficient_mu    1.736
_exptl_absorpt_correction_T_max  0.4773
_exptl_absorpt_correction_T_min  0.4224
_exptl_absorpt_correction_type   multi-scan
_exptl_absorpt_process_details   SADABS
_exptl_crystal_colour            colorless
_exptl_crystal_density_diffrn    2.134
_exptl_crystal_description       block
_exptl_crystal_F_000             492
_exptl_crystal_size_max          0.600
_exptl_crystal_size_mid          0.500
_exptl_crystal_size_min          0.500
_refine_diff_density_max         0.247
_refine_diff_density_min         -0.253
_refine_diff_density_rms         0.056
_refine_ls_extinction_coef       .
_refine_ls_extinction_method     none
_refine_ls_goodness_of_fit_ref   1.074
_refine_ls_hydrogen_treatment    mixed
_refine_ls_matrix_type           full
_refine_ls_number_parameters     131
_refine_ls_number_reflns         1362
_refine_ls_number_restraints     0
_refine_ls_restrained_S_all      1.074
_refine_ls_R_factor_all          0.0306
_refine_ls_R_factor_gt           0.0242
_refine_ls_shift/su_max          0.001
_refine_ls_shift/su_mean         0.000
_refine_ls_structure_factor_coef Fsqd
_refine_ls_weighting_details
'w=1/[\s^2^(Fo^2^)+(0.0289P)^2^+0.4343P] where P=(Fo^2^+2Fc^2^)/3'
_refine_ls_weighting_scheme      calc
_refine_ls_wR_factor_gt          0.0590
_refine_ls_wR_factor_ref         0.0620
_reflns_Friedel_coverage         0.000
_reflns_Friedel_fraction_full    .
_reflns_Friedel_fraction_max     .
_reflns_number_gt                1187
_reflns_number_total             1362
_reflns_threshold_expression     'I > 2\s(I)'
_cod_data_source_file            Complex2.cif
_cod_data_source_block           Complex2
_cod_original_sg_symbol_H-M      'P 21/c'
_cod_database_code               1561124
_shelx_space_group_comment
;
The symmetry employed for this shelxl refinement is uniquely defined
by the following loop, which should always be used as a source of
symmetry information in preference to the above space-group names.
They are only intended as comments.
;
_shelx_estimated_absorpt_t_min   0.422
_shelx_estimated_absorpt_t_max   0.477
_shelx_res_file
;

    ZJ59-14.res created by SHELXL-2014/7

TITL ZJ59-14 in P2(1)/c
CELL 0.71073   7.1596  10.2117  10.5182  90.000  95.256  90.000
ZERR   4.00   0.0007   0.0010   0.0011   0.000   0.001   0.000
LATT 1
SYMM -X, 0.5+Y, 0.5-Z
SFAC C  H  N  O  Mn
UNIT 16  20  12  24  4
OMIT -3 50.1
L.S. 20
ACTA
BOND $H
FMAP 2
PLAN 5
CONF
SIZE 0.6 0.5 0.5
EQIV $5 x, -y+3/2, z-1/2
EQIV $4 -x, -y+2, -z+2
EQIV $3  x, -y+3/2, z+1/2
EQIV $2 -x, y-1/2, -z+3/2
EQIV $1 -x, -y+2, -z+1
HTAB N3 O4_$5
HTAB O6 O5_$4
HTAB O6 O3_$3
HTAB O6 O4
HTAB O5 O1_$2
HTAB O5 N2_$1
TEMP 25.000
WGHT    0.028900    0.434300
FVAR       0.22293
MN1   5    0.188426    1.113198    0.827612    11.00000    0.02656    0.02003 =
         0.01494   -0.00146    0.00292   -0.00394
C1    1    0.211619    1.058143    0.547238    11.00000    0.01555    0.01870 =
         0.01725    0.00055    0.00289   -0.00119
C2    1    0.355157    0.889939    0.621118    11.00000    0.01614    0.01972 =
         0.01698   -0.00024    0.00284   -0.00113
C3    1    0.114127    1.188206    0.547850    11.00000    0.01703    0.01924 =
         0.02140    0.00149    0.00197   -0.00297
C4    1    0.457074    0.786831    0.702667    11.00000    0.02413    0.02104 =
         0.02332   -0.00100    0.00232   -0.00196
N1    3    0.273042    0.998142    0.658649    11.00000    0.01985    0.01800 =
         0.01403    0.00064    0.00107    0.00055
N2    3    0.250397    0.992973    0.444095    11.00000    0.02093    0.02294 =
         0.01684    0.00087    0.00161    0.00041
N3    3    0.341942    0.886694    0.493739    11.00000    0.02296    0.02087 =
         0.01949   -0.00308    0.00430    0.00228
H3    2    0.378898    0.831175    0.442540    11.00000    0.04030
O1    4    0.083152    1.228890    0.657479    11.00000    0.03387    0.01899 =
         0.02067   -0.00185    0.00343    0.00544
O2    4    0.070052    1.244117    0.444704    11.00000    0.03162    0.02763 =
         0.02180    0.01147    0.00120    0.00220
O3    4    0.541731    0.705283    0.640594    11.00000    0.03436    0.03090 =
         0.02897   -0.00391   -0.00041    0.01530
O4    4    0.448758    0.793341    0.820308    11.00000    0.05293    0.02999 =
         0.02213    0.00667    0.00606    0.00924
O5    4   -0.078005    0.996503    0.809728    11.00000    0.03223    0.02297 =
         0.01839    0.00304   -0.00083   -0.00520
AFIX   3
H5A   2   -0.139441    1.006092    0.740669    11.00000   -1.50000
H5B   2   -0.064539    0.917532    0.821129    11.00000   -1.50000
AFIX   0
O6    4    0.279270    0.979598    0.975275    11.00000    0.04116    0.03699 =
         0.03191    0.01179    0.00952    0.01356
AFIX   3
H6A   2    0.351016    0.919650    0.960916    11.00000   -1.50000
H6B   2    0.232814    0.962454    1.042179    11.00000   -1.50000
AFIX   0
HKLF 4

REM  ZJ59-14 in P2(1)/c
REM R1 =  0.0242 for    1187 Fo > 4sig(Fo)  and  0.0306 for all    1362 data
REM    131 parameters refined using      0 restraints

END

WGHT      0.0287      0.4437

REM Highest difference peak  0.247,  deepest hole -0.253,  1-sigma level  0.056
Q1    1   0.1642  1.1178  0.5453  11.00000  0.05    0.25
Q2    1   0.2317  1.0219  0.6083  11.00000  0.05    0.22
Q3    1   0.2698  1.0368  0.5061  11.00000  0.05    0.21
Q4    1   0.3909  0.8410  0.6655  11.00000  0.05    0.20
Q5    1   0.2410  1.0348  0.9026  11.00000  0.05    0.20
;
_shelx_res_checksum              80551
_shelx_hkl_file
;
  -1   0   0   28.32    0.59
  -1   0   0   26.90    0.82
   1   0   0   26.25    0.65
  -2   0   0  133.11    3.11
  -2   0   0  135.99    2.49
   2   0   0  136.49    3.09
   2   0   0  140.56    2.61
  -3   0   0  169.17    4.07
  -3   0   0  170.57    3.11
   3   0   0  168.01    3.32
   3   0   0  166.00    3.95
  -4   0   0    6.57    0.48
  -4   0   0    5.70    0.89
   4   0   0    7.36    0.71
   4   0   0    5.36    0.81
  -5   0   0    0.14    0.62
  -5   0   0   -0.05    0.27
   5   0   0    0.63    0.42
   5   0   0    0.89    0.57
  -6   0   0    2.26    0.92
   6   0   0    1.42    0.58
   6   0   0    1.47    0.70
  -7   0   0   31.05    2.41
   7   0   0   33.68    2.17
   7   0   0   32.65    1.69
  -8   0   0   28.27    2.77
   8   0   0   29.92    2.23
  -9   0   0   -0.20    1.07
   9   0   0    0.14    0.70
 -10   0   0   -1.38    1.26
 -10  -1   0    3.18    1.66
   9   1   0   18.19    2.24
  -9  -1   0   15.25    2.36
   8   1   0    0.22    0.62
  -8  -1   0   -0.18    0.93
   7   1   0    1.92    0.62
   7   1   0    2.41    0.90
  -7  -1   0    2.28    1.01
   6   1   0   11.85    1.43
   6   1   0   15.53    1.22
  -6  -1   0   16.45    1.84
   5   1   0    0.86    0.44
   5   1   0    0.65    0.47
  -5  -1   0    0.50    0.62
  -5  -1   0    0.40    0.34
   4   1   0    8.22    0.97
   4   1   0    9.29    0.74
  -4  -1   0    7.64    1.03
  -4  -1   0    7.01    0.58
   3   1   0   12.12    0.87
   3   1   0   11.53    0.63
  -3  -1   0   11.37    1.05
  -3  -1   0   12.53    0.62
   2   1   0  868.47   15.35
  -2  -1   0  867.67   15.34
   1   1   0  201.42    3.22
   1   1   0  193.24    3.93
  -1  -1   0  206.14    3.58
   0   1   0    0.38    0.15
   0   1   0    0.07    0.06
   0  -1   0    0.18    0.06
   0  -1   0    0.06    0.07
  -1   1   0  201.75    3.70
   1  -1   0  197.47    3.44
   1  -1   0  200.40    3.50
  -2   1   0  886.84   15.16
   2  -1   0  859.09   13.74
   2  -1   0  857.48   15.36
  -3   1   0   12.85    1.05
   3  -1   0   11.69    0.52
   3  -1   0   12.10    0.75
   3  -1   0    9.41    0.90
  -4   1   0    6.84    0.45
  -4   1   0    7.38    0.99
   4  -1   0    5.88    0.67
   4  -1   0    7.87    0.95
  -5   1   0    0.95    0.73
   5  -1   0    1.60    0.52
   5  -1   0    2.03    0.67
  -6   1   0   14.91    1.73
   6  -1   0   11.88    1.48
   6  -1   0   16.30    1.34
  -7   1   0    2.89    1.11
   7  -1   0    1.73    0.64
   7  -1   0    1.91    0.79
  -8   1   0    0.59    1.02
   8  -1   0    1.36    0.80
   8  -1   0   -0.17    0.54
  -9   1   0   16.71    2.45
   9  -1   0   14.41    1.99
 -10   1   0    2.89    1.59
 -10  -2   0   -0.70    1.20
   9   2   0    2.38    0.98
  -9  -2   0    1.42    1.29
   8   2   0    3.70    1.07
  -8  -2   0    2.39    1.17
   7   2   0    0.57    0.61
  -7  -2   0    0.40    0.80
   6   2   0   -0.68    0.38
   6   2   0    0.32    0.56
  -6  -2   0    0.59    0.78
   5   2   0    6.47    0.71
   5   2   0    6.10    0.99
  -5  -2   0    6.89    0.72
  -5  -2   0    6.81    1.17
   4   2   0   50.47    1.47
   4   2   0   48.12    2.03
  -4  -2   0   48.06    1.54
  -4  -2   0   49.52    2.23
   3   2   0   48.77    1.27
   3   2   0   50.01    1.87
  -3  -2   0   49.08    1.96
  -3  -2   0   48.51    1.45
   2   2   0  955.42   17.41
   2   2   0  987.26   15.06
  -2  -2   0 1000.00   16.39
  -2  -2   0  963.54   17.24
   1   2   0   29.71    1.23
   1   2   0   30.14    1.35
   1   2   0   31.48    0.75
  -1  -2   0   31.76    1.01
   0   2   0    6.13    0.69
   0   2   0    5.22    0.39
   0  -2   0    4.96    0.43
   0  -2   0    5.78    0.35
  -1   2   0   33.08    0.95
  -1   2   0   30.73    1.21
   1  -2   0   31.03    0.98
  -2   2   0  972.22   16.44
   2  -2   0  951.46   16.85
   2  -2   0  921.04   15.09
  -3   2   0   47.52    1.76
   3  -2   0   51.38    1.61
   3  -2   0   50.58    1.31
  -4   2   0   49.86    2.07
   4  -2   0   47.54    1.31
   4  -2   0   46.85    1.70
   4  -2   0   49.09    2.10
  -5   2   0    8.35    1.22
   5  -2   0    6.99    0.87
   5  -2   0    6.56    1.07
  -6   2   0   -0.06    0.75
   6  -2   0    0.38    0.53
   6  -2   0   -0.30    0.53
  -7   2   0   -0.03    0.84
   7  -2   0    0.02    0.51
   7  -2   0    0.35    0.63
  -8   2   0    3.78    1.32
   8  -2   0    1.45    0.91
   8  -2   0    3.92    0.91
  -9   2   0    5.49    1.54
   9  -2   0    5.43    1.36
 -10   2   0    0.34    1.42
   9   3   0    8.30    1.63
  -9  -3   0   11.44    2.15
   8   3   0    1.94    0.89
  -8  -3   0    0.27    0.95
   7   3   0   31.93    2.21
  -7  -3   0   31.12    2.44
   6   3   0   14.27    1.62
  -6  -3   0   15.97    1.89
   5   3   0    1.50    0.67
   5   3   0    1.56    0.45
  -5  -3   0    0.89    0.74
  -5  -3   0    2.23    0.58
   4   3   0  385.01    8.29
   4   3   0  381.68    6.51
  -4  -3   0  376.26    7.20
  -4  -3   0  378.80    8.42
   3   3   0  138.50    2.60
   3   3   0  130.68    3.73
  -3  -3   0  145.73    3.82
  -3  -3   0  136.53    3.13
   2   3   0   53.72    1.17
   2   3   0   53.42    2.03
  -2  -3   0   52.74    1.84
  -2  -3   0   55.03    1.64
   1   3   0   12.75    1.16
   1   3   0   12.40    0.53
   1   3   0   11.55    0.92
  -1  -3   0    9.71    0.71
   0   3   0   -0.60    0.42
   0   3   0    0.06    0.23
   0  -3   0   -0.22    0.17
   0  -3   0   -0.44    0.26
  -1   3   0   10.40    0.97
  -1   3   0   11.92    0.46
   1  -3   0   10.93    0.69
   1  -3   0    9.73    0.61
  -2   3   0   49.31    1.88
  -2   3   0   52.23    1.53
   2  -3   0   51.62    1.56
   2  -3   0   51.74    1.48
  -3   3   0  138.38    3.43
  -3   3   0  145.66    3.88
   3  -3   0  136.59    2.99
   3  -3   0  142.33    3.25
  -4   3   0  385.71    7.97
   4  -3   0  384.13    7.27
   4  -3   0  378.19    6.95
   4  -3   0  379.72    8.34
  -5   3   0    0.16    0.69
   5  -3   0    2.99    0.90
   5  -3   0    2.00    0.59
  -6   3   0   19.98    1.96
   6  -3   0   16.37    1.47
   6  -3   0   18.96    1.92
  -7   3   0   30.76    2.34
   7  -3   0   31.87    1.83
   7  -3   0   32.30    2.34
  -8   3   0    0.93    0.99
   8  -3   0    0.70    0.70
   8  -3   0    0.50    0.83
  -9   3   0    8.93    1.97
   9  -3   0   10.95    1.50
   9  -3   0   10.24    1.80
   9   4   0    0.56    0.91
  -9  -4   0    0.52    1.15
   8   4   0    5.79    1.34
  -8  -4   0    8.19    1.74
   7   4   0   12.07    1.63
  -7  -4   0   11.59    1.83
   6   4   0  172.98    5.34
  -6  -4   0  174.96    5.66
   5   4   0  192.02    5.35
  -5  -4   0  177.24    5.44
  -5  -4   0  192.34    4.45
   4   4   0   40.59    1.22
   4   4   0   43.57    2.18
  -4  -4   0   43.24    2.20
  -4  -4   0   42.95    1.74
   3   4   0   62.72    2.49
   3   4   0   61.26    1.41
  -3  -4   0   61.86    2.33
  -3  -4   0   60.23    2.00
   2   4   0  146.15    4.15
   2   4   0  147.66    2.72
  -2  -4   0  146.87    3.67
  -2  -4   0  146.61    3.46
   1   4   0    9.42    1.21
   1   4   0   10.59    0.56
   1   4   0    9.04    0.88
  -1  -4   0    7.30    0.73
   0   4   0  112.08    3.51
   0   4   0  108.59    2.39
   0  -4   0  107.13    2.29
   0  -4   0  108.29    2.66
  -1   4   0   10.01    0.44
  -1   4   0   10.36    1.16
   1  -4   0   11.73    0.80
  -2   4   0  143.55    3.97
  -2   4   0  141.79    3.05
   2  -4   0  141.80    3.20
   2  -4   0  144.77    3.26
  -3   4   0   58.10    1.98
  -3   4   0   64.01    2.52
   3  -4   0   59.71    1.82
   3  -4   0   58.95    1.95
  -4   4   0   41.43    1.93
  -4   4   0   41.53    2.20
   4  -4   0   43.60    1.80
   4  -4   0   42.76    1.50
  -5   4   0  185.50    5.04
  -5   4   0  189.44    5.58
   5  -4   0  188.62    4.64
  -6   4   0  164.93    5.49
  -6   4   0  168.91    5.13
   6  -4   0  172.45    4.53
  -7   4   0   11.02    1.75
  -7   4   0   11.33    1.71
   7  -4   0   11.38    1.40
   7  -4   0   11.75    1.72
  -8   4   0    6.71    1.49
   8  -4   0    7.77    1.26
  -9   4   0   -1.14    0.62
   9  -4   0    0.32    0.73
  10  -4   0    3.48    1.08
   9   5   0   -0.03    0.79
  -9  -5   0    0.46    1.15
   8   5   0    3.43    1.16
  -8  -5   0    4.31    1.37
   7   5   0    2.25    0.89
  -7  -5   0    0.34    0.88
   6   5   0    2.03    0.86
  -6  -5   0    3.08    1.04
   5   5   0    3.52    0.96
  -5  -5   0    4.49    1.13
  -5  -5   0    3.59    0.82
   4   5   0   47.07    2.43
  -4  -5   0   48.41    1.96
  -4  -5   0   51.85    2.48
   3   5   0   44.68    1.18
   3   5   0   44.69    2.28
  -3  -5   0   44.94    1.82
  -3  -5   0   44.48    2.05
   2   5   0    0.10    0.58
   2   5   0    0.55    0.24
  -2  -5   0    0.13    0.40
  -2  -5   0    0.66    0.44
   1   5   0    2.90    0.59
   1   5   0    4.22    1.00
  -1  -5   0    2.49    0.37
  -1  -5   0    2.29    0.56
   0   5   0   -0.71    0.55
   0   5   0    0.05    0.31
   0  -5   0    0.47    0.28
   0  -5   0    0.27    0.39
  -1   5   0    3.97    0.33
  -1   5   0    1.76    0.74
   1  -5   0    3.82    0.53
   1  -5   0    3.27    0.61
  -2   5   0    0.91    0.61
  -2   5   0    0.39    0.25
   2  -5   0    0.69    0.36
   2  -5   0    0.13    0.37
  -3   5   0   44.28    1.66
  -3   5   0   45.85    2.32
   3  -5   0   42.91    1.74
   3  -5   0   43.03    1.67
  -4   5   0   48.22    2.53
  -4   5   0   48.55    2.14
   4  -5   0   50.46    1.81
   4  -5   0   46.42    1.96
  -5   5   0    3.09    0.93
  -5   5   0    2.99    1.00
   5  -5   0    2.79    0.74
  -6   5   0    3.35    1.12
   6  -5   0    4.23    0.92
  -7   5   0    1.88    0.98
   7  -5   0    2.54    0.84
  -8   5   0    3.07    1.30
   8  -5   0    3.62    1.00
  -9   5   0   -0.07    0.92
   9  -5   0    0.07    0.72
   9   6   0    1.62    1.08
  -9  -6   0    0.40    1.13
   8   6   0   11.08    1.80
  -8  -6   0   11.08    2.02
   7   6   0   14.22    1.92
  -7  -6   0   14.56    2.04
   6   6   0    8.89    1.46
  -6  -6   0    7.63    1.45
  -6  -6   0    9.16    1.21
   5   6   0   32.22    2.20
  -5  -6   0   33.75    2.26
  -5  -6   0   34.24    1.87
   4   6   0   12.96    1.62
  -4  -6   0   15.13    1.41
  -4  -6   0   11.87    1.45
   3   6   0   11.33    1.55
  -3  -6   0   10.85    1.15
  -3  -6   0   10.16    1.22
   2   6   0    3.23    0.99
   2   6   0    2.06    0.40
  -2  -6   0    1.81    0.65
  -2  -6   0    2.07    0.60
   1   6   0    6.92    1.34
  -1  -6   0    7.97    0.65
  -1  -6   0    7.96    0.79
  -1  -6   0    7.90    0.92
   0   6   0    5.04    1.17
   0   6   0    4.36    0.58
   0  -6   0    4.30    0.56
   0  -6   0    4.32    0.74
  -1   6   0    8.24    0.48
  -1   6   0    8.57    1.36
   1  -6   0    9.01    0.85
   1  -6   0    6.43    0.85
  -2   6   0    1.48    0.86
  -2   6   0    3.15    0.31
   2  -6   0    1.50    0.56
   2  -6   0    3.21    0.59
  -3   6   0   10.23    1.50
   3  -6   0   10.77    1.05
   3  -6   0   10.76    1.09
  -4   6   0   11.18    1.62
   4  -6   0   12.86    1.18
   4  -6   0   14.02    1.33
  -5   6   0   37.13    2.58
   5  -6   0   35.67    1.92
  -6   6   0    9.04    1.71
   6  -6   0   12.17    1.43
  -7   6   0   17.16    2.35
   7  -6   0   17.41    1.74
  -8   6   0    9.59    1.96
   8  -6   0    9.91    1.45
  -9   6   0    0.55    1.10
   9  -6   0    0.34    0.76
   8   7   0    3.13    1.18
  -8  -7   0    0.44    1.12
   7   7   0    6.38    1.41
  -7  -7   0    8.67    1.66
   6   7   0    8.01    1.50
  -6  -7   0    7.80    1.18
  -6  -7   0    5.96    1.32
   5   7   0    6.46    1.38
  -5  -7   0    4.35    0.95
  -5  -7   0    3.16    0.98
   4   7   0   40.66    2.59
  -4  -7   0   42.57    2.31
  -4  -7   0   40.16    2.11
   3   7   0   15.96    1.97
  -3  -7   0   13.81    1.42
  -3  -7   0   14.51    1.43
   2   7   0   95.75    4.10
   2   7   0  101.03    2.44
  -2  -7   0  100.02    3.03
  -2  -7   0  101.26    3.20
   1   7   0   89.19    3.99
   1   7   0   81.86    2.30
  -1  -7   0   82.22    2.39
  -1  -7   0   81.83    2.85
  -1  -7   0   85.22    2.15
   0   7   0   -0.82    0.68
   0  -7   0    0.14    0.30
   0  -7   0    0.35    0.34
   0  -7   0   -0.06    0.48
  -1   7   0   82.95    3.83
   1  -7   0   76.91    2.68
   1  -7   0   83.00    2.37
  -2   7   0   94.85    4.15
   2  -7   0  107.16    3.19
   2  -7   0   97.63    2.88
  -3   7   0   10.60    1.71
   3  -7   0   15.57    1.38
   3  -7   0   14.15    1.28
  -4   7   0   31.05    2.44
   4  -7   0   46.32    1.99
   4  -7   0   41.75    2.01
  -5   7   0    3.95    1.23
   5  -7   0    4.70    0.91
  -6   7   0    7.87    1.70
   6  -7   0    7.43    1.14
  -7   7   0   10.88    1.98
   7  -7   0   10.98    1.45
  -8   7   0    3.11    1.40
   8  -7   0    3.22    1.00
   8   8   0    8.96    1.83
  -8  -8   0    6.20    1.75
   7   8   0    3.47    1.18
  -7  -8   0    6.65    1.54
   6   8   0    1.05    0.89
  -6  -8   0    0.88    0.77
  -6  -8   0    0.17    0.82
   5   8   0    3.09    1.10
  -5  -8   0    3.06    1.05
   4   8   0    2.61    1.05
  -4  -8   0    0.86    0.74
  -4  -8   0    1.27    0.71
   3   8   0    0.01    0.78
  -3  -8   0    1.55    0.74
  -3  -8   0   -0.80    0.52
  -2  -8   0   69.43    2.51
  -2  -8   0   65.00    2.69
   1   8   0   48.33    3.20
   1   8   0   49.88    1.81
  -1  -8   0   47.04    2.30
   0   8   0  200.88    6.81
   0  -8   0  184.06    5.02
   0  -8   0  198.73    4.29
  -1   8   0   48.03    3.28
   1  -8   0   44.88    2.12
   1  -8   0   42.25    1.73
  -2   8   0   61.25    3.58
   2  -8   0   68.26    2.35
   2  -8   0   64.47    2.63
  -3   8   0   -0.41    0.81
   3  -8   0    0.07    0.51
   3  -8   0   -0.19    0.48
  -4   8   0    0.07    0.92
   4  -8   0    0.15    0.52
   4  -8   0    2.26    0.74
  -5   8   0    3.56    1.29
   5  -8   0    3.87    0.88
  -6   8   0   -0.62    0.80
   6  -8   0    0.28    0.58
  -7   8   0    5.11    1.68
   7  -8   0    4.70    1.05
  -8   8   0    7.69    2.00
   8  -8   0    7.43    1.40
  -8  -9   0   -0.21    1.05
   7   9   0    4.12    1.35
  -7  -9   0    0.89    1.08
   6   9   0    3.55    1.20
  -6  -9   0    2.47    1.00
  -6  -9   0   -0.13    0.87
   5   9   0   -0.16    0.76
  -5  -9   0   -0.01    0.71
  -5  -9   0   -0.42    0.75
   4   9   0    0.25    0.79
  -4  -9   0    0.91    0.78
  -4  -9   0    0.39    0.74
   3   9   0    8.36    1.60
  -3  -9   0    9.78    1.37
   2   9   0    2.07    1.12
  -2  -9   0    3.86    0.99
   1   9   0   -0.24    0.90
   1   9   0    0.25    0.47
  -1  -9   0   -0.15    0.63
   0   9   0    0.19    1.05
   0  -9   0    0.63    0.46
   0  -9   0    1.19    0.79
  -1   9   0    0.28    1.03
   1  -9   0    0.46    0.47
   1  -9   0    0.71    0.68
  -2   9   0    1.03    1.11
   2  -9   0    2.06    0.65
   2  -9   0    2.10    0.80
  -3   9   0    9.79    1.98
   3  -9   0    8.81    1.15
   3  -9   0    9.37    1.27
  -4   9   0    1.22    1.07
   4  -9   0    0.98    0.61
   4  -9   0    0.96    0.64
  -5   9   0    0.74    1.02
   5  -9   0    0.07    0.61
  -6   9   0    1.66    1.25
   6  -9   0    1.25    0.78
  -7   9   0    2.13    1.53
   7  -9   0    1.60    0.90
   7  10   0    2.35    1.20
  -7 -10   0   -0.70    1.01
   6  10   0   -0.11    0.94
  -6 -10   0    1.14    0.96
  -6 -10   0    0.58    0.99
   5  10   0    0.46    0.90
  -5 -10   0    0.59    0.85
   4  10   0    1.06    0.97
  -4 -10   0   -0.96    0.70
   3  10   0   12.17    2.10
  -3 -10   0   10.23    1.52
   2  10   0    5.95    1.60
  -2 -10   0    5.97    1.17
   1  10   0    7.40    1.85
  -1 -10   0    3.16    0.93
   0  10   0  123.95    5.76
   0 -10   0  127.60    4.20
   0 -10   0  124.43    3.35
  -1  10   0    2.98    1.48
   1 -10   0    4.64    1.06
   1 -10   0    3.91    0.80
  -2  10   0   13.30    2.39
   2 -10   0    8.50    1.30
   2 -10   0    7.12    1.03
  -3  10   0    7.54    1.88
   3 -10   0   10.37    1.29
   3 -10   0   10.99    1.46
  -4  10   0    0.41    1.18
   4 -10   0    0.06    0.58
   4 -10   0    1.35    0.82
  -5  10   0    0.50    1.17
   5 -10   0   -0.21    0.53
  -6  10   0    1.43    1.40
   6 -10   0    1.77    0.84
  -7  10   0   -0.32    1.23
   7 -10   0   -0.02    0.75
   6  11   0    2.25    1.25
  -6 -11   0    1.30    1.09
   5  11   0    3.71    1.32
  -5 -11   0    3.63    1.25
   4  11   0   30.51    3.22
  -4 -11   0   26.92    2.46
   3  11   0    1.91    1.23
  -3 -11   0    2.41    0.96
  -2 -11   0   34.22    2.29
   1  11   0    3.83    1.60
  -1 -11   0    1.85    0.87
   0  11   0    1.41    1.26
   0 -11   0    0.71    0.72
  -1  11   0    3.42    1.58
   1 -11   0    2.39    0.91
   1 -11   0    1.87    0.69
  -2  11   0   33.53    3.80
   2 -11   0   29.95    2.12
   2 -11   0   34.52    1.89
  -3  11   0   -0.79    1.09
   3 -11   0    2.93    0.85
   3 -11   0    3.56    1.03
  -4  11   0   22.67    3.18
   4 -11   0   28.85    1.95
  -5  11   0    3.67    1.75
   5 -11   0    2.61    0.93
  -6  11   0    0.89    1.51
   6 -11   0    1.87    0.91
  -6 -12   0   13.55    2.00
   5  12   0   10.84    2.05
  -5 -12   0   11.78    1.82
   4  12   0   -0.30    0.97
  -4 -12   0   -0.17    0.78
   3  12   0   19.01    2.74
  -3 -12   0   14.32    1.86
   2  12   0    0.35    1.09
  -2 -12   0   -0.46    0.67
   1  12   0    8.79    2.15
  -1 -12   0    5.79    1.33
   0  12   0    9.66    2.28
   0 -12   0   14.96    1.90
  -1  12   0    6.45    2.09
   1 -12   0    5.10    1.20
  -2  12   0    2.36    1.51
   2 -12   0    0.25    0.57
   2 -12   0    0.01    0.71
  -3  12   0   11.17    2.65
   3 -12   0   18.00    1.99
   3 -12   0   16.67    1.69
  -4  12   0    1.55    1.60
   4 -12   0    0.82    0.75
  -5  12   0    7.57    2.32
   5 -12   0    8.76    1.47
   4  13   0   -0.73    1.02
  -4 -13   0   -0.53    0.75
   3  13   0    3.16    1.53
  -3 -13   0    2.05    1.08
   2  13   0    3.43    1.67
  -2 -13   0    1.18    0.95
   1  13   0    0.09    1.18
  -1 -13   0    1.39    0.98
   0  13   0    0.99    1.46
   0 -13   0    0.95    0.91
  -1  13   0    1.44    1.47
   1 -13   0    1.44    0.99
  -2  13   0    0.88    1.60
   2 -13   0    1.13    0.99
  -3  13   0    3.29    1.94
   3 -13   0    2.19    0.93
   3 -13   0    4.02    1.26
  -4  13   0   -0.27    1.30
   4 -13   0    0.04    0.76
  -2 -14   0    5.93    1.46
   1  14   0    1.72    1.61
  -1 -14   0    3.42    1.28
   0  14   0    5.13    2.06
   0 -14   0    2.76    1.25
  -1  14   0    6.12    2.33
   1 -14   0    4.44    1.32
  -2  14   0    5.25    2.14
   2 -14   0    7.10    1.55
   3 -14   0    2.31    1.22
   2 -14   1    3.31    1.20
   1 -14   1    0.44    0.97
  -1  14  -1   -0.92    1.41
   0 -14   1    2.81    1.24
   0  14  -1    0.59    1.54
  -1 -14   1    0.81    0.99
   1  14  -1    0.79    1.47
  -2 -14   1    1.90    1.08
   4 -13   1    1.23    0.90
   3 -13   1    9.20    1.34
   3 -13   1    5.20    1.35
  -3  13  -1    6.91    2.31
   2 -13   1    1.71    1.05
  -2  13  -1    0.31    1.45
   1 -13   1   22.63    2.31
  -1  13  -1   17.23    3.04
   0 -13   1    4.68    1.28
   0  13  -1    4.33    1.91
  -1 -13   1    5.44    1.32
   1  13  -1    6.25    1.96
  -2 -13   1   16.76    2.15
   2  13  -1   18.95    3.01
  -3 -13   1    4.25    1.37
   3  13  -1    3.08    1.53
  -4 -13   1   26.19    2.62
   4  13  -1   23.67    3.04
   5 -12   1    7.16    1.32
  -5  12  -1    4.47    2.07
   4 -12   1    3.10    1.01
  -4  12  -1    4.74    2.01
   3 -12   1    9.02    1.34
   3 -12   1    6.36    1.29
  -3  12  -1    5.95    1.99
   2 -12   1    8.78    1.22
   2 -12   1    9.26    1.53
  -2  12  -1   10.81    2.48
   1 -12   1    5.45    1.23
  -1  12  -1    8.17    2.17
   0 -12   1    8.78    1.49
   0  12  -1    5.36    1.88
  -1 -12   1   11.13    1.67
   1  12  -1    9.83    2.26
  -2 -12   1    1.73    0.97
   2  12  -1    1.38    1.29
  -3 -12   1   19.67    2.17
  -4 -12   1    1.65    1.09
   4  12  -1   -1.02    0.92
  -5 -12   1    6.21    1.50
   5  12  -1    2.23    1.24
  -6 -12   1   23.06    2.53
  -6  11  -1    5.26    2.01
   5 -11   1   -0.03    0.63
  -5  11  -1    1.15    1.47
   4 -11   1   -0.70    0.55
  -4  11  -1    0.42    1.27
   3 -11   1    6.97    1.11
   3 -11   1    9.04    1.42
  -3  11  -1    6.00    1.95
   2 -11   1    0.04    0.74
   2 -11   1    0.57    0.53
  -2  11  -1    0.94    1.25
   1 -11   1    0.73    0.56
   1 -11   1    0.31    0.71
  -1  11  -1   -0.61    1.11
   0 -11   1    0.44    0.73
   0  11  -1    0.43    1.06
  -1 -11   1    2.01    0.86
   1  11  -1    2.15    1.43
  -2 -11   1    9.12    1.45
   2  11  -1    8.17    1.94
  -3 -11   1    4.47    1.18
   3  11  -1    6.37    1.71
  -4 -11   1   -0.26    0.81
   4  11  -1    0.36    0.88
  -5 -11   1    0.82    1.00
   5  11  -1    0.21    1.02
  -6 -11   1    1.08    1.04
   6  11  -1    0.05    0.98
   7 -10   1    3.95    1.21
  -7  10  -1    1.70    1.61
   6 -10   1    0.05    0.73
  -6  10  -1    1.03    1.46
   5 -10   1   17.69    1.84
  -5  10  -1   21.59    3.10
   4 -10   1    6.47    1.11
  -4  10  -1    1.73    1.43
   3 -10   1    9.51    1.34
   3 -10   1    7.29    1.11
  -3  10  -1   10.00    2.09
   2 -10   1   12.42    1.48
   2 -10   1   10.65    1.19
  -2  10  -1   11.25    2.21
   1 -10   1    0.05    0.62
   1 -10   1    0.06    0.43
  -1  10  -1    1.52    1.26
   0 -10   1   12.70    1.15
   0 -10   1   13.46    1.59
   0  10  -1   13.75    2.34
  -1 -10   1   38.40    2.30
   1  10  -1   45.19    4.08
  -2 -10   1    4.63    1.08
   2  10  -1    6.47    1.75
  -3 -10   1   17.28    1.81
   3  10  -1   13.44    2.17
  -4 -10   1   11.16    1.58
   4  10  -1    8.65    1.80
  -5 -10   1    0.74    0.79
   5  10  -1    0.68    0.87
  -6 -10   1    6.25    1.39
  -6 -10   1    4.92    1.41
   6  10  -1    6.00    1.54
  -7 -10   1    1.18    1.18
   7  10  -1   -0.60    0.76
   7  -9   1   13.18    1.72
  -7   9  -1   10.68    2.31
   6  -9   1    7.13    1.27
  -6   9  -1    5.98    1.76
   5  -9   1    4.54    0.99
  -5   9  -1    6.23    1.72
   4  -9   1   32.57    1.89
  -4   9  -1   30.22    3.34
   3  -9   1   47.16    2.28
   3  -9   1   41.49    2.09
  -3   9  -1   48.37    3.44
   2  -9   1    0.11    0.60
   2  -9   1    0.13    0.44
  -2   9  -1   -0.50    0.96
   1  -9   1   95.89    2.84
   1  -9   1   96.80    3.40
  -1   9  -1   90.26    4.67
   0  -9   1    2.55    0.57
   0  -9   1    4.60    1.00
   0   9  -1    1.64    1.24
  -1  -9   1   35.39    2.07
   1   9  -1   44.24    3.28
  -2  -9   1    9.04    1.28
   2   9  -1    8.10    1.81
  -3  -9   1   20.37    1.88
  -3  -9   1   21.22    1.62
   3   9  -1   18.39    2.40
  -4  -9   1   46.43    2.55
  -4  -9   1   43.03    2.47
   4   9  -1   45.45    3.09
  -5  -9   1   15.38    1.89
  -5  -9   1   18.75    1.86
   5   9  -1   14.36    2.07
  -6  -9   1   -1.01    0.60
  -6  -9   1    1.15    0.79
   6   9  -1    0.53    0.87
  -7  -9   1   10.42    1.89
   7   9  -1   10.84    1.88
  -8  -9   1    1.85    1.31
   8  -8   1    0.71    0.83
  -8   8  -1   -0.38    1.18
   7  -8   1    8.59    1.41
  -7   8  -1    7.33    1.91
   6  -8   1    0.06    0.56
  -6   8  -1    1.25    1.17
   5  -8   1   13.10    1.50
  -5   8  -1   12.08    2.11
   4  -8   1    4.54    0.89
   4  -8   1    6.87    1.07
  -4   8  -1    7.39    1.57
   3  -8   1   -0.26    0.48
   3  -8   1    1.11    0.63
  -3   8  -1    1.07    0.95
   2  -8   1    2.87    0.71
   2  -8   1    3.83    0.82
  -2   8  -1    3.64    1.45
   1  -8   1   -0.01    0.64
   1  -8   1   -0.04    0.43
  -1   8  -1    1.96    1.17
   0  -8   1   16.36    1.50
   0  -8   1   13.72    0.95
   0   8  -1   19.24    2.45
  -1  -8   1   77.93    2.11
  -1  -8   1   77.37    2.90
   1   8  -1   80.22    2.86
   1   8  -1   76.60    4.01
  -2  -8   1   22.80    1.67
  -2  -8   1   26.27    1.55
   2   8  -1   29.14    2.91
  -3  -8   1   24.70    1.84
  -3  -8   1   29.27    1.86
   3   8  -1   32.13    2.46
  -4  -8   1    4.67    1.06
  -4  -8   1    6.41    1.12
   4   8  -1    3.90    1.17
  -5  -8   1    0.58    0.78
  -5  -8   1    0.77    0.78
   5   8  -1    0.52    0.77
  -6  -8   1    0.82    0.90
  -6  -8   1    3.56    1.00
   6   8  -1    0.19    0.75
  -7  -8   1   -0.10    0.91
   7   8  -1    0.39    0.86
  -8  -8   1    5.71    1.58
   8   8  -1    4.57    1.40
   8  -7   1    1.70    0.94
  -8   7  -1    0.39    1.04
   7  -7   1    1.69    0.80
  -7   7  -1   -0.40    0.88
   6  -7   1    3.62    0.93
  -6   7  -1    4.31    1.32
   5  -7   1   16.68    1.59
  -5   7  -1   14.98    2.09
   4  -7   1    4.15    0.82
   4  -7   1    3.47    0.83
  -4   7  -1    4.93    1.29
   3  -7   1   72.68    2.53
   3  -7   1   70.46    2.48
  -3   7  -1   64.35    3.41
   2  -7   1    0.95    0.49
   2  -7   1    0.97    0.58
  -2   7  -1    0.00    0.89
   1  -7   1   23.63    1.47
   1  -7   1   26.20    1.30
  -1   7  -1   25.44    1.14
  -1   7  -1   27.44    2.63
   0  -7   1    2.10    0.49
   0  -7   1    2.45    0.69
   0   7  -1    2.67    0.62
   0   7  -1    1.35    1.00
  -1  -7   1   36.57    1.26
  -1  -7   1   38.87    1.93
   1   7  -1   36.04    1.87
   1   7  -1   35.58    3.07
  -2  -7   1    0.56    0.56
   2   7  -1    0.40    0.87
   2   7  -1    0.87    0.75
  -3  -7   1   34.26    1.92
  -3  -7   1   34.77    2.01
   3   7  -1   36.16    2.45
  -4  -7   1    5.13    1.04
  -4  -7   1    3.34    0.89
   4   7  -1    2.49    0.97
  -5  -7   1   19.87    1.72
  -5  -7   1   19.61    2.02
   5   7  -1   18.53    2.11
  -6  -7   1    1.17    0.90
  -6  -7   1    2.00    0.84
   6   7  -1    1.85    0.90
  -7  -7   1    3.40    1.20
   7   7  -1    1.11    0.91
  -8  -7   1   15.14    2.27
   8   7  -1   14.19    2.06
   9  -6   1   -0.76    0.62
  -9   6  -1    0.79    1.16
   8  -6   1    5.46    1.19
  -8   6  -1    2.10    1.30
   7  -6   1    1.32    0.74
  -7   6  -1    0.92    1.00
   6  -6   1   -0.21    0.50
  -6   6  -1    1.47    0.94
   5  -6   1   72.82    2.76
  -5   6  -1   69.80    3.57
   4  -6   1    4.13    0.85
   4  -6   1    5.43    0.79
  -4   6  -1    4.48    1.19
   3  -6   1   50.83    1.93
   3  -6   1   51.96    2.04
  -3   6  -1   51.98    1.79
  -3   6  -1   57.57    2.88
   2  -6   1   72.13    2.35
   2  -6   1   75.68    2.33
  -2   6  -1   73.67    3.32
  -2   6  -1   71.28    1.90
   1  -6   1  115.04    3.10
   1  -6   1  110.11    2.78
  -1   6  -1  117.97    4.26
  -1   6  -1  113.66    2.62
   0  -6   1   77.45    2.50
   0  -6   1   78.61    2.06
   0   6  -1   81.63    2.31
   0   6  -1   87.06    3.68
  -1  -6   1  163.74    3.17
  -1  -6   1  157.58    4.05
   1   6  -1  159.57    4.09
  -2  -6   1    2.30    0.64
   2   6  -1    2.26    0.37
   2   6  -1    2.72    0.96
   2   6  -1    3.44    0.91
  -3  -6   1   91.89    3.11
  -3  -6   1   85.93    2.90
   3   6  -1   88.02    3.51
   3   6  -1   83.14    3.48
  -4  -6   1    2.00    0.75
  -4  -6   1    0.66    0.68
   4   6  -1    0.87    0.72
  -5  -6   1    8.22    1.34
  -5  -6   1    8.46    1.17
   5   6  -1    9.50    1.49
  -6  -6   1   39.10    2.10
  -6  -6   1   41.46    2.68
   6   6  -1   38.84    2.52
  -7  -6   1    0.64    0.87
   7   6  -1    0.92    0.79
  -8  -6   1   24.17    2.76
   8   6  -1   23.85    2.52
  -9  -6   1    8.03    1.87
   9   6  -1    5.91    1.49
   9  -5   1   11.84    1.67
  -9   5  -1   13.86    2.26
   8  -5   1   -0.20    0.65
  -8   5  -1    0.50    0.85
   7  -5   1    5.25    1.08
  -7   5  -1    4.43    1.28
   6  -5   1   48.57    2.36
  -6   5  -1   47.25    2.84
  -6   5  -1   50.41    2.95
   5  -5   1   13.26    1.38
  -5   5  -1   11.74    1.54
  -5   5  -1    9.07    1.51
   4  -5   1    7.01    0.77
   4  -5   1    4.87    0.80
  -4   5  -1    5.36    1.03
  -4   5  -1    7.09    1.26
   3  -5   1  154.51    3.54
   3  -5   1  148.05    3.69
  -3   5  -1  150.09    4.63
  -3   5  -1  150.13    3.72
   2  -5   1   32.71    1.39
   2  -5   1   31.59    1.37
  -2   5  -1   32.69    2.01
  -2   5  -1   32.24    1.20
   1  -5   1  335.69    6.03
   1  -5   1  318.04    6.42
  -1   5  -1  322.54    6.08
  -1   5  -1  332.01    7.84
   0  -5   1    4.22    0.65
   0  -5   1    6.01    0.56
   0   5  -1    6.27    0.65
   0   5  -1    6.43    1.20
  -1  -5   1    3.16    0.61
  -1  -5   1    3.93    0.40
   1   5  -1    3.87    0.70
   1   5  -1    3.87    0.98
  -2  -5   1  292.62    6.04
   2   5  -1  286.77    4.78
   2   5  -1  288.60    6.70
   2   5  -1  279.03    7.12
  -3  -5   1    2.31    0.60
   3   5  -1    1.85    0.83
   3   5  -1    2.34    0.23
   3   5  -1    2.50    0.80
  -4  -5   1   26.32    1.53
  -4  -5   1   25.13    1.78
   4   5  -1   27.25    1.85
  -5  -5   1   78.25    3.40
  -5  -5   1   81.00    2.76
   5   5  -1   87.34    3.43
  -6  -5   1   95.88    4.07
  -6  -5   1   97.63    3.14
   6   5  -1   98.06    3.88
  -7  -5   1    1.64    0.98
   7   5  -1    3.80    1.06
  -8  -5   1   -1.24    0.70
   8   5  -1    0.88    0.79
  -9  -5   1    4.19    1.53
   9   5  -1    2.94    1.19
   9  -4   1   -0.94    0.65
  -9   4  -1    0.38    0.94
   8  -4   1    2.43    0.89
  -8   4  -1    3.24    1.40
  -8   4  -1    1.47    1.00
   7  -4   1   -0.19    0.49
  -7   4  -1   -0.79    0.81
  -7   4  -1    0.74    0.76
   6  -4   1    2.06    0.69
  -6   4  -1    1.29    0.94
  -6   4  -1   -0.02    0.70
   5  -4   1   36.05    1.82
  -5   4  -1   38.53    2.29
  -5   4  -1   37.13    2.28
   4  -4   1    1.56    0.56
   4  -4   1    0.23    0.34
  -4   4  -1    1.12    0.64
  -4   4  -1    0.24    0.66
   3  -4   1   75.57    1.98
   3  -4   1   71.20    2.23
  -3   4  -1   72.83    2.43
  -3   4  -1   69.81    2.73
   2  -4   1   45.80    1.48
   2  -4   1   45.41    1.56
  -2   4  -1   41.16    1.96
  -2   4  -1   44.79    1.50
   1  -4   1   14.55    0.84
   1  -4   1   14.29    0.80
  -1   4  -1   14.54    0.71
  -1   4  -1   13.07    1.28
   0  -4   1   12.18    0.62
   0  -4   1   12.73    0.82
   0   4  -1   11.30    0.75
   0   4  -1   11.55    1.31
  -1  -4   1    1.94    0.46
  -1  -4   1    2.70    0.29
   1   4  -1    1.95    0.52
   1   4  -1    3.17    0.79
  -2  -4   1    1.78    0.51
   2   4  -1    1.06    0.58
   2   4  -1    1.55    0.63
   2   4  -1    1.43    0.19
  -3  -4   1    0.38    0.41
   3   4  -1    0.33    0.15
   3   4  -1    0.24    0.42
   3   4  -1   -0.84    0.58
  -4  -4   1   19.91    1.25
  -4  -4   1   21.26    1.66
   4   4  -1   17.70    1.64
  -5  -4   1    2.47    0.95
  -5  -4   1    2.80    0.71
   5   4  -1    1.94    0.74
  -6  -4   1    1.35    0.96
  -6  -4   1    1.49    0.66
   6   4  -1    2.84    0.87
  -7  -4   1    0.01    0.80
   7   4  -1    0.71    0.70
  -8  -4   1    2.97    1.27
   8   4  -1    3.65    1.08
  -9  -4   1    1.17    1.19
   9   4  -1    0.47    0.88
   9  -3   1    4.02    1.11
   9  -3   1    2.28    1.09
  -9   3  -1    1.42    1.40
   8  -3   1   10.54    1.67
   8  -3   1   10.80    1.42
  -8   3  -1   11.67    1.91
   7  -3   1   14.95    1.51
   7  -3   1   13.19    1.77
  -7   3  -1   11.85    1.86
   6  -3   1    3.73    0.85
   6  -3   1    2.04    0.83
  -6   3  -1    3.06    1.07
   5  -3   1   37.27    1.82
   5  -3   1   43.10    2.27
  -5   3  -1   41.75    2.34
   4  -3   1    0.24    0.24
   4  -3   1    0.68    0.50
   4  -3   1   -0.04    0.37
  -4   3  -1   -0.21    0.55
   3  -3   1    1.30    0.41
   3  -3   1    0.68    0.27
  -3   3  -1    1.26    0.51
  -3   3  -1    1.46    0.58
   2  -3   1   12.77    0.69
   2  -3   1   14.31    0.81
  -2   3  -1   14.04    0.97
  -2   3  -1   12.82    0.99
   1  -3   1   55.79    1.52
  -1   3  -1   56.03    1.47
  -1   3  -1   56.84    2.00
   0  -3   1   -0.50    0.25
   0  -3   1    0.25    0.21
   0   3  -1    0.31    0.47
   0   3  -1    0.16    0.25
  -1  -3   1  229.68    3.75
  -1  -3   1  234.79    4.61
   1   3  -1  230.05    4.91
   1   3  -1  239.14    5.44
  -2  -3   1  129.28    3.01
   2   3  -1  132.57    3.63
  -3  -3   1  297.06    5.85
   3   3  -1  302.91    4.78
   3   3  -1  291.51    6.54
   3   3  -1  285.85    6.99
  -4  -3   1  174.91    4.93
  -4  -3   1  181.85    4.09
   4   3  -1  186.21    3.34
   4   3  -1  186.93    4.85
  -5  -3   1   17.01    1.16
  -5  -3   1   16.36    1.72
   5   3  -1   16.80    1.61
  -6  -3   1    1.39    0.84
  -6  -3   1    1.07    0.56
   6   3  -1    1.15    0.68
  -7  -3   1    9.19    1.67
   7   3  -1    8.55    1.39
  -8  -3   1    3.31    1.17
   8   3  -1    2.28    0.95
  -9  -3   1   -1.05    0.89
   9   3  -1   -0.27    0.74
 -10   2  -1    9.33    2.23
   9  -2   1    0.46    0.69
   9  -2   1    1.44    0.90
  -9   2  -1   -1.01    1.04
   8  -2   1    8.04    1.46
   8  -2   1    8.56    1.25
  -8   2  -1    6.06    1.52
   7  -2   1   32.37    2.23
   7  -2   1   40.25    2.02
  -7   2  -1   36.05    2.55
   6  -2   1    0.04    0.52
   6  -2   1    0.66    0.68
  -6   2  -1    0.65    0.79
   5  -2   1  125.92    4.03
   5  -2   1  133.35    3.48
  -5   2  -1  126.80    4.19
   4  -2   1   17.31    1.07
   4  -2   1   20.89    1.37
  -4   2  -1   18.72    1.47
   3  -2   1  151.47    3.85
   3  -2   1  151.25    2.79
   3  -2   1  153.74    3.38
  -3   2  -1  150.07    3.85
   2  -2   1   44.67    1.10
  -2   2  -1   44.84    1.62
  -2   2  -1   44.79    1.62
   1  -2   1    4.62    0.49
   1  -2   1    3.59    0.40
  -1   2  -1    4.01    0.60
  -1   2  -1    3.71    0.52
   0  -2   1  210.95    3.51
   0  -2   1  211.03    3.91
   0   2  -1  206.29    4.49
   0   2  -1  208.38    3.96
  -1  -2   1  381.15    6.79
   1   2  -1  377.35    7.46
   1   2  -1  383.90    7.23
  -2  -2   1  273.79    5.14
   2   2  -1  272.15    5.65
   2   2  -1  268.61    4.24
   2   2  -1  267.33    5.92
  -3  -2   1  209.49    4.26
   3   2  -1  214.97    3.63
   3   2  -1  213.36    5.47
   3   2  -1  203.40    4.80
  -4  -2   1   10.58    1.24
  -4  -2   1   10.91    0.79
   4   2  -1    8.16    0.98
   4   2  -1    8.05    0.58
  -5  -2   1    8.42    1.28
  -5  -2   1    8.04    0.82
   5   2  -1   10.52    0.82
   5   2  -1    9.69    1.18
  -6  -2   1   56.49    2.98
   6   2  -1   56.18    2.62
  -7  -2   1    5.40    1.32
   7   2  -1    5.74    1.15
  -8  -2   1   26.71    2.75
   8   2  -1   26.25    2.45
  -9  -2   1    1.03    1.22
   9   2  -1    1.51    0.93
 -10  -2   1    2.47    1.56
 -10   1  -1    1.13    1.50
   9  -1   1    7.48    1.53
  -9   1  -1    6.52    1.87
   8  -1   1   10.73    1.33
   8  -1   1    6.35    1.33
  -8   1  -1   10.65    1.94
   7  -1   1   26.93    1.67
   7  -1   1   26.95    1.98
  -7   1  -1   27.09    2.59
   6  -1   1   18.73    1.82
   6  -1   1   16.21    1.38
  -6   1  -1   15.89    1.84
   5  -1   1    0.30    0.46
   5  -1   1    0.97    0.55
  -5   1  -1    0.64    0.69
   4  -1   1   97.24    3.05
   4  -1   1   95.62    2.58
  -4   1  -1   97.28    3.18
   3  -1   1  186.17    3.79
   3  -1   1  183.68    4.35
  -3   1  -1  186.86    4.47
   2  -1   1    9.76    0.63
   2  -1   1   10.71    0.73
  -2   1  -1   11.24    0.86
   1  -1   1  409.39    7.46
   1  -1   1  421.75    6.76
  -1   1  -1  414.77    7.57
   0  -1   1   10.45    0.34
   0  -1   1    9.22    0.40
   0   1  -1   10.05    0.53
   0   1  -1    8.90    0.43
  -1  -1   1  181.77    3.40
   1   1  -1  181.86    3.64
   1   1  -1  179.23    2.82
   1   1  -1  186.07    3.78
  -2  -1   1   16.86    0.74
   2   1  -1   17.45    0.89
   2   1  -1   17.42    0.55
  -3  -1   1    4.46    0.48
   3   1  -1    5.14    0.91
   3   1  -1    4.69    0.64
   3   1  -1    5.00    0.44
  -4  -1   1  136.09    3.94
  -4  -1   1  135.34    3.03
   4   1  -1  143.15    2.92
   4   1  -1  136.71    3.73
  -5  -1   1   12.80    1.45
  -5  -1   1   12.35    0.84
   5   1  -1   12.10    0.84
   5   1  -1   12.60    1.36
  -6  -1   1    1.18    0.83
   6   1  -1    0.24    0.44
   6   1  -1    1.32    0.64
  -7  -1   1    8.84    1.51
   7   1  -1    9.26    1.37
  -8  -1   1    8.59    1.64
   8   1  -1    8.41    1.40
  -9  -1   1   -0.69    0.96
   9   1  -1   -0.03    0.71
 -10  -1   1    9.40    2.16
  10   1  -1   10.60    1.89
 -10   0  -1    0.23    1.44
   9   0   1   -0.03    0.69
  -9   0  -1   -0.82    1.04
   8   0   1   -0.35    0.55
   8   0   1   -0.27    0.61
  -8   0  -1   -0.06    0.89
   7   0   1    1.15    0.59
   7   0   1   -0.98    0.44
  -7   0  -1   -0.26    0.77
   6   0   1   -0.28    0.45
   6   0   1    0.00    0.50
  -6   0  -1    0.26    0.76
   5   0   1    0.03    0.49
   5   0   1   -0.16    0.39
  -5   0  -1    0.01    0.69
   4   0   1    0.94    0.47
   4   0   1    0.34    0.32
  -4   0  -1   -0.03    0.48
   3   0   1   -0.12    0.28
   3   0   1    0.10    0.26
  -3   0  -1   -0.54    0.33
   2   0   1   -0.44    0.24
   2   0   1   -0.20    0.24
  -2   0  -1   -0.18    0.40
   1   0   1    0.32    0.17
   1   0   1    0.27    0.18
  -1   0  -1    0.09    0.09
  -1   0  -1    0.26    0.25
   0   0   1    0.13    0.07
   0   0  -1    0.11    0.08
   0   0  -1    0.07    0.08
   1   0  -1    0.27    0.22
   1   0  -1    0.03    0.11
   1   0  -1    0.01    0.14
   1   0  -1   -0.06    0.14
   2   0  -1   -0.12    0.23
   2   0  -1   -0.19    0.26
   2   0  -1   -0.41    0.19
   2   0  -1    0.05    0.45
  -3   0   1    0.05    0.33
  -3   0   1    0.01    0.20
   3   0  -1    0.14    0.22
   3   0  -1    0.16    0.31
  -4   0   1    0.30    0.26
  -4   0   1    0.37    0.47
   4   0  -1   -0.10    0.26
   4   0  -1   -0.05    0.36
  -5   0   1    0.40    0.58
  -5   0   1    0.25    0.31
   5   0  -1   -0.16    0.34
   5   0  -1    0.66    0.51
  -6   0   1    1.35    0.84
   6   0  -1    0.29    0.58
   6   0  -1    0.03    0.43
  -7   0   1   -0.15    0.67
   7   0  -1    0.21    0.61
   7   0  -1   -0.39    0.43
  -8   0   1   -1.10    0.66
   8   0  -1    1.10    0.76
  -9   0   1    0.04    0.95
   9   0  -1   -0.15    0.67
 -10   0   1   -0.88    1.20
  10   0  -1   -0.79    0.80
 -10  -1  -1    1.24    1.52
   9   1   1    9.51    1.62
  -9  -1  -1    9.38    2.01
   8   1   1    7.84    1.39
  -8  -1  -1    7.62    1.77
   7   1   1   29.77    1.62
   7   1   1   29.75    2.06
  -7  -1  -1   24.46    2.43
   6   1   1   15.27    1.26
   6   1   1   11.86    1.45
  -6  -1  -1   10.88    1.61
   5   1   1    0.92    0.56
   5   1   1    1.04    0.46
  -5  -1  -1    1.05    0.79
   4   1   1  100.67    3.03
   4   1   1   98.46    2.46
  -4  -1  -1   95.70    3.22
  -4  -1  -1   98.36    2.09
   3   1   1  183.40    4.29
   3   1   1  186.02    3.62
  -3  -1  -1  184.37    4.52
  -3  -1  -1  193.48    3.48
   2   1   1   10.77    0.58
   2   1   1    9.99    0.69
  -2  -1  -1    9.80    0.87
  -2  -1  -1   10.23    0.52
   1   1   1  425.36    7.69
   1   1   1  420.95    6.83
  -1  -1  -1  432.50    7.24
  -1  -1  -1  431.29    7.75
   0   1   1    9.93    0.48
   0   1   1    8.96    0.39
   0  -1  -1    8.98    0.39
   1  -1  -1  185.38    3.56
   1  -1  -1  187.99    3.48
   2  -1  -1   17.54    0.77
   2  -1  -1   16.97    1.00
   2  -1  -1   16.79    0.75
  -3   1   1    4.96    0.68
   3  -1  -1    4.09    0.62
   3  -1  -1    4.44    0.51
   3  -1  -1    4.83    0.48
  -4   1   1  140.68    3.79
   4  -1  -1  139.22    3.14
   4  -1  -1  134.85    2.93
   4  -1  -1  133.36    3.73
  -5   1   1   12.40    1.37
  -5   1   1   10.02    0.72
   5  -1  -1   11.26    1.02
   5  -1  -1   10.81    1.26
  -6   1   1    0.61    0.74
   6  -1  -1    1.21    0.52
   6  -1  -1    0.92    0.66
  -7   1   1    9.50    1.51
   7  -1  -1    8.27    1.06
   7  -1  -1    7.59    1.29
  -8   1   1   11.47    1.87
   8  -1  -1    9.35    1.19
   8  -1  -1    7.83    1.41
  -9   1   1    0.33    0.99
   9  -1  -1   -0.27    0.64
 -10   1   1    4.95    1.83
  10  -1  -1    7.44    1.66
   9   2   1    0.38    0.79
  -9  -2  -1    1.52    1.43
   8   2   1   10.82    1.61
  -8  -2  -1    9.39    1.86
   7   2   1   37.57    2.36
  -7  -2  -1   38.42    2.74
   6   2   1    0.19    0.55
   6   2   1    0.33    0.47
  -6  -2  -1    0.21    0.78
   5   2   1  136.12    3.24
   5   2   1  128.96    4.01
  -5  -2  -1  137.09    2.99
  -5  -2  -1  140.68    4.47
   4   2   1   16.87    0.90
   4   2   1   20.67    1.35
  -4  -2  -1   19.76    1.50
  -4  -2  -1   18.04    0.90
   3   2   1  151.21    3.83
   3   2   1  156.89    3.09
  -3  -2  -1  154.38    4.03
  -3  -2  -1  156.27    3.19
   2   2   1   41.64    1.13
   2   2   1   47.39    1.64
  -2  -2  -1   45.41    1.65
  -2  -2  -1   45.69    1.29
   1   2   1    5.27    0.68
   1   2   1    3.49    0.40
  -1  -2  -1    3.80    0.49
  -1  -2  -1    4.43    0.54
   0   2   1  207.77    4.43
   0  -2  -1  209.19    3.62
   0  -2  -1  209.97    3.80
  -1   2   1  377.72    7.14
   1  -2  -1  380.04    6.75
   1  -2  -1  378.15    6.57
   1  -2  -1  378.62    6.33
  -2   2   1  271.39    5.13
   2  -2  -1  271.25    4.89
   2  -2  -1  267.28    5.05
   2  -2  -1  266.92    5.46
  -3   2   1  203.25    4.52
   3  -2  -1  212.79    4.17
   3  -2  -1  211.80    4.19
  -4   2   1    9.43    1.02
   4  -2  -1    8.43    1.03
   4  -2  -1    8.70    0.72
   4  -2  -1    7.97    0.80
  -5   2   1    8.85    1.13
   5  -2  -1    8.89    0.96
   5  -2  -1    8.71    0.75
   5  -2  -1    8.37    1.17
  -6   2   1   58.44    2.71
   6  -2  -1   59.04    2.24
   6  -2  -1   57.23    2.73
  -7   2   1    4.90    1.18
   7  -2  -1    5.82    0.97
   7  -2  -1    4.02    1.06
  -8   2   1   28.62    2.65
   8  -2  -1   25.48    2.49
   8  -2  -1   24.45    1.69
  -9   2   1    2.94    1.37
   9  -2  -1    1.64    1.05
 -10   2   1    1.16    1.43
   9   3   1    6.23    1.45
  -9  -3  -1    4.70    1.68
   8   3   1   10.76    1.69
  -8  -3  -1   11.44    1.97
   7   3   1   11.84    1.61
  -7  -3  -1    9.51    1.68
   6   3   1    3.00    0.86
  -6  -3  -1    2.43    1.04
   5   3   1   36.58    2.03
   5   3   1   38.41    1.47
  -5  -3  -1   40.48    1.53
  -5  -3  -1   39.94    2.40
   4   3   1    0.24    0.48
   4   3   1   -0.15    0.28
  -4  -3  -1    0.16    0.37
  -4  -3  -1    0.17    0.54
   3   3   1    1.24    0.54
   3   3   1    0.95    0.29
  -3  -3  -1    0.77    0.49
  -3  -3  -1    0.54    0.36
   2   3   1   13.63    0.64
   2   3   1   12.58    1.11
  -2  -3  -1   13.90    1.00
  -2  -3  -1   11.55    0.78
   1   3   1   54.62    2.05
   1   3   1   55.75    1.42
  -1  -3  -1   56.55    1.63
   0   3   1   -0.26    0.41
   0  -3  -1    0.19    0.31
   0  -3  -1    0.24    0.22
   0  -3  -1    0.11    0.22
  -1   3   1  224.36    4.99
   1  -3  -1  218.94    4.45
   1  -3  -1  228.22    4.15
  -2   3   1  128.69    3.39
  -2   3   1  130.56    2.69
   2  -3  -1  129.19    2.94
  -3   3   1  292.53    5.88
  -3   3   1  308.20    6.62
   3  -3  -1  292.70    5.70
   3  -3  -1  289.23    5.63
  -4   3   1  179.25    4.37
   4  -3  -1  184.30    3.91
   4  -3  -1  184.47    4.83
   4  -3  -1  177.14    4.08
  -5   3   1   18.11    1.55
   5  -3  -1   17.09    1.68
   5  -3  -1   17.18    1.37
   5  -3  -1   17.87    1.03
  -6   3   1    1.84    0.83
   6  -3  -1    0.54    0.54
   6  -3  -1    1.12    0.79
  -7   3   1   13.21    1.72
   7  -3  -1   11.31    1.31
   7  -3  -1    8.86    1.46
  -8   3   1    2.15    1.14
   8  -3  -1    3.89    1.15
   8  -3  -1    3.05    0.89
   9  -3  -1   -0.02    0.66
   9   4   1    1.00    0.97
  -9  -4  -1    0.91    1.21
   8   4   1    0.92    0.83
  -8  -4  -1    2.50    1.29
   7   4   1    0.21    0.60
  -7  -4  -1    0.25    0.86
   6   4   1    0.27    0.64
  -6  -4  -1    0.53    0.85
   5   4   1   36.96    1.44
   5   4   1   36.54    2.10
  -5  -4  -1   38.87    1.64
  -5  -4  -1   36.14    2.35
   4   4   1    0.30    0.52
   4   4   1   -0.06    0.29
  -4  -4  -1    0.49    0.45
  -4  -4  -1    0.22    0.59
   3   4   1   73.20    2.71
   3   4   1   75.61    1.80
  -3  -4  -1   74.33    2.21
  -3  -4  -1   69.37    2.58
   2   4   1   43.18    1.26
   2   4   1   40.26    1.95
  -2  -4  -1   44.65    1.60
  -2  -4  -1   44.28    1.73
   1   4   1   14.90    0.77
   1   4   1   18.39    1.37
  -1  -4  -1   14.98    0.87
   0   4   1   10.42    1.21
   0  -4  -1   12.08    0.57
   0  -4  -1   10.75    0.66
   0  -4  -1   11.66    0.84
  -1   4   1    2.62    0.67
   1  -4  -1    3.51    0.47
   1  -4  -1    2.64    0.49
  -2   4   1    1.39    0.31
  -2   4   1    1.32    0.54
   2  -4  -1    1.88    0.47
   2  -4  -1    2.08    0.45
  -3   4   1    0.28    0.35
  -3   4   1    0.25    0.48
   3  -4  -1   -0.27    0.26
   3  -4  -1    0.02    0.31
  -4   4   1   18.35    1.23
  -4   4   1   18.54    1.72
   4  -4  -1   19.36    1.13
   4  -4  -1   18.83    1.19
  -5   4   1    3.14    0.84
  -5   4   1    2.06    0.83
   5  -4  -1    2.11    0.64
  -6   4   1    2.71    0.95
  -6   4   1    2.12    0.85
   6  -4  -1    2.59    0.70
  -7   4   1    2.51    0.95
  -7   4   1    1.51    0.92
   7  -4  -1   -0.43    0.68
   7  -4  -1    0.46    0.60
  -8   4   1    2.84    1.16
   8  -4  -1    3.95    0.92
  -9   4   1    0.16    0.87
   9  -4  -1    0.51    0.75
   9   5   1   12.68    1.96
  -9  -5  -1   13.48    2.37
   8   5   1    0.55    0.80
  -8  -5  -1    0.14    1.02
   7   5   1    5.43    1.23
  -7  -5  -1    6.18    1.50
   6   5   1   41.02    2.46
  -6  -5  -1   45.29    2.76
   5   5   1   12.84    1.60
  -5  -5  -1   11.54    1.56
  -5  -5  -1   12.51    1.22
   4   5   1    4.67    1.01
   4   5   1    5.68    0.62
  -4  -5  -1    6.00    0.87
  -4  -5  -1    4.95    1.02
   3   5   1  157.42    4.62
   3   5   1  148.81    3.08
  -3  -5  -1  154.19    4.23
  -3  -5  -1  150.27    3.80
   2   5   1   32.98    2.02
   2   5   1   32.07    1.17
  -2  -5  -1   32.42    1.51
  -2  -5  -1   33.30    1.54
   1   5   1  322.12    5.87
   1   5   1  318.70    7.74
  -1  -5  -1  318.04    6.53
  -1  -5  -1  320.42    6.25
   0   5   1    4.43    1.02
   0  -5  -1    6.52    0.49
   0  -5  -1    4.27    0.67
   0  -5  -1    6.42    0.63
  -1   5   1    3.91    0.90
   1  -5  -1    4.37    0.60
   1  -5  -1    3.34    0.62
  -2   5   1  290.71    6.98
   2  -5  -1  281.85    5.63
   2  -5  -1  286.94    5.98
  -3   5   1    1.60    0.73
  -3   5   1    2.11    0.49
   3  -5  -1    2.14    0.55
   3  -5  -1    1.84    0.58
  -4   5   1   27.15    1.93
  -4   5   1   27.26    1.47
   4  -5  -1   24.43    1.41
   4  -5  -1   26.04    1.40
  -5   5   1   80.06    2.85
  -5   5   1   75.87    3.44
   5  -5  -1   76.08    2.73
  -6   5   1   93.59    4.06
   6  -5  -1   90.25    3.16
  -7   5   1    4.66    1.25
   7  -5  -1    4.26    0.94
  -8   5   1   -0.40    0.71
   8  -5  -1    0.68    0.72
  -9   5   1    3.05    1.27
   9  -5  -1    5.66    1.19
   9   6   1   -0.03    0.83
  -9  -6  -1   -1.20    1.11
   8   6   1    4.75    1.35
  -8  -6  -1    7.03    1.74
   7   6   1    0.43    0.77
  -7  -6  -1    1.64    1.06
   6   6   1    0.66    0.75
  -6  -6  -1   -0.17    0.73
   5   6   1   68.63    3.18
  -5  -6  -1   70.24    2.69
   4   6   1    5.32    1.13
  -4  -6  -1    4.87    0.92
  -4  -6  -1    3.11    0.91
   3   6   1   53.40    2.74
   3   6   1   52.03    1.56
  -3  -6  -1   52.31    2.26
  -3  -6  -1   51.29    2.17
   2   6   1   74.79    2.03
   2   6   1   69.95    3.20
  -2  -6  -1   76.38    2.60
  -2  -6  -1   72.69    2.44
   1   6   1  116.86    4.31
   1   6   1  120.70    2.90
  -1  -6  -1  117.48    2.92
   0   6   1   76.54    3.46
   0  -6  -1   86.88    2.24
   0  -6  -1   83.16    2.64
   0  -6  -1   82.47    1.90
  -1   6   1  159.14    5.04
   1  -6  -1  156.71    3.54
   1  -6  -1  149.23    3.92
  -2   6   1    1.85    0.84
   2  -6  -1    1.59    0.49
   2  -6  -1    2.06    0.63
  -3   6   1   88.26    3.60
   3  -6  -1   93.53    2.80
   3  -6  -1   88.34    2.78
  -4   6   1    0.55    0.72
   4  -6  -1    1.41    0.63
   4  -6  -1    0.69    0.53
  -5   6   1    7.97    1.45
   5  -6  -1    9.33    1.17
  -6   6   1   33.93    2.58
   6  -6  -1   42.73    2.17
  -7   6   1    2.52    1.07
   7  -6  -1    0.99    0.66
  -8   6   1   21.52    2.64
   8  -6  -1   28.04    2.31
  -9   6   1    3.46    1.49
   9  -6  -1    7.68    1.47
   8   7   1    1.91    1.01
  -8  -7  -1    2.34    1.38
   7   7   1    1.81    0.93
  -7  -7  -1    2.38    1.15
   6   7   1    4.49    1.17
  -6  -7  -1    4.89    1.28
   5   7   1   18.73    2.04
  -5  -7  -1   19.75    1.73
  -5  -7  -1   12.63    1.65
   4   7   1    3.82    1.03
  -4  -7  -1    3.66    0.93
  -4  -7  -1    3.31    0.95
   3   7   1   69.67    3.30
  -3  -7  -1   70.05    2.75
  -3  -7  -1   67.35    2.65
   2   7   1    1.12    0.43
   2   7   1   -0.26    0.73
  -2  -7  -1    1.28    0.60
  -2  -7  -1    0.16    0.56
   1   7   1   23.08    2.38
   1   7   1   27.45    1.34
  -1  -7  -1   28.71    1.67
  -1  -7  -1   29.06    1.30
   0   7   1    1.41    1.05
   0  -7  -1    3.24    0.58
   0  -7  -1    1.96    0.66
  -1   7   1   37.59    2.68
   1  -7  -1   34.28    1.80
   1  -7  -1   34.12    1.52
  -2   7   1   -1.10    0.63
   2  -7  -1    0.16    0.40
   2  -7  -1    1.23    0.66
  -3   7   1   33.76    2.45
   3  -7  -1   34.27    1.80
   3  -7  -1   33.01    1.68
  -4   7   1    3.02    1.14
   4  -7  -1    3.57    0.87
   4  -7  -1    4.76    0.86
  -5   7   1   16.61    2.20
   5  -7  -1   17.55    1.59
  -6   7   1    0.04    0.89
   6  -7  -1    1.46    0.72
  -7   7   1    0.98    1.01
   7  -7  -1    1.07    0.74
  -8   7   1   15.01    2.40
   8  -7  -1   18.15    1.92
   8   8   1    0.26    0.92
  -8  -8  -1    1.76    1.28
   7   8   1    8.70    1.68
  -7  -8  -1   10.41    1.86
   6   8   1    0.27    0.74
  -6  -8  -1   -0.66    0.77
   5   8   1   10.01    1.66
  -5  -8  -1   11.05    1.62
  -5  -8  -1   11.57    1.46
   4   8   1    6.28    1.33
  -4  -8  -1    6.04    1.15
  -4  -8  -1    6.89    1.24
   3   8   1    0.11    0.73
  -3  -8  -1   -0.63    0.54
  -3  -8  -1    0.42    0.62
   2   8   1    4.04    1.37
   2   8   1    4.72    0.71
  -2  -8  -1    1.98    0.82
  -2  -8  -1    2.78    0.76
   1   8   1   -0.56    0.89
   1   8   1    0.48    0.48
  -1  -8  -1    1.27    0.72
   0   8   1   19.01    2.45
   0  -8  -1   16.66    1.56
   0  -8  -1   14.56    1.15
  -1   8   1   80.15    4.07
   1  -8  -1   76.82    2.50
   1  -8  -1   80.19    2.96
  -2   8   1   23.76    2.62
   2  -8  -1   24.98    1.76
   2  -8  -1   25.25    1.48
  -3   8   1   22.72    2.56
   3  -8  -1   27.40    1.72
   3  -8  -1   27.77    1.58
  -4   8   1    6.11    1.54
   4  -8  -1    3.97    0.93
   4  -8  -1    5.23    0.95
  -5   8   1   -0.34    0.80
   5  -8  -1    1.33    0.65
  -6   8   1    0.17    0.92
   6  -8  -1    1.11    0.69
  -7   8   1   -0.65    0.86
   7  -8  -1   -0.35    0.67
  -8   8   1    6.57    1.89
   8  -8  -1    5.63    1.28
  -8  -9  -1    6.49    1.88
   7   9   1   15.55    2.20
  -7  -9  -1   11.34    2.02
   6   9   1    4.86    1.33
  -6  -9  -1    5.22    1.44
   5   9   1    5.77    1.37
  -5  -9  -1    7.69    1.42
  -5  -9  -1    7.22    1.28
   4   9   1   31.11    2.45
  -4  -9  -1   27.94    2.05
  -4  -9  -1   30.20    2.01
   3   9   1   44.91    2.98
  -3  -9  -1   46.45    2.42
   2   9   1   -0.63    0.87
  -2  -9  -1    0.07    0.65
   1   9   1   99.21    3.00
   1   9   1  101.29    4.84
  -1  -9  -1   94.37    3.44
   0   9   1    4.51    1.48
   0  -9  -1    1.40    0.53
   0  -9  -1    1.45    0.73
  -1   9   1   33.38    3.36
   1  -9  -1   34.12    2.06
   1  -9  -1   39.64    1.82
  -2   9   1    7.71    1.81
   2  -9  -1    8.67    1.09
   2  -9  -1   10.63    1.36
  -3   9   1   22.89    2.82
   3  -9  -1   21.56    1.88
   3  -9  -1   18.20    1.57
  -4   9   1   41.44    3.22
   4  -9  -1   44.54    2.38
   4  -9  -1   44.52    2.21
  -5   9   1   16.25    2.49
   5  -9  -1   16.15    1.66
  -6   9   1    0.03    0.94
   6  -9  -1    0.03    0.58
  -7   9   1   11.04    2.28
   7  -9  -1   12.08    1.64
   7  10   1    2.28    1.18
   6  10   1    0.03    0.91
   5  10   1   19.47    2.44
  -5 -10  -1   21.09    2.13
   4  10   1    4.10    1.37
  -4 -10  -1    3.75    1.05
   3  10   1    9.84    1.87
  -3 -10  -1    9.72    1.50
   2  10   1   10.47    1.97
  -2 -10  -1   14.98    1.69
   1  10   1    0.89    1.08
  -1 -10  -1   -0.08    0.61
   0  10   1   15.87    2.53
   0 -10  -1   12.62    1.20
   0 -10  -1   10.48    1.45
  -1  10   1   43.86    4.07
   1 -10  -1   45.74    2.02
   1 -10  -1   41.88    2.41
  -2  10   1    6.47    1.76
   2 -10  -1    5.45    0.97
   2 -10  -1    7.56    1.27
  -3  10   1   12.73    2.27
   3 -10  -1   14.02    1.45
   3 -10  -1   14.88    1.70
  -4  10   1    7.39    1.91
   4 -10  -1   10.13    1.45
   4 -10  -1   10.10    1.37
  -5  10   1   -0.71    0.95
   5 -10  -1    0.31    0.59
  -6  10   1   10.09    2.29
   6 -10  -1    7.38    1.30
  -7  10   1    0.13    1.31
   7 -10  -1    1.01    0.84
   6  11   1    1.09    1.01
   5  11   1   -0.41    0.86
  -5 -11  -1    0.89    0.96
   4  11   1    1.18    1.02
  -4 -11  -1   -0.09    0.81
   3  11   1    6.18    1.64
  -3 -11  -1    7.19    1.37
   2  11   1   -0.07    0.96
  -2 -11  -1    0.81    0.81
   1  11   1    1.24    1.28
  -1 -11  -1    0.16    0.67
   0  11   1   -0.03    1.08
   0 -11  -1   -0.12    0.68
  -1  11   1    0.44    1.20
   1 -11  -1    1.53    0.65
   1 -11  -1    0.98    0.82
  -2  11   1    5.24    1.75
   2 -11  -1    8.95    1.23
   2 -11  -1    7.46    1.37
  -3  11   1    3.03    1.52
   3 -11  -1    6.26    1.26
   3 -11  -1    5.99    1.03
  -4  11   1    1.23    1.25
   4 -11  -1    1.18    0.68
   4 -11  -1   -0.84    0.64
  -5  11   1    0.70    1.41
   5 -11  -1    0.69    0.70
  -6  11   1   -0.15    1.38
   6 -11  -1   -0.09    0.68
   5  12   1    7.80    1.80
  -5 -12  -1    4.40    1.39
   4  12   1    3.81    1.49
  -4 -12  -1    4.05    1.26
   3  12   1    7.70    1.83
  -3 -12  -1    7.00    1.41
   2  12   1    8.54    1.96
  -2 -12  -1    8.09    1.48
   1  12   1    3.97    1.72
  -1 -12  -1    5.89    1.29
   0  12   1    4.55    1.83
   0 -12  -1    7.94    1.42
  -1  12   1   10.30    2.36
   1 -12  -1   15.76    1.54
   1 -12  -1   13.28    1.76
  -2  12   1    4.20    1.86
   2 -12  -1    3.56    1.06
   2 -12  -1    1.98    0.78
  -3  12   1   16.25    2.89
   3 -12  -1   20.05    2.16
   3 -12  -1   19.04    1.86
  -4  12   1   -0.25    1.35
   4 -12  -1    0.13    0.67
  -5  12   1    5.70    2.02
   5 -12  -1    1.77    0.88
   4  13   1    1.72    1.28
  -4 -13  -1   -0.49    0.87
   3  13   1    6.92    1.87
  -3 -13  -1    7.15    1.58
   2  13   1   -0.86    1.11
  -2 -13  -1    0.76    0.95
   1  13   1   22.48    3.20
  -1 -13  -1   18.46    2.15
   0  13   1    5.83    2.06
   0 -13  -1    4.45    1.30
  -1  13   1    7.43    2.19
   1 -13  -1    9.22    1.69
  -2  13   1   12.38    2.73
   2 -13  -1   19.06    2.17
   2 -13  -1   18.23    1.77
  -3  13   1    6.51    2.31
   3 -13  -1    4.08    1.07
   3 -13  -1    5.18    1.33
  -4  13   1   33.18    4.35
   4 -13  -1   29.85    2.51
   2  14   1    1.39    1.42
  -2 -14  -1    2.01    1.19
   1  14   1   -0.41    1.44
  -1 -14  -1    2.93    1.14
   0  14   1    1.56    1.67
   0 -14  -1    3.36    1.27
  -1  14   1    0.05    1.66
   1 -14  -1    3.17    1.18
  -2  14   1    3.29    1.96
   2 -14  -1    1.80    1.09
   3 -14  -1    1.00    1.09
   3 -14  -1    0.86    0.81
   2 -14   2   23.78    2.48
   1 -14   2    4.34    1.38
  -1  14  -2    2.98    1.90
   0 -14   2    0.72    0.96
   0  14  -2    1.30    1.68
  -1 -14   2    8.34    1.71
   1  14  -2   10.64    2.63
   4 -13   2    1.78    0.91
  -3  13  -2    1.10    1.74
   2 -13   2    2.94    1.17
  -2  13  -2    2.84    1.84
   1 -13   2    5.85    1.36
  -1  13  -2    4.90    2.00
   0 -13   2    2.14    1.14
   0  13  -2   -1.26    1.22
  -1 -13   2    2.07    1.18
   1  13  -2    1.29    1.45
  -2 -13   2    0.43    0.90
   2  13  -2    0.37    1.29
  -3 -13   2    2.33    1.18
   3  13  -2   -0.40    1.20
  -4 -13   2    2.71    1.26
   5 -12   2    2.18    0.98
  -5  12  -2   -0.76    1.42
   4 -12   2   12.06    1.60
  -4  12  -2    8.81    2.54
   3 -12   2    5.28    1.27
   3 -12   2    3.80    0.95
  -3  12  -2    2.26    1.72
   2 -12   2    0.73    0.88
   2 -12   2    1.78    0.75
  -2  12  -2    3.30    1.78
   1 -12   2    8.23    1.46
  -1  12  -2    7.62    2.13
   0 -12   2    6.09    1.28
   0  12  -2    4.69    1.97
  -1 -12   2    6.53    1.40
   1  12  -2    5.52    1.90
  -2 -12   2    3.68    1.14
   2  12  -2    0.59    1.38
  -3 -12   2    8.87    1.57
   3  12  -2    5.92    1.86
  -4 -12   2    3.50    1.27
   4  12  -2    3.41    1.55
  -5 -12   2    0.61    1.04
   5  12  -2    0.47    1.09
  -6 -12   2    1.16    1.14
   6 -11   2   33.11    2.75
  -6  11  -2   28.03    3.87
   5 -11   2    4.96    1.14
  -5  11  -2    7.03    2.16
   4 -11   2    1.11    0.81
  -4  11  -2    3.01    1.65
   3 -11   2   37.19    2.29
   3 -11   2   39.82    2.20
  -3  11  -2   34.71    3.87
   2 -11   2    1.18    0.65
   2 -11   2    1.87    0.87
  -2  11  -2    1.11    1.30
   1 -11   2   32.59    2.20
  -1  11  -2   17.51    2.83
   0 -11   2   32.10    2.17
   0  11  -2   25.08    3.27
  -1 -11   2   25.69    2.27
   1  11  -2   20.52    2.94
  -2 -11   2   28.33    2.09
   2  11  -2   25.70    3.21
  -3 -11   2    4.19    1.16
   3  11  -2    3.16    1.46
  -4 -11   2    0.78    0.84
   4  11  -2   -0.23    0.99
  -5 -11   2   21.29    2.25
   5  11  -2   20.20    2.61
  -6 -11   2    1.40    1.08
   6  11  -2    1.17    1.16
   7 -10   2   12.43    1.72
   6 -10   2    1.23    0.83
  -6  10  -2   -0.88    1.25
   5 -10   2    1.87    0.87
  -5  10  -2   -0.37    1.22
   4 -10   2   45.82    2.36
  -4  10  -2   48.40    3.78
   3 -10   2    0.68    0.71
   3 -10   2    0.45    0.63
  -3  10  -2    1.01    1.18
   2 -10   2    1.63    0.65
   2 -10   2    1.16    0.70
  -2  10  -2    1.44    1.29
   1 -10   2    1.75    0.60
   1 -10   2    0.49    0.74
  -1  10  -2    2.12    1.43
   0 -10   2   15.76    1.69
   0  10  -2   16.18    2.58
  -1 -10   2   14.69    1.64
   1  10  -2   13.04    2.33
  -2 -10   2    4.14    1.04
   2  10  -2    1.43    1.19
  -3 -10   2   30.62    2.14
   3  10  -2   30.37    3.14
  -4 -10   2   22.61    2.16
   4  10  -2   20.31    2.51
  -5 -10   2    3.56    1.14
  -5 -10   2    3.70    1.16
   5  10  -2    2.78    1.15
  -6 -10   2    1.13    0.96
  -6 -10   2    1.38    1.03
   6  10  -2    2.68    1.19
  -7 -10   2   -0.46    0.97
   7  10  -2    4.51    1.49
   7  -9   2   -0.41    0.65
  -7   9  -2   -2.11    0.82
   6  -9   2    1.85    0.87
  -6   9  -2    1.85    1.40
   5  -9   2    0.16    0.56
  -5   9  -2   -0.34    0.90
   4  -9   2    4.09    0.94
  -4   9  -2    5.68    1.67
   3  -9   2    0.76    0.60
   3  -9   2    1.07    0.67
  -3   9  -2   -0.20    0.91
   2  -9   2   -0.69    0.51
   2  -9   2   -0.02    0.46
  -2   9  -2    0.53    1.06
   1  -9   2   19.67    1.29
   1  -9   2   19.51    1.73
  -1   9  -2   21.04    2.76
   0  -9   2    0.19    0.64
   0  -9   2   -0.21    0.39
   0   9  -2   -0.94    0.94
  -1  -9   2    0.61    0.70
   1   9  -2    2.65    1.25
  -2  -9   2   -0.22    0.62
   2   9  -2   -1.32    0.79
   2   9  -2    0.06    0.80
  -3  -9   2    0.48    0.61
  -3  -9   2    0.03    0.66
   3   9  -2    0.14    0.85
   3   9  -2    0.23    0.91
  -4  -9   2    1.08    0.81
  -4  -9   2    0.20    0.74
   4   9  -2    1.24    0.96
  -5  -9   2    0.13    0.70
  -5  -9   2   -0.39    0.63
   5   9  -2    0.12    0.71
  -6  -9   2    1.93    1.01
  -6  -9   2    3.02    1.11
   6   9  -2    3.71    1.22
  -7  -9   2    1.36    1.09
   7   9  -2    0.26    0.81
  -8  -9   2   -0.87    1.01
   8  -8   2    1.30    0.90
  -8   8  -2    2.08    1.52
   7  -8   2    5.55    1.22
  -7   8  -2    6.24    1.82
   6  -8   2    6.81    1.24
  -6   8  -2    7.57    1.82
   5  -8   2   21.14    1.90
  -5   8  -2   27.30    3.05
   4  -8   2   17.71    1.63
  -4   8  -2   14.42    2.16
   3  -8   2    3.69    0.83
   3  -8   2    4.19    0.85
  -3   8  -2    2.06    1.17
   2  -8   2   75.70    2.79
   2  -8   2   80.30    2.65
  -2   8  -2   76.30    4.02
   1  -8   2    0.07    0.56
   1  -8   2    0.03    0.40
  -1   8  -2    0.11    0.96
   0  -8   2   13.42    1.04
   0  -8   2   10.25    1.28
   0   8  -2    9.72    1.88
   0   8  -2   13.27    1.27
  -1  -8   2   96.56    2.37
  -1  -8   2   95.55    3.29
   1   8  -2   98.14    4.64
   1   8  -2   95.04    3.31
  -2  -8   2   10.60    1.37
   2   8  -2    7.70    1.62
   2   8  -2   10.09    1.49
  -3  -8   2   82.58    3.22
   3   8  -2   80.86    3.89
   3   8  -2   80.14    3.70
  -4  -8   2   50.45    2.48
  -4  -8   2   44.91    2.48
   4   8  -2   45.14    2.87
  -5  -8   2    0.69    0.75
  -5  -8   2    0.56    0.69
   5   8  -2    0.02    0.76
  -6  -8   2   18.40    1.89
  -6  -8   2   15.61    2.02
   6   8  -2   17.02    2.12
  -7  -8   2    0.24    0.95
   7   8  -2    2.52    1.05
  -8  -8   2   -0.50    0.94
   8   8  -2    0.84    1.04
   8  -7   2   15.32    1.89
  -8   7  -2   17.26    2.74
   7  -7   2    0.57    0.70
  -7   7  -2   -0.64    0.84
   6  -7   2   18.28    1.76
  -6   7  -2   25.98    2.90
   5  -7   2    1.73    0.73
  -5   7  -2    2.32    1.08
   4  -7   2   29.70    1.75
  -4   7  -2   31.45    2.91
   3  -7   2   34.15    1.79
   3  -7   2   31.57    1.62
  -3   7  -2   29.84    2.78
   2  -7   2   15.92    1.30
   2  -7   2   14.84    1.30
  -2   7  -2   14.74    2.02
  -2   7  -2   14.35    1.02
   1  -7   2   86.27    2.80
   1  -7   2   81.59    2.41
  -1   7  -2   84.85    3.95
  -1   7  -2   84.11    2.45
   0  -7   2  149.54    3.96
   0  -7   2  142.06    3.21
   0   7  -2  139.53    3.70
   0   7  -2  144.82    5.38
  -1  -7   2    6.26    0.59
  -1  -7   2    4.24    0.83
   1   7  -2    7.87    1.10
   1   7  -2    5.11    1.37
  -2  -7   2   91.70    3.10
   2   7  -2   90.50    3.44
   2   7  -2   89.30    3.99
  -3  -7   2   17.58    1.58
   3   7  -2   21.04    2.19
   3   7  -2   17.40    2.03
  -4  -7   2   21.07    1.94
  -4  -7   2   16.81    1.61
   4   7  -2   17.51    2.02
   4   7  -2   20.32    2.36
  -5  -7   2   81.77    3.62
  -5  -7   2   87.93    3.25
   5   7  -2   81.18    3.72
  -6  -7   2    0.55    0.74
  -6  -7   2   -0.40    0.75
   6   7  -2    0.30    0.73
  -7  -7   2   17.03    2.21
   7   7  -2   25.78    2.61
  -8  -7   2    0.96    1.14
   8   7  -2    1.46    0.94
   9  -6   2    4.03    1.22
   8  -6   2   -0.17    0.66
  -8   6  -2   -0.17    0.98
   7  -6   2    1.12    0.72
  -7   6  -2   -0.66    0.79
   6  -6   2   -0.13    0.52
  -6   6  -2    0.10    0.75
   5  -6   2    2.49    0.76
  -5   6  -2    1.01    0.86
   4  -6   2    4.93    0.92
  -4   6  -2    7.00    1.37
  -4   6  -2    4.68    0.95
   3  -6   2    6.13    0.82
   3  -6   2    5.92    0.90
  -3   6  -2    7.17    0.87
  -3   6  -2    8.64    1.41
   2  -6   2   85.99    2.56
   2  -6   2   86.13    2.56
  -2   6  -2   81.95    3.59
  -2   6  -2   86.77    2.42
   1  -6   2   26.91    1.25
   1  -6   2   29.67    1.44
  -1   6  -2   29.69    2.23
  -1   6  -2   26.30    1.24
   0  -6   2    1.74    0.39
   0  -6   2    2.12    0.60
   0   6  -2    0.94    0.48
   0   6  -2    1.49    0.89
  -1  -6   2    7.51    0.57
  -1  -6   2    6.89    0.91
   1   6  -2    8.51    1.53
   1   6  -2    8.25    1.04
  -2  -6   2    0.07    0.49
   2   6  -2    0.35    0.70
   2   6  -2    0.51    0.23
   2   6  -2    0.34    0.62
  -3  -6   2   10.24    1.19
   3   6  -2    9.36    1.44
   3   6  -2    8.42    1.46
  -4  -6   2    0.46    0.59
   4   6  -2    0.19    0.63
   4   6  -2   -0.16    0.89
  -5  -6   2    2.93    0.86
  -5  -6   2    4.29    1.12
   5   6  -2    3.05    1.01
  -6  -6   2    1.65    0.97
  -6  -6   2    1.88    0.79
   6   6  -2    1.72    0.88
  -7  -6   2    6.06    1.41
   7   6  -2    7.76    1.48
  -8  -6   2    0.40    0.91
   8   6  -2    2.17    0.98
  -9  -6   2    2.90    1.43
   9   6  -2    4.25    1.40
   9  -5   2    1.08    0.88
  -9   5  -2    1.79    1.36
   8  -5   2    5.90    1.27
  -8   5  -2    4.19    1.43
   7  -5   2    2.55    0.87
  -7   5  -2    1.63    0.97
   6  -5   2   13.49    1.45
  -6   5  -2   15.25    1.92
  -6   5  -2   12.40    1.85
   5  -5   2    3.63    0.83
  -5   5  -2    4.29    1.10
  -5   5  -2    2.07    1.01
   4  -5   2    7.98    1.03
  -4   5  -2   11.00    1.56
  -4   5  -2    7.08    1.17
   3  -5   2    5.78    0.70
   3  -5   2    6.64    0.85
  -3   5  -2    4.71    1.04
  -3   5  -2    5.60    0.85
   2  -5   2    9.24    0.84
   2  -5   2   10.82    0.96
  -2   5  -2    9.57    0.87
  -2   5  -2    9.27    1.28
   1  -5   2   35.83    1.49
   1  -5   2   32.77    1.31
  -1   5  -2   34.73    1.36
  -1   5  -2   35.90    2.12
   0  -5   2   50.56    1.46
   0  -5   2   50.77    1.80
   0   5  -2   52.24    2.64
   0   5  -2   48.70    1.75
  -1  -5   2    3.49    0.64
  -1  -5   2    1.35    0.28
   1   5  -2    0.77    0.68
   1   5  -2    1.58    0.57
  -2  -5   2   47.19    1.92
   2   5  -2   48.01    2.50
   2   5  -2   49.95    2.30
   2   5  -2   46.68    0.97
  -3  -5   2   20.42    1.32
   3   5  -2   18.45    1.87
   3   5  -2   19.07    1.80
  -4  -5   2   10.28    1.16
   4   5  -2    9.13    1.32
   4   5  -2    8.82    1.57
  -5  -5   2    9.96    1.51
  -5  -5   2   11.56    1.26
   5   5  -2   10.04    1.42
  -6  -5   2    1.32    0.84
  -6  -5   2    1.55    0.68
   6   5  -2    1.46    0.78
  -7  -5   2   18.91    2.24
   7   5  -2   14.30    1.83
  -8  -5   2   -0.63    0.71
   8   5  -2   -0.27    0.75
  -9  -5   2    0.25    1.04
   9   5  -2    0.78    0.88
   9  -4   2    2.60    0.94
  -9   4  -2    4.43    1.43
   8  -4   2    3.98    1.00
  -8   4  -2    2.26    1.13
  -8   4  -2    2.20    1.43
   7  -4   2   13.19    1.50
  -7   4  -2   11.90    1.81
  -7   4  -2    8.41    1.75
   6  -4   2    2.86    0.77
  -6   4  -2    2.95    1.01
  -6   4  -2    1.88    1.11
   5  -4   2   36.89    1.87
  -5   4  -2   38.68    2.48
  -5   4  -2   35.84    2.26
   4  -4   2   83.78    2.69
  -4   4  -2   90.19    3.38
  -4   4  -2   83.75    3.17
   3  -4   2    6.52    0.61
   3  -4   2    5.59    0.76
  -3   4  -2    7.07    1.09
  -3   4  -2    6.67    0.98
   2  -4   2  532.31    9.26
   2  -4   2  520.34    9.39
  -2   4  -2  525.76   10.77
  -2   4  -2  537.06    9.94
   1  -4   2   19.32    0.97
   1  -4   2   17.75    0.91
  -1   4  -2   17.65    1.38
  -1   4  -2   18.66    0.95
   0  -4   2   24.39    0.89
   0  -4   2   25.99    1.16
   0   4  -2   25.90    1.15
   0   4  -2   24.74    1.71
  -1  -4   2  271.55    5.65
  -1  -4   2  287.37    4.63
   1   4  -2  275.80    5.93
   1   4  -2  281.63    6.72
  -2  -4   2    9.73    0.93
   2   4  -2   10.78    1.21
   2   4  -2   10.32    1.22
  -3  -4   2   96.25    2.79
   3   4  -2   98.59    3.57
   3   4  -2   93.44    3.19
  -4  -4   2    2.81    0.65
   4   4  -2    2.10    1.00
   4   4  -2    1.74    0.65
  -5  -4   2   11.68    1.18
  -5  -4   2    9.75    1.47
   5   4  -2    9.23    1.29
  -6  -4   2   15.33    1.87
  -6  -4   2   17.47    1.46
   6   4  -2   15.04    1.71
  -7  -4   2    6.72    1.45
   7   4  -2   10.83    1.57
  -8  -4   2    1.29    1.03
   8   4  -2    1.06    0.87
  -9  -4   2   25.86    2.98
   9   4  -2   31.94    2.95
  10  -3   2   -0.61    0.75
   9  -3   2    1.75    1.00
   9  -3   2   -0.07    0.78
  -9   3  -2    1.78    1.40
   8  -3   2    8.41    1.29
   8  -3   2    5.83    1.33
  -8   3  -2    4.98    1.63
   7  -3   2    0.19    0.71
   7  -3   2    0.63    0.62
  -7   3  -2    0.66    1.07
   6  -3   2   24.66    1.57
   6  -3   2   20.51    1.99
  -6   3  -2   18.43    2.10
   5  -3   2   16.07    1.40
   5  -3   2   16.76    1.70
  -5   3  -2   20.39    2.02
   4  -3   2   37.60    1.66
   4  -3   2   34.87    1.91
  -4   3  -2   33.39    2.11
  -4   3  -2   33.51    1.91
   3  -3   2   15.94    1.01
   3  -3   2   16.54    0.70
  -3   3  -2   17.23    1.30
  -3   3  -2   16.25    1.44
   2  -3   2   40.96    1.23
   2  -3   2   41.31    1.48
  -2   3  -2   42.87    1.71
  -2   3  -2   43.31    1.78
   1  -3   2  339.76    6.14
   1  -3   2  329.12    5.89
  -1   3  -2  333.54    6.42
  -1   3  -2  335.84    7.00
   0  -3   2  130.13    2.93
   0  -3   2  131.93    2.53
   0   3  -2  131.98    3.59
   0   3  -2  130.01    2.99
  -1  -3   2   58.99    1.78
  -1  -3   2   62.14    1.20
   1   3  -2   61.93    2.03
   1   3  -2   60.42    2.25
  -2  -3   2   81.28    2.26
   2   3  -2   82.99    2.66
   2   3  -2   79.95    2.69
  -3  -3   2   66.79    2.08
   3   3  -2   66.98    2.42
  -4  -3   2    2.66    0.61
   4   3  -2    1.71    0.87
   4   3  -2    3.54    0.77
   4   3  -2    2.55    0.29
  -5  -3   2   35.21    2.16
  -5  -3   2   31.61    1.55
   5   3  -2   32.60    1.88
  -6  -3   2    6.51    0.93
  -6  -3   2    7.34    1.38
   6   3  -2    7.69    1.20
  -7  -3   2   36.01    2.63
   7   3  -2   34.22    2.24
  -8  -3   2    2.63    1.11
   8   3  -2    1.56    0.89
  -9  -3   2    0.87    1.08
   9   3  -2    0.86    0.91
 -10   2  -2   -1.04    1.47
   9  -2   2    0.81    0.77
   9  -2   2    0.83    0.89
  -9   2  -2   -0.39    1.23
   8  -2   2    0.44    0.73
   8  -2   2   -0.28    0.60
  -8   2  -2    0.58    1.10
   7  -2   2   -0.60    0.52
   7  -2   2    0.16    0.56
  -7   2  -2   -0.49    0.82
   6  -2   2    1.48    0.61
   6  -2   2   -0.11    0.55
  -6   2  -2    0.42    0.93
   5  -2   2    3.89    0.91
   5  -2   2    3.53    0.72
  -5   2  -2    4.51    1.13
   4  -2   2   34.48    1.81
   4  -2   2   33.01    1.51
  -4   2  -2   34.16    1.98
   3  -2   2   27.98    1.44
   3  -2   2   31.35    1.32
   3  -2   2   28.58    0.71
  -3   2  -2   29.60    1.70
   2  -2   2    1.20    0.37
   2  -2   2    1.09    0.23
  -2   2  -2    0.74    0.37
  -2   2  -2    0.47    0.47
   1  -2   2  271.64    4.89
   1  -2   2  277.61    5.00
  -1   2  -2  280.94    5.48
  -1   2  -2  279.10    5.60
   0  -2   2   46.17    1.32
   0  -2   2   44.07    1.11
   0   2  -2   42.38    1.37
   0   2  -2   43.12    1.64
  -1  -2   2  180.42    3.73
  -1  -2   2  185.27    2.99
   1   2  -2  184.31    4.05
   1   2  -2  182.03    4.15
  -2  -2   2  117.93    2.76
   2   2  -2  113.00    3.25
   2   2  -2  120.30    3.02
  -3  -2   2   13.56    0.86
   3   2  -2   12.19    1.34
   3   2  -2   14.45    0.51
   3   2  -2   12.53    0.96
  -4  -2   2   39.98    1.55
   4   2  -2   43.12    1.16
   4   2  -2   38.82    1.82
   4   2  -2   40.15    2.48
  -5  -2   2   22.41    1.22
  -5  -2   2   23.75    1.80
   5   2  -2   20.44    0.95
   5   2  -2   21.60    1.49
  -6  -2   2    0.38    0.52
  -6  -2   2    1.48    0.93
   6   2  -2    0.51    0.57
  -7  -2   2    7.48    1.46
   7   2  -2    7.51    1.26
  -8  -2   2    0.28    0.87
   8   2  -2   -0.59    0.56
  -9  -2   2    1.82    1.22
   9   2  -2    0.76    0.85
 -10  -2   2   -0.25    1.13
 -10   1  -2   -0.15    1.53
   9  -1   2    3.09    1.00
   9  -1   2    3.92    1.19
  -9   1  -2    3.51    1.64
   8  -1   2    5.17    1.06
   8  -1   2    4.15    1.14
  -8   1  -2    4.77    1.55
   7  -1   2    0.69    0.63
   7  -1   2    0.22    0.61
  -7   1  -2    0.52    0.97
   6  -1   2   54.99    2.24
   6  -1   2   54.41    2.62
  -6   1  -2   58.56    3.10
   5  -1   2    0.56    0.59
   5  -1   2    0.64    0.53
  -5   1  -2    2.33    0.95
   4  -1   2   -0.40    0.31
  -4   1  -2   -0.08    0.55
   3  -1   2  174.69    4.21
   3  -1   2  175.64    3.73
  -3   1  -2  178.34    4.57
   2  -1   2   16.96    0.47
   2  -1   2   18.44    0.85
  -2   1  -2   17.13    1.19
   1  -1   2    1.60    0.25
   1  -1   2    2.18    0.35
  -1   1  -2    1.16    0.47
  -1   1  -2    1.21    0.32
   0  -1   2  115.11    2.34
   0  -1   2  112.98    2.10
   0   1  -2  109.82    2.45
   0   1  -2  111.34    2.50
  -1  -1   2   81.23    1.54
  -1  -1   2   82.50    1.97
   1   1  -2   82.94    1.98
  -2  -1   2   13.98    0.80
   2   1  -2   14.32    0.50
   2   1  -2   12.31    0.74
   2   1  -2   14.94    1.07
  -3  -1   2    0.95    0.34
   3   1  -2    2.08    0.65
   3   1  -2    1.30    0.42
   3   1  -2    1.17    0.26
  -4  -1   2   13.21    0.88
   4   1  -2   16.26    1.12
   4   1  -2   14.27    1.59
   4   1  -2   12.93    0.73
  -5  -1   2  115.96    3.93
  -5  -1   2  113.70    2.94
   5   1  -2  116.23    3.63
   5   1  -2  118.87    2.74
  -6  -1   2    1.25    0.80
  -6  -1   2    0.84    0.49
   6   1  -2    1.03    0.49
   6   1  -2    1.05    0.66
  -7  -1   2   12.44    1.76
   7   1  -2   13.67    1.66
  -8  -1   2   10.98    1.86
   8   1  -2   14.13    1.83
  -9  -1   2   -1.45    0.86
   9   1  -2   -0.18    0.68
 -10  -1   2   -0.60    1.07
  10   1  -2    0.26    0.81
   9   0   2    0.05    0.75
  -9   0  -2    0.43    1.26
   8   0   2   26.59    1.74
   8   0   2   23.84    2.33
  -8   0  -2   23.54    2.76
   7   0   2   41.33    2.44
   7   0   2   39.09    1.97
  -7   0  -2   36.72    2.73
   6   0   2    0.12    0.46
   6   0   2   -0.05    0.52
  -6   0  -2    0.21    0.84
   5   0   2   20.33    1.30
   5   0   2   19.04    1.42
  -5   0  -2   19.30    1.98
   4   0   2  265.74    5.29
   4   0   2  259.60    6.06
  -4   0  -2  271.97    6.59
   3   0   2   59.11    2.01
   3   0   2   56.56    1.71
  -3   0  -2   59.69    2.34
   2   0   2   68.53    1.95
   2   0   2   68.24    1.75
  -2   0  -2   68.77    2.32
  -2   0  -2   69.59    1.37
   1   0   2   68.76    1.60
  -1   0  -2   70.69    2.11
  -1   0  -2   72.96    1.54
   0   0   2    1.85    0.26
   0   0  -2    1.21    0.30
   0   0  -2    1.13    0.24
  -1   0   2   52.02    1.24
   1   0  -2   54.48    1.46
   1   0  -2   53.38    1.25
   2   0  -2  145.89    3.58
   2   0  -2  145.01    3.21
   2   0  -2  148.59    2.75
   2   0  -2  148.15    3.13
   3   0  -2  424.88    7.15
   3   0  -2  436.92    7.79
   3   0  -2  416.51    8.29
   3   0  -2  422.23    8.87
  -4   0   2  306.31    5.93
   4   0  -2  300.31    7.33
   4   0  -2  302.36    6.61
   4   0  -2  303.22    5.55
  -5   0   2   36.70    2.04
  -5   0   2   32.93    1.37
   5   0  -2   31.56    1.37
   5   0  -2   32.09    1.79
  -6   0   2   36.42    2.24
   6   0  -2   32.58    1.50
   6   0  -2   30.36    1.90
  -7   0   2   37.17    2.52
   7   0  -2   45.33    1.90
   7   0  -2   39.65    2.34
  -8   0   2   12.62    1.92
   8   0  -2   12.44    1.72
  -9   0   2   11.59    2.08
   9   0  -2   11.74    1.81
 -10   0   2    0.39    1.16
  10   0  -2    0.41    0.83
   9   1   2    5.68    1.40
  -9  -1  -2    3.00    1.49
   8   1   2    4.46    1.18
  -8  -1  -2    4.67    1.42
   7   1   2   -0.02    0.59
   7   1   2    0.52    0.55
  -7  -1  -2   -0.97    0.80
   6   1   2   61.72    2.26
   6   1   2   63.37    2.83
  -6  -1  -2   55.57    3.10
   5   1   2    0.94    0.58
   5   1   2    1.53    0.53
  -5  -1  -2    1.88    0.91
   4   1   2   -0.33    0.39
   4   1   2    0.07    0.34
  -4  -1  -2    0.39    0.23
  -4  -1  -2    0.57    0.64
   3   1   2  177.69    4.16
   3   1   2  175.40    3.61
  -3  -1  -2  177.12    3.31
  -3  -1  -2  178.28    4.62
   2   1   2   17.88    0.79
   2   1   2   16.59    0.85
  -2  -1  -2   15.82    0.66
  -2  -1  -2   16.03    1.14
   1   1   2    1.29    0.29
   1   1   2    1.64    0.32
  -1  -1  -2    1.67    0.33
  -1  -1  -2    1.85    0.57
   0   1   2  115.39    2.31
   0   1   2  113.04    2.33
   0  -1  -2  113.63    2.42
   0  -1  -2  116.17    2.50
   1  -1  -2   81.81    1.97
   1  -1  -2   84.00    2.03
   1  -1  -2   84.65    1.82
   2  -1  -2   14.33    0.80
   2  -1  -2   15.04    0.83
   2  -1  -2   15.38    0.99
   2  -1  -2   13.33    0.68
   3  -1  -2    1.09    0.43
   3  -1  -2    1.12    0.33
   3  -1  -2    1.11    0.37
   3  -1  -2    1.42    0.56
  -4   1   2   15.88    1.35
   4  -1  -2   12.92    0.88
   4  -1  -2   14.13    1.27
   4  -1  -2   13.17    0.85
  -5   1   2  111.72    3.65
  -5   1   2  120.44    2.91
   5  -1  -2  111.91    3.62
   5  -1  -2  112.65    2.95
  -6   1   2    0.68    0.77
   6  -1  -2    4.14    0.74
   6  -1  -2    1.41    0.71
  -7   1   2   12.16    1.65
   7  -1  -2   14.02    1.67
   7  -1  -2   15.11    1.34
  -8   1   2   12.28    1.81
   8  -1  -2   11.79    1.70
  -9   1   2    0.25    1.08
   9  -1  -2   -0.01    0.74
 -10   1   2   -0.65    1.08
  10  -1  -2    1.06    1.01
   9   2   2    0.79    0.86
  -9  -2  -2    0.66    1.42
   8   2   2   -0.09    0.65
  -8  -2  -2   -0.02    1.01
   7   2   2    1.09    0.68
   7   2   2    0.05    0.48
  -7  -2  -2   -0.15    0.78
   6   2   2    1.48    0.71
   6   2   2    0.78    0.54
  -6  -2  -2    1.08    0.90
   5   2   2    3.74    0.85
   5   2   2    5.88    0.78
  -5  -2  -2    3.07    0.95
   4   2   2   33.94    1.69
   4   2   2   33.66    1.36
  -4  -2  -2   35.43    1.20
  -4  -2  -2   39.15    2.14
   3   2   2   29.49    1.16
   3   2   2   29.84    1.44
  -3  -2  -2   30.86    1.69
  -3  -2  -2   31.51    1.13
   2   2   2    1.20    0.39
   2   2   2    1.20    0.31
  -2  -2  -2    1.43    0.36
  -2  -2  -2    1.72    0.53
   1   2   2  280.28    5.55
   1   2   2  282.19    4.93
  -1  -2  -2  278.64    5.62
  -1  -2  -2  272.44    5.21
   0   2   2   44.07    1.55
   0   2   2   46.09    1.33
   0  -2  -2   46.23    1.33
   0  -2  -2   44.84    1.42
  -1   2   2  183.21    3.81
   1  -2  -2  180.96    3.73
   1  -2  -2  173.85    3.42
   1  -2  -2  184.19    3.50
  -2   2   2  121.72    2.98
   2  -2  -2  118.98    2.63
   2  -2  -2  120.36    2.89
   2  -2  -2  121.91    2.82
   2  -2  -2  122.59    2.90
   3  -2  -2   14.53    0.89
   3  -2  -2   13.33    0.97
   3  -2  -2   13.55    0.82
   3  -2  -2   14.96    1.26
  -4   2   2   42.90    1.83
   4  -2  -2   38.20    1.51
   4  -2  -2   40.50    1.53
   4  -2  -2   38.72    1.84
  -5   2   2   20.33    1.54
   5  -2  -2   23.01    1.59
   5  -2  -2   21.57    1.17
   5  -2  -2   22.15    1.27
  -6   2   2   -0.29    0.64
   6  -2  -2    0.53    0.47
   6  -2  -2    0.51    0.62
  -7   2   2    4.15    1.14
   7  -2  -2    7.63    1.32
   7  -2  -2    7.08    1.00
  -8   2   2   -0.39    0.80
   8  -2  -2   -0.69    0.53
   8  -2  -2    1.07    0.66
  -9   2   2    1.52    1.26
   9  -2  -2    0.09    0.83
   9   3   2    2.09    1.02
  -9  -3  -2    1.66    1.47
   8   3   2    6.68    1.34
  -8  -3  -2    4.61    1.57
   7   3   2   -0.09    0.54
  -7  -3  -2    0.75    0.96
   6   3   2   24.27    1.80
   6   3   2   20.79    1.33
  -6  -3  -2   20.91    2.20
   5   3   2   17.98    1.10
   5   3   2   16.69    1.60
  -5  -3  -2   16.38    1.82
   4   3   2   39.31    1.89
   4   3   2   36.62    1.42
  -4  -3  -2   36.29    1.41
  -4  -3  -2   31.33    2.05
   3   3   2   16.73    0.90
   3   3   2   18.77    1.20
  -3  -3  -2   17.18    0.98
  -3  -3  -2   15.51    1.41
   2   3   2   42.88    1.33
   2   3   2   43.32    1.76
  -2  -3  -2   41.90    1.79
  -2  -3  -2   41.72    1.47
   1   3   2  328.68    5.90
   1   3   2  340.33    7.00
  -1  -3  -2  332.94    6.57
   0   3   2  125.66    3.43
   0   3   2  131.18    2.86
   0  -3  -2  128.93    2.76
   0  -3  -2  130.08    3.03
  -1   3   2   61.35    2.05
   1  -3  -2   60.13    1.36
   1  -3  -2   60.91    1.67
   1  -3  -2   59.20    1.85
  -2   3   2   79.45    2.45
   2  -3  -2   79.36    2.22
   2  -3  -2   83.95    2.11
   2  -3  -2   84.36    2.15
  -3   3   2   66.75    1.97
  -3   3   2   64.35    2.32
   3  -3  -2   62.74    1.99
   3  -3  -2   65.00    1.98
  -4   3   2    2.82    0.63
   4  -3  -2    2.28    0.53
   4  -3  -2    2.90    0.72
   4  -3  -2    2.63    0.55
  -5   3   2   37.85    1.88
   5  -3  -2   28.50    1.84
   5  -3  -2   32.11    1.49
   5  -3  -2   32.94    1.57
  -6   3   2    5.58    1.10
   6  -3  -2    7.72    1.31
   6  -3  -2    6.10    0.92
  -7   3   2   31.43    2.16
   7  -3  -2   28.89    2.16
   7  -3  -2   30.14    1.77
  -8   3   2    1.11    0.98
   8  -3  -2    1.79    0.94
   8  -3  -2    2.25    0.81
   9  -3  -2    0.21    0.92
   9   4   2    2.85    1.10
  -9  -4  -2    3.53    1.64
   8   4   2    3.77    1.15
  -8  -4  -2    0.94    1.09
   7   4   2    9.62    1.47
  -7  -4  -2   10.67    1.93
   6   4   2    2.20    0.88
  -6  -4  -2    2.24    1.06
   5   4   2   41.13    1.62
   5   4   2   41.32    2.23
  -5  -4  -2   40.46    1.72
  -5  -4  -2   38.84    2.52
   4   4   2   86.82    3.11
   4   4   2   86.22    2.30
  -4  -4  -2   87.06    2.54
  -4  -4  -2   80.88    3.22
   3   4   2    7.06    1.00
   3   4   2    5.26    0.60
  -3  -4  -2    5.12    0.72
  -3  -4  -2    6.45    0.99
   2   4   2  542.52   10.83
   2   4   2  539.01    9.08
  -2  -4  -2  529.85    9.89
  -2  -4  -2  534.33   10.38
   1   4   2   20.39    1.46
   1   4   2   19.79    0.95
  -1  -4  -2   13.85    0.98
  -1  -4  -2   19.96    1.08
   0   4   2   25.81    1.12
   0   4   2   23.13    1.58
   0  -4  -2   24.83    0.97
   0  -4  -2   25.17    1.23
  -1   4   2  292.70    6.58
   1  -4  -2  286.90    5.42
   1  -4  -2  284.93    5.88
  -2   4   2    9.70    0.52
  -2   4   2    9.77    1.10
   2  -4  -2   10.49    0.98
   2  -4  -2    9.04    0.82
  -3   4   2   89.70    2.29
  -3   4   2   94.36    3.11
   3  -4  -2   91.14    2.63
   3  -4  -2   89.65    2.55
  -4   4   2    3.31    0.85
  -4   4   2    2.58    0.60
   4  -4  -2    1.43    0.53
   4  -4  -2    2.69    0.60
  -5   4   2    7.15    1.04
  -5   4   2   10.65    1.48
   5  -4  -2   11.36    1.07
   5  -4  -2    9.11    1.06
  -6   4   2   14.46    1.77
  -6   4   2   19.08    1.72
   6  -4  -2   17.99    1.56
  -7   4   2   10.61    1.53
  -7   4   2    6.84    1.40
   7  -4  -2    7.54    1.39
   7  -4  -2    9.60    1.27
  -8   4   2    0.95    0.92
   8  -4  -2    1.33    0.74
  -9   4   2   32.09    3.16
   9  -4  -2   36.47    2.30
   9   5   2    2.31    1.12
  -9  -5  -2    0.11    1.25
   8   5   2    2.66    1.11
  -8  -5  -2    3.42    1.40
   7   5   2    1.13    0.81
  -7  -5  -2   -0.72    0.81
   6   5   2   12.73    1.60
  -6  -5  -2   15.16    1.94
   5   5   2    2.87    0.87
  -5  -5  -2    1.81    0.94
  -5  -5  -2    3.87    0.81
   4   5   2    7.53    1.18
   4   5   2    8.40    0.80
  -4  -5  -2    9.27    1.05
  -4  -5  -2    7.54    1.25
   3   5   2    5.89    0.67
   3   5   2    5.46    1.01
  -3  -5  -2    5.47    1.01
  -3  -5  -2    5.08    0.82
   2   5   2    9.85    0.82
   2   5   2   10.39    1.29
  -2  -5  -2   10.71    1.09
  -2  -5  -2   11.09    1.04
   1   5   2   36.17    2.07
   1   5   2   34.89    1.38
  -1  -5  -2   31.44    1.53
  -1  -5  -2   35.17    1.44
   0   5   2   51.53    2.47
   0   5   2   46.58    1.68
   0  -5  -2   48.31    1.53
   0  -5  -2   36.60    1.70
   0  -5  -2   49.54    1.41
  -1   5   2    1.28    0.72
   1  -5  -2    1.50    0.52
   1  -5  -2    0.91    0.40
  -2   5   2   47.53    2.31
   2  -5  -2   50.72    1.77
   2  -5  -2   48.97    1.95
  -3   5   2   18.29    1.74
  -3   5   2   18.08    0.87
   3  -5  -2   16.70    1.10
   3  -5  -2   17.02    1.25
  -4   5   2    9.30    1.35
  -4   5   2    9.86    0.93
   4  -5  -2    9.64    1.04
   4  -5  -2    9.56    1.08
  -5   5   2   11.60    1.63
   5  -5  -2   10.17    1.11
   5  -5  -2   10.68    1.20
  -6   5   2    0.65    0.73
   6  -5  -2    0.79    0.57
  -7   5   2   14.67    2.02
   7  -5  -2   16.63    1.64
  -8   5   2   -0.30    0.65
   8  -5  -2    0.17    0.65
  -9   5   2    0.68    0.99
   9  -5  -2    0.67    0.79
   8   6   2   -1.33    0.64
  -8  -6  -2    0.06    1.08
   7   6   2    0.09    0.68
  -7  -6  -2    0.52    0.98
   6   6   2    0.41    0.64
  -6  -6  -2    0.75    0.97
   5   6   2    2.41    0.92
  -5  -6  -2    2.72    1.01
  -5  -6  -2    0.68    0.62
   4   6   2    4.82    0.67
   4   6   2    4.02    1.02
  -4  -6  -2    4.30    1.08
  -4  -6  -2    5.10    0.94
   3   6   2    5.10    1.15
   3   6   2    7.30    0.78
  -3  -6  -2    7.19    1.02
  -3  -6  -2    7.46    1.13
   2   6   2   83.39    3.43
   2   6   2   81.68    2.32
  -2  -6  -2   82.26    2.77
  -2  -6  -2   78.95    2.67
   1   6   2   28.25    1.34
   1   6   2   31.61    2.16
  -1  -6  -2   26.54    1.32
   0   6   2    1.29    0.83
   0   6   2    0.23    0.36
   0  -6  -2    2.01    0.63
   0  -6  -2    1.02    0.39
   0  -6  -2    0.82    0.36
  -1   6   2    9.04    1.42
   1  -6  -2    6.64    0.92
   1  -6  -2    8.28    0.86
  -2   6   2    0.25    0.70
   2  -6  -2    0.42    0.46
   2  -6  -2    0.04    0.36
  -3   6   2   10.78    1.51
   3  -6  -2   10.17    1.18
   3  -6  -2    9.45    1.02
  -4   6   2   -0.25    0.68
   4  -6  -2   -0.81    0.47
   4  -6  -2    0.27    0.46
  -5   6   2    4.96    1.25
   5  -6  -2    5.17    0.90
   5  -6  -2    4.31    0.89
  -6   6   2    2.76    1.07
   6  -6  -2    1.80    0.72
  -7   6   2    7.54    1.59
   7  -6  -2    4.80    1.01
  -8   6   2    0.50    0.99
   8  -6  -2    0.17    0.67
  -9   6   2    3.26    1.44
   9  -6  -2    1.95    0.90
   8   7   2   13.77    2.02
  -8  -7  -2   17.42    2.59
   7   7   2    0.65    0.78
  -7  -7  -2    0.15    0.99
   6   7   2   15.92    1.95
  -6  -7  -2   18.91    2.19
  -5  -7  -2    3.82    1.09
  -5  -7  -2    1.52    0.71
   4   7   2   32.06    2.21
  -4  -7  -2   29.29    1.82
  -4  -7  -2   28.26    2.05
   3   7   2   32.70    1.42
   3   7   2   29.17    2.16
  -3  -7  -2   31.52    1.96
  -3  -7  -2   35.14    1.96
   2   7   2   16.47    1.96
   2   7   2   16.12    1.08
  -2  -7  -2   16.34    1.51
  -2  -7  -2   18.74    1.43
   1   7   2   82.97    3.85
   1   7   2   84.68    2.57
  -1  -7  -2   85.75    2.97
  -1  -7  -2   83.20    2.50
   0   7   2  141.36    5.13
   0   7   2  146.33    3.73
   0  -7  -2  139.76    3.39
   0  -7  -2  144.07    4.07
  -1   7   2    3.82    1.27
   1  -7  -2    7.96    0.93
   1  -7  -2    6.80    1.06
  -2   7   2   91.28    4.04
   2  -7  -2   88.66    3.12
   2  -7  -2   93.94    2.82
  -3   7   2   16.08    1.98
   3  -7  -2   19.32    1.68
   3  -7  -2   17.40    1.44
  -4   7   2   18.39    2.15
   4  -7  -2   19.88    1.67
   4  -7  -2   18.91    1.58
  -5   7   2   81.01    3.96
   5  -7  -2   74.43    2.85
   5  -7  -2   83.03    3.00
  -6   7   2    1.58    0.97
   6  -7  -2   -0.11    0.56
  -7   7   2   26.89    2.99
   7  -7  -2   21.07    1.93
  -8   7   2    0.97    1.15
   8  -7  -2    1.37    0.85
   8   8   2    2.46    1.20
  -8  -8  -2    1.03    1.37
   7   8   2    6.11    1.42
  -7  -8  -2    7.77    1.77
   6   8   2    8.61    1.54
  -6  -8  -2    6.41    1.51
   5   8   2   19.40    2.21
  -5  -8  -2   16.36    1.99
  -5  -8  -2   20.63    1.86
   4   8   2   17.15    2.04
  -4  -8  -2   17.97    1.87
  -4  -8  -2   15.95    1.63
   3   8   2    2.63    1.07
  -3  -8  -2    3.31    0.92
  -3  -8  -2    4.56    1.00
   2   8   2   75.54    3.78
   2   8   2   78.63    2.47
  -2  -8  -2   79.42    3.01
   1   8   2   -0.33    0.81
   1   8   2   -0.28    0.40
  -1  -8  -2   -0.66    0.55
   0   8   2    8.77    1.07
   0   8   2    8.63    1.77
   0  -8  -2    8.64    1.21
  -1   8   2   96.78    4.48
   1  -8  -2   99.24    3.46
   1  -8  -2  104.62    3.00
  -2   8   2   14.48    2.13
   2  -8  -2   10.28    1.16
   2  -8  -2   11.67    1.41
  -3   8   2   81.69    4.07
   3  -8  -2   78.89    2.80
   3  -8  -2   78.99    3.08
  -4   8   2   46.45    3.15
   4  -8  -2   47.58    2.21
   4  -8  -2   43.72    2.29
  -5   8   2    0.22    0.89
   5  -8  -2    0.67    0.56
  -6   8   2   13.11    2.14
   6  -8  -2   10.47    1.36
  -7   8   2    1.39    1.22
   7  -8  -2    2.19    0.84
  -8   8   2    0.70    1.17
   8  -8  -2    0.86    0.86
   7   9   2    0.51    0.92
  -7  -9  -2   -0.57    1.08
   6   9   2    1.10    0.92
  -6  -9  -2    1.17    1.12
   5   9   2    0.59    0.79
  -5  -9  -2   -0.03    0.90
  -5  -9  -2    0.98    0.79
   4   9   2    5.53    1.36
  -4  -9  -2    4.00    1.02
   3   9   2    0.41    0.86
  -3  -9  -2    0.81    0.69
   2   9   2   -0.58    0.86
  -2  -9  -2   -0.37    0.61
   1   9   2   20.18    1.38
   1   9   2   16.50    2.33
  -1  -9  -2   17.86    1.74
   0   9   2   -0.43    1.07
   0   9   2   -0.01    0.48
   0  -9  -2   -0.07    0.65
  -1   9   2    0.28    1.07
   1  -9  -2    1.63    0.58
  -2   9   2   -0.44    0.99
   2  -9  -2    0.38    0.49
   2  -9  -2    0.37    0.70
  -3   9   2    0.16    0.93
   3  -9  -2    0.00    0.60
   3  -9  -2   -0.42    0.45
  -4   9   2    0.44    0.99
   4  -9  -2   -0.36    0.48
   4  -9  -2    1.30    0.78
  -5   9   2   -1.06    0.84
   5  -9  -2   -0.22    0.54
  -6   9   2    1.43    1.21
   6  -9  -2    3.76    0.96
  -7   9   2    1.64    1.34
   7  -9  -2   -0.43    0.69
   7  10   2   13.67    2.11
   6  10   2    3.06    1.24
   5  10   2    3.80    1.29
  -5 -10  -2    3.10    1.09
   4  10   2   47.24    3.20
  -4 -10  -2   50.43    2.73
   3  10   2    0.50    0.93
  -3 -10  -2    0.39    0.74
   2  10   2    2.27    1.20
  -2 -10  -2    0.91    0.76
   1  10   2    1.50    1.27
   1  10   2    2.22    0.71
  -1 -10  -2    3.04    0.94
   0  10   2   22.25    1.82
   0 -10  -2   21.61    2.02
  -1  10   2   14.50    2.39
   1 -10  -2   12.24    1.27
   1 -10  -2   12.97    1.58
  -2  10   2    3.28    1.47
   2 -10  -2    3.21    0.98
   2 -10  -2    3.94    0.88
  -3  10   2   33.69    3.57
   3 -10  -2   37.69    2.34
   3 -10  -2   36.22    2.01
  -4  10   2   14.72    2.46
   4 -10  -2   16.20    1.67
   4 -10  -2   23.46    2.10
  -5  10   2    0.84    1.22
   5 -10  -2    3.91    0.96
  -6  10   2    1.91    1.50
   6 -10  -2    2.17    0.91
  -7  10   2    0.66    1.35
   7 -10  -2    0.55    0.78
   6  11   2   31.33    3.12
   5  11   2    7.87    1.69
  -5 -11  -2    6.49    1.46
   4  11   2    0.51    1.01
  -4 -11  -2    0.60    0.87
   3  11   2   34.94    3.36
  -3 -11  -2   40.15    2.59
   2  11   2    0.96    1.16
  -2 -11  -2    0.71    0.84
   1  11   2   24.57    3.01
  -1 -11  -2   23.87    2.24
   0  11   2   28.15    3.36
   0  11   2   26.58    1.81
   0 -11  -2   28.65    2.43
  -1  11   2   24.34    3.22
   1 -11  -2   24.18    2.25
   1 -11  -2   25.38    1.65
  -2  11   2   26.69    3.34
   2 -11  -2   27.63    1.78
   2 -11  -2   32.67    2.24
  -3  11   2    2.03    1.48
   3 -11  -2    3.98    0.94
   3 -11  -2    4.20    1.11
  -4  11   2    0.23    1.23
   4 -11  -2    0.69    0.64
   4 -11  -2    0.59    0.83
  -5  11   2   17.07    2.92
   5 -11  -2   24.83    2.17
  -6  11   2    0.55    1.47
   6 -11  -2    1.02    0.82
   5  12   2    1.28    1.09
  -5 -12  -2    2.62    1.24
   4  12   2    7.78    1.80
  -4 -12  -2    8.98    1.60
   3  12   2    2.23    1.30
  -3 -12  -2    3.87    1.18
   2  12   2    2.17    1.43
   1  12   2    6.69    1.83
  -1 -12  -2    7.13    1.41
   0  12   2    2.49    1.63
   0 -12  -2    7.43    1.38
  -1  12   2    7.48    1.29
  -1  12   2    3.03    1.62
   1 -12  -2    7.73    1.48
  -2  12   2    2.25    1.59
   2 -12  -2    3.02    0.88
   2 -12  -2    0.93    0.93
  -3  12   2    4.88    1.90
   3 -12  -2    9.60    1.65
   3 -12  -2    7.75    1.26
  -4  12   2    3.35    1.92
   4 -12  -2    3.69    1.07
   4 -12  -2    4.39    1.22
  -5  12   2   -0.10    1.48
   5 -12  -2    1.75    0.94
   4  13   2    2.48    1.38
  -4 -13  -2    2.75    1.29
   3  13   2    0.47    1.20
  -3 -13  -2    1.96    1.22
   2  13   2    3.71    1.64
  -2 -13  -2    2.62    1.12
   1  13   2    3.53    1.61
  -1 -13  -2    5.30    1.37
   0  13   2    1.47    1.34
   0 -13  -2    0.73    0.94
  -1  13   2    0.83    1.43
   1 -13  -2    1.32    1.01
  -2  13   2    1.65    1.58
   2 -13  -2   -0.03    0.88
   2 -13  -2   -0.37    0.59
  -3  13   2    0.67    1.53
   3 -13  -2    0.63    0.94
   3 -13  -2    1.94    0.84
  -4  13   2    2.57    1.79
   4 -13  -2    2.08    0.96
   1  14   2    0.82    1.54
  -1 -14  -2    1.89    1.11
   0  14   2    0.59    1.53
   0 -14  -2    1.47    1.00
  -1  14   2   14.15    2.93
   1 -14  -2   10.98    1.87
  -2  14   2    0.04    1.59
   2 -14  -2    0.88    0.99
   3 -14  -2    8.49    1.74
   3 -14  -2    8.44    1.42
   2 -14   3    6.32    1.51
   1 -14   3    4.83    1.37
   0 -14   3   -0.61    0.85
   0  14  -3   -0.36    1.45
  -1 -14   3    5.14    1.43
   4 -13   3   -0.20    0.71
  -3  13  -3   11.83    2.92
   2 -13   3    5.64    1.33
  -2  13  -3   -0.06    1.54
   1 -13   3    1.81    1.06
  -1  13  -3   -0.89    1.28
   0 -13   3   35.14    2.58
   0  13  -3   38.36    4.47
  -1 -13   3    4.93    1.31
   1  13  -3    4.70    1.89
  -2 -13   3   12.26    1.93
   2  13  -3    9.50    2.35
  -3 -13   3    7.48    1.68
   3  13  -3    9.51    2.21
  -4 -13   3    0.43    1.00
   5 -12   3    3.89    1.17
   4 -12   3    1.46    0.83
  -4  12  -3    3.22    1.96
   3 -12   3    0.51    0.73
  -3  12  -3    0.75    1.62
   2 -12   3   21.72    2.14
  -2  12  -3   24.56    3.57
   1 -12   3   25.00    2.34
  -1  12  -3   23.96    3.47
   0 -12   3    0.54    0.92
   0  12  -3    0.12    1.27
  -1 -12   3   12.97    1.82
   1  12  -3    9.12    2.37
  -2 -12   3    5.89    1.33
   2  12  -3    6.14    1.98
  -3 -12   3   -0.62    0.79
   3  12  -3    1.15    1.24
  -4 -12   3    1.43    1.13
   4  12  -3    1.66    1.42
  -5 -12   3    0.06    0.99
   5  12  -3    0.17    1.08
   6 -11   3   -0.03    0.77
   5 -11   3    0.27    0.78
  -5  11  -3    0.20    1.41
   4 -11   3    2.88    0.98
  -4  11  -3    1.06    1.40
   3 -11   3   11.17    1.42
  -3  11  -3    7.60    2.13
   2 -11   3    1.49    0.69
   2 -11   3    0.92    0.78
  -2  11  -3    2.34    1.49
   1 -11   3    3.56    1.08
  -1  11  -3    2.05    1.50
   0 -11   3    1.93    0.87
   0  11  -3    3.68    1.68
  -1 -11   3    4.55    1.15
   1  11  -3    3.94    1.76
  -2 -11   3    7.89    1.39
   2  11  -3    8.62    2.06
  -3 -11   3    0.62    0.84
   3  11  -3    2.40    1.24
  -4 -11   3   -1.11    0.75
   4  11  -3   -1.04    0.92
  -5 -11   3    2.05    1.16
   5  11  -3    2.72    1.30
  -6 -11   3    2.84    1.23
   6  11  -3    6.94    1.78
  -7 -11   3    3.13    1.37
   6 -10   3   -0.48    0.70
  -6  10  -3    0.04    1.29
   5 -10   3    0.95    0.82
  -5  10  -3    0.06    1.21
   4 -10   3   14.90    1.67
  -4  10  -3   15.01    2.69
   3 -10   3    5.44    1.01
   3 -10   3    4.89    1.01
  -3  10  -3    8.24    2.09
   2 -10   3   11.18    1.44
   2 -10   3    7.80    1.10
  -2  10  -3    9.70    2.20
   1 -10   3    4.91    0.86
   1 -10   3    6.20    1.14
  -1  10  -3    4.20    1.65
   0 -10   3   -0.27    0.66
   0  10  -3    2.95    1.49
  -1 -10   3   21.71    2.01
   1  10  -3   33.52    3.55
  -2 -10   3   -0.17    0.60
   2  10  -3    0.84    1.08
  -3 -10   3    5.52    1.20
   3  10  -3    6.59    1.67
  -4 -10   3   26.08    2.36
   4  10  -3   20.86    2.60
  -5 -10   3   -0.46    0.80
  -5 -10   3    0.79    0.83
   5  10  -3    1.69    1.08
  -6 -10   3    3.10    1.21
  -6 -10   3    6.11    1.38
   6  10  -3    1.97    1.16
  -7 -10   3    4.06    1.35
  -7 -10   3    5.27    1.58
   7  10  -3    3.10    1.35
   7  -9   3    2.89    1.07
  -7   9  -3    3.34    1.68
   6  -9   3    8.71    1.41
  -6   9  -3   10.12    2.23
   5  -9   3   37.69    2.30
  -5   9  -3   38.56    3.77
   4  -9   3    9.41    1.31
  -4   9  -3    6.18    1.74
   3  -9   3   53.38    2.36
   3  -9   3   47.96    2.30
  -3   9  -3   48.99    3.61
   2  -9   3    3.84    0.92
   2  -9   3    3.38    0.77
  -2   9  -3    3.89    1.55
   1  -9   3   15.22    1.28
   1  -9   3   11.56    1.36
  -1   9  -3   12.92    2.32
   0  -9   3   41.22    1.65
   0  -9   3   41.19    2.20
   0   9  -3   40.42    3.72
  -1  -9   3    0.05    0.58
   1   9  -3    0.82    1.08
  -2  -9   3   22.31    1.99
   2   9  -3   25.31    2.29
   2   9  -3   23.84    2.75
  -3  -9   3   15.47    1.72
   3   9  -3   16.53    2.09
   3   9  -3   16.80    2.25
  -4  -9   3    2.24    0.96
   4   9  -3    2.00    1.09
   4   9  -3    1.23    1.22
  -5  -9   3   15.33    1.81
  -5  -9   3   15.61    1.93
   5   9  -3   19.41    2.37
  -6  -9   3    7.95    1.55
  -6  -9   3    6.55    1.41
   6   9  -3    9.52    1.82
  -7  -9   3    4.41    1.30
  -7  -9   3    3.24    1.33
   7   9  -3    4.56    1.33
   7  -8   3   13.91    1.74
  -7   8  -3   14.66    2.52
   6  -8   3    1.15    0.74
  -6   8  -3    0.78    1.17
   5  -8   3    2.18    0.80
  -5   8  -3    3.89    1.45
   4  -8   3   23.76    1.67
  -4   8  -3   23.71    2.76
   3  -8   3    7.41    1.07
   3  -8   3    8.51    1.09
  -3   8  -3    5.73    1.56
   2  -8   3   13.77    1.32
   2  -8   3   11.13    1.23
  -2   8  -3    9.34    1.92
   1  -8   3    0.14    0.46
   1  -8   3   -0.22    0.57
  -1   8  -3   -0.04    1.05
   0  -8   3    0.40    0.40
   0  -8   3    0.58    0.66
   0   8  -3   -0.23    0.98
   0   8  -3   -0.15    0.58
  -1  -8   3   16.06    1.62
   1   8  -3   15.00    2.26
   1   8  -3   20.74    1.81
  -2  -8   3    0.15    0.66
   2   8  -3    0.65    0.97
   2   8  -3    0.07    0.74
  -3  -8   3    1.44    0.79
   3   8  -3    1.97    1.05
   3   8  -3    1.18    0.92
  -4  -8   3   41.72    2.36
   4   8  -3   46.06    3.06
   4   8  -3   45.06    2.86
  -5  -8   3   -0.43    0.66
  -5  -8   3    0.40    0.74
   5   8  -3    1.00    0.87
  -6  -8   3    4.79    1.21
  -6  -8   3    5.52    1.23
   6   8  -3    3.24    1.12
  -7  -8   3    1.19    0.96
  -7  -8   3    0.39    0.87
   7   8  -3    2.24    1.11
  -8  -8   3    0.98    1.07
   8   8  -3   -0.96    0.81
   8  -7   3    2.56    0.99
  -8   7  -3    3.05    1.63
   7  -7   3    9.49    1.49
  -7   7  -3   11.05    2.18
   6  -7   3    1.27    0.75
  -6   7  -3    1.64    1.11
   5  -7   3    0.90    0.66
  -5   7  -3   -0.27    0.81
   4  -7   3   17.27    1.59
  -4   7  -3   19.53    2.34
   3  -7   3   12.69    1.30
   3  -7   3   15.49    1.30
  -3   7  -3   11.61    1.83
   2  -7   3    1.94    0.70
   2  -7   3    2.36    0.65
  -2   7  -3    1.93    0.62
  -2   7  -3    2.64    1.12
   1  -7   3   63.79    2.39
   1  -7   3   61.02    2.08
  -1   7  -3   64.69    2.27
  -1   7  -3   60.82    3.38
   0  -7   3    1.70    0.46
   0  -7   3    1.70    0.64
   0   7  -3    1.51    0.64
   0   7  -3   -0.04    0.87
  -1  -7   3   23.05    1.54
  -1  -7   3   21.35    0.95
   1   7  -3   24.42    1.67
   1   7  -3   22.46    2.44
  -2  -7   3   -0.34    0.54
   2   7  -3   -0.39    0.72
   2   7  -3   -0.41    0.65
  -3  -7   3   -0.53    0.57
   3   7  -3    2.11    1.02
   3   7  -3    1.68    0.93
  -4  -7   3    2.06    0.85
   4   7  -3    3.99    1.34
   4   7  -3    0.83    0.81
  -5  -7   3    1.62    0.80
   5   7  -3    0.06    0.69
   5   7  -3   -0.89    1.00
  -6  -7   3    0.56    0.73
  -6  -7   3    0.16    0.70
   6   7  -3   -0.10    0.62
  -7  -7   3    2.18    1.12
   7   7  -3    1.93    1.03
  -8  -7   3    0.65    1.04
   8   7  -3   -0.25    0.79
   8  -6   3    2.40    0.99
  -8   6  -3    1.75    1.32
   7  -6   3   10.86    1.45
  -7   6  -3   11.58    2.02
   6  -6   3   17.79    1.75
  -6   6  -3   19.48    2.43
   5  -6   3   11.51    1.37
  -5   6  -3   15.21    1.72
  -5   6  -3   11.75    1.85
   4  -6   3   42.18    2.07
  -4   6  -3   38.93    2.11
  -4   6  -3   43.66    2.78
   3  -6   3    1.84    0.64
   3  -6   3    1.65    0.58
  -3   6  -3    2.90    1.04
  -3   6  -3    3.37    0.77
   2  -6   3   55.53    2.03
   2  -6   3   54.81    1.98
  -2   6  -3   54.07    2.96
  -2   6  -3   55.33    2.06
   1  -6   3   67.83    2.09
   1  -6   3   64.09    2.27
  -1   6  -3   75.73    3.42
  -1   6  -3   64.28    2.21
   0  -6   3   47.43    1.99
   0  -6   3   46.87    1.51
   0   6  -3   48.75    2.82
   0   6  -3   45.36    1.90
  -1  -6   3   20.07    0.84
  -1  -6   3   20.91    1.39
   1   6  -3   20.49    1.47
   1   6  -3   19.45    2.12
  -2  -6   3   88.53    2.95
   2   6  -3   87.19    3.31
   2   6  -3   89.47    3.77
  -3  -6   3   21.25    1.50
   3   6  -3   19.28    2.01
   3   6  -3   23.78    2.17
  -4  -6   3   51.08    2.39
   4   6  -3   57.45    2.88
   4   6  -3   50.84    3.11
  -5  -6   3    3.27    0.88
   5   6  -3    4.05    1.48
   5   6  -3    4.11    1.09
  -6  -6   3   26.99    2.58
  -6  -6   3   29.39    1.88
   6   6  -3   27.13    2.14
  -7  -6   3    3.54    1.24
   7   6  -3    4.28    1.15
  -8  -6   3    0.67    0.95
   8   6  -3    0.36    0.79
  -9  -6   3    4.25    1.51
   9   6  -3    3.13    1.23
   9  -5   3    9.62    1.60
  -9   5  -3    7.12    1.86
   8  -5   3   12.00    1.66
  -8   5  -3    8.38    1.82
   7  -5   3    0.90    0.74
  -7   5  -3    2.14    1.23
  -7   5  -3    1.31    0.94
   6  -5   3    9.86    1.30
  -6   5  -3   10.27    1.74
  -6   5  -3   10.81    1.74
   5  -5   3   23.71    1.58
  -5   5  -3   23.28    2.23
  -5   5  -3   24.76    2.37
   4  -5   3    5.13    0.90
  -4   5  -3    5.52    1.16
  -4   5  -3    6.27    1.29
   3  -5   3    4.86    0.80
   3  -5   3    6.05    0.70
  -3   5  -3    3.57    0.96
  -3   5  -3    3.83    0.83
   2  -5   3  114.22    2.92
   2  -5   3  116.47    3.03
  -2   5  -3  115.80    4.00
  -2   5  -3  115.92    3.18
   1  -5   3   28.27    1.26
   1  -5   3   29.63    1.39
  -1   5  -3   31.19    1.43
  -1   5  -3   27.55    1.93
   0  -5   3  112.11    3.03
   0  -5   3  112.71    2.52
   0   5  -3  113.38    4.00
   0   5  -3  111.48    3.09
  -1  -5   3   32.73    0.98
  -1  -5   3   31.81    1.54
   1   5  -3   30.21    2.06
   1   5  -3   32.72    1.71
  -2  -5   3  400.30    8.12
   2   5  -3  397.36    8.72
   2   5  -3  397.16    9.16
  -3  -5   3   33.70    1.75
   3   5  -3   35.78    2.10
   3   5  -3   38.52    2.31
  -4  -5   3   -0.22    0.57
   4   5  -3   -0.41    0.80
   4   5  -3    0.47    0.68
  -5  -5   3   46.30    2.16
   5   5  -3   50.69    3.25
   5   5  -3   45.00    2.45
  -6  -5   3   37.01    1.99
  -6  -5   3   29.84    2.31
   6   5  -3   30.53    2.11
  -7  -5   3    2.45    1.04
   7   5  -3    1.62    0.88
  -8  -5   3   15.52    2.20
   8   5  -3   18.20    2.20
  -9  -5   3    0.11    1.04
   9   5  -3    0.54    0.90
   9  -4   3    3.44    1.10
  -9   4  -3    4.23    1.48
   8  -4   3    0.55    0.68
  -8   4  -3    0.70    1.28
  -8   4  -3   -0.03    0.75
   7  -4   3    0.43    0.62
  -7   4  -3    1.11    0.88
  -7   4  -3    0.03    1.01
   6  -4   3   12.07    1.39
  -6   4  -3   10.49    1.67
  -6   4  -3   13.37    1.92
   5  -4   3    6.24    1.01
  -5   4  -3    4.89    1.14
  -5   4  -3    5.62    1.36
   4  -4   3    0.66    0.51
  -4   4  -3    0.37    0.60
  -4   4  -3   -0.26    0.77
   3  -4   3    4.06    0.51
   3  -4   3    3.76    0.69
  -3   4  -3    3.06    0.80
  -3   4  -3    4.83    0.91
   2  -4   3    0.30    0.31
   2  -4   3    0.13    0.37
  -2   4  -3    0.01    0.40
  -2   4  -3    0.63    0.50
   1  -4   3  104.18    2.56
   1  -4   3  104.80    2.61
  -1   4  -3  108.47    2.85
  -1   4  -3   99.64    3.37
   0  -4   3   22.06    1.16
   0  -4   3   24.14    0.97
   0   4  -3   26.00    1.77
   0   4  -3   25.26    1.30
  -1  -4   3   11.38    0.55
  -1  -4   3   11.35    1.01
   1   4  -3    9.45    1.01
   1   4  -3   11.42    1.35
  -2  -4   3   51.40    1.92
   2   4  -3   52.86    2.27
   2   4  -3   49.56    2.26
  -3  -4   3   18.42    1.22
   3   4  -3   19.18    1.82
   3   4  -3   19.82    1.48
  -4  -4   3   12.10    1.22
   4   4  -3    8.82    1.25
   4   4  -3   12.59    1.75
  -5  -4   3    1.87    0.69
   5   4  -3    2.07    0.76
   5   4  -3    2.83    1.35
  -6  -4   3   14.80    1.43
  -6  -4   3   17.07    1.98
   6   4  -3   12.56    1.56
  -7  -4   3    5.48    1.36
   7   4  -3    5.92    1.25
  -8  -4   3    1.38    1.00
   8   4  -3    0.61    0.76
  -9  -4   3    1.47    1.22
   9   4  -3    2.81    1.15
   9  -3   3    5.23    1.23
   9  -3   3    3.82    1.30
  -9   3  -3    2.47    1.25
  -9   3  -3    4.15    1.88
   8  -3   3    0.36    0.74
   8  -3   3    1.25    0.83
  -8   3  -3    1.77    1.36
   7  -3   3   13.95    1.52
   7  -3   3   13.31    1.81
  -7   3  -3   13.74    2.13
   6  -3   3   16.60    1.55
   6  -3   3   16.69    1.84
  -6   3  -3   18.10    2.26
   5  -3   3    6.84    1.01
   5  -3   3    6.68    1.19
  -5   3  -3    8.32    1.52
   4  -3   3    7.31    0.97
  -4   3  -3    4.34    1.10
  -4   3  -3    5.08    1.01
   3  -3   3   20.92    0.81
   3  -3   3   22.75    1.24
  -3   3  -3   22.10    1.65
  -3   3  -3   22.55    1.47
   2  -3   3   67.71    2.03
   2  -3   3   66.15    1.71
  -2   3  -3   65.96    2.30
  -2   3  -3   64.76    2.33
   1  -3   3   46.42    1.45
   1  -3   3   46.25    1.47
  -1   3  -3   45.91    1.90
  -1   3  -3   47.06    1.71
   0  -3   3  240.68    4.90
   0  -3   3  247.76    4.40
   0   3  -3  250.29    5.21
   0   3  -3  237.25    5.61
  -1  -3   3   57.52    1.84
  -1  -3   3   57.60    1.28
   1   3  -3   54.96    2.15
   1   3  -3   58.40    2.03
  -2  -3   3   92.92    2.64
   2   3  -3   97.88    3.12
   2   3  -3   99.97    2.95
  -3  -3   3   39.61    1.67
   3   3  -3   38.05    2.12
   3   3  -3   40.24    1.83
  -4  -3   3    9.72    0.43
  -4  -3   3    9.53    1.01
   4   3  -3   10.26    1.52
   4   3  -3    8.56    1.10
  -5  -3   3    2.06    0.63
   5   3  -3    1.30    1.03
   5   3  -3    2.34    0.78
  -6  -3   3   11.31    1.67
  -6  -3   3   11.76    1.22
   6   3  -3   11.39    1.44
  -7  -3   3   -0.26    0.67
   7   3  -3    1.04    0.73
  -8  -3   3    5.15    1.38
   8   3  -3    4.29    1.18
  -9  -3   3   -0.87    0.91
   9   3  -3    1.39    0.96
   9  -2   3    2.23    1.12
   9  -2   3    1.66    0.93
  -9   2  -3    4.13    1.84
   8  -2   3   -0.09    0.68
   8  -2   3    0.20    0.64
  -8   2  -3   -1.16    1.07
   7  -2   3   24.73    1.98
   7  -2   3   20.25    2.11
  -7   2  -3   23.99    2.68
   6  -2   3    9.96    1.40
   6  -2   3    8.95    1.16
  -6   2  -3   11.52    1.85
   5  -2   3    8.71    1.23
   5  -2   3    6.53    0.94
  -5   2  -3    7.10    1.45
   4  -2   3  127.71    3.41
   4  -2   3  124.03    3.75
  -4   2  -3  125.32    4.29
   3  -2   3   69.13    2.15
   3  -2   3   68.51    1.42
   3  -2   3   72.04    2.41
  -3   2  -3   67.26    2.72
   2  -2   3  223.79    4.40
   2  -2   3  217.43    4.03
  -2   2  -3  216.38    4.83
  -2   2  -3  213.37    5.14
   1  -2   3  250.03    4.66
   1  -2   3  254.46    4.75
  -1   2  -3  253.27    5.33
  -1   2  -3  250.40    5.23
   0  -2   3    6.06    0.60
   0  -2   3    5.11    0.47
   0   2  -3    5.90    0.73
   0   2  -3    6.50    0.70
  -1  -2   3  282.63    4.69
  -1  -2   3  280.77    5.55
   1   2  -3  289.16    5.87
   1   2  -3  280.22    5.88
  -2  -2   3   99.14    1.85
  -2  -2   3  100.02    2.63
   2   2  -3  104.87    3.07
   2   2  -3   99.84    2.69
  -3  -2   3    8.79    0.47
  -3  -2   3   10.00    0.91
   3   2  -3   10.72    1.01
   3   2  -3    9.36    1.22
  -4  -2   3  207.16    4.70
   4   2  -3  210.15    6.00
   4   2  -3  208.79    5.09
   4   2  -3  210.01    3.73
  -5  -2   3   -0.53    0.39
   5   2  -3    1.43    0.97
   5   2  -3   -0.03    0.50
  -6  -2   3   42.51    1.86
  -6  -2   3   35.25    2.39
   6   2  -3   40.90    2.23
  -7  -2   3   17.50    2.05
   7   2  -3   17.74    1.87
  -8  -2   3    1.18    1.01
   8   2  -3   -0.09    0.60
  -9  -2   3   13.62    2.16
   9   2  -3   15.14    2.03
 -10  -2   3    5.29    1.76
   9  -1   3    2.02    1.05
   9  -1   3    2.37    0.96
  -9   1  -3   -0.08    1.49
   8  -1   3    6.89    1.34
   8  -1   3    6.91    1.19
  -8   1  -3   15.28    2.39
   7  -1   3   25.93    1.73
   7  -1   3   20.28    2.03
  -7   1  -3   22.69    2.60
   6  -1   3    9.61    1.34
  -6   1  -3   10.54    1.72
   5  -1   3   63.51    2.34
   5  -1   3   66.02    2.67
  -5   1  -3   62.09    3.15
   4  -1   3   23.50    1.29
   4  -1   3   23.93    1.44
  -4   1  -3   21.71    2.00
   3  -1   3  229.98    4.74
   3  -1   3  229.86    5.21
  -3   1  -3  237.28    5.96
   2  -1   3    4.46    0.57
   2  -1   3    4.99    0.58
   2  -1   3    4.36    0.36
  -2   1  -3    4.53    0.81
   1  -1   3   30.59    1.09
   1  -1   3   32.70    1.04
  -1   1  -3   34.09    1.46
  -1   1  -3   33.20    1.10
   0  -1   3  299.26    5.60
   0  -1   3  299.83    5.13
   0   1  -3  305.61    5.94
   0   1  -3  293.73    5.64
  -1  -1   3  152.52    3.33
  -1  -1   3  155.32    2.80
   1   1  -3  148.91    3.12
   1   1  -3  148.96    3.51
  -2  -1   3    0.18    0.28
  -2  -1   3    0.05    0.19
   2   1  -3    0.12    0.24
   2   1  -3    0.41    0.39
  -3  -1   3  117.50    2.98
   3   1  -3  117.80    3.64
   3   1  -3  118.59    3.06
   3   1  -3  115.61    2.34
  -4  -1   3    0.74    0.42
   4   1  -3    0.92    0.67
   4   1  -3    0.10    0.26
   4   1  -3    0.41    0.40
  -5  -1   3   53.77    1.99
   5   1  -3   51.68    2.30
   5   1  -3   57.18    3.20
   5   1  -3   55.24    1.64
  -6  -1   3   13.76    1.72
  -6  -1   3   15.34    1.15
   6   1  -3   14.31    1.54
  -7  -1   3   29.18    2.28
   7   1  -3   29.86    2.05
  -8  -1   3   29.31    2.82
   8   1  -3   26.33    2.41
  -9  -1   3   -1.00    0.92
   9   1  -3    0.14    0.75
 -10  -1   3    3.68    1.56
  10   1  -3    2.97    1.30
   9   0   3   -0.27    0.70
  -9   0  -3   -0.26    1.28
   8   0   3    0.57    0.70
   8   0   3    0.51    0.65
  -8   0  -3   -1.77    0.88
   7   0   3   -0.46    0.51
   7   0   3   -0.38    0.57
  -7   0  -3   -0.79    0.80
   6   0   3    0.33    0.50
   6   0   3    0.39    0.54
  -6   0  -3   -2.89    0.60
   5   0   3    0.31    0.55
   5   0   3    0.10    0.48
  -5   0  -3    0.25    0.81
   4   0   3    0.03    0.39
   4   0   3    0.27    0.37
  -4   0  -3    0.30    0.67
   3   0   3   -0.02    0.31
   3   0   3    0.23    0.34
  -3   0  -3   -0.10    0.16
  -3   0  -3   -0.40    0.55
   2   0   3   -0.40    0.22
   2   0   3   -0.06    0.26
  -2   0  -3    0.23    0.53
  -2   0  -3   -0.19    0.18
   1   0   3   -0.24    0.18
   1   0   3    0.03    0.22
  -1   0  -3   -0.04    0.21
  -1   0  -3   -0.51    0.37
   0   0   3   -0.93    0.23
   0   0  -3   -1.08    0.31
   0   0  -3   -0.47    0.30
  -1   0   3    0.26    0.23
   1   0  -3   -0.24    0.28
   1   0  -3    0.05    0.31
   1   0  -3    0.09    0.17
   2   0  -3    0.05    0.27
   2   0  -3    0.10    0.19
   2   0  -3    0.18    0.34
   2   0  -3    0.01    0.22
   3   0  -3   -0.06    0.23
   3   0  -3    0.11    0.31
   3   0  -3   -0.14    0.51
   3   0  -3    0.27    0.33
  -4   0   3   -0.18    0.31
   4   0  -3   -1.03    0.60
   4   0  -3   -0.09    0.40
   4   0  -3    0.05    0.29
  -5   0   3    0.31    0.43
   5   0  -3   -0.02    0.32
   5   0  -3    0.36    0.87
   5   0  -3    0.21    0.51
  -6   0   3   -0.04    0.66
  -6   0   3    0.00    0.46
   6   0  -3   -0.09    0.53
   6   0  -3   -0.20    0.39
  -7   0   3    0.86    0.80
   7   0  -3    0.11    0.61
  -8   0   3   -1.01    0.70
   8   0  -3    0.36    0.72
  -9   0   3    0.72    1.05
   9   0  -3   -0.39    0.68
 -10   0   3   -0.86    1.09
  10   0  -3   -0.04    0.91
   9   1   3    1.25    0.95
  -9  -1  -3    1.69    1.47
   8   1   3    8.13    1.40
   8   1   3    9.00    1.26
  -8  -1  -3   11.05    2.08
   7   1   3   20.17    1.99
   7   1   3   23.34    1.58
  -7  -1  -3   19.55    2.45
   6   1   3   11.82    1.46
   6   1   3   11.45    1.23
  -6  -1  -3    9.52    1.68
   5   1   3   64.13    2.27
   5   1   3   68.14    2.73
  -5  -1  -3   69.07    3.30
   4   1   3   22.73    1.23
   4   1   3   24.46    1.46
  -4  -1  -3   24.37    1.86
  -4  -1  -3   22.82    0.78
   3   1   3  234.25    5.15
   3   1   3  233.40    4.68
  -3  -1  -3  235.37    5.89
  -3  -1  -3  227.61    4.30
   2   1   3    4.43    0.52
   2   1   3    3.92    0.52
  -2  -1  -3    5.01    0.47
  -2  -1  -3    3.72    0.77
   1   1   3   33.07    1.13
   1   1   3   32.42    0.99
  -1  -1  -3   31.74    1.50
  -1  -1  -3   31.87    1.13
   0   1   3  307.43    5.37
   0   1   3  298.42    5.27
   0  -1  -3  303.85    5.85
   0  -1  -3  294.84    5.70
  -1   1   3  154.12    3.02
  -1   1   3  153.07    3.17
   1  -1  -3  160.85    3.45
   1  -1  -3  156.71    3.42
   2  -1  -3    0.59    0.39
   2  -1  -3    0.39    0.24
   2  -1  -3    0.25    0.25
   2  -1  -3    0.21    0.29
   3  -1  -3  112.53    2.92
   3  -1  -3  118.43    2.62
   3  -1  -3  112.47    2.99
   3  -1  -3  115.43    3.38
   4  -1  -3    0.60    0.42
   4  -1  -3    0.16    0.38
   4  -1  -3    0.35    0.62
   4  -1  -3    0.54    0.34
  -5   1   3   46.82    2.28
   5  -1  -3   54.10    2.35
   5  -1  -3   55.38    2.95
   5  -1  -3   52.78    1.85
   5  -1  -3   53.92    1.95
  -6   1   3   16.38    1.75
  -6   1   3   14.62    1.12
   6  -1  -3   16.28    1.30
   6  -1  -3   17.13    1.72
  -7   1   3   27.88    2.12
   7  -1  -3   25.53    1.51
   7  -1  -3   28.69    2.05
  -8   1   3   28.59    2.67
   8  -1  -3   30.83    2.23
  -9   1   3    0.36    0.95
   9  -1  -3   -0.14    0.70
 -10   1   3    2.76    1.48
  10  -1  -3    0.60    1.02
   9   2   3    3.50    1.20
  -9  -2  -3    0.63    1.30
   8   2   3    2.75    0.93
  -8  -2  -3   -1.03    0.90
   7   2   3   23.74    2.19
   7   2   3   24.71    1.58
  -7  -2  -3   23.26    2.63
   6   2   3   10.79    1.13
   6   2   3    9.48    1.33
  -6  -2  -3    6.46    1.48
   5   2   3    8.25    0.97
   5   2   3    6.82    1.10
  -5  -2  -3    8.02    1.47
   4   2   3  127.65    3.17
   4   2   3  126.26    3.64
  -4  -2  -3  129.71    2.86
  -4  -2  -3  133.14    4.36
   3   2   3   70.38    2.00
   3   2   3   69.12    2.28
  -3  -2  -3   66.67    1.84
  -3  -2  -3   69.97    2.78
   2   2   3  218.27    4.72
   2   2   3  220.90    4.35
  -2  -2  -3  225.77    5.37
  -2  -2  -3  224.20    4.46
   1   2   3  254.16    4.73
   1   2   3  251.81    5.00
  -1  -2  -3  251.64    4.96
  -1  -2  -3  246.63    5.45
   0   2   3    6.42    0.62
   0   2   3    5.61    0.63
   0  -2  -3    4.69    0.57
   0  -2  -3    5.72    0.63
  -1   2   3  284.86    5.53
  -1   2   3  280.71    5.34
   1  -2  -3  287.66    5.67
   1  -2  -3  284.11    5.46
  -2   2   3   99.05    2.58
   2  -2  -3  103.75    2.44
   2  -2  -3  101.80    2.68
   2  -2  -3  100.82    2.63
   3  -2  -3    9.68    1.05
   3  -2  -3   10.29    0.96
   3  -2  -3   10.46    0.95
   3  -2  -3    9.83    0.83
   4  -2  -3  205.93    5.44
   4  -2  -3  205.55    4.67
   4  -2  -3  208.95    5.07
   4  -2  -3  205.73    4.36
  -5   2   3    0.96    0.68
   5  -2  -3    1.08    0.51
   5  -2  -3    0.69    0.51
   5  -2  -3    0.19    0.57
  -6   2   3   41.50    2.31
   6  -2  -3   39.03    2.22
   6  -2  -3   42.57    1.87
  -7   2   3   20.14    2.06
   7  -2  -3   16.59    1.88
   7  -2  -3   19.89    1.41
  -8   2   3    1.12    0.92
   8  -2  -3    0.22    0.56
   8  -2  -3    0.06    0.68
  -9   2   3   13.83    2.07
   9  -2  -3   19.15    2.29
  10  -2  -3    6.87    1.61
   9   3   3    4.49    1.25
  -9  -3  -3    1.94    1.59
   8   3   3    1.60    0.91
  -8  -3  -3   -0.62    1.00
   7   3   3   12.94    1.67
  -7  -3  -3   11.90    2.04
   6   3   3   21.82    1.71
   6   3   3   20.33    1.34
  -6  -3  -3   14.98    2.01
   5   3   3    6.99    0.89
   5   3   3    8.11    1.15
  -5  -3  -3    9.25    1.55
   4   3   3    6.44    0.78
   4   3   3    4.78    0.87
  -4  -3  -3    7.08    0.77
  -4  -3  -3    4.00    1.05
   3   3   3   20.46    1.31
   3   3   3   23.05    1.12
  -3  -3  -3   24.31    1.68
  -3  -3  -3   22.52    1.15
   2   3   3   65.98    2.20
   2   3   3   63.81    1.87
  -2  -3  -3   68.67    2.53
  -2  -3  -3   66.32    2.01
   1   3   3   44.94    1.54
   1   3   3   43.84    1.70
  -1  -3  -3   47.06    1.86
  -1  -3  -3   46.96    1.65
   0   3   3  247.80    5.34
   0   3   3  239.59    4.71
   0  -3  -3  220.98    4.94
   0  -3  -3  242.76    4.77
  -1   3   3   59.48    2.02
  -1   3   3   59.47    1.86
   1  -3  -3   56.98    1.57
   1  -3  -3   58.57    1.71
   1  -3  -3   62.63    1.99
  -2   3   3   93.23    2.67
   2  -3  -3   88.60    2.38
   2  -3  -3   93.84    2.62
   2  -3  -3   93.36    2.39
  -3   3   3   39.94    1.79
   3  -3  -3   44.17    1.75
   3  -3  -3   39.74    1.54
   3  -3  -3   38.35    1.71
   4  -3  -3   10.01    1.16
   4  -3  -3    8.19    0.87
   4  -3  -3    7.78    1.12
   4  -3  -3    9.97    1.01
  -5   3   3    2.48    0.73
   5  -3  -3    2.05    0.59
   5  -3  -3    2.56    0.65
   5  -3  -3    2.56    0.83
  -6   3   3   11.91    1.44
   6  -3  -3   10.40    1.15
   6  -3  -3   11.26    1.54
  -7   3   3   -0.13    0.70
   7  -3  -3    0.41    0.54
   7  -3  -3    0.19    0.63
  -8   3   3    4.74    1.22
   8  -3  -3    4.48    1.29
   8  -3  -3    4.90    1.01
   9  -3  -3    0.11    0.89
   9   4   3    4.35    1.29
  -9  -4  -3    3.55    1.68
   8   4   3    0.71    0.77
  -8  -4  -3    0.62    1.16
   7   4   3   -1.12    0.51
  -7  -4  -3    0.16    0.93
   6   4   3    8.71    1.31
  -6  -4  -3   10.75    1.77
   5   4   3    6.02    0.82
   5   4   3    6.74    1.17
  -5  -4  -3    8.20    1.46
   4   4   3    0.37    0.42
   4   4   3   -0.09    0.50
  -4  -4  -3    0.60    0.77
  -4  -4  -3   -0.53    0.44
   3   4   3    5.83    0.95
   3   4   3    3.18    0.56
  -3  -4  -3    3.66    0.94
  -3  -4  -3    3.23    0.65
   2   4   3    1.06    0.50
   2   4   3   -0.31    0.25
  -2  -4  -3    0.54    0.56
  -2  -4  -3    0.10    0.36
   1   4   3  108.54    2.71
   1   4   3  107.96    3.30
  -1  -4  -3  105.88    2.93
  -1  -4  -3  106.69    3.05
   0   4   3   24.81    1.58
   0   4   3   21.29    1.14
   0  -4  -3   23.50    1.27
   0  -4  -3   24.59    1.06
  -1   4   3   10.36    1.17
   1  -4  -3   10.67    0.61
   1  -4  -3   11.66    0.82
   1  -4  -3   10.26    0.99
  -2   4   3   51.12    2.12
   2  -4  -3   50.81    1.54
   2  -4  -3   52.03    1.80
   2  -4  -3   52.33    1.94
  -3   4   3   19.08    1.39
   3  -4  -3   19.54    1.28
   3  -4  -3   21.00    1.25
   3  -4  -3   18.28    1.11
  -4   4   3    9.40    1.24
  -4   4   3    8.79    0.93
   4  -4  -3   10.83    1.13
   4  -4  -3   10.31    1.04
  -5   4   3    2.42    0.85
  -5   4   3    2.84    0.78
   5  -4  -3    2.49    0.69
   5  -4  -3    2.93    0.74
  -6   4   3   14.53    1.77
  -6   4   3   14.76    1.53
   6  -4  -3   13.98    1.37
  -7   4   3    2.89    0.99
   7  -4  -3    5.68    1.01
  -8   4   3    0.43    0.80
   8  -4  -3    1.66    0.72
  -9   4   3    3.92    1.30
   9  -4  -3    2.16    0.93
   9   5   3   10.23    1.79
   8   5   3   10.68    1.73
  -8  -5  -3    8.21    1.98
   7   5   3    0.26    0.62
  -7  -5  -3    0.17    1.01
   6   5   3    8.61    1.40
  -6  -5  -3    8.98    1.67
   5   5   3   24.19    1.36
   5   5   3   21.08    1.67
  -5  -5  -3   19.96    1.38
  -5  -5  -3   18.01    2.10
   4   5   3    6.13    1.07
   4   5   3    5.23    0.74
  -4  -5  -3    4.32    1.13
  -4  -5  -3    4.29    0.86
   3   5   3    5.35    0.99
   3   5   3    6.38    0.77
  -3  -5  -3    7.23    1.17
  -3  -5  -3    6.59    0.96
   2   5   3  114.02    3.71
   2   5   3  117.75    2.96
  -2  -5  -3  113.24    3.50
  -2  -5  -3  118.01    3.29
   1   5   3   28.74    1.34
   1   5   3   28.19    1.86
  -1  -5  -3   30.83    1.53
  -1  -5  -3   30.35    1.55
   0   5   3  112.79    3.03
   0   5   3  118.31    3.91
   0  -5  -3  114.01    3.29
   0  -5  -3  113.41    2.66
  -1   5   3   34.01    2.03
   1  -5  -3   28.50    1.32
   1  -5  -3   30.90    0.90
   1  -5  -3   33.74    1.68
  -2   5   3  387.94    8.55
   2  -5  -3  374.42    6.71
   2  -5  -3  356.90    7.14
   2  -5  -3  382.18    7.79
  -3   5   3   32.78    1.99
  -3   5   3   32.16    1.15
   3  -5  -3   29.99    1.48
   3  -5  -3   33.19    1.73
  -4   5   3    1.17    0.74
   4  -5  -3    1.58    0.66
   4  -5  -3    1.55    0.54
  -5   5   3   47.56    2.67
   5  -5  -3   45.44    2.03
   5  -5  -3   44.83    2.09
  -6   5   3   33.06    2.36
   6  -5  -3   32.70    1.80
  -7   5   3    0.72    0.82
   7  -5  -3    1.32    0.67
  -8   5   3   16.59    2.19
   8  -5  -3   21.64    1.96
  -9   5   3   -0.06    0.87
   9  -5  -3    1.07    0.81
   8   6   3    1.18    0.98
  -8  -6  -3    0.18    1.22
   7   6   3   13.38    1.82
  -7  -6  -3    8.03    1.72
   6   6   3   14.54    1.79
  -6  -6  -3   17.11    2.18
   5   6   3    9.48    1.40
  -5  -6  -3   14.87    1.45
  -5  -6  -3   13.13    1.80
   4   6   3   39.74    1.66
   4   6   3   37.38    2.26
  -4  -6  -3   35.97    2.40
  -4  -6  -3   42.60    2.06
   3   6   3    2.56    0.87
   3   6   3    2.47    0.60
  -3  -6  -3    3.76    0.80
  -3  -6  -3    2.10    0.88
   2   6   3   56.75    1.99
   2   6   3   54.42    2.70
  -2  -6  -3   55.95    2.36
  -2  -6  -3   56.12    2.43
   1   6   3   69.17    2.25
   1   6   3   68.23    3.06
  -1  -6  -3   66.66    2.37
  -1  -6  -3   62.35    2.50
   0   6   3   49.03    1.94
   0   6   3   45.92    2.65
   0  -6  -3   46.46    1.47
   0  -6  -3   49.87    2.15
  -1   6   3   19.16    1.98
   1  -6  -3   20.00    1.18
   1  -6  -3   21.57    1.47
  -2   6   3   93.48    3.71
   2  -6  -3   88.24    3.03
   2  -6  -3   87.72    2.72
  -3   6   3   17.89    1.90
   3  -6  -3   21.16    1.36
   3  -6  -3   19.80    1.51
  -4   6   3   48.69    2.72
   4  -6  -3   49.90    2.12
   4  -6  -3   50.78    2.29
  -5   6   3    3.44    1.09
   5  -6  -3    4.80    0.91
   5  -6  -3    4.00    0.87
  -6   6   3   25.35    2.56
   6  -6  -3   24.72    1.70
  -7   6   3    1.56    0.97
   7  -6  -3    5.65    1.05
  -8   6   3   -0.36    0.87
   8  -6  -3    1.31    0.79
  -9   6   3    3.05    1.40
   9  -6  -3    2.55    1.01
   8   7   3    2.23    1.09
  -8  -7  -3    2.94    1.46
   7   7   3   10.49    1.74
  -7  -7  -3   10.35    2.01
   6   7   3    2.88    1.05
  -6  -7  -3    0.48    0.98
   5   7   3    0.27    0.69
  -5  -7  -3    0.51    0.65
  -5  -7  -3   -1.46    0.61
   4   7   3   17.93    1.96
  -4  -7  -3   20.32    2.05
  -4  -7  -3   18.66    1.67
   3   7   3   13.26    1.15
   3   7   3   15.56    1.81
  -3  -7  -3   13.45    1.58
  -3  -7  -3   14.05    1.47
   2   7   3    2.30    0.99
   2   7   3    1.82    0.59
  -2  -7  -3    1.31    0.70
  -2  -7  -3    1.18    0.75
   1   7   3   65.71    2.34
   1   7   3   59.60    3.22
  -1  -7  -3   63.55    2.34
  -1  -7  -3   68.16    2.67
   0   7   3    1.52    1.00
   0   7   3    0.95    0.55
   0  -7  -3    1.74    0.71
  -1   7   3   26.07    2.50
   1  -7  -3   20.86    1.28
   1  -7  -3   21.20    1.58
  -2   7   3   -0.49    0.80
   2  -7  -3   -0.23    0.38
   2  -7  -3    1.22    0.73
  -3   7   3    1.45    0.96
   3  -7  -3    0.46    0.56
   3  -7  -3    1.85    0.79
  -4   7   3    0.43    0.80
   4  -7  -3    3.62    0.86
   4  -7  -3    3.09    0.77
  -5   7   3    0.77    0.91
   5  -7  -3   -0.18    0.57
   5  -7  -3   -0.01    0.49
  -6   7   3   -0.97    0.64
   6  -7  -3    0.16    0.50
  -7   7   3    0.32    0.94
   7  -7  -3    2.67    0.86
  -8   7   3    0.66    1.11
   8  -7  -3    1.09    0.80
   8   8   3    2.82    1.18
  -8  -8  -3    0.90    1.41
   7   8   3   14.73    2.07
  -7  -8  -3   12.27    2.18
   6   8   3    1.34    0.90
  -6  -8  -3    2.46    1.23
   5   8   3    6.38    1.35
  -5  -8  -3    3.19    1.00
  -5  -8  -3    1.82    1.08
   4   8   3   21.75    2.21
  -4  -8  -3   25.43    1.87
   3   8   3    9.71    1.58
  -3  -8  -3    7.31    1.27
  -3  -8  -3    6.63    1.15
   2   8   3   13.41    1.25
   2   8   3   12.72    1.84
  -2  -8  -3   11.11    1.41
   1   8   3    0.54    0.51
   1   8   3    0.08    0.93
  -1  -8  -3   -0.24    0.62
   0   8   3    0.14    0.49
   0   8   3   -0.45    0.87
   0  -8  -3    0.79    0.71
  -1   8   3   16.48    2.25
   1  -8  -3   17.72    1.27
   1  -8  -3   17.34    1.71
  -2   8   3    0.99    0.97
   2  -8  -3    0.15    0.46
   2  -8  -3    0.58    0.66
  -3   8   3    0.61    0.97
   3  -8  -3    0.88    0.74
   3  -8  -3    0.35    0.53
  -4   8   3   39.91    2.88
   4  -8  -3   39.26    2.05
   4  -8  -3   43.62    2.28
  -5   8   3   -0.17    0.83
   5  -8  -3    0.95    0.71
   5  -8  -3   -0.32    0.49
  -6   8   3    7.02    1.71
   6  -8  -3    4.47    1.04
  -7   8   3    1.63    1.25
   7  -8  -3    1.67    0.79
  -8   8   3    0.55    1.22
   8  -8  -3    0.47    0.79
   7   9   3    2.75    1.25
  -7  -9  -3    0.95    1.28
   6   9   3    9.86    1.72
  -6  -9  -3    6.76    1.65
   5   9   3   45.26    2.96
  -5  -9  -3   43.14    2.55
  -5  -9  -3   40.21    2.83
   4   9   3    7.53    1.50
  -4  -9  -3    8.40    1.39
   3   9   3   53.34    3.21
  -3  -9  -3   51.25    2.68
   2   9   3    3.97    0.80
   2   9   3    2.88    1.24
  -2  -9  -3    3.43    0.96
   1   9   3   13.50    2.08
   1   9   3   11.88    1.29
  -1  -9  -3   11.22    1.44
   0   9   3   42.40    3.17
   0   9   3   44.57    2.17
   0  -9  -3   38.54    2.26
  -1   9   3    0.13    1.01
  -1   9   3   -0.68    0.47
   1  -9  -3   -0.71    0.60
   1  -9  -3   -0.23    0.44
  -2   9   3   22.07    2.71
   2  -9  -3   21.84    1.52
   2  -9  -3   25.17    2.14
  -3   9   3   16.04    2.32
   3  -9  -3   17.29    1.59
   3  -9  -3   18.46    1.91
  -4   9   3    1.19    1.12
   4  -9  -3    2.70    0.96
   4  -9  -3    1.92    0.75
  -5   9   3   17.25    2.52
   5  -9  -3   18.16    1.75
   5  -9  -3   19.60    1.94
  -6   9   3    4.46    1.64
   6  -9  -3   10.01    1.44
  -7   9   3    3.61    1.60
   7  -9  -3    3.84    1.01
   6  10   3    0.42    0.93
   5  10   3   -0.74    0.67
  -5 -10  -3    0.82    0.90
   4  10   3   13.49    1.97
  -4 -10  -3   13.68    1.75
   3  10   3    5.12    1.40
  -3 -10  -3    7.66    1.34
   2  10   3    9.02    1.78
  -2 -10  -3    9.58    1.43
   1  10   3    6.09    1.66
   1  10   3    6.85    1.06
  -1 -10  -3    3.95    1.05
   0  10   3   -0.14    0.55
   0  10   3    0.71    1.10
   0 -10  -3    0.46    0.76
  -1  10   3   27.11    1.81
  -1  10   3   16.82    2.53
   1 -10  -3   24.90    2.21
  -2  10   3   -0.30    1.02
   2 -10  -3    0.53    0.55
   2 -10  -3    0.05    0.77
  -3  10   3    7.27    1.89
   3 -10  -3    8.46    1.45
   3 -10  -3    6.76    1.12
  -4  10   3   25.01    3.09
   4 -10  -3   28.51    1.92
   4 -10  -3   25.58    2.28
  -5  10   3   -1.23    0.95
   5 -10  -3    0.85    0.73
  -6  10   3    2.43    1.54
   6 -10  -3    4.99    1.12
  -7  10   3    4.94    1.87
   7 -10  -3    4.88    1.18
   6  11   3   -0.64    0.87
   5  11   3   -0.78    0.85
  -5 -11  -3    0.34    0.79
   4  11   3    2.22    1.16
  -4 -11  -3    1.98    1.01
   3  11   3    9.08    1.74
  -3 -11  -3    8.14    1.46
   2  11   3    0.56    1.08
  -2 -11  -3    1.88    0.95
   1  11   3    4.93    1.65
  -1 -11  -3    4.31    1.13
   0  11   3    2.47    1.45
   0  11   3    1.58    0.76
   0 -11  -3    2.15    0.94
  -1  11   3    2.42    0.85
  -1  11   3    3.61    1.54
   1 -11  -3    3.78    1.10
  -2  11   3    8.44    2.07
   2 -11  -3    7.89    1.22
   2 -11  -3   10.97    1.60
  -3  11   3    0.57    1.26
   3 -11  -3    3.91    1.18
   3 -11  -3    1.04    0.68
  -4  11   3    1.43    1.41
   4 -11  -3   -1.06    0.67
   4 -11  -3   -0.76    0.55
  -5  11   3    2.20    1.56
   5 -11  -3    1.12    0.82
  -6  11   3    2.02    1.68
   6 -11  -3    4.66    1.21
   5  12   3    0.80    1.17
  -5 -12  -3    2.55    1.22
   4  12   3    3.57    1.45
  -4 -12  -3    1.67    1.11
   3  12   3    0.44    1.09
  -3 -12  -3   -0.43    0.85
   2  12   3   18.81    2.65
  -2 -12  -3   27.05    2.55
  -1 -12  -3   26.61    2.53
   0  12   3   -0.16    1.20
   0 -12  -3   -0.30    0.69
  -1  12   3    9.28    1.43
  -1  12   3    9.37    2.23
   1 -12  -3    9.61    1.61
  -2  12   3    5.78    1.21
  -2  12   3    5.65    1.93
   2 -12  -3    6.06    1.10
   2 -12  -3    7.27    1.44
  -3  12   3    0.10    1.39
   3 -12  -3   -0.29    0.61
   3 -12  -3   -0.62    0.72
  -4  12   3   -0.51    1.42
   4 -12  -3    2.25    0.89
   4 -12  -3    1.46    1.01
  -5  12   3    0.70    1.58
   5 -12  -3    1.45    0.90
   4  13   3   -1.38    0.86
  -4 -13  -3    0.94    1.07
   3  13   3   11.66    2.25
  -3 -13  -3   18.92    2.30
   2  13   3    1.35    1.31
  -2 -13  -3    6.14    1.48
   1  13   3    0.50    1.26
  -1 -13  -3    0.14    0.90
   0  13   3   40.24    4.24
   0 -13  -3   38.16    2.79
  -1  13   3    3.74    1.80
   1 -13  -3    2.87    1.17
  -2  13   3    6.12    2.08
  -2  13   3    8.98    1.54
   2 -13  -3   10.30    1.79
  -3  13   3   10.79    2.75
   3 -13  -3   11.55    1.62
   3 -13  -3   12.82    1.93
  -4  13   3   -1.22    1.36
   4 -13  -3    0.21    0.98
   4 -13  -3   -0.03    0.75
   1  14   3    4.08    1.84
   0  14   3    1.02    1.45
   0 -14  -3    0.42    1.04
  -1  14   3    2.49    1.84
   1 -14  -3    1.41    1.19
  -2  14   3    4.72    2.05
   2 -14  -3    7.14    1.69
   1 -14   4   11.77    1.92
   0 -14   4    0.43    1.07
  -3  13  -4    3.25    2.02
   2 -13   4    3.84    1.19
  -2  13  -4    2.38    1.89
   1 -13   4    1.22    1.04
  -1  13  -4    1.45    1.64
   0 -13   4   -0.10    0.84
   0  13  -4   -1.87    1.36
  -1 -13   4   -0.23    0.87
   1  13  -4   -1.60    1.11
  -2 -13   4    1.09    1.06
   2  13  -4    0.74    1.37
  -3 -13   4    2.21    1.21
   3  13  -4    2.81    1.55
   5 -12   4    1.10    0.94
   4 -12   4    3.14    1.05
  -4  12  -4    2.31    1.88
   3 -12   4    2.08    0.86
  -3  12  -4    4.58    1.95
   2 -12   4   10.89    1.64
  -2  12  -4    8.12    2.34
   1 -12   4   23.15    2.28
  -1  12  -4   24.82    3.56
   0 -12   4    1.17    0.95
   0  12  -4    2.22    1.67
  -1 -12   4   16.95    2.00
   1  12  -4   16.54    2.87
  -2 -12   4    5.87    1.42
   2  12  -4    6.54    2.07
  -3 -12   4   -0.72    0.86
   3  12  -4    0.47    1.25
  -4 -12   4    1.33    1.04
   4  12  -4    1.62    1.30
  -5 -12   4   -0.53    0.90
   5  12  -4    0.15    1.05
   5 -11   4    1.30    0.96
  -5  11  -4    1.65    1.75
   4 -11   4    2.77    0.95
  -4  11  -4    5.86    2.14
   3 -11   4    7.07    1.20
  -3  11  -4    6.62    2.17
   2 -11   4   17.00    1.83
   2 -11   4   16.71    1.59
  -2  11  -4   16.34    2.83
   1 -11   4    0.05    0.72
  -1  11  -4   -1.25    1.12
   0 -11   4   36.85    2.35
   0  11  -4   30.62    3.56
  -1 -11   4   31.11    2.29
   1  11  -4   27.29    3.43
  -2 -11   4    3.88    1.15
   2  11  -4    7.28    2.01
  -3 -11   4   22.42    2.25
   3  11  -4   25.18    3.10
  -4 -11   4    3.14    1.22
   4  11  -4    3.93    1.45
  -5 -11   4    7.57    1.59
   5  11  -4    6.15    1.72
  -6 -11   4    3.59    1.26
   6  11  -4    2.92    1.29
   6 -10   4    3.11    1.10
  -6  10  -4    1.68    1.57
   5 -10   4   -0.01    0.73
  -5  10  -4    1.53    1.47
   4 -10   4    3.49    0.99
  -4  10  -4    7.29    2.03
   3 -10   4   -0.68    0.50
  -3  10  -4    2.03    1.47
   2 -10   4    2.20    0.74
   2 -10   4    2.28    0.89
  -2  10  -4    1.80    1.48
   1 -10   4    1.91    0.84
  -1  10  -4    1.92    1.44
   0 -10   4    6.98    1.26
   0  10  -4    7.59    1.96
  -1 -10   4    4.86    1.12
   1  10  -4    4.65    1.66
  -2 -10   4   13.69    1.74
   2  10  -4   14.00    2.29
  -3 -10   4   11.63    1.62
   3  10  -4    9.10    1.90
  -4 -10   4   17.48    2.00
   4  10  -4   22.06    2.75
   4  10  -4   14.90    2.24
  -5 -10   4   11.52    1.72
  -5 -10   4   12.14    1.77
   5  10  -4   12.40    2.11
  -6 -10   4   -0.07    1.01
  -6 -10   4    0.69    0.92
  -7 -10   4    7.42    1.65
  -7 -10   4    6.37    1.66
   7  -9   4    3.27    1.13
  -7   9  -4    3.68    1.84
   6  -9   4    2.03    0.90
  -6   9  -4    1.19    1.36
   5  -9   4    5.07    1.10
  -5   9  -4    7.95    2.00
   4  -9   4    0.35    0.63
  -4   9  -4    0.00    1.08
   3  -9   4    0.29    0.59
  -3   9  -4   -0.59    1.02
   2  -9   4   10.63    1.31
   2  -9   4    9.67    1.18
  -2   9  -4   10.17    2.15
   1  -9   4   15.45    1.59
   1  -9   4   13.59    1.25
  -1   9  -4   11.13    2.20
   0  -9   4    1.51    0.81
   0   9  -4    1.16    1.20
  -1  -9   4    0.37    0.72
   1   9  -4    0.51    0.78
   1   9  -4    2.29    1.38
  -2  -9   4    5.66    1.16
   2   9  -4    2.70    1.08
   2   9  -4    3.61    1.43
  -3  -9   4    1.55    0.78
   3   9  -4    1.93    1.14
   3   9  -4    0.76    0.96
  -4  -9   4    4.09    1.06
   4   9  -4    5.70    1.47
   4   9  -4    6.88    1.67
  -5  -9   4    1.78    0.89
   5   9  -4    2.18    1.06
   5   9  -4   -1.66    1.06
  -6  -9   4    0.22    0.90
  -6  -9   4    2.78    1.15
   6   9  -4    2.12    1.09
  -7  -9   4    0.60    0.96
  -7  -9   4   -0.31    0.91
   7   9  -4   -0.28    0.93
   7  -8   4   12.91    1.73
  -7   8  -4   13.72    2.49
   6  -8   4    9.04    1.48
  -6   8  -4   10.99    2.13
   5  -8   4    9.35    1.35
  -5   8  -4    6.05    1.66
   4  -8   4   52.58    2.49
  -4   8  -4   57.14    3.68
   3  -8   4   30.59    1.73
   3  -8   4   30.44    1.78
  -3   8  -4   32.83    3.20
   2  -8   4    4.10    0.83
   2  -8   4    3.20    0.83
  -2   8  -4    3.81    1.34
   1  -8   4    2.92    0.87
   1  -8   4    3.36    0.71
  -1   8  -4    5.02    1.53
  -1   8  -4    5.06    0.93
   0  -8   4    5.73    0.76
   0  -8   4    6.05    1.07
   0   8  -4    5.80    1.63
   0   8  -4    3.81    0.95
  -1  -8   4    7.49    1.17
   1   8  -4    7.95    1.77
   1   8  -4    7.51    1.25
  -2  -8   4   14.36    1.59
   2   8  -4   12.14    1.66
   2   8  -4   16.36    2.22
  -3  -8   4    1.28    0.74
   3   8  -4    1.69    1.06
   3   8  -4    2.54    1.14
  -4  -8   4   40.15    2.35
   4   8  -4   44.30    3.18
   4   8  -4   41.59    2.75
  -5  -8   4   49.39    2.64
   5   8  -4   51.47    3.06
   5   8  -4   51.54    3.57
  -6  -8   4    8.09    1.57
  -6  -8   4    9.27    1.50
   6   8  -4    9.75    1.71
  -7  -8   4   18.27    2.04
  -7  -8   4   23.66    2.63
   7   8  -4   24.07    2.59
  -8  -8   4    2.76    1.33
   8   8  -4    2.92    1.27
   8  -7   4    7.53    1.47
  -8   7  -4    6.30    1.94
   7  -7   4    3.82    1.09
  -7   7  -4    2.53    1.39
   6  -7   4   10.13    1.44
  -6   7  -4    9.44    2.03
  -5   7  -4   49.35    3.25
   4  -7   4    8.04    1.19
  -4   7  -4    7.98    1.73
   3  -7   4   32.82    1.61
   3  -7   4   36.63    1.91
  -3   7  -4   32.48    2.56
  -3   7  -4   32.56    1.84
   2  -7   4   65.96    2.44
   2  -7   4   75.81    2.57
  -2   7  -4   67.14    2.54
  -2   7  -4   70.40    3.67
   1  -7   4   10.96    1.21
   1  -7   4   11.06    1.07
  -1   7  -4    8.36    1.70
  -1   7  -4   13.01    1.30
   0  -7   4    7.90    1.11
   0  -7   4   10.14    0.91
   0   7  -4    7.11    1.59
   0   7  -4    6.38    1.02
  -1  -7   4   11.44    1.30
  -1  -7   4   12.19    0.77
   1   7  -4   11.06    1.84
   1   7  -4    8.68    1.26
  -2  -7   4    4.00    0.93
   2   7  -4    2.64    0.93
   2   7  -4    2.74    1.20
  -3  -7   4   42.66    2.25
   3   7  -4   43.96    2.69
   3   7  -4   41.16    2.70
  -4  -7   4    3.81    1.00
   4   7  -4    3.54    1.30
   4   7  -4    2.39    0.96
  -5  -7   4   30.49    2.07
   5   7  -4   28.68    2.24
   5   7  -4   30.01    3.12
  -6  -7   4   39.13    2.68
  -6  -7   4   41.66    2.45
   6   7  -4   40.99    2.69
   6   7  -4   42.38    3.92
  -7  -7   4   -0.32    0.88
  -7  -7   4   -0.52    0.74
   7   7  -4   -0.24    0.66
  -8  -7   4   16.98    2.40
   8   7  -4   18.14    2.33
   8  -6   4   -0.54    0.69
  -8   6  -4   -0.72    0.88
   7  -6   4    1.86    0.85
  -7   6  -4   -0.84    0.89
   6  -6   4    2.91    0.91
  -6   6  -4    4.58    1.36
   5  -6   4    3.19    0.87
  -5   6  -4    1.98    0.99
  -5   6  -4    3.00    1.18
   4  -6   4   19.22    1.63
  -4   6  -4   22.29    1.72
  -4   6  -4   19.99    2.19
   3  -6   4   57.24    2.02
   3  -6   4   55.57    2.31
  -3   6  -4   56.74    2.41
  -3   6  -4   52.95    3.01
   2  -6   4   -0.20    0.46
   2  -6   4    0.74    0.54
  -2   6  -4   -0.92    0.70
  -2   6  -4    1.14    0.58
   1  -6   4   87.51    2.57
   1  -6   4   95.33    2.85
  -1   6  -4   95.87    3.02
  -1   6  -4   91.00    3.92
   0  -6   4    8.22    0.78
   0   6  -4    8.32    1.09
   0   6  -4    9.14    1.63
  -1  -6   4   31.49    1.11
  -1  -6   4   33.30    1.74
   1   6  -4   26.16    2.44
   1   6  -4   28.80    1.86
  -2  -6   4    3.41    0.82
   2   6  -4    4.18    1.00
   2   6  -4    3.53    1.07
  -3  -6   4   36.35    2.00
   3   6  -4   38.38    2.56
   3   6  -4   36.96    2.37
  -4  -6   4    5.97    1.07
   4   6  -4    5.14    1.18
   4   6  -4    6.04    1.47
  -5  -6   4    0.29    0.61
   5   6  -4    0.91    1.15
   5   6  -4    0.82    0.73
  -6  -6   4    6.07    1.16
   6   6  -4    4.63    1.17
   6   6  -4    4.05    1.59
  -7  -6   4   -0.69    0.69
  -7  -6   4    1.52    0.94
   7   6  -4    0.62    0.80
  -8  -6   4    2.66    1.29
   8   6  -4   -0.02    0.78
   9   6  -4   -0.46    0.78
   8  -5   4    2.96    1.03
  -8   5  -4    1.25    1.07
   7  -5   4    3.88    1.01
  -7   5  -4    5.65    1.62
  -7   5  -4    4.76    1.41
   6  -5   4   -0.08    0.53
  -6   5  -4    1.34    1.07
  -6   5  -4   -0.34    0.72
   5  -5   4    1.68    0.69
  -5   5  -4    1.02    0.88
  -5   5  -4    2.01    0.98
   4  -5   4    1.16    0.65
  -4   5  -4    2.88    0.94
  -4   5  -4    3.48    1.04
   3  -5   4   -0.12    0.41
   3  -5   4    0.61    0.48
  -3   5  -4    0.42    0.59
  -3   5  -4    1.17    0.77
   2  -5   4    0.94    0.50
   2  -5   4    1.60    0.56
  -2   5  -4    1.96    0.66
  -2   5  -4    1.23    0.76
   1  -5   4   33.45    1.45
   1  -5   4   35.69    1.52
  -1   5  -4   36.45    1.72
  -1   5  -4   36.01    2.25
   0  -5   4   47.79    1.93
   0  -5   4   46.74    1.51
   0   5  -4   46.61    1.97
   0   5  -4   41.54    2.41
  -1  -5   4   42.86    1.25
  -1  -5   4   44.34    1.88
   1   5  -4   40.85    2.41
   1   5  -4   40.98    1.99
  -2  -5   4   11.44    0.47
  -2  -5   4   11.06    1.16
   2   5  -4    9.88    1.41
   2   5  -4   12.62    1.44
  -3  -5   4   18.85    1.59
   3   5  -4   19.39    1.84
   3   5  -4   20.36    2.01
  -4  -5   4   29.07    1.80
   4   5  -4   31.51    2.72
   4   5  -4   22.57    1.79
  -5  -5   4    1.83    0.72
   5   5  -4    0.84    0.64
   5   5  -4    1.04    1.17
  -6  -5   4    5.03    1.05
   6   5  -4    3.76    1.07
   6   5  -4    7.43    1.87
  -7  -5   4   -0.19    0.62
  -7  -5   4    0.88    0.84
   7   5  -4   -0.82    0.59
  -8  -5   4    4.54    1.44
   8   5  -4    3.27    1.11
  -9  -5   4    5.51    1.66
   9   5  -4    2.85    1.23
   9  -4   4   12.50    1.76
  -9   4  -4   10.23    2.06
   8  -4   4    1.47    0.84
  -8   4  -4    1.83    1.49
  -8   4  -4   -0.10    0.82
   7  -4   4    1.06    0.72
  -7   4  -4   -0.10    1.13
  -7   4  -4    1.91    0.97
   6  -4   4   23.62    1.67
  -6   4  -4   18.58    2.13
  -6   4  -4   22.01    2.45
   5  -4   4   29.72    1.77
  -5   4  -4   31.34    2.36
  -5   4  -4   31.11    2.16
   4  -4   4    2.83    0.73
  -4   4  -4    1.83    0.82
  -4   4  -4    2.88    0.99
   3  -4   4   29.50    1.58
   3  -4   4   28.33    1.14
  -3   4  -4   31.28    1.86
  -3   4  -4   26.34    1.83
   2  -4   4   78.31    2.40
   2  -4   4   77.78    2.15
  -2   4  -4   75.95    2.87
  -2   4  -4   79.80    2.68
   1  -4   4  481.90    8.42
   1  -4   4  476.52    8.83
  -1   4  -4  464.36    9.34
  -1   4  -4  468.47   10.06
   0  -4   4    9.89    0.93
   0  -4   4   10.33    0.79
   0   4  -4   10.67    1.35
   0   4  -4   11.07    1.11
  -1  -4   4  340.05    6.98
  -1  -4   4  347.13    5.84
   1   4  -4  337.04    7.80
   1   4  -4  340.86    7.35
  -2  -4   4  345.40    5.55
  -2  -4   4  341.12    7.17
   2   4  -4  354.73    7.78
   2   4  -4  338.64    7.78
  -3  -4   4    1.07    0.54
   3   4  -4    0.79    0.71
   3   4  -4    0.62    0.53
  -4  -4   4    5.92    0.93
   4   4  -4    7.63    1.14
   4   4  -4    8.42    1.52
  -5  -4   4    0.78    0.62
   5   4  -4    0.71    0.98
   5   4  -4    0.74    0.61
  -6  -4   4    3.86    0.89
   6   4  -4    4.66    1.03
   6   4  -4    1.97    1.23
  -7  -4   4   12.04    1.45
  -7  -4   4    8.21    1.57
   7   4  -4   12.84    1.66
  -8  -4   4   -0.83    0.75
   8   4  -4   -0.26    0.64
  -9  -4   4    3.96    1.49
   9   4  -4    4.79    1.39
   9  -3   4    0.14    0.76
  -9   3  -4   -0.70    0.80
  -9   3  -4    0.79    1.45
   8  -3   4   20.26    1.98
  -8   3  -4   23.66    2.67
  -8   3  -4   21.90    2.85
   7  -3   4   17.82    2.00
   7  -3   4   18.82    1.81
  -7   3  -4   25.32    2.81
  -7   3  -4   21.62    2.31
   6  -3   4   -0.22    0.52
   6  -3   4    1.36    0.76
  -6   3  -4    2.10    1.21
  -6   3  -4    0.42    0.72
   5  -3   4   54.27    2.36
  -5   3  -4   57.89    2.78
  -5   3  -4   57.75    3.24
   4  -3   4    3.53    0.76
  -4   3  -4    3.22    1.10
  -4   3  -4    2.78    0.87
   3  -3   4    8.50    0.63
   3  -3   4    9.93    1.03
  -3   3  -4    9.74    1.32
  -3   3  -4   10.10    1.17
   2  -3   4   92.75    2.56
   2  -3   4   94.33    2.29
  -2   3  -4   92.52    2.94
  -2   3  -4   97.01    3.06
   1  -3   4   32.22    1.27
   1  -3   4   29.44    1.22
  -1   3  -4   29.06    1.49
  -1   3  -4   33.66    1.68
   0  -3   4  442.84    8.24
   0  -3   4  442.05    7.47
   0   3  -4  438.11    8.68
   0   3  -4  422.23    8.94
  -1  -3   4  162.22    3.16
  -1  -3   4  170.97    3.95
   1   3  -4  171.22    4.28
   1   3  -4  170.12    4.32
  -2  -3   4   35.99    0.92
  -2  -3   4   38.30    1.61
   2   3  -4   34.20    1.84
   2   3  -4   33.79    1.64
  -3  -3   4  152.54    4.00
  -3  -3   4  159.34    2.69
   3   3  -4  161.30    4.75
   3   3  -4  164.29    4.21
  -4  -3   4   -0.05    0.48
   4   3  -4   -0.11    0.43
   4   3  -4    1.31    0.80
  -5  -3   4   15.63    1.42
   5   3  -4   13.43    1.47
   5   3  -4   10.05    1.80
  -6  -3   4    9.35    1.17
   6   3  -4    7.35    1.16
   6   3  -4    8.21    1.81
  -7  -3   4    8.19    1.56
   7   3  -4    7.06    1.25
  -8  -3   4   10.37    1.83
   8   3  -4   12.93    1.76
  -9  -3   4    4.11    1.54
   9   3  -4    6.86    1.52
   9  -2   4    2.88    0.97
   9  -2   4    3.98    1.27
  -9   2  -4    4.09    1.81
   8  -2   4   -0.11    0.66
   8  -2   4    0.40    0.85
  -8   2  -4    0.95    1.31
   7  -2   4    8.01    1.23
   7  -2   4    4.98    1.16
  -7   2  -4    8.65    1.86
   6  -2   4   25.80    1.89
   6  -2   4   22.44    1.58
  -6   2  -4   22.41    2.54
   5  -2   4    0.28    0.64
   5  -2   4    0.48    0.63
  -5   2  -4    2.09    1.19
   4  -2   4    5.97    0.87
   4  -2   4    7.28    1.06
  -4   2  -4    6.84    1.42
   3  -2   4   11.81    0.61
   3  -2   4   12.54    1.11
   3  -2   4   12.37    1.16
  -3   2  -4   14.30    1.29
  -3   2  -4   14.78    1.57
   2  -2   4   11.49    0.66
   2  -2   4   10.32    0.92
  -2   2  -4   12.45    1.28
  -2   2  -4   11.00    1.00
   1  -2   4   11.09    0.74
   1  -2   4   11.01    0.80
  -1   2  -4   13.12    0.92
  -1   2  -4   10.74    1.03
   0  -2   4   47.57    1.59
   0  -2   4   49.96    1.42
   0   2  -4   47.48    1.81
   0   2  -4   48.55    1.77
  -1  -2   4   50.19    1.72
  -1  -2   4   47.69    1.28
   1   2  -4   49.32    1.73
   1   2  -4   50.16    1.94
  -2  -2   4   55.86    1.96
  -2  -2   4   57.13    1.35
   2   2  -4   56.44    2.29
   2   2  -4   58.08    1.87
  -3  -2   4    6.97    0.88
  -3  -2   4    6.31    0.46
   3   2  -4    7.27    1.13
   3   2  -4    8.66    0.92
  -4  -2   4    0.99    0.31
  -4  -2   4    1.24    0.53
   4   2  -4    0.63    0.48
   4   2  -4    0.36    0.69
  -5  -2   4   15.49    1.36
   5   2  -4   16.27    1.50
   5   2  -4   16.07    2.05
  -6  -2   4   13.26    1.32
   6   2  -4    9.03    1.82
   6   2  -4   10.03    1.33
  -7  -2   4    9.37    1.63
   7   2  -4    7.30    1.25
  -8  -2   4    5.29    1.40
   8   2  -4    5.45    1.22
  -9  -2   4    0.97    1.09
   9   2  -4    1.85    0.98
   9  -1   4    0.55    0.78
   9  -1   4    1.76    1.04
  -9   1  -4    1.24    1.49
   8  -1   4    0.79    0.77
   8  -1   4    0.26    0.64
  -8   1  -4    1.21    1.38
   7  -1   4    3.30    0.97
   7  -1   4    6.24    1.07
  -7   1  -4    3.03    1.41
   6  -1   4   23.85    1.83
   6  -1   4   27.13    1.71
  -6   1  -4   28.23    2.88
   5  -1   4   17.17    1.47
   5  -1   4   21.33    1.55
  -5   1  -4   17.38    2.18
   4  -1   4   13.33    1.31
   4  -1   4   13.91    1.22
  -4   1  -4   13.40    1.75
   3  -1   4  114.16    3.14
   3  -1   4  115.85    2.24
   3  -1   4  105.36    2.89
  -3   1  -4  111.98    3.87
   2  -1   4  140.47    2.88
   2  -1   4  134.05    3.25
   2  -1   4  143.77    3.24
  -2   1  -4  137.25    3.99
   1  -1   4   59.33    1.72
   1  -1   4   62.01    1.72
  -1   1  -4   59.13    2.14
  -1   1  -4   62.26    1.69
   0  -1   4   33.36    1.15
   0   1  -4   34.97    1.17
  -1  -1   4   13.62    0.69
  -1  -1   4   14.40    0.92
   1   1  -4   15.95    0.94
   1   1  -4   14.94    1.03
   1   1  -4   16.57    0.72
  -2  -1   4  106.27    2.34
  -2  -1   4  111.10    2.96
   2   1  -4  112.70    3.28
   2   1  -4  112.43    2.64
  -3  -1   4   67.51    2.26
  -3  -1   4   67.78    1.75
   3   1  -4   65.99    2.66
   3   1  -4   69.40    2.13
  -4  -1   4    5.29    0.83
   4   1  -4    4.85    0.78
   4   1  -4    3.42    0.47
   4   1  -4    4.45    1.10
  -5  -1   4   62.31    2.34
   5   1  -4   63.33    1.83
   5   1  -4   64.74    2.54
   5   1  -4   63.69    3.32
  -6  -1   4   22.70    1.43
   6   1  -4   20.91    1.63
   6   1  -4   25.16    2.76
  -7  -1   4    8.93    1.51
   7   1  -4    7.16    1.27
  -8  -1   4    6.03    1.46
   8   1  -4    5.07    1.18
  -9  -1   4   -0.04    1.01
   9   1  -4   -0.75    0.64
 -10  -1   4    0.35    1.03
  10   1  -4    0.82    0.92
   9   0   4   13.84    1.96
  -9   0  -4   12.21    2.55
   8   0   4    5.53    1.14
   8   0   4    5.22    1.23
  -8   0  -4    4.41    1.71
   7   0   4   22.32    2.13
   7   0   4   21.93    1.83
  -7   0  -4   23.38    2.84
   6   0   4   27.40    1.68
   6   0   4   33.58    2.04
  -6   0  -4   27.57    2.84
   5   0   4   27.88    1.76
   5   0   4   25.86    1.57
  -5   0  -4   24.46    2.48
   4   0   4  371.75    7.37
   4   0   4  390.00    8.17
  -4   0  -4  380.58    9.32
   3   0   4  142.74    3.43
   3   0   4  145.48    3.64
  -3   0  -4  139.64    4.49
  -3   0  -4  140.89    2.81
   2   0   4   45.92    1.52
   2   0   4   43.04    1.53
  -2   0  -4   45.80    2.20
  -2   0  -4   45.35    1.35
   1   0   4   10.41    0.53
   1   0   4   10.23    0.71
  -1   0  -4   10.12    0.71
  -1   0  -4   10.53    1.01
   0   0   4   49.17    1.46
   0   0  -4   50.81    1.64
   0   0  -4   47.08    1.75
  -1   0   4   16.76    0.82
   1   0  -4   17.53    0.57
   1   0  -4   17.21    1.05
  -2   0   4    2.41    0.43
   2   0  -4    2.67    0.61
   2   0  -4    2.38    0.51
   2   0  -4    1.98    0.38
   3   0  -4    0.49    0.50
   3   0  -4    1.06    0.31
   3   0  -4    0.79    0.41
   3   0  -4    1.09    0.40
  -4   0   4  508.75    9.75
   4   0  -4  494.34    9.95
   4   0  -4  504.21    8.66
   4   0  -4  499.07    9.66
   4   0  -4  504.50   10.88
  -5   0   4  149.61    3.93
   5   0  -4  149.02    5.20
   5   0  -4  142.32    4.18
   5   0  -4  151.74    3.38
  -6   0   4   17.40    1.26
   6   0  -4   18.14    1.15
   6   0  -4   12.88    1.97
   6   0  -4   18.55    1.71
  -7   0   4   58.30    3.11
   7   0  -4   63.18    2.93
  -8   0   4    1.07    1.02
   8   0  -4    0.24    0.69
  -9   0   4    2.02    1.29
   9   0  -4    2.43    1.01
 -10   0   4   -0.20    1.16
  10   0  -4   -0.22    0.92
   9   1   4    0.38    0.82
  -9  -1  -4   -0.27    1.39
   8   1   4   -0.01    0.64
   8   1   4    0.10    0.63
  -8  -1  -4    1.93    1.44
   7   1   4    4.34    1.10
   7   1   4    4.69    1.00
  -7  -1  -4    3.04    1.46
   6   1   4   23.39    1.49
   6   1   4   27.64    1.85
  -6  -1  -4   19.01    2.38
   5   1   4   18.91    1.50
   5   1   4   18.88    1.49
  -5  -1  -4   18.88    2.21
   4   1   4   14.27    1.33
   4   1   4   14.87    1.22
  -4  -1  -4   13.25    1.77
   3   1   4  114.89    2.95
   3   1   4  116.33    3.09
  -3  -1  -4  114.98    2.56
  -3  -1  -4  111.85    3.99
   2   1   4  135.53    3.17
   2   1   4  136.57    3.14
  -2  -1  -4  136.87    4.08
  -2  -1  -4  140.72    3.07
   1   1   4   60.42    1.48
   1   1   4   59.48    1.76
  -1  -1  -4   61.04    1.80
  -1  -1  -4   59.24    2.17
   0   1   4   36.35    1.29
   0  -1  -4   37.71    1.51
   0  -1  -4   35.39    1.38
  -1   1   4   14.89    0.84
  -1   1   4   15.62    0.59
   1  -1  -4   15.21    0.96
   1  -1  -4   17.31    1.01
  -2   1   4  112.42    2.75
   2  -1  -4  114.64    2.61
   2  -1  -4  111.91    3.09
   2  -1  -4  115.53    3.01
   3  -1  -4   67.94    2.25
   3  -1  -4   64.73    2.07
   3  -1  -4   71.36    1.94
   3  -1  -4   66.98    2.50
   4  -1  -4    3.49    0.89
   4  -1  -4    5.22    0.80
   4  -1  -4    3.85    0.59
   4  -1  -4    4.99    0.80
   5  -1  -4   60.63    2.02
   5  -1  -4   59.61    3.09
   5  -1  -4   61.55    2.29
   5  -1  -4   61.41    2.51
  -6   1   4   24.08    1.87
  -6   1   4   21.88    1.40
   6  -1  -4   23.07    1.34
   6  -1  -4   22.31    1.64
  -7   1   4    6.13    1.29
   7  -1  -4    7.00    1.21
   7  -1  -4    8.62    1.03
  -8   1   4    4.31    1.31
   8  -1  -4    5.14    1.22
  -9   1   4   -0.28    0.98
   9  -1  -4    0.58    0.89
 -10   1   4   -1.10    1.00
  10  -1  -4   -1.19    0.86
   9   2   4    1.89    1.03
  -9  -2  -4    0.77    1.42
   8   2   4    0.77    0.80
  -8  -2  -4    0.27    1.22
   7   2   4    8.99    1.21
   7   2   4    8.11    1.39
  -7  -2  -4    8.46    1.89
   6   2   4   25.48    1.58
   6   2   4   22.99    1.76
  -6  -2  -4   22.13    2.54
   5   2   4    0.73    0.62
   5   2   4    0.48    0.49
  -5  -2  -4    1.97    1.05
   4   2   4    5.13    0.78
   4   2   4    7.47    1.00
  -4  -2  -4    6.67    0.67
  -4  -2  -4    7.60    1.41
   3   2   4   10.72    0.95
   3   2   4   12.10    0.95
  -3  -2  -4   12.32    1.54
  -3  -2  -4   11.47    0.84
   2   2   4   11.08    0.93
   2   2   4   10.51    0.79
  -2  -2  -4    9.90    1.24
  -2  -2  -4   10.60    0.86
   1   2   4   11.56    0.70
   1   2   4   11.04    0.78
  -1  -2  -4   13.53    1.23
  -1  -2  -4   11.86    0.84
   0   2   4   49.12    1.44
   0   2   4   49.25    1.64
   0  -2  -4   47.45    1.71
   0  -2  -4   47.28    1.69
  -1   2   4   52.45    1.54
  -1   2   4   49.65    1.69
   1  -2  -4   50.49    1.70
   1  -2  -4   48.39    1.80
  -2   2   4   58.76    1.79
  -2   2   4   57.49    1.90
   2  -2  -4   61.42    2.03
   2  -2  -4   58.08    2.07
   3  -2  -4    7.77    0.88
   3  -2  -4    7.26    0.81
   3  -2  -4    6.88    0.74
   3  -2  -4    7.94    0.99
   4  -2  -4    2.02    0.62
   4  -2  -4    0.37    0.37
   4  -2  -4    1.08    0.69
   4  -2  -4    0.63    0.47
   5  -2  -4   15.21    1.33
   5  -2  -4   17.53    1.61
   5  -2  -4   16.05    1.89
   5  -2  -4   15.66    1.27
  -6   2   4   12.90    1.56
   6  -2  -4   12.20    1.22
   6  -2  -4   10.29    1.12
   6  -2  -4   15.31    1.68
  -7   2   4    8.28    1.42
   7  -2  -4    7.73    1.05
   7  -2  -4    7.70    1.35
  -8   2   4    4.94    1.34
   8  -2  -4    3.53    1.09
  -9   2   4    2.50    1.22
   9  -2  -4    2.26    1.07
   9   3   4   -0.36    0.75
  -9  -3  -4   -0.26    1.26
   8   3   4   19.51    2.20
  -8  -3  -4   16.98    2.65
   7   3   4   24.56    1.93
   7   3   4   21.25    1.75
  -7  -3  -4   17.93    2.44
   6   3   4    0.42    0.59
   6   3   4    0.23    0.52
  -6  -3  -4    0.90    0.99
   5   3   4   56.60    2.17
   5   3   4   56.69    2.53
  -5  -3  -4   58.23    3.22
   4   3   4    4.10    0.82
   4   3   4    3.48    0.69
  -4  -3  -4    3.40    0.64
  -4  -3  -4    2.81    1.05
   3   3   4    8.93    0.98
   3   3   4    9.48    0.90
  -3  -3  -4    7.63    1.28
  -3  -3  -4    9.94    0.93
   2   3   4   94.39    2.70
   2   3   4   96.69    2.61
  -2  -3  -4  101.37    3.44
  -2  -3  -4   94.43    2.66
   1   3   4   30.36    1.35
   1   3   4   31.61    1.34
  -1  -3  -4   30.17    1.59
  -1  -3  -4   28.47    1.41
   0   3   4  441.50    7.99
   0   3   4  432.18    8.57
   0  -3  -4  428.35    8.42
   0  -3  -4  448.04    8.37
  -1   3   4  174.81    3.93
  -1   3   4  165.53    4.03
   1  -3  -4  170.28    3.73
   1  -3  -4  165.73    4.05
  -2   3   4   36.59    1.54
   2  -3  -4   34.41    1.58
   2  -3  -4   35.83    1.47
   2  -3  -4   37.39    1.45
  -3   3   4  164.87    4.18
   3  -3  -4  167.59    4.19
   3  -3  -4  160.26    4.12
   3  -3  -4  165.28    3.83
  -4   3   4    0.88    0.56
   4  -3  -4    2.00    0.77
   4  -3  -4    0.44    0.45
   4  -3  -4    0.41    0.47
   4  -3  -4    0.66    0.53
   5  -3  -4   10.59    1.19
   5  -3  -4   13.08    1.65
   5  -3  -4   14.89    1.28
   5  -3  -4   13.67    1.49
  -6   3   4   10.29    1.36
   6  -3  -4    7.45    1.02
   6  -3  -4    8.99    1.38
   6  -3  -4    9.28    1.13
  -7   3   4    6.67    1.28
   7  -3  -4    6.33    1.06
   7  -3  -4    8.44    1.47
   8  -3  -4   12.30    1.42
   8  -3  -4   12.80    1.81
   9  -3  -4    5.10    1.48
   9   4   4    7.79    1.57
   8   4   4    1.64    0.91
  -8  -4  -4    0.66    1.34
   7   4   4    0.92    0.78
  -7  -4  -4    1.30    1.17
   6   4   4   27.22    1.59
   6   4   4   21.43    1.99
  -6  -4  -4   27.48    2.79
   5   4   4   30.84    1.60
   5   4   4   30.07    1.89
  -5  -4  -4   29.52    2.74
   4   4   4    2.25    0.74
   4   4   4    2.46    0.64
  -4  -4  -4    1.00    0.61
  -4  -4  -4    1.74    1.00
   3   4   4   26.59    1.58
   3   4   4   28.93    1.39
  -3  -4  -4   28.59    2.12
  -3  -4  -4   29.55    1.50
   2   4   4   84.54    2.72
   2   4   4   83.38    2.41
  -2  -4  -4   81.04    3.07
  -2  -4  -4   80.06    2.59
   1   4   4  476.29    8.66
   1   4   4  466.52    9.55
  -1  -4  -4  464.45    9.51
  -1  -4  -4  490.44    9.32
   0   4   4   10.67    1.18
   0   4   4    8.59    0.91
   0  -4  -4   10.35    0.89
   0  -4  -4    7.63    0.93
  -1   4   4  350.72    6.93
  -1   4   4  344.38    7.55
   1  -4  -4  343.58    6.60
   1  -4  -4  350.49    7.24
  -2   4   4  346.56    7.54
   2  -4  -4  346.35    6.77
   2  -4  -4  353.43    7.34
   2  -4  -4  346.57    6.71
  -3   4   4    1.32    0.59
   3  -4  -4    0.60    0.46
   3  -4  -4    1.65    0.56
   3  -4  -4    1.13    0.58
  -4   4   4    6.34    1.06
   4  -4  -4    6.90    0.97
   4  -4  -4    6.66    0.88
   4  -4  -4    6.00    1.02
  -5   4   4    2.20    0.78
  -5   4   4    1.01    0.65
   5  -4  -4    0.31    0.56
   5  -4  -4    0.73    0.49
  -6   4   4    4.28    0.95
  -6   4   4    2.79    0.99
   6  -4  -4    3.20    0.82
   6  -4  -4    2.67    0.73
  -7   4   4   11.20    1.67
   7  -4  -4   11.37    1.35
  -8   4   4    1.50    0.91
   8  -4  -4    0.15    0.60
  -9   4   4    2.73    1.25
   9   5   4    0.54    1.00
   8   5   4    3.40    1.15
  -8  -5  -4    3.91    1.60
   7   5   4    7.13    1.38
  -7  -5  -4    5.08    1.54
   6   5   4    0.75    0.68
  -6  -5  -4   -0.06    0.97
   5   5   4    2.78    0.89
   5   5   4    1.65    0.62
  -5  -5  -4    2.22    1.10
   4   5   4    2.69    0.64
   4   5   4    3.70    0.92
  -4  -5  -4    2.07    0.71
  -4  -5  -4    2.29    1.01
   3   5   4    0.90    0.50
   3   5   4    0.98    0.63
  -3  -5  -4   -0.67    0.74
  -3  -5  -4    0.91    0.62
   2   5   4    1.79    0.71
   2   5   4    1.50    0.49
  -2  -5  -4    1.58    0.82
  -2  -5  -4    2.25    0.68
   1   5   4   39.16    2.08
   1   5   4   36.41    1.61
  -1  -5  -4   35.30    1.77
  -1  -5  -4   37.88    1.83
   0   5   4   49.28    1.93
   0   5   4   49.73    2.42
   0  -5  -4   48.35    1.65
   0  -5  -4   42.36    1.98
  -1   5   4   42.55    1.92
  -1   5   4   45.65    2.38
   1  -5  -4   44.25    1.42
   1  -5  -4   48.57    2.08
  -2   5   4   11.11    1.38
   2  -5  -4   12.97    1.13
   2  -5  -4    9.82    1.18
   2  -5  -4   11.02    0.81
  -3   5   4   21.98    1.62
   3  -5  -4   21.84    1.37
   3  -5  -4   16.92    1.51
   3  -5  -4   17.88    1.21
  -4   5   4   26.92    1.90
   4  -5  -4   29.41    1.60
   4  -5  -4   28.07    1.76
  -5   5   4    2.14    0.89
   5  -5  -4    2.50    0.73
   5  -5  -4    1.48    0.67
  -6   5   4    5.57    1.28
   6  -5  -4    4.70    0.94
  -7   5   4    0.62    0.74
   7  -5  -4    0.02    0.59
  -8   5   4    4.49    1.37
   8  -5  -4    3.17    0.92
  -9   5   4    5.02    1.54
   9  -5  -4    2.85    1.00
   8   6   4    0.24    0.85
  -8  -6  -4    0.86    1.28
   7   6   4    0.37    0.74
  -7  -6  -4   -0.38    1.04
   6   6   4    3.84    1.08
  -6  -6  -4    2.74    1.20
   5   6   4    3.47    0.96
  -5  -6  -4    2.70    1.12
   4   6   4   21.83    1.34
   4   6   4   20.96    1.93
  -4  -6  -4   17.39    1.97
  -4  -6  -4   23.01    1.63
   3   6   4   55.95    2.13
   3   6   4   54.67    2.65
  -3  -6  -4   60.69    2.95
  -3  -6  -4   58.68    2.48
   2   6   4    0.32    0.68
   2   6   4    0.72    0.48
  -2  -6  -4   -0.01    0.63
  -2  -6  -4    0.71    0.77
   1   6   4   96.32    2.92
   1   6   4   95.44    3.66
  -1  -6  -4   96.10    3.05
  -1  -6  -4   95.73    3.21
   0   6   4    8.72    1.03
   0   6   4    7.64    1.39
   0  -6  -4    8.91    0.81
   0  -6  -4   11.15    1.28
  -1   6   4   30.37    2.19
  -1   6   4   31.66    1.73
   1  -6  -4   31.84    1.86
  -2   6   4    3.52    1.06
   2  -6  -4    3.01    0.68
   2  -6  -4    2.47    0.78
  -3   6   4   36.79    2.38
   3  -6  -4   38.88    1.86
   3  -6  -4   40.60    2.15
  -4   6   4    5.33    1.21
   4  -6  -4    6.19    0.97
   4  -6  -4    5.77    1.06
  -5   6   4    1.17    0.87
   5  -6  -4    0.34    0.55
   5  -6  -4    0.67    0.65
  -6   6   4    5.22    1.29
   6  -6  -4    4.80    0.98
  -7   6   4    1.25    0.98
   7  -6  -4    1.49    0.76
  -8   6   4   -0.78    0.82
   8  -6  -4    1.52    0.78
  -9   6   4    1.21    1.19
   9  -6  -4    1.77    0.92
   8   7   4    6.43    1.52
  -8  -7  -4   10.25    2.31
   7   7   4    1.61    1.00
  -7  -7  -4    2.63    1.42
   6   7   4   12.38    1.75
  -6  -7  -4    5.19    1.50
   5   7   4   56.92    2.98
  -5  -7  -4   53.99    3.19
   4   7   4    5.17    1.15
   4   7   4    8.52    1.02
  -4  -7  -4    6.83    1.39
  -4  -7  -4    8.56    1.23
   3   7   4   34.22    1.70
   3   7   4   31.34    2.11
  -3  -7  -4   36.59    2.34
  -3  -7  -4   35.97    2.07
   2   7   4   72.54    3.31
   2   7   4   69.81    2.47
  -2  -7  -4   71.53    3.04
  -2  -7  -4   67.88    2.81
   1   7   4   10.54    1.16
   1   7   4   10.34    1.64
  -1  -7  -4   10.30    1.19
  -1  -7  -4    9.75    1.29
   0   7   4    7.05    1.52
   0   7   4    8.50    1.13
   0  -7  -4    8.74    1.23
  -1   7   4   10.62    1.26
  -1   7   4   11.79    1.85
   1  -7  -4    8.68    1.27
  -2   7   4    2.90    1.19
   2  -7  -4    2.66    0.69
   2  -7  -4    2.83    0.88
  -3   7   4   41.63    2.75
   3  -7  -4   39.88    1.96
   3  -7  -4   44.47    2.33
  -4   7   4    1.84    1.05
   4  -7  -4    3.97    0.85
   4  -7  -4    3.79    0.99
  -5   7   4   29.25    2.77
   5  -7  -4   28.11    1.76
   5  -7  -4   26.81    1.88
  -6   7   4   41.88    2.99
   6  -7  -4   40.51    2.20
  -7   7   4    0.33    0.96
   7  -7  -4   -0.49    0.53
  -8   7   4   16.15    2.53
   8  -7  -4   16.89    1.87
   7   8   4   11.64    1.86
  -7  -8  -4   13.18    2.37
   6   8   4    5.45    1.31
  -6  -8  -4    6.45    1.70
   5   8   4    8.07    1.47
  -5  -8  -4    5.33    1.45
   4   8   4   50.40    2.89
  -4  -8  -4   53.65    3.07
  -4  -8  -4   55.85    2.70
   3   8   4   28.37    2.22
   3   8   4   29.97    1.66
  -3  -8  -4   29.20    2.01
  -3  -8  -4   31.72    2.25
   2   8   4    4.32    1.21
   2   8   4    4.39    0.87
  -2  -8  -4    2.18    0.84
   1   8   4    5.03    0.90
   1   8   4    2.83    1.19
  -1  -8  -4    3.93    0.97
   0   8   4    5.08    0.95
   0   8   4    6.07    1.60
   0  -8  -4    5.96    1.12
  -1   8   4    7.00    1.58
  -1   8   4    8.45    1.20
   1  -8  -4   10.14    1.44
  -2   8   4   14.35    2.15
   2  -8  -4   11.87    1.54
   2  -8  -4   11.37    1.27
  -3   8   4    3.25    1.24
   3  -8  -4    1.59    0.83
   3  -8  -4    0.21    0.54
  -4   8   4   44.77    3.11
   4  -8  -4   43.38    2.46
   4  -8  -4   42.93    2.20
  -5   8   4   46.29    3.27
   5  -8  -4   55.92    2.73
   5  -8  -4   47.58    2.41
  -6   8   4    7.78    1.74
   6  -8  -4   10.72    1.43
  -7   8   4   22.06    2.81
   7  -8  -4   21.55    2.03
  -8   8   4    0.26    1.25
   8  -8  -4    2.00    0.95
   7   9   4    5.01    1.43
  -7  -9  -4    0.75    1.43
   6   9   4    0.87    0.94
  -6  -9  -4    0.60    1.22
   5   9   4    8.27    1.60
  -5  -9  -4    7.42    1.37
   4   9   4    0.96    0.78
  -4  -9  -4    0.27    0.73
   3   9   4    0.48    0.82
  -3  -9  -4    0.39    0.77
   2   9   4    9.34    1.21
   2   9   4    6.95    1.52
  -2  -9  -4    8.48    1.36
   1   9   4   11.48    1.32
   1   9   4    8.91    1.76
  -1  -9  -4   14.93    1.73
   0   9   4    0.96    1.12
   0   9   4    1.10    0.64
   0  -9  -4    0.21    0.70
  -1   9   4   -0.55    1.00
  -1   9   4    0.29    0.58
   1  -9  -4    0.88    0.76
  -2   9   4    3.18    1.34
   2  -9  -4    3.29    1.08
   2  -9  -4    3.91    0.89
  -3   9   4    1.02    1.09
   3  -9  -4    1.40    0.87
   3  -9  -4    0.57    0.53
  -4   9   4    3.60    1.45
   4  -9  -4    4.48    0.99
   4  -9  -4    4.27    1.06
  -5   9   4    0.91    1.13
   5  -9  -4    1.21    0.72
   5  -9  -4    1.57    0.86
  -6   9   4    0.78    1.14
   6  -9  -4    0.93    0.70
  -7   9   4    1.50    1.33
   7  -9  -4   -0.91    0.65
   6  10   4    3.61    1.30
   5  10   4   -0.10    0.91
  -5 -10  -4    0.62    0.90
   4  10   4    4.73    1.35
  -4 -10  -4    3.02    1.08
   3  10   4   -0.29    0.74
  -3 -10  -4    0.87    0.80
   2  10   4    1.66    1.14
  -2 -10  -4    2.42    0.95
   1  10   4    1.96    1.14
   1  10   4    1.04    0.69
  -1 -10  -4    0.65    0.77
   0  10   4   10.34    1.39
   0  10   4    9.81    2.02
   0 -10  -4    9.58    1.52
  -1  10   4    7.91    1.91
  -1  10   4    4.33    1.05
   1 -10  -4    3.16    1.01
  -2  10   4    8.91    2.05
  -2  10   4   16.12    1.76
   2 -10  -4   14.61    1.87
   2 -10  -4   13.33    1.47
  -3  10   4    8.01    1.88
   3 -10  -4   10.55    1.60
   3 -10  -4   11.73    1.45
  -4  10   4   15.24    2.53
   4 -10  -4   18.68    1.77
   4 -10  -4   23.81    2.31
  -5  10   4    9.71    2.17
   5 -10  -4    9.41    1.44
   5 -10  -4   14.22    1.85
  -6  10   4    0.43    1.29
   6 -10  -4    1.19    0.83
  -7  10   4    7.84    2.23
   6  11   4    3.10    1.35
   5  11   4    0.89    1.08
  -5 -11  -4    1.34    1.06
   4  11   4    3.28    1.33
  -4 -11  -4    3.55    1.20
   3  11   4   10.26    1.89
  -3 -11  -4    9.94    1.61
   2  11   4   12.30    2.07
  -2 -11  -4   15.79    1.92
   1  11   4   -1.61    0.83
   1  11   4    0.95    0.69
  -1 -11  -4    1.14    0.89
   0  11   4   41.29    3.87
   0  11   4   41.04    2.35
   0 -11  -4   38.52    2.59
  -1  11   4   26.63    3.25
  -1  11   4   27.51    2.32
   1 -11  -4   23.51    2.30
  -2  11   4    5.05    1.20
  -2  11   4    5.57    1.88
   2 -11  -4    3.48    1.18
  -3  11   4   20.30    3.03
   3 -11  -4   27.01    2.21
   3 -11  -4   24.80    2.42
  -4  11   4    3.47    1.69
   4 -11  -4    3.18    1.12
   4 -11  -4    2.18    0.86
  -5  11   4    9.04    2.32
   5 -11  -4    2.78    1.00
  -6  11   4    4.89    2.02
   6 -11  -4    4.13    1.19
   5  12   4    0.60    1.14
   4  12   4    1.81    1.23
  -4 -12  -4    3.18    1.23
   3  12   4    1.28    1.24
  -3 -12  -4    3.20    1.15
  -2 -12  -4   11.47    1.80
   1  12   4   19.86    2.81
  -1 -12  -4   23.79    2.42
   0  12   4    2.23    0.93
   0  12   4    0.57    1.35
   0 -12  -4    1.91    0.99
  -1  12   4   18.00    2.90
  -1  12   4   20.83    2.11
   1 -12  -4   18.88    2.24
  -2  12   4    6.55    1.40
  -2  12   4    7.31    2.13
   2 -12  -4    6.43    1.46
  -3  12   4    0.09    1.46
  -3  12   4    0.65    0.80
   3 -12  -4    1.50    1.08
   3 -12  -4    1.11    0.77
  -4  12   4    2.31    1.77
   4 -12  -4    0.36    0.76
   4 -12  -4    1.61    1.00
  -5  12   4    0.58    1.54
   5 -12  -4    1.18    0.86
   3  13   4    4.47    1.65
  -3 -13  -4    1.89    1.17
   2  13   4    3.70    1.56
  -2 -13  -4    2.97    1.22
   1  13   4    0.69    1.23
  -1 -13  -4   -0.11    0.87
   0  13   4   -0.47    1.28
   0 -13  -4    0.33    0.88
  -1  13   4   -0.01    0.79
  -1  13   4   -0.26    1.40
   1 -13  -4   -0.49    0.78
  -2  13   4    0.10    1.49
  -2  13   4   -0.72    0.73
   2 -13  -4    2.12    1.19
  -3  13   4    0.85    1.64
  -3  13   4    2.58    1.13
   3 -13  -4    1.48    1.12
  -4  13   4   -0.68    1.41
   4 -13  -4    0.23    0.99
   4 -13  -4   -0.36    0.64
   1  14   4   11.37    2.51
   0  14   4    0.57    1.50
  -1  14   4   10.98    2.71
  -2  14   4    7.87    1.57
  -2  14   4    8.47    2.55
  -2  13  -5    3.41    2.02
   1 -13   5   -0.18    0.86
  -1  13  -5   -1.05    1.29
   0 -13   5    2.98    1.28
   0  13  -5    2.41    1.81
  -1 -13   5    0.68    1.06
   1  13  -5    0.86    1.59
  -2 -13   5    1.50    1.09
   2  13  -5    1.88    1.62
   3  13  -5    8.51    2.18
   4 -12   5   -0.34    0.75
  -4  12  -5   -0.60    1.60
  -3  12  -5    8.12    2.50
   2 -12   5    0.84    0.88
  -2  12  -5    0.57    1.59
   1 -12   5    2.30    1.05
  -1  12  -5    0.99    1.54
   0 -12   5    0.33    0.86
   0  12  -5    1.19    1.54
  -1 -12   5    3.32    1.22
   1  12  -5    3.83    1.85
  -2 -12   5   21.20    2.32
   2  12  -5   19.14    2.93
  -3 -12   5    5.35    1.47
   3  12  -5    4.34    1.72
  -4 -12   5    8.74    1.66
   4  12  -5   13.01    2.38
   5 -11   5    0.56    0.82
  -5  11  -5    2.55    1.83
   4 -11   5    1.99    0.95
  -4  11  -5   -0.90    1.41
   3 -11   5   23.38    2.05
  -3  11  -5   15.33    2.90
   2 -11   5    4.88    1.17
  -2  11  -5    2.72    1.70
   1 -11   5    2.71    1.05
  -1  11  -5    1.08    1.45
   0 -11   5    2.33    1.03
   0  11  -5    0.76    1.30
  -1 -11   5    2.06    0.99
   1  11  -5    2.48    1.60
  -2 -11   5    0.85    0.98
   2  11  -5    2.29    1.49
  -3 -11   5   17.61    2.13
   3  11  -5   18.86    2.64
  -4 -11   5    2.86    1.22
   4  11  -5    1.27    1.17
  -5 -11   5    1.30    1.19
   5  11  -5    0.43    1.05
  -6 -11   5    0.02    1.07
   6 -10   5    3.05    1.13
  -6  10  -5    4.49    1.98
   5 -10   5    0.87    0.86
  -5  10  -5    0.19    1.51
   4 -10   5    7.37    1.30
  -4  10  -5    8.24    2.17
   3 -10   5    8.85    1.28
  -3  10  -5   11.53    2.35
   2 -10   5    1.14    0.78
   2 -10   5    0.78    0.61
  -2  10  -5    0.32    1.20
   1 -10   5   31.22    2.03
  -1  10  -5   26.21    3.33
   0 -10   5   31.68    2.25
   0  10  -5   35.07    3.66
  -1 -10   5    0.16    0.72
   1  10  -5   -0.09    1.12
  -2 -10   5   11.38    1.63
   2  10  -5   14.25    2.31
  -3 -10   5   11.13    1.63
   3  10  -5   11.17    2.02
   3  10  -5   13.96    2.13
  -4 -10   5    3.96    1.21
   4  10  -5    0.66    1.03
   4  10  -5    2.14    1.35
  -5 -10   5    4.84    1.34
   5  10  -5    4.24    1.37
   5  10  -5    1.18    1.56
  -6 -10   5   -0.14    1.01
  -6 -10   5    0.81    0.98
   6  10  -5    0.38    0.99
  -7 -10   5    6.81    1.64
  -7 -10   5    6.94    1.72
   6  -9   5    2.33    1.02
  -6   9  -5    1.14    1.44
   5  -9   5    2.54    0.94
  -5   9  -5    5.26    1.85
   4  -9   5    7.96    1.32
  -4   9  -5   10.51    2.28
   3  -9   5    1.61    0.76
  -3   9  -5   -0.49    1.09
   2  -9   5   38.18    2.02
   2  -9   5   38.08    2.13
  -2   9  -5   44.23    3.48
   1  -9   5   42.48    1.93
   1  -9   5   37.12    2.21
  -1   9  -5   42.00    3.33
   0  -9   5   27.12    1.96
   0   9  -5   26.84    3.13
  -1  -9   5  170.00    5.01
   1   9  -5  164.41    5.20
   1   9  -5  155.33    6.34
  -2  -9   5    0.62    0.79
   2   9  -5    0.88    0.91
   2   9  -5    1.52    1.16
  -3  -9   5   28.02    2.08
   3   9  -5   34.57    3.23
   3   9  -5   33.72    3.02
  -4  -9   5   17.02    1.91
   4   9  -5   19.23    2.35
   4   9  -5   21.43    2.63
  -5  -9   5    8.58    1.51
   5   9  -5   13.73    2.47
  -6  -9   5   11.39    1.83
  -6  -9   5    9.57    1.67
   6   9  -5   12.62    2.51
   6   9  -5   14.70    2.14
  -7  -9   5   -0.08    0.89
  -7  -9   5    1.29    1.12
   7   9  -5    0.32    0.89
   7  -8   5    0.42    0.78
  -7   8  -5    0.63    1.36
   6  -8   5    0.02    0.67
  -6   8  -5    1.07    1.29
   5  -8   5    3.50    0.99
  -5   8  -5    2.07    1.35
   4  -8   5    1.51    0.71
  -4   8  -5    3.29    1.44
   3  -8   5   30.35    1.89
  -3   8  -5   38.54    3.56
   2  -8   5    0.27    0.54
   2  -8   5    0.81    0.64
  -2   8  -5   -0.66    0.86
   1  -8   5   37.19    2.03
   1  -8   5   35.70    1.73
  -1   8  -5   36.62    2.06
  -1   8  -5   36.82    3.46
   0  -8   5   28.82    1.83
   0  -8   5   27.57    1.40
   0   8  -5   27.33    2.97
   0   8  -5   27.54    1.99
  -1  -8   5    0.28    0.63
   1   8  -5    0.86    0.76
   1   8  -5    0.76    0.97
  -2  -8   5    4.92    1.05
   2   8  -5    6.67    1.31
   2   8  -5    6.24    1.53
  -3  -8   5    1.31    0.79
   3   8  -5    2.40    1.05
   3   8  -5    2.50    1.04
  -4  -8   5    5.03    1.20
   4   8  -5    8.86    1.80
   4   8  -5    9.66    1.66
  -5  -8   5    4.70    1.16
   5   8  -5    4.68    1.29
   5   8  -5    4.02    1.64
  -6  -8   5    0.20    0.76
   6   8  -5    1.41    1.45
   6   8  -5    0.59    0.82
  -7  -8   5    8.29    1.72
  -7  -8   5    9.19    1.58
   7   8  -5    8.43    1.66
  -8  -8   5    1.47    1.11
   8   8  -5    3.66    1.28
   7  -7   5    0.67    0.82
  -7   7  -5   -0.85    1.11
   6  -7   5    1.01    0.78
  -6   7  -5    1.06    1.11
   5  -7   5   -0.71    0.52
  -5   7  -5    0.05    0.85
   4  -7   5    1.83    0.79
  -4   7  -5    2.34    1.16
   3  -7   5   14.67    1.46
  -3   7  -5   16.81    2.26
  -3   7  -5   14.17    1.50
   2  -7   5    1.97    0.67
   2  -7   5    1.71    0.69
  -2   7  -5    1.30    1.10
  -2   7  -5    1.99    0.73
   1  -7   5    4.43    0.78
   1  -7   5    3.76    0.85
  -1   7  -5    4.17    0.95
  -1   7  -5    2.98    1.31
   0  -7   5   18.79    1.16
   0  -7   5   13.32    1.43
   0   7  -5   14.41    1.53
   0   7  -5   14.84    2.17
  -1  -7   5   30.82    1.94
   1   7  -5   36.09    2.73
   1   7  -5   31.58    2.15
  -2  -7   5    0.83    0.69
   2   7  -5    1.70    0.84
   2   7  -5    0.97    0.90
  -3  -7   5   65.48    2.86
   3   7  -5   62.74    3.18
   3   7  -5   63.73    3.34
  -4  -7   5    1.51    0.80
   4   7  -5    2.50    0.97
   4   7  -5    2.30    1.18
  -5  -7   5    2.66    0.94
   5   7  -5    2.55    0.98
   5   7  -5    3.54    1.38
  -6  -7   5    0.16    0.72
   6   7  -5    0.66    0.79
   6   7  -5    1.22    1.26
  -7  -7   5    2.38    1.12
  -7  -7   5    1.42    1.02
   7   7  -5    2.88    1.09
  -8  -7   5    0.53    0.97
   8   7  -5   -0.44    0.81
   8  -6   5    2.23    1.03
  -8   6  -5    2.28    1.50
   7  -6   5    2.31    0.90
  -7   6  -5    1.65    1.20
   6  -6   5   13.10    1.60
  -6   6  -5   11.91    2.02
   5  -6   5   13.24    1.51
  -5   6  -5   11.79    1.94
  -5   6  -5   15.00    1.85
   4  -6   5   14.47    1.50
  -4   6  -5   13.91    1.92
  -4   6  -5   12.20    1.52
   3  -6   5   79.58    2.85
  -3   6  -5   81.45    3.74
  -3   6  -5   86.60    3.20
   2  -6   5   14.43    1.26
   2  -6   5   15.75    1.39
  -2   6  -5   13.54    1.43
  -2   6  -5   17.31    2.05
   1  -6   5  113.85    3.12
   1  -6   5  115.01    3.36
  -1   6  -5  119.75    3.72
  -1   6  -5  113.34    4.49
   0  -6   5   24.12    1.21
   0  -6   5   24.08    1.59
   0   6  -5   26.92    1.76
   0   6  -5   20.57    2.27
  -1  -6   5   15.14    0.88
  -1  -6   5   17.61    1.60
   1   6  -5   18.13    2.12
   1   6  -5   15.31    1.62
  -2  -6   5   91.31    3.21
   2   6  -5   83.68    3.65
   2   6  -5   84.82    3.43
  -3  -6   5   21.21    1.63
   3   6  -5   22.68    2.22
   3   6  -5   21.85    2.08
  -4  -6   5   16.65    1.68
   4   6  -5   20.65    2.38
   4   6  -5   22.14    2.10
  -5  -6   5   47.68    2.50
   5   6  -5   50.71    2.69
   5   6  -5   48.15    3.41
  -6  -6   5    1.44    0.85
   6   6  -5   -0.68    0.59
   6   6  -5    0.83    1.29
  -7  -6   5   12.27    1.60
  -7  -6   5   11.66    1.84
   7   6  -5    6.39    1.97
   7   6  -5   10.02    1.61
  -8  -6   5    1.05    1.05
   8   6  -5    2.24    1.03
   8  -5   5    0.29    0.71
  -8   5  -5    0.63    1.11
   7  -5   5    7.37    1.27
  -7   5  -5    8.86    1.89
  -7   5  -5    8.25    1.76
   6  -5   5    0.97    0.73
  -6   5  -5   -0.02    0.95
  -6   5  -5    0.92    0.97
   5  -5   5  117.01    3.90
  -5   5  -5  125.82    4.59
  -5   5  -5  122.30    4.75
   4  -5   5   16.44    1.56
  -4   5  -5   17.50    1.99
  -4   5  -5   14.32    1.66
   3  -5   5   22.89    1.24
   3  -5   5   23.33    1.50
  -3   5  -5   22.14    2.10
  -3   5  -5   22.54    1.72
   2  -5   5   91.40    2.82
   2  -5   5   89.25    2.62
  -2   5  -5   92.62    3.18
  -2   5  -5   90.68    3.63
   1  -5   5   10.16    1.01
   1  -5   5   12.90    1.17
  -1   5  -5   11.28    1.24
  -1   5  -5    9.27    1.47
   0  -5   5    8.44    0.84
   0  -5   5    9.18    1.04
   0   5  -5    7.93    1.09
   0   5  -5    8.59    1.47
  -1  -5   5   23.80    1.50
  -1  -5   5   24.76    1.06
   1   5  -5   25.80    1.68
   1   5  -5   22.68    2.07
  -2  -5   5    2.61    0.71
   2   5  -5    3.04    0.91
   2   5  -5    3.48    0.93
  -3  -5   5   76.80    2.85
   3   5  -5   71.83    3.28
   3   5  -5   71.53    2.98
  -4  -5   5    9.69    1.29
   4   5  -5   11.38    1.76
   4   5  -5   10.40    1.37
  -5  -5   5    3.02    0.86
   5   5  -5    3.36    1.34
   5   5  -5    3.59    0.95
  -6  -5   5   55.11    2.65
   6   5  -5   51.50    2.72
   6   5  -5   50.17    3.57
  -7  -5   5    3.34    1.11
  -7  -5   5    4.90    1.15
   7   5  -5    4.26    1.65
   7   5  -5    1.60    0.86
  -8  -5   5    6.78    1.65
   8   5  -5    4.70    1.29
  -9  -5   5    9.59    1.95
   9   5  -5    6.49    1.51
   8  -4   5   -0.36    0.69
  -8   4  -5   -0.32    1.26
  -8   4  -5    0.03    0.86
   7  -4   5    2.20    0.92
  -7   4  -5    4.34    1.29
  -7   4  -5    7.15    1.82
   6  -4   5    1.42    0.70
  -6   4  -5    1.18    1.15
  -6   4  -5    2.93    1.14
   5  -4   5   -0.03    0.54
  -5   4  -5   -0.77    0.79
  -5   4  -5    0.40    0.66
   4  -4   5   10.33    1.19
  -4   4  -5   11.15    1.57
  -4   4  -5   10.29    1.47
   3  -4   5    0.16    0.49
   3  -4   5    0.01    0.36
  -3   4  -5    0.46    0.63
  -3   4  -5    0.90    0.71
   2  -4   5    1.02    0.50
   2  -4   5    0.86    0.45
  -2   4  -5    1.51    0.69
  -2   4  -5   -0.12    0.58
   1  -4   5    9.74    0.93
   1  -4   5    8.43    0.89
  -1   4  -5    8.07    1.24
  -1   4  -5   10.30    1.18
   0  -4   5    0.02    0.38
   0  -4   5    0.07    0.31
   0   4  -5    0.26    0.65
   0   4  -5   -0.76    0.36
  -1  -4   5    0.21    0.31
  -1  -4   5    0.56    0.44
   1   4  -5    0.83    0.65
   1   4  -5    0.41    0.51
  -2  -4   5   10.19    1.12
  -2  -4   5   12.77    0.65
   2   4  -5   13.03    1.36
   2   4  -5   11.16    1.37
  -3  -4   5    5.24    0.92
   3   4  -5    5.76    0.96
   3   4  -5    4.29    1.05
  -4  -4   5    0.55    0.59
   4   4  -5   -0.16    0.53
   4   4  -5   -0.57    0.78
  -5  -4   5    0.01    0.54
   5   4  -5   -0.29    0.54
   5   4  -5    1.37    1.07
  -6  -4   5   -0.33    0.59
   6   4  -5    0.45    1.10
   6   4  -5    0.17    0.55
  -7  -4   5    0.71    0.74
   7   4  -5    0.14    0.69
   7   4  -5    1.45    1.24
  -8  -4   5   -0.57    0.79
   8   4  -5    0.51    0.83
  -9  -4   5   -0.15    0.97
   9   4  -5    0.86    0.94
   9  -3   5    1.56    0.96
  -9   3  -5    0.28    1.40
  -9   3  -5    0.58    1.09
   8  -3   5    0.27    0.77
  -8   3  -5    0.94    0.95
  -8   3  -5   -0.82    1.28
   7  -3   5   18.93    1.86
  -7   3  -5   19.92    2.60
  -7   3  -5   19.92    2.31
   6  -3   5   -0.04    0.56
  -6   3  -5   -0.06    1.05
  -6   3  -5   -1.12    0.57
   5  -3   5   23.33    1.65
  -5   3  -5   26.37    2.57
  -5   3  -5   24.49    1.86
   4  -3   5   19.84    1.63
  -4   3  -5   21.42    1.68
  -4   3  -5   21.40    2.16
   3  -3   5   56.56    1.64
   3  -3   5   57.08    2.18
  -3   3  -5   54.95    2.40
  -3   3  -5   55.57    2.66
   2  -3   5   21.08    1.21
   2  -3   5   17.45    0.99
  -2   3  -5   19.07    1.64
  -2   3  -5   18.62    1.34
   1  -3   5   18.40    1.04
   1  -3   5   18.43    1.06
  -1   3  -5   18.35    1.32
  -1   3  -5   17.28    1.27
   0  -3   5    2.09    0.46
   0  -3   5    1.74    0.48
   0   3  -5    1.26    0.55
   0   3  -5    1.40    0.64
  -1  -3   5   13.06    1.14
  -1  -3   5   11.81    0.73
   1   3  -5   13.32    1.23
   1   3  -5   12.39    1.28
  -2  -3   5    3.43    0.68
  -2  -3   5    2.30    0.36
   2   3  -5    2.06    0.60
   2   3  -5    4.30    0.91
  -3  -3   5    1.61    0.62
  -3  -3   5    2.00    0.32
   3   3  -5    1.36    0.56
   3   3  -5    0.97    0.72
  -4  -3   5   26.18    1.60
   4   3  -5   24.98    1.54
   4   3  -5   27.73    2.15
  -5  -3   5   19.39    1.47
   5   3  -5   19.78    2.34
   5   3  -5   18.72    1.48
  -6  -3   5   35.76    2.01
   6   3  -5   35.40    2.07
   6   3  -5   30.70    3.15
  -7  -3   5   23.90    1.74
   7   3  -5   20.48    2.01
   7   3  -5   19.23    2.71
  -8  -3   5    4.16    1.37
   8   3  -5    7.14    1.40
  -9  -3   5    7.23    1.78
   9   3  -5    8.97    1.67
   9  -2   5   15.53    1.88
   9  -2   5   10.07    1.79
  -9   2  -5   11.81    1.97
  -9   2  -5   11.72    2.56
   8  -2   5   13.26    1.88
   8  -2   5   14.62    1.69
  -8   2  -5   11.46    2.31
   7  -2   5    7.61    1.38
   7  -2   5    8.92    1.34
  -7   2  -5    8.14    1.92
   6  -2   5   28.94    2.02
   6  -2   5   33.70    1.98
  -6   2  -5   25.62    2.82
   5  -2   5    5.95    1.11
   5  -2   5    4.26    0.93
  -5   2  -5    4.43    1.37
   4  -2   5    9.78    1.13
   4  -2   5    9.15    1.17
  -4   2  -5    7.97    1.14
  -4   2  -5    9.58    1.61
   3  -2   5  107.83    3.09
   3  -2   5  110.52    2.45
  -3   2  -5  108.93    3.88
  -3   2  -5  112.67    3.34
   2  -2   5    1.77    0.49
   2  -2   5    0.78    0.33
  -2   2  -5    1.85    0.72
  -2   2  -5    1.91    0.55
   1  -2   5  130.51    3.12
   1  -2   5  135.76    3.19
  -1   2  -5  135.93    3.40
  -1   2  -5  131.83    3.74
   0  -2   5   51.24    1.83
   0  -2   5   51.18    1.59
   0   2  -5   55.84    2.16
   0   2  -5   50.05    1.86
  -1  -2   5   19.49    0.88
  -1  -2   5   19.01    1.16
   1   2  -5   19.45    1.06
   1   2  -5   19.01    1.34
  -2  -2   5  110.42    3.18
  -2  -2   5  105.34    2.35
   2   2  -5  109.75    3.48
   2   2  -5  112.14    2.83
  -3  -2   5   26.96    1.00
  -3  -2   5   28.22    1.58
   3   2  -5   27.70    1.36
   3   2  -5   28.01    1.93
  -4  -2   5   55.02    2.30
  -4  -2   5   55.10    1.55
   4   2  -5   53.86    2.15
   4   2  -5   55.67    2.94
  -5  -2   5   52.80    2.29
   5   2  -5   60.08    2.45
   5   2  -5   54.27    3.17
  -6  -2   5    0.17    0.53
   6   2  -5   -0.39    0.50
   6   2  -5   -1.02    0.75
  -7  -2   5   20.70    1.77
   7   2  -5   22.05    2.04
   7   2  -5   20.47    2.79
  -8  -2   5   13.31    2.07
   8   2  -5   17.02    2.01
  -9  -2   5   -0.49    0.88
   9   2  -5   -0.68    0.63
   9  -1   5    0.85    0.98
   9  -1   5    0.81    0.86
  -9   1  -5   -0.88    1.41
   8  -1   5    5.60    1.31
   8  -1   5    7.25    1.29
  -8   1  -5    2.17    1.53
   7  -1   5   11.04    1.40
   7  -1   5   11.47    1.59
  -7   1  -5   14.27    2.28
   6  -1   5    0.91    0.66
   6  -1   5    2.18    0.81
  -6   1  -5    1.25    1.09
   5  -1   5    6.82    1.10
   5  -1   5    6.51    1.00
  -5   1  -5    5.95    1.57
   4  -1   5   21.87    1.46
   4  -1   5   25.54    1.58
  -4   1  -5   26.24    2.45
   3  -1   5   -0.02    0.36
   3  -1   5    0.78    0.30
   3  -1   5    0.52    0.42
  -3   1  -5   -0.29    0.68
   2  -1   5   25.52    1.06
   2  -1   5   22.76    1.21
  -2   1  -5   25.16    1.20
  -2   1  -5   23.56    1.67
   1  -1   5   17.92    0.99
  -1   1  -5   18.80    1.01
  -1   1  -5   19.72    0.93
  -1   1  -5   18.45    1.30
   0  -1   5  161.57    3.42
   0   1  -5  163.11    4.11
   0   1  -5  155.97    3.33
   0   1  -5  160.49    3.73
  -1  -1   5  257.79    4.88
   1   1  -5  268.27    5.94
   1   1  -5  261.14    4.91
  -2  -1   5    8.97    0.97
  -2  -1   5   10.83    0.73
   2   1  -5    8.40    0.63
   2   1  -5    9.78    0.98
   2   1  -5    8.05    1.02
  -3  -1   5   76.10    2.04
  -3  -1   5   76.48    2.60
   3   1  -5   80.20    3.07
   3   1  -5   81.57    2.34
  -4  -1   5   22.30    1.09
  -4  -1   5   24.82    1.49
   4   1  -5   27.29    1.44
   4   1  -5   24.21    2.15
  -5  -1   5    5.47    0.72
  -5  -1   5    6.11    0.94
   5   1  -5    4.65    0.90
   5   1  -5    2.90    1.17
  -6  -1   5    6.14    0.96
   6   1  -5    5.23    1.56
   6   1  -5    4.10    0.95
  -7  -1   5   -0.21    0.51
  -7  -1   5    0.78    0.84
   7   1  -5    0.12    0.56
   7   1  -5   -1.16    0.98
  -8  -1   5    2.92    1.15
   8   1  -5    1.96    0.90
  -9  -1   5    2.02    1.29
   9   1  -5    2.11    1.05
   9   0   5    0.04    0.79
   9   0   5   -0.46    0.76
  -9   0  -5    0.05    1.47
   8   0   5   -0.93    0.53
   8   0   5    0.10    0.71
  -8   0  -5   -0.19    1.29
   7   0   5    0.20    0.57
   7   0   5   -0.54    0.56
  -7   0  -5   -0.09    1.15
   6   0   5   -0.56    0.50
   6   0   5    0.11    0.53
  -6   0  -5    0.24    1.05
   5   0   5    0.95    0.57
   5   0   5    0.19    0.51
  -5   0  -5    0.12    0.95
   4   0   5    0.81    0.56
   4   0   5   -0.07    0.44
  -4   0  -5   -0.12    0.86
   3   0   5    0.38    0.40
   3   0   5    0.18    0.37
  -3   0  -5    0.06    0.28
  -3   0  -5   -0.60    0.70
   2   0   5    0.75    0.38
   2   0   5   -0.25    0.27
  -2   0  -5   -0.32    0.26
  -2   0  -5    0.31    0.59
   1   0   5   -0.29    0.27
  -1   0  -5    0.07    0.48
  -1   0  -5   -0.06    0.21
  -1   0  -5   -0.46    0.28
   0   0   5   -0.33    0.24
   0   0  -5   -0.04    0.37
   0   0  -5    0.42    0.34
  -1   0   5    0.45    0.31
   1   0  -5    0.00    0.13
   1   0  -5    0.43    0.44
   1   0  -5   -0.17    0.32
  -2   0   5   -0.34    0.26
   2   0  -5   -0.03    0.24
   2   0  -5   -0.46    0.35
   2   0  -5   -0.13    0.42
  -3   0   5    0.16    0.30
   3   0  -5   -0.41    0.27
   3   0  -5    0.29    0.44
   3   0  -5   -0.21    0.49
  -4   0   5    0.00    0.35
   4   0  -5   -0.64    0.37
   4   0  -5   -0.02    0.65
   4   0  -5    0.38    0.50
  -5   0   5   -0.25    0.46
   5   0  -5    0.23    0.41
   5   0  -5   -0.47    0.72
   5   0  -5   -0.72    0.44
  -6   0   5    0.62    0.53
   6   0  -5   -1.14    0.77
   6   0  -5    0.09    0.53
  -7   0   5    0.54    0.74
   7   0  -5    0.26    0.60
  -8   0   5   -0.57    0.76
   8   0  -5    0.20    0.68
  -9   0   5   -0.62    0.91
   9   0  -5   -0.14    0.76
 -10   0   5   -0.27    1.15
  10   0  -5    0.11    0.95
   9   1   5    1.66    1.02
  -9  -1  -5   -0.54    1.49
   8   1   5    5.03    1.12
   8   1   5    6.44    1.37
  -8  -1  -5    7.40    1.98
   7   1   5   10.19    1.47
   7   1   5   12.21    1.45
  -7  -1  -5   12.37    2.29
   6   1   5    1.78    0.80
   6   1   5    2.60    0.75
  -6  -1  -5    0.88    1.15
   5   1   5    5.84    1.01
   5   1   5    5.51    0.93
  -5  -1  -5    4.12    1.43
   4   1   5   24.72    1.48
   4   1   5   23.46    1.43
  -4  -1  -5   23.56    2.41
   3   1   5   -0.01    0.39
   3   1   5    0.77    0.45
  -3  -1  -5    0.73    0.37
  -3  -1  -5    1.43    0.85
   2   1   5   27.22    1.32
   2   1   5   24.18    1.08
  -2  -1  -5   24.48    1.18
  -2  -1  -5   26.36    1.83
   1   1   5   18.40    0.71
   1   1   5   18.00    1.03
  -1  -1  -5   19.39    1.39
  -1  -1  -5   16.96    1.05
   0   1   5  160.05    3.60
   0  -1  -5  164.06    3.88
   0  -1  -5  164.89    4.09
  -1   1   5  262.67    4.73
  -1   1   5  262.36    5.22
   1  -1  -5  264.39    5.78
   1  -1  -5  269.67    5.72
  -2   1   5   12.70    0.88
   2  -1  -5    7.97    0.94
   2  -1  -5   11.91    1.14
   2  -1  -5   10.27    0.63
  -3   1   5   76.01    2.34
   3  -1  -5   79.54    2.27
   3  -1  -5   75.66    2.57
   3  -1  -5   79.07    2.87
   4  -1  -5   24.86    1.24
   4  -1  -5   25.82    1.86
   4  -1  -5   25.03    1.42
   4  -1  -5   25.35    1.56
   5  -1  -5    4.79    0.90
   5  -1  -5    5.78    0.78
   5  -1  -5    3.33    1.09
   5  -1  -5    4.40    0.85
  -6   1   5    4.75    0.88
   6  -1  -5    5.08    0.83
   6  -1  -5    5.19    0.99
   6  -1  -5    6.97    1.53
  -7   1   5   -0.16    0.75
   7  -1  -5   -0.18    0.56
  -8   1   5    4.41    1.23
   8  -1  -5    5.12    1.22
  -9   1   5    1.36    1.15
   9  -1  -5    2.64    1.05
 -10   1   5    0.88    1.31
   9   2   5   14.14    1.99
  -9  -2  -5   16.27    2.91
   8   2   5   13.49    1.81
  -8  -2  -5   14.68    2.66
   7   2   5    7.43    1.16
   7   2   5    7.39    1.31
  -7  -2  -5    6.53    1.81
   6   2   5   34.88    2.11
   6   2   5   31.85    1.85
  -6  -2  -5   27.21    3.01
   5   2   5    3.93    0.84
   5   2   5    5.97    1.05
  -5  -2  -5    7.38    1.70
   4   2   5    8.37    1.05
   4   2   5    7.23    1.02
  -4  -2  -5    7.21    1.57
   3   2   5  108.82    3.04
   3   2   5  113.45    3.07
  -3  -2  -5  108.11    2.80
  -3  -2  -5  110.04    4.11
   2   2   5    0.99    0.39
   2   2   5    0.91    0.42
  -2  -2  -5    2.01    0.50
  -2  -2  -5    3.01    0.93
   1   2   5  133.50    3.27
   1   2   5  135.04    2.88
  -1  -2  -5  134.40    3.78
  -1  -2  -5  136.78    3.42
   0   2   5   55.09    1.34
   0   2   5   54.11    1.90
   0  -2  -5   52.47    1.97
   0  -2  -5   53.11    1.97
  -1   2   5   21.78    1.16
  -1   2   5   20.66    0.97
   1  -2  -5   19.60    1.24
   1  -2  -5   20.94    1.23
  -2   2   5  108.93    2.67
  -2   2   5  106.58    2.95
   2  -2  -5  108.67    3.16
   2  -2  -5  106.32    3.06
  -3   2   5   27.75    1.42
   3  -2  -5   24.19    1.50
   3  -2  -5   27.04    1.58
   3  -2  -5   27.72    1.31
   4  -2  -5   58.39    2.21
   4  -2  -5   60.31    2.38
   4  -2  -5   55.72    1.97
   4  -2  -5   52.08    2.58
   5  -2  -5   62.01    3.15
   5  -2  -5   57.30    2.47
   5  -2  -5   59.97    2.21
   5  -2  -5   61.25    2.46
   6  -2  -5    1.62    1.09
   6  -2  -5    0.53    0.51
   6  -2  -5    0.44    0.56
   6  -2  -5    0.23    0.60
  -7   2   5   22.30    2.17
   7  -2  -5   25.65    1.60
   7  -2  -5   23.01    2.14
  -8   2   5   15.85    2.07
   8  -2  -5   15.23    1.93
  -9   2   5   -1.21    0.86
   9  -2  -5    1.73    1.02
   9   3   5    0.57    0.91
   8   3   5   -0.26    0.69
  -8  -3  -5   -0.34    1.21
   7   3   5   21.01    2.12
   7   3   5   21.26    1.83
  -7  -3  -5   17.58    2.66
   6   3   5   -0.79    0.46
   6   3   5    0.30    0.60
  -6  -3  -5    1.03    1.05
   5   3   5   25.91    1.72
   5   3   5   23.97    1.55
  -5  -3  -5   18.97    2.36
   4   3   5   20.86    1.41
   4   3   5   18.15    1.28
  -4  -3  -5   20.52    1.25
  -4  -3  -5   16.51    2.09
   3   3   5   59.83    2.18
   3   3   5   54.70    2.04
  -3  -3  -5   55.61    3.00
  -3  -3  -5   55.33    1.99
   2   3   5   19.53    1.10
   2   3   5   18.46    1.15
  -2  -3  -5   16.73    1.73
  -2  -3  -5   18.91    1.22
   1   3   5   16.81    0.95
   1   3   5   16.65    1.12
  -1  -3  -5   16.14    1.41
  -1  -3  -5   17.86    1.22
   0   3   5    2.05    0.50
   0   3   5    2.11    0.52
   0  -3  -5    1.14    0.49
   0  -3  -5    0.89    0.48
  -1   3   5   12.51    1.08
  -1   3   5   11.95    1.08
   1  -3  -5   10.77    0.96
   1  -3  -5   11.08    1.12
  -2   3   5    3.31    0.67
  -2   3   5    2.47    0.57
   2  -3  -5    3.07    0.68
   2  -3  -5    2.53    0.58
  -3   3   5    1.01    0.53
   3  -3  -5    1.91    0.53
   3  -3  -5    1.02    0.55
   3  -3  -5    2.20    0.66
  -4   3   5   27.22    1.65
   4  -3  -5   29.04    1.90
   4  -3  -5   27.10    1.63
   4  -3  -5   31.33    1.52
   5  -3  -5   21.63    1.59
   5  -3  -5   19.87    1.38
   5  -3  -5   21.12    2.10
   5  -3  -5   18.78    1.64
  -6   3   5   35.32    2.12
   6  -3  -5   32.59    1.89
   6  -3  -5   32.70    2.09
   6  -3  -5   33.95    1.81
  -7   3   5   25.64    2.00
   7  -3  -5   22.66    1.60
   7  -3  -5   22.34    2.16
   8  -3  -5    7.73    1.51
   9  -3  -5    9.35    1.75
   9   4   5    0.57    0.96
   8   4   5    0.31    0.81
  -8  -4  -5    0.67    1.42
   7   4   5    3.54    1.07
  -7  -4  -5    3.58    1.53
   6   4   5    2.20    0.83
   6   4   5    2.91    0.84
  -6  -4  -5    3.11    1.34
   5   4   5    0.29    0.55
   5   4   5    0.04    0.52
  -5  -4  -5    2.57    1.21
   4   4   5   13.43    1.26
   4   4   5   11.35    1.30
  -4  -4  -5   12.03    1.17
  -4  -4  -5    9.45    1.70
   3   4   5    0.11    0.46
   3   4   5   -0.11    0.46
  -3  -4  -5    1.29    0.95
  -3  -4  -5    0.08    0.52
   2   4   5    0.55    0.49
   2   4   5    0.42    0.43
  -2  -4  -5    1.04    0.57
  -2  -4  -5   -0.26    0.72
   1   4   5    7.41    0.90
   1   4   5    9.69    1.00
  -1  -4  -5    8.90    1.02
  -1  -4  -5    8.92    1.10
   0   4   5   -0.62    0.44
   0   4   5   -0.24    0.35
   0  -4  -5    0.32    0.42
   0  -4  -5   -0.06    0.43
  -1   4   5    0.33    0.39
  -1   4   5    0.59    0.60
   1  -4  -5    0.21    0.35
   1  -4  -5    1.78    0.58
  -2   4   5   12.95    1.30
  -2   4   5   11.84    1.21
   2  -4  -5   12.31    1.05
   2  -4  -5   12.57    1.26
  -3   4   5    6.54    1.00
   3  -4  -5    4.54    0.90
   3  -4  -5    5.10    0.83
   3  -4  -5    5.88    0.89
  -4   4   5    1.04    0.65
   4  -4  -5   -0.07    0.48
   4  -4  -5   -0.53    0.57
   4  -4  -5    0.17    0.58
  -5   4   5   -0.40    0.56
   5  -4  -5    0.10    0.57
   5  -4  -5    1.23    0.57
   5  -4  -5    0.08    0.79
  -6   4   5    0.78    0.73
   6  -4  -5   -1.07    0.48
   6  -4  -5   -0.08    0.52
  -7   4   5    0.37    0.75
   7  -4  -5   -0.20    0.50
  -8   4   5    0.71    0.89
   8  -4  -5   -0.55    0.59
  -9   4   5    0.07    0.97
   8   5   5    1.22    0.96
  -8  -5  -5    0.00    1.30
   7   5   5   10.38    1.65
  -7  -5  -5    8.63    2.12
   6   5   5    0.86    0.67
  -6  -5  -5   -0.60    0.95
   5   5   5  123.14    3.58
   5   5   5  115.14    4.05
  -5  -5  -5  115.42    4.95
   4   5   5   17.00    1.60
   4   5   5   17.00    1.44
  -4  -5  -5   15.58    1.47
  -4  -5  -5   15.59    2.04
   3   5   5   21.27    1.41
   3   5   5   24.25    1.61
  -3  -5  -5   25.94    1.70
  -3  -5  -5   21.53    2.16
   2   5   5   91.30    3.09
   2   5   5   94.43    2.88
  -2  -5  -5   91.82    3.09
  -2  -5  -5   92.57    3.51
   1   5   5   14.10    1.40
   1   5   5   10.95    1.14
  -1  -5  -5   11.00    1.23
  -1  -5  -5   12.62    1.32
   0   5   5    8.50    1.23
   0   5   5    6.16    0.89
   0  -5  -5    7.61    1.09
   0  -5  -5    7.89    0.86
  -1   5   5   24.82    1.52
  -1   5   5   24.98    1.85
   1  -5  -5   23.27    1.58
   1  -5  -5   25.17    1.23
  -2   5   5    4.71    0.88
  -2   5   5    5.07    1.07
   2  -5  -5    4.57    0.68
   2  -5  -5    5.50    0.97
  -3   5   5   71.18    2.94
   3  -5  -5   72.51    2.81
   3  -5  -5   70.61    2.54
  -4   5   5   10.60    1.43
   4  -5  -5   10.69    1.30
   4  -5  -5    9.46    1.16
  -5   5   5    1.57    0.85
   5  -5  -5    2.96    0.75
   5  -5  -5    3.88    0.92
  -6   5   5   52.98    2.99
   6  -5  -5   58.25    2.60
   6  -5  -5   51.67    2.43
  -7   5   5    3.55    1.21
   7  -5  -5    4.51    1.01
  -8   5   5    3.60    1.29
   8  -5  -5    6.27    1.20
  -9   5   5    7.45    1.82
   8   6   5    0.96    1.01
  -8  -6  -5    3.91    1.82
   7   6   5    1.86    0.95
  -7  -6  -5    1.59    1.45
   6   6   5   12.83    1.68
  -6  -6  -5   12.10    2.10
   5   6   5   16.00    1.79
   5   6   5   11.41    1.27
  -5  -6  -5   13.67    2.08
   4   6   5   17.77    1.77
   4   6   5   16.87    1.46
  -4  -6  -5   11.66    1.80
  -4  -6  -5   13.84    1.48
   3   6   5   92.63    3.38
   3   6   5   84.64    2.81
  -3  -6  -5   81.43    3.62
  -3  -6  -5   83.94    3.14
   2   6   5   14.32    1.30
   2   6   5   14.12    1.59
  -2  -6  -5   14.86    1.71
  -2  -6  -5   14.17    1.50
   1   6   5  122.15    4.08
   1   6   5  117.33    3.46
  -1  -6  -5  113.10    3.50
  -1  -6  -5  119.31    3.82
   0   6   5   25.81    1.61
   0   6   5   24.37    2.21
   0  -6  -5   23.46    1.74
   0  -6  -5   25.10    1.29
  -1   6   5   14.81    1.83
  -1   6   5   14.39    1.44
   1  -6  -5   13.65    1.49
  -2   6   5   86.00    3.12
  -2   6   5   87.83    3.64
   2  -6  -5   83.12    3.19
  -3   6   5   27.28    2.09
   3  -6  -5   25.80    1.62
   3  -6  -5   22.81    1.74
  -4   6   5   25.01    2.30
   4  -6  -5   20.76    1.86
   4  -6  -5   21.37    1.47
  -5   6   5   46.13    2.79
   5  -6  -5   50.04    2.52
   5  -6  -5   47.84    2.31
  -6   6   5   -0.04    0.75
   6  -6  -5    0.54    0.67
   6  -6  -5    1.84    0.78
  -7   6   5    9.08    1.75
   7  -6  -5   10.60    1.43
  -8   6   5    2.01    1.30
   8  -6  -5    3.60    1.04
  -9   6   5    1.31    1.30
   9  -6  -5    2.91    1.12
   8   7   5    4.23    1.35
   7   7   5    1.16    0.90
  -7  -7  -5    0.33    1.24
   6   7   5    1.61    0.88
  -6  -7  -5    0.30    1.22
   5   7   5    0.04    0.69
  -5  -7  -5   -0.41    0.91
   4   7   5    2.48    0.91
   4   7   5    2.47    0.73
  -4  -7  -5    2.02    1.18
  -4  -7  -5    3.08    0.92
   3   7   5   16.95    1.46
   3   7   5   15.54    1.74
  -3  -7  -5   13.60    1.81
  -3  -7  -5   14.05    1.60
   2   7   5    1.10    0.80
   2   7   5    2.22    0.67
  -2  -7  -5    2.22    0.82
  -2  -7  -5    3.53    1.04
   1   7   5    4.25    0.87
   1   7   5    3.07    1.13
  -1  -7  -5    4.24    1.08
   0   7   5   18.94    1.68
   0   7   5   21.40    2.33
   0  -7  -5   18.96    1.87
  -1   7   5   36.20    2.62
  -1   7   5   31.42    1.93
   1  -7  -5   31.75    2.06
  -2   7   5    1.94    1.07
  -2   7   5    1.62    0.73
   2  -7  -5    1.95    0.87
  -3   7   5   60.58    3.32
   3  -7  -5   65.55    2.91
   3  -7  -5   69.20    2.68
  -4   7   5    2.38    1.07
   4  -7  -5    4.44    0.89
   4  -7  -5    1.88    0.87
  -5   7   5    2.81    1.14
   5  -7  -5    1.74    0.74
   5  -7  -5    2.97    0.97
  -6   7   5    1.67    1.05
   6  -7  -5    1.32    0.75
  -7   7   5    1.98    1.14
   7  -7  -5    3.89    1.03
  -8   7   5   -0.87    0.92
   8  -7  -5   -0.07    0.73
   7   8   5    0.20    0.85
  -7  -8  -5   -0.36    1.35
   6   8   5   -0.58    0.77
  -6  -8  -5    0.35    1.32
   5   8   5    1.51    0.93
  -5  -8  -5    1.80    1.27
   4   8   5    1.79    0.91
  -4  -8  -5    0.53    0.76
  -4  -8  -5    1.13    1.08
   3   8   5   31.99    2.28
   3   8   5   34.62    1.88
  -3  -8  -5   38.17    2.32
   2   8   5    0.15    0.71
   2   8   5    0.41    0.56
  -2  -8  -5    1.44    0.81
   1   8   5   32.03    1.85
   1   8   5   32.20    2.48
  -1  -8  -5   33.31    2.14
   0   8   5   27.63    2.78
   0   8   5   26.31    1.80
   0  -8  -5   27.23    2.01
  -1   8   5    0.66    1.03
  -1   8   5    0.42    0.62
   1  -8  -5    0.49    0.64
  -2   8   5    6.34    1.17
  -2   8   5    7.61    1.64
   2  -8  -5    7.66    1.29
  -3   8   5    2.48    1.21
   3  -8  -5    2.04    0.72
   3  -8  -5    2.09    0.92
  -4   8   5    5.98    1.57
   4  -8  -5    5.16    1.02
   4  -8  -5    5.96    1.25
  -5   8   5    3.01    1.23
   5  -8  -5    4.87    1.06
   5  -8  -5    7.29    1.29
  -6   8   5    0.74    1.14
   6  -8  -5    1.64    0.77
  -7   8   5    9.88    2.04
   7  -8  -5    8.68    1.45
  -8   8   5    1.32    1.41
   8  -8  -5    3.25    1.09
   7   9   5    4.88    1.46
  -7  -9  -5    9.86    2.30
   6   9   5    1.88    0.98
   5   9   5    1.99    1.05
   4   9   5    8.82    1.57
  -4  -9  -5    9.62    1.50
   3   9   5    1.49    0.89
  -3  -9  -5    1.28    0.88
   2   9   5   39.19    2.09
   2   9   5   43.29    2.79
  -2  -9  -5   38.15    2.38
   1   9   5   40.10    2.14
   1   9   5   35.37    2.69
  -1  -9  -5   38.26    2.38
   0   9   5   29.10    1.91
   0   9   5   31.35    3.11
   0  -9  -5   31.17    2.26
  -1   9   5  165.55    6.33
  -1   9   5  172.97    5.17
   1  -9  -5  173.80    5.48
  -2   9   5    0.45    0.69
  -2   9   5    1.96    1.22
   2  -9  -5    2.66    0.99
  -3   9   5   34.94    3.40
   3  -9  -5   35.54    2.35
   3  -9  -5   29.66    1.92
  -4   9   5   21.35    2.75
   4  -9  -5   17.87    2.02
   4  -9  -5   20.53    1.85
  -5   9   5   14.15    2.36
   5  -9  -5   15.43    1.89
   5  -9  -5   10.25    1.41
  -6   9   5    9.16    2.06
   6  -9  -5    9.22    1.41
  -7   9   5    0.40    1.27
   7  -9  -5   -0.13    0.64
   6  10   5    2.44    1.25
   5  10   5    0.87    0.95
   4  10   5   10.70    1.75
  -4 -10  -5    7.66    1.50
   3  10   5   11.62    1.86
  -3 -10  -5   10.47    1.67
   2  10   5    0.27    0.81
   2  10   5    1.12    0.70
  -2 -10  -5   -0.02    0.80
   1  10   5   27.47    2.93
   1  10   5   33.17    2.02
  -1 -10  -5   27.35    2.46
   0  10   5   34.31    2.16
   0  10   5   34.55    3.36
   0 -10  -5   33.79    2.37
  -1  10   5    0.82    0.75
  -1  10   5    0.77    1.16
   1 -10  -5    0.05    0.79
  -2  10   5   11.87    2.31
  -2  10   5   14.68    1.75
   2 -10  -5   15.82    1.99
  -3  10   5    8.68    1.40
  -3  10   5    9.93    2.12
   3 -10  -5    7.31    1.18
   3 -10  -5    9.10    1.52
  -4  10   5    0.79    1.32
   4 -10  -5    1.35    0.75
   4 -10  -5    2.21    1.01
  -5  10   5    3.94    1.70
   5 -10  -5    4.41    1.24
   5 -10  -5    3.15    0.93
  -6  10   5    0.17    1.27
   6 -10  -5    0.30    0.71
  -7  10   5    7.83    2.25
   5  11   5    3.33    1.29
   4  11   5    1.08    1.12
  -4 -11  -5    1.02    1.02
   3  11   5   17.19    2.35
  -3 -11  -5   18.79    2.17
   2  11   5    8.86    1.83
  -2 -11  -5    6.09    1.39
   1  11   5    1.00    1.19
   1  11   5    0.62    0.73
  -1 -11  -5    0.64    0.86
   0  11   5    2.67    1.43
   0  11   5    2.09    0.88
   0 -11  -5    2.74    1.08
  -1  11   5    3.66    1.01
  -1  11   5    2.79    1.55
   1 -11  -5    3.44    1.15
  -2  11   5    2.70    1.56
  -2  11   5    1.86    0.89
   2 -11  -5    2.45    1.02
  -3  11   5   15.64    1.93
  -3  11   5   19.86    2.99
   3 -11  -5   15.55    2.04
  -4  11   5    0.30    1.48
   4 -11  -5    2.04    0.88
   4 -11  -5    2.40    1.18
  -5  11   5    0.73    1.47
   5 -11  -5    0.80    1.01
   5 -11  -5   -0.13    0.65
  -6  11   5   -2.23    1.31
   4  12   5   -0.26    0.95
  -4 -12  -5   -0.01    1.01
   3  12   5    9.06    1.96
  -3 -12  -5    9.92    1.82
   2  12   5    1.69    1.21
  -2 -12  -5    1.37    1.09
   1  12   5    1.20    1.37
  -1 -12  -5    2.23    1.07
   0  12   5    0.32    0.72
   0  12   5    0.84    1.38
   0 -12  -5   -0.38    0.88
  -1  12   5    5.93    1.96
  -1  12   5    5.50    1.27
   1 -12  -5    3.68    1.18
  -2  12   5   22.83    3.31
  -2  12   5   21.39    2.27
   2 -12  -5   20.99    2.42
  -3  12   5    3.81    1.23
  -3  12   5    4.57    2.03
   3 -12  -5    5.16    1.40
  -4  12   5    9.58    2.45
  -4  12   5    8.97    1.66
   4 -12  -5   10.42    1.81
  -5  12   5   12.46    2.84
   3  13   5    4.28    1.62
  -3 -13  -5    4.10    1.40
   2  13   5    5.26    1.79
  -2 -13  -5    5.64    1.50
   1  13   5   -0.56    1.21
  -1 -13  -5    2.31    1.19
   0  13   5    4.84    1.78
   0 -13  -5    4.32    1.36
  -1  13   5    1.35    1.60
  -1  13   5    2.80    1.07
   1 -13  -5    0.77    0.98
  -2  13   5    2.62    1.85
  -2  13   5    2.58    1.12
   2 -13  -5    2.76    1.27
  -3  13   5   10.07    1.71
  -3  13   5   17.27    3.29
   3 -13  -5    7.84    1.68
  -4  13   5    9.72    2.65
   1  14   5    1.43    1.50
   0  14   5   -0.42    1.48
  -1  14   5    5.39    2.18
   1 -13   6    0.61    0.96
  -1  13  -6   -0.58    1.60
   0 -13   6   -1.33    0.88
   0  13  -6    0.87    1.65
  -1 -13   6    2.04    1.18
   1  13  -6   -0.44    1.33
  -2 -13   6   -0.63    0.91
   2  13  -6    0.52    1.43
  -3  12  -6    0.98    1.69
  -2  12  -6    1.11    1.65
   1 -12   6    0.26    0.91
  -1  12  -6    0.10    1.60
   0 -12   6   11.91    1.84
   0  12  -6    9.85    2.52
  -1 -12   6    0.56    1.00
   1  12  -6    0.67    1.31
  -2 -12   6   -0.23    0.94
   2  12  -6    1.98    1.57
  -3 -12   6    3.55    1.36
   3  12  -6    4.65    1.69
  -4 -12   6   -0.98    0.88
   4  12  -6   -0.39    1.04
   5 -11   6    6.44    1.41
  -5  11  -6    3.60    1.95
   4 -11   6   20.63    2.13
  -4  11  -6   20.95    3.49
   3 -11   6    0.92    0.78
  -3  11  -6    0.51    1.53
  -2  11  -6   20.31    3.24
   1 -11   6    7.55    1.42
  -1  11  -6    9.67    2.38
   0 -11   6    3.35    1.15
   0  11  -6    1.55    1.47
  -1 -11   6   16.53    2.02
   1  11  -6   15.43    2.65
  -2 -11   6   15.23    1.95
   2  11  -6    8.26    2.07
  -3 -11   6   17.51    2.13
   3  11  -6   13.31    2.35
  -4 -11   6    8.03    1.63
   4  11  -6   12.55    2.22
  -5 -11   6    1.00    1.11
   5  11  -6    1.10    1.18
   5 -10   6   -0.28    0.81
  -5  10  -6    0.65    1.52
   4 -10   6   -0.03    0.69
  -4  10  -6   -0.09    1.20
   3 -10   6   36.58    2.24
  -3  10  -6   34.85    3.89
   2 -10   6   16.11    1.75
   2 -10   6   12.98    1.46
  -2  10  -6   14.00    2.58
   1 -10   6    2.73    1.03
  -1  10  -6    4.90    1.85
   0 -10   6   50.05    2.72
   0  10  -6   39.77    3.88
  -1 -10   6    1.71    0.91
   1  10  -6    2.98    1.52
  -2 -10   6   -0.09    0.80
   2  10  -6    0.28    1.19
  -3 -10   6    2.21    0.98
   3  10  -6    2.65    1.31
   3  10  -6    0.31    1.04
  -4 -10   6    6.92    1.46
   4  10  -6    6.80    1.89
   4  10  -6    7.68    1.78
  -5 -10   6    6.66    1.49
   5  10  -6    6.59    1.62
   5  10  -6   10.41    2.38
  -6 -10   6   -0.33    0.96
   6  10  -6   -0.85    1.45
   6  10  -6    0.48    1.01
   6  -9   6    0.10    0.81
  -6   9  -6   -0.04    1.24
   5  -9   6   -0.33    0.72
  -5   9  -6    3.18    1.56
   4  -9   6   -0.21    0.63
  -4   9  -6    0.15    1.12
   3  -9   6    4.51    1.03
  -3   9  -6    3.80    1.60
   2  -9   6    0.66    0.63
   2  -9   6    1.61    0.77
  -2   9  -6   -0.39    1.07
   1  -9   6    0.17    0.71
  -1   9  -6    0.56    1.20
   0  -9   6    2.71    0.87
   0   9  -6    4.11    1.56
   0   9  -6    4.44    1.13
  -1  -9   6    3.15    1.03
   1   9  -6    3.02    1.37
   1   9  -6    2.86    1.07
  -2  -9   6    8.74    1.39
   2   9  -6   11.08    1.77
   2   9  -6    6.89    1.62
  -3  -9   6    0.62    0.78
   3   9  -6   -0.01    0.94
   3   9  -6    0.98    0.94
  -4  -9   6    7.53    1.40
   4   9  -6    3.12    1.25
   4   9  -6    8.42    1.88
  -5  -9   6    1.67    1.03
   5   9  -6    2.88    1.48
   5   9  -6    1.01    0.91
  -6  -9   6   -0.24    0.91
   6   9  -6    1.14    1.01
   6   9  -6   -1.31    1.17
  -7  -9   6   -0.80    0.97
  -7  -9   6   -0.11    0.90
   7   9  -6   -0.53    0.85
  -7   8  -6    1.55    1.61
   6  -8   6    4.59    1.18
  -6   8  -6    6.25    1.92
   5  -8   6    6.33    1.21
  -5   8  -6    8.35    2.04
   4  -8   6    2.88    0.93
  -4   8  -6    2.77    1.39
   3  -8   6   15.48    1.61
  -3   8  -6    9.75    2.09
   2  -8   6   24.08    1.67
   2  -8   6   22.55    1.58
  -2   8  -6   25.11    2.93
  -2   8  -6   22.56    2.03
   1  -8   6   80.89    2.77
   1  -8   6   83.72    3.09
  -1   8  -6   89.16    3.42
  -1   8  -6   81.11    4.39
   0  -8   6   59.33    2.72
   0   8  -6   68.60    3.07
   0   8  -6   67.81    3.91
  -1  -8   6    3.69    1.02
   1   8  -6    5.75    1.58
   1   8  -6    3.44    1.12
  -2  -8   6   49.22    2.58
   2   8  -6   62.38    3.17
   2   8  -6   52.63    3.29
  -3  -8   6    3.36    1.00
   3   8  -6    3.93    1.26
   3   8  -6    4.34    1.27
  -4  -8   6   -0.46    0.71
   4   8  -6    0.54    1.06
   4   8  -6    0.06    0.72
  -5  -8   6    3.58    1.12
   5   8  -6    6.09    1.73
   5   8  -6    3.33    1.16
  -6  -8   6    3.08    1.23
   6   8  -6    3.97    1.19
   6   8  -6    5.13    1.88
  -7  -8   6    2.97    1.22
  -7  -8   6    1.76    1.17
   7   8  -6    1.22    0.99
   7   8  -6    4.07    1.83
   7  -7   6    3.55    1.15
  -7   7  -6    4.74    1.75
   6  -7   6   13.47    1.72
  -6   7  -6   12.88    2.28
   5  -7   6   -0.09    0.63
  -5   7  -6    0.15    0.98
   4  -7   6   54.11    2.59
  -4   7  -6   54.29    2.79
  -4   7  -6   47.43    3.31
   3  -7   6    0.18    0.58
  -3   7  -6   -0.10    0.64
  -3   7  -6    0.32    0.98
   2  -7   6   46.54    2.08
   2  -7   6   43.12    2.06
  -2   7  -6   43.95    2.37
  -2   7  -6   45.76    3.03
   1  -7   6   14.72    1.44
   1  -7   6   10.89    1.17
  -1   7  -6   17.14    2.26
  -1   7  -6   16.25    1.71
   0  -7   6   33.32    1.92
   0  -7   6   33.81    1.56
   0   7  -6   31.82    2.11
   0   7  -6   34.63    2.71
  -1  -7   6  121.49    3.94
   1   7  -6  113.60    4.16
   1   7  -6  114.24    4.68
  -2  -7   6   32.81    2.06
   2   7  -6   31.24    2.45
   2   7  -6   31.82    2.35
  -3  -7   6   35.92    2.21
   3   7  -6   32.98    2.37
   3   7  -6   35.55    2.56
  -4  -7   6   27.42    2.10
   4   7  -6   30.73    3.01
   4   7  -6   28.19    2.18
  -5  -7   6    1.11    0.83
   5   7  -6    3.42    1.43
   5   7  -6    3.24    1.04
  -6  -7   6    0.13    0.82
   6   7  -6    0.87    0.82
   6   7  -6    0.99    1.24
  -7  -7   6    1.64    1.01
   7   7  -6    4.19    1.87
   7   7  -6    5.32    1.36
  -8  -7   6    2.35    1.28
   8   7  -6    0.70    1.00
  -8   6  -6    4.07    1.75
   7  -6   6   -0.10    0.78
  -7   6  -6   -1.19    0.97
   6  -6   6    5.10    1.09
  -6   6  -6    3.42    1.39
  -6   6  -6    5.02    1.45
   5  -6   6    6.17    1.17
  -5   6  -6    4.53    1.34
  -5   6  -6    3.78    1.18
   4  -6   6    0.25    0.61
  -4   6  -6    1.41    0.86
  -4   6  -6    0.46    0.87
   3  -6   6    4.41    0.89
  -3   6  -6    4.90    1.11
  -3   6  -6    2.37    1.08
   2  -6   6    1.39    0.66
   2  -6   6    2.75    0.75
  -2   6  -6    1.29    1.02
  -2   6  -6    0.33    0.67
   1  -6   6    3.96    0.82
   1  -6   6    2.94    0.72
  -1   6  -6    2.89    0.91
  -1   6  -6    1.66    1.14
   0  -6   6    3.28    0.86
   0  -6   6    4.21    0.73
   0   6  -6    5.06    1.06
   0   6  -6    3.65    1.24
  -1  -6   6    2.18    0.51
  -1  -6   6    1.97    0.79
   1   6  -6    0.85    0.75
   1   6  -6    1.33    0.99
  -2  -6   6   31.18    1.96
   2   6  -6   36.26    2.41
   2   6  -6   35.47    2.36
  -3  -6   6   96.30    3.51
   3   6  -6   90.27    3.93
   3   6  -6   90.06    3.63
  -4  -6   6   12.10    1.56
   4   6  -6   14.72    1.71
   4   6  -6   11.20    1.84
  -5  -6   6   21.33    2.03
   5   6  -6   26.34    2.86
   5   6  -6   24.69    1.95
  -6  -6   6    0.31    0.71
   6   6  -6    0.81    1.12
   6   6  -6    1.48    0.79
  -7  -6   6    4.70    1.20
   7   6  -6    4.75    1.75
   7   6  -6    2.93    1.05
  -8  -6   6    0.59    1.01
   8   6  -6    0.09    0.82
   8  -5   6    0.07    0.77
  -8   5  -6    0.24    1.19
   7  -5   6    0.66    0.83
  -7   5  -6    1.38    1.23
  -7   5  -6    0.38    1.19
   6  -5   6    2.13    0.85
  -6   5  -6    1.01    0.95
  -6   5  -6   -0.14    0.89
   5  -5   6    6.37    1.10
  -5   5  -6    8.52    1.58
  -5   5  -6    8.80    1.57
   4  -5   6   29.24    1.86
  -4   5  -6   33.07    2.25
  -4   5  -6   33.41    2.38
   3  -5   6    1.29    0.65
  -3   5  -6    0.74    0.84
  -3   5  -6    1.09    0.77
   2  -5   6   38.10    1.85
   2  -5   6   39.03    1.75
  -2   5  -6   41.08    2.54
  -2   5  -6   36.38    2.13
   1  -5   6   21.55    1.35
   1  -5   6   20.69    1.41
  -1   5  -6   25.64    1.71
  -1   5  -6   21.80    2.17
   0  -5   6    0.05    0.43
   0  -5   6    1.20    0.60
   0   5  -6    0.08    0.61
   0   5  -6    0.12    0.80
  -1  -5   6    3.65    0.81
  -1  -5   6    4.34    0.61
   1   5  -6    4.74    0.99
   1   5  -6    5.41    1.16
  -2  -5   6    4.14    0.90
   2   5  -6    4.94    1.13
   2   5  -6    3.64    1.00
  -3  -5   6   17.84    1.68
   3   5  -6   12.90    1.73
   3   5  -6   17.03    1.72
  -4  -5   6    1.08    0.71
   4   5  -6    3.23    1.14
   4   5  -6    1.98    0.77
  -5  -5   6    4.93    1.06
   5   5  -6    4.89    1.07
   5   5  -6    3.34    1.28
  -6  -5   6    3.02    0.91
   6   5  -6    2.24    0.91
   6   5  -6    3.48    1.46
  -7  -5   6    5.50    1.23
   7   5  -6    5.68    1.22
   7   5  -6    6.24    1.91
  -8  -5   6    0.56    0.94
   8   5  -6    0.79    0.89
   9   5  -6    0.43    0.95
   8  -4   6   20.43    2.15
  -8   4  -6   20.27    2.64
  -8   4  -6   12.73    2.42
   7  -4   6    0.50    0.77
  -7   4  -6   -0.23    0.78
  -7   4  -6   -0.64    1.07
   6  -4   6   42.79    2.39
  -6   4  -6   46.32    3.10
  -6   4  -6   44.96    2.86
   5  -4   6   20.79    1.79
  -5   4  -6   22.69    2.39
  -5   4  -6   20.46    2.17
   4  -4   6   16.56    1.57
  -4   4  -6   14.01    1.75
  -4   4  -6   15.41    1.80
   3  -4   6   19.48    1.60
  -3   4  -6   19.25    1.86
  -3   4  -6   21.92    2.00
   2  -4   6   71.63    2.27
   2  -4   6   66.02    2.37
  -2   4  -6   72.39    2.99
  -2   4  -6   66.26    2.81
   1  -4   6    8.12    0.94
   1  -4   6    8.44    0.96
  -1   4  -6    9.84    1.25
  -1   4  -6    9.00    1.31
   0  -4   6   37.65    1.78
   0  -4   6   34.81    1.46
   0   4  -6   35.70    1.99
   0   4  -6   32.28    2.00
  -1  -4   6   10.40    0.85
  -1  -4   6   10.55    1.19
   1   4  -6   11.31    1.40
   1   4  -6    9.91    1.28
  -2  -4   6   49.11    2.22
  -2  -4   6   51.85    1.50
   2   4  -6   46.40    2.50
   2   4  -6   55.21    2.32
  -3  -4   6  100.71    3.42
   3   4  -6  101.83    3.31
   3   4  -6   99.18    3.91
  -4  -4   6    6.93    1.16
   4   4  -6    6.28    1.04
   4   4  -6    3.72    1.25
  -5  -4   6  138.56    4.33
   5   4  -6  135.91    4.25
   5   4  -6  126.29    5.25
  -6  -4   6   25.36    1.86
   6   4  -6   26.18    1.89
   6   4  -6   23.28    2.81
  -7  -4   6   36.69    2.28
   7   4  -6   32.69    3.48
   7   4  -6   31.64    2.22
  -8  -4   6    1.18    1.04
   8   4  -6    3.52    1.15
  -9  -4   6   -0.04    1.04
   9   4  -6    1.55    1.01
   8  -3   6    0.89    0.76
  -8   3  -6    0.43    0.93
  -8   3  -6    1.70    1.55
   7  -3   6    1.21    0.78
  -7   3  -6    2.22    1.10
  -7   3  -6    2.82    1.47
   6  -3   6    4.55    0.99
  -6   3  -6    5.10    1.21
  -6   3  -6    4.89    1.52
   5  -3   6    5.39    1.02
  -5   3  -6    4.92    1.13
  -5   3  -6    3.51    1.29
   4  -3   6   63.76    2.53
  -4   3  -6   65.40    2.88
  -4   3  -6   59.53    3.10
   3  -3   6    0.03    0.52
  -3   3  -6    1.03    0.66
  -3   3  -6    0.57    0.76
   2  -3   6   34.71    1.48
   2  -3   6   37.85    1.70
  -2   3  -6   36.16    1.86
  -2   3  -6   35.90    2.09
   1  -3   6   74.04    2.31
   1  -3   6   72.74    2.33
  -1   3  -6   76.02    2.75
  -1   3  -6   77.14    2.86
   0  -3   6   22.71    1.16
   0  -3   6   22.19    1.34
   0   3  -6   21.72    1.59
   0   3  -6   24.41    1.58
  -1  -3   6   23.55    1.46
  -1  -3   6   23.48    1.09
   1   3  -6   23.20    1.71
   1   3  -6   24.04    1.45
  -2  -3   6   51.46    2.22
  -2  -3   6   48.72    1.49
   2   3  -6   50.83    2.47
   2   3  -6   51.42    1.94
  -3  -3   6   48.51    2.23
  -3  -3   6   50.56    1.42
   3   3  -6   49.12    2.70
   3   3  -6   49.56    2.00
  -4  -3   6   82.38    3.06
   4   3  -6   83.01    3.72
   4   3  -6   87.21    2.90
  -5  -3   6    0.74    0.69
   5   3  -6    0.68    0.57
   5   3  -6   -0.93    0.71
  -6  -3   6   23.15    1.98
   6   3  -6   24.71    1.74
   6   3  -6   27.65    2.91
  -7  -3   6   40.34    2.31
   7   3  -6   33.20    3.50
   7   3  -6   40.48    2.45
  -8  -3   6    0.12    0.90
   8   3  -6   -0.15    0.62
  -9  -3   6    7.57    1.84
   9   3  -6    5.96    1.42
  -9   2  -6    0.85    1.07
   8  -2   6    0.76    0.91
   8  -2   6    0.67    0.78
  -8   2  -6    0.79    1.50
  -8   2  -6    0.40    0.96
   7  -2   6    0.23    0.77
   7  -2   6   -0.35    0.65
  -7   2  -6   -0.02    0.75
  -7   2  -6   -0.40    1.03
   6  -2   6   10.67    1.42
   6  -2   6    9.18    1.41
  -6   2  -6    9.97    1.95
  -6   2  -6   11.80    1.61
   5  -2   6   -0.66    0.50
  -5   2  -6   -0.73    0.54
  -5   2  -6   -1.34    0.90
   4  -2   6    3.39    0.80
  -4   2  -6    7.33    1.15
  -4   2  -6    4.73    1.38
   3  -2   6    4.00    0.77
  -3   2  -6    3.09    1.01
  -3   2  -6    4.00    0.82
   2  -2   6  121.03    2.98
   2  -2   6  117.93    3.22
  -2   2  -6  118.63    3.30
  -2   2  -6  113.64    3.83
   1  -2   6   46.22    1.74
   1  -2   6   44.27    1.74
  -1   2  -6   45.00    2.17
  -1   2  -6   45.93    1.84
   0  -2   6    2.54    0.52
   0  -2   6    2.19    0.56
   0   2  -6    2.75    0.73
   0   2  -6    2.41    0.58
  -1  -2   6    2.27    0.59
  -1  -2   6    1.42    0.41
   1   2  -6    2.61    0.51
   1   2  -6    1.98    0.67
  -2  -2   6   -0.16    0.40
  -2  -2   6   -0.01    0.29
   2   2  -6   -0.09    0.30
   2   2  -6    0.51    0.53
  -3  -2   6   69.52    1.84
  -3  -2   6   58.45    2.45
   3   2  -6   65.36    3.00
   3   2  -6   64.33    2.12
  -4  -2   6   10.57    0.82
  -4  -2   6   10.10    1.26
   4   2  -6   11.18    1.15
   4   2  -6    7.34    1.37
  -5  -2   6    1.59    0.71
   5   2  -6    0.10    0.54
   5   2  -6    0.88    0.94
  -6  -2   6   20.63    1.82
   6   2  -6   19.86    1.82
   6   2  -6   16.11    2.30
  -7  -2   6    0.08    0.62
   7   2  -6    1.15    1.23
   7   2  -6    0.08    0.60
  -8  -2   6    1.49    1.06
   8   2  -6    1.01    0.78
  -9  -2   6   18.42    2.50
   9   2  -6   15.76    2.02
   9  -1   6   -0.46    0.74
   9  -1   6    2.10    1.07
   8  -1   6    2.46    1.00
   8  -1   6    5.64    1.38
  -8   1  -6    3.01    1.66
   7  -1   6    5.25    1.11
   7  -1   6    8.04    1.45
  -7   1  -6    7.57    1.93
   6  -1   6    7.23    1.23
   6  -1   6    7.36    1.17
  -6   1  -6   11.36    2.14
   5  -1   6    3.93    0.95
   5  -1   6    1.15    0.65
  -5   1  -6    1.51    1.14
   4  -1   6   33.08    1.77
   4  -1   6   30.74    1.75
  -4   1  -6   32.79    2.57
   3  -1   6    4.99    0.80
   3  -1   6    5.17    0.60
   3  -1   6    5.06    0.83
  -3   1  -6    4.74    1.17
   2  -1   6   52.71    1.98
   2  -1   6   49.85    1.72
  -2   1  -6   51.11    1.81
  -2   1  -6   49.10    2.48
   1  -1   6    0.25    0.36
  -1   1  -6    0.86    0.54
  -1   1  -6    0.08    0.36
  -1   1  -6    0.67    0.40
   0  -1   6    2.04    0.49
   0   1  -6    2.45    0.67
   0   1  -6    2.02    0.55
   0   1  -6    2.45    0.39
  -1  -1   6  145.76    3.31
   1   1  -6  146.22    3.83
   1   1  -6  149.94    4.17
   1   1  -6  145.67    2.89
  -2  -1   6   86.70    2.89
  -2  -1   6   85.04    2.30
   2   1  -6   86.92    2.17
   2   1  -6   89.97    3.16
   2   1  -6   89.26    2.87
  -3  -1   6    8.79    0.82
  -3  -1   6   13.86    1.37
   3   1  -6   11.67    0.86
   3   1  -6    8.39    1.28
  -4  -1   6   17.54    1.04
  -4  -1   6   18.36    1.63
   4   1  -6   19.80    2.03
   4   1  -6   19.69    1.29
  -5  -1   6    1.14    0.65
   5   1  -6    0.67    0.85
   5   1  -6    1.69    0.63
  -6  -1   6    6.98    1.13
   6   1  -6    8.97    1.25
   6   1  -6    5.65    1.60
  -7  -1   6    2.66    0.84
   7   1  -6    2.53    1.37
   7   1  -6    2.92    0.87
  -8  -1   6    4.51    1.29
   8   1  -6    3.70    1.07
  -9  -1   6   12.55    2.14
   9   1  -6   18.90    2.22
   9   0   6    0.99    1.01
   9   0   6    0.69    0.79
   8   0   6    8.10    1.55
   8   0   6    7.30    1.34
  -8   0  -6    8.44    2.27
   7   0   6    3.78    1.07
   7   0   6    2.96    0.89
  -7   0  -6    4.28    1.58
   6   0   6   28.89    1.97
   6   0   6   31.10    1.89
  -6   0  -6   25.56    2.99
   5   0   6    4.22    0.92
   5   0   6    5.31    1.01
  -5   0  -6    3.98    1.43
   4   0   6   13.82    1.34
   4   0   6   16.51    1.29
  -4   0  -6   14.25    2.04
   3   0   6  138.31    3.73
   3   0   6  135.91    3.58
  -3   0  -6  139.88    3.20
  -3   0  -6  144.47    4.92
   2   0   6   66.10    1.93
   2   0   6   67.53    2.27
  -2   0  -6   65.96    2.06
  -2   0  -6   62.93    2.77
   1   0   6   54.32    1.91
  -1   0  -6   53.90    1.93
  -1   0  -6   51.75    2.28
  -1   0  -6   55.49    1.45
   0   0   6  694.01   11.86
   0   0  -6  689.49   13.32
   0   0  -6  695.01   12.74
  -1   0   6   40.86    1.55
   1   0  -6   40.17    1.78
   1   0  -6   36.09    1.84
  -2   0   6   15.82    0.98
   2   0  -6   13.48    1.37
   2   0  -6   14.61    0.71
   2   0  -6   12.74    1.21
  -3   0   6   15.79    1.01
   3   0  -6   14.00    0.91
   3   0  -6   14.09    1.54
   3   0  -6   13.86    1.30
  -4   0   6    9.09    0.95
   4   0  -6   10.21    1.05
   4   0  -6    7.85    1.10
   4   0  -6    8.36    1.36
  -5   0   6   20.71    1.55
  -5   0   6   21.13    1.32
   5   0  -6   20.42    2.21
   5   0  -6   20.56    1.46
  -6   0   6    1.25    0.61
   6   0  -6    0.55    0.59
   6   0  -6    2.02    1.10
  -7   0   6    3.66    0.89
   7   0  -6    3.46    1.43
   7   0  -6    1.35    0.76
  -8   0   6   54.09    3.35
   8   0  -6   57.38    3.03
  -9   0   6    0.70    1.17
   9   0  -6    1.07    0.92
   9   1   6   -0.73    0.80
   8   1   6    2.62    1.06
   8   1   6    5.73    1.23
  -8  -1  -6    2.82    1.61
   7   1   6    5.34    1.17
   7   1   6    5.67    1.15
  -7  -1  -6    5.23    1.88
   6   1   6    9.03    1.31
   6   1   6   10.25    1.38
  -6  -1  -6   12.68    2.22
   5   1   6    2.77    0.81
   5   1   6    2.90    0.79
  -5  -1  -6    5.57    1.55
   4   1   6   34.91    1.80
   4   1   6   29.76    1.65
  -4  -1  -6   32.59    2.93
   3   1   6    4.17    0.76
   3   1   6    3.90    0.70
  -3  -1  -6    4.71    1.26
  -3  -1  -6    3.75    0.63
   2   1   6   51.20    1.94
   2   1   6   51.16    1.62
  -2  -1  -6   54.48    2.59
  -2  -1  -6   49.66    1.86
   1   1   6    0.47    0.38
   1   1   6    0.46    0.22
  -1  -1  -6    0.23    0.37
  -1  -1  -6    0.10    0.52
   0   1   6    2.20    0.50
   0  -1  -6    2.75    0.69
   0  -1  -6    1.77    0.54
  -1   1   6  148.56    3.58
   1  -1  -6  140.13    3.86
   1  -1  -6  153.78    4.05
  -2   1   6   84.68    2.06
  -2   1   6   84.83    2.53
   2  -1  -6   86.60    2.88
   2  -1  -6   88.39    2.95
  -3   1   6    8.87    0.96
   3  -1  -6    9.53    1.25
   3  -1  -6   10.44    0.80
   3  -1  -6    9.27    1.12
  -4   1   6   21.24    1.32
   4  -1  -6   18.12    1.84
   4  -1  -6   19.45    1.45
   4  -1  -6   17.87    1.19
  -5   1   6    0.80    0.55
   5  -1  -6    1.41    0.70
   5  -1  -6    1.50    0.61
   5  -1  -6    1.18    0.95
  -6   1   6    7.42    1.12
   6  -1  -6    6.71    0.93
   6  -1  -6    8.35    1.71
   6  -1  -6    7.48    1.17
  -7   1   6    3.44    0.89
   7  -1  -6    1.20    0.78
   7  -1  -6    1.30    1.18
  -8   1   6    2.62    1.13
   8  -1  -6    4.46    1.19
  -9   1   6   16.72    2.35
   9  -1  -6   16.19    2.10
   9   2   6    0.44    0.88
   8   2   6    0.18    0.79
   8   2   6    0.73    0.86
  -8  -2  -6    1.04    1.52
   7   2   6    0.52    0.67
   7   2   6    0.14    0.64
  -7  -2  -6    0.61    1.22
   6   2   6   11.23    1.35
   6   2   6   14.30    1.61
  -6  -2  -6   10.01    2.13
   5   2   6    0.38    0.54
   5   2   6    0.07    0.50
  -5  -2  -6   -0.36    0.91
   4   2   6    5.91    0.94
   4   2   6    6.57    0.97
  -4  -2  -6    7.48    1.67
   3   2   6    4.68    0.74
   3   2   6    4.87    0.82
  -3  -2  -6    5.45    0.78
  -3  -2  -6    4.55    1.25
   2   2   6  123.13    3.32
   2   2   6  118.95    2.94
  -2  -2  -6  126.42    4.19
  -2  -2  -6  119.03    3.25
   1   2   6   46.65    1.29
   1   2   6   47.15    1.87
  -1  -2  -6   47.82    1.94
  -1  -2  -6   42.90    2.10
   0   2   6    1.98    0.53
   0  -2  -6    2.71    0.66
   0  -2  -6    2.86    0.71
  -1   2   6    3.15    0.42
  -1   2   6    1.91    0.54
   1  -2  -6    2.49    0.65
   1  -2  -6    2.05    0.60
  -2   2   6    0.32    0.38
  -2   2   6    0.81    0.36
   2  -2  -6   -0.25    0.45
   2  -2  -6    0.67    0.52
  -3   2   6   65.10    2.15
  -3   2   6   67.70    2.41
   3  -2  -6   64.76    2.67
   3  -2  -6   65.41    2.61
  -4   2   6   10.43    1.17
   4  -2  -6   11.65    1.30
   4  -2  -6    9.34    1.40
   4  -2  -6   10.51    1.10
   5  -2  -6    1.16    0.66
   5  -2  -6    2.07    0.65
   5  -2  -6    1.02    0.87
   5  -2  -6    2.05    0.72
   6  -2  -6   20.02    1.38
   6  -2  -6   25.91    1.79
   6  -2  -6   18.10    1.71
   6  -2  -6   19.79    2.35
  -7   2   6    0.52    0.70
   7  -2  -6    0.07    0.65
  -8   2   6    1.56    1.06
   8  -2  -6    1.39    0.91
   9  -2  -6   15.37    2.15
   9   3   6    2.34    1.20
   8   3   6    0.34    0.79
  -8  -3  -6    0.46    1.57
   7   3   6    0.39    0.75
   7   3   6    2.73    0.92
  -7  -3  -6    1.03    1.46
   6   3   6    6.05    1.15
   6   3   6    3.22    0.89
  -6  -3  -6   -0.30    1.06
   5   3   6    3.79    0.90
   5   3   6    3.72    0.87
  -5  -3  -6    3.26    1.41
   4   3   6   66.05    2.53
   4   3   6   68.42    2.57
  -4  -3  -6   69.56    3.74
   3   3   6    0.01    0.45
   3   3   6    0.51    0.50
  -3  -3  -6    0.34    0.51
  -3  -3  -6    0.22    0.87
   2   3   6   36.31    1.71
   2   3   6   40.64    1.54
  -2  -3  -6   36.28    1.75
  -2  -3  -6   35.40    2.22
   1   3   6   75.28    2.52
   1   3   6   76.86    2.04
  -1  -3  -6   77.77    2.62
  -1  -3  -6   74.98    2.82
   0   3   6   23.14    1.01
   0   3   6   23.35    1.41
   0  -3  -6   21.49    1.40
   0  -3  -6   20.03    1.43
  -1   3   6   23.26    1.26
  -1   3   6   24.30    1.40
   1  -3  -6   24.14    1.53
   1  -3  -6   26.96    1.48
  -2   3   6   53.81    2.15
  -2   3   6   50.34    1.90
   2  -3  -6   49.74    2.08
   2  -3  -6   51.42    2.29
  -3   3   6   50.97    2.19
  -3   3   6   51.14    2.02
   3  -3  -6   50.84    2.33
   3  -3  -6   51.33    2.31
  -4   3   6   80.41    2.85
  -4   3   6   76.79    2.80
   4  -3  -6   82.43    3.23
   4  -3  -6   84.85    2.67
   4  -3  -6   76.61    2.93
  -5   3   6   -0.13    0.56
   5  -3  -6   -0.12    0.54
   5  -3  -6    0.35    0.80
   5  -3  -6    0.05    0.45
  -6   3   6   23.97    1.86
   6  -3  -6   23.04    1.94
   6  -3  -6   27.60    1.90
   6  -3  -6   19.26    2.29
   6  -3  -6   21.71    1.50
  -7   3   6   46.84    2.70
   7  -3  -6   41.27    2.10
   7  -3  -6   40.65    2.50
   8  -3  -6    0.90    0.92
  -9   3   6    7.67    1.67
   9  -3  -6    6.15    1.53
   8   4   6   14.77    1.96
  -8  -4  -6   13.55    2.72
   7   4   6    0.16    0.70
  -7  -4  -6   -0.32    1.18
   6   4   6   44.39    2.24
   6   4   6   41.70    2.40
  -6  -4  -6   39.92    3.77
   5   4   6   21.91    1.62
   5   4   6   20.65    1.72
  -5  -4  -6   20.48    2.53
   4   4   6   15.28    1.44
   4   4   6   13.05    1.38
  -4  -4  -6   18.44    2.29
   3   4   6   19.98    1.60
   3   4   6   20.97    1.36
  -3  -4  -6   20.91    2.25
  -3  -4  -6   20.30    1.43
   2   4   6   69.75    2.31
   2   4   6   69.05    2.52
  -2  -4  -6   71.63    2.63
  -2  -4  -6   69.67    3.14
   1   4   6    8.89    0.91
   1   4   6    7.47    1.00
  -1  -4  -6   10.31    1.19
  -1  -4  -6    8.53    1.15
   0   4   6   37.32    1.70
   0   4   6   36.21    1.77
   0  -4  -6   38.10    1.77
   0  -4  -6   34.80    1.92
  -1   4   6   12.05    1.25
  -1   4   6    8.87    1.10
   1  -4  -6   12.28    1.13
   1  -4  -6    7.66    1.08
  -2   4   6   52.41    2.26
  -2   4   6   53.24    2.28
   2  -4  -6   51.28    2.07
   2  -4  -6   54.51    2.46
  -3   4   6   96.30    3.23
  -3   4   6  106.97    3.46
   3  -4  -6  101.09    3.24
   3  -4  -6  102.01    3.50
  -4   4   6    8.87    1.22
   4  -4  -6    5.57    1.07
   4  -4  -6    6.75    1.01
   4  -4  -6    7.39    1.21
  -5   4   6  138.73    4.53
   5  -4  -6  145.91    4.04
   5  -4  -6  140.85    4.35
  -6   4   6   26.32    2.01
   6  -4  -6   19.56    1.72
   6  -4  -6   20.81    1.85
  -7   4   6   31.47    2.39
   7  -4  -6   36.17    2.03
  -8   4   6    2.98    1.15
   8  -4  -6    1.71    0.83
  -9   4   6    0.38    0.94
   8   5   6    1.35    1.00
  -8  -5  -6    0.36    1.62
   7   5   6    0.54    0.84
  -7  -5  -6    3.99    1.80
   6   5   6    1.41    0.73
   6   5   6    1.38    0.79
  -6  -5  -6    0.95    1.30
   5   5   6    9.48    1.24
   5   5   6   10.14    1.38
  -5  -5  -6    7.50    1.77
   4   5   6   36.37    2.01
   4   5   6   32.32    1.84
  -4  -5  -6   35.70    2.78
  -4  -5  -6   36.76    1.92
   3   5   6    0.47    0.52
   3   5   6    0.15    0.56
  -3  -5  -6    1.41    1.03
  -3  -5  -6    0.63    0.61
   2   5   6   36.34    1.83
   2   5   6   39.93    1.91
  -2  -5  -6   36.82    1.99
  -2  -5  -6   40.70    2.48
   1   5   6   22.53    1.50
   1   5   6   27.12    1.63
  -1  -5  -6   20.65    1.54
  -1  -5  -6   24.32    1.67
   0   5   6   -0.04    0.45
   0   5   6    0.61    0.69
   0  -5  -6    0.13    0.46
   0  -5  -6   -0.53    0.51
  -1   5   6    4.16    1.00
  -1   5   6    4.05    0.87
   1  -5  -6    4.20    0.74
   1  -5  -6    4.98    0.99
  -2   5   6    4.91    1.10
  -2   5   6    2.48    0.77
   2  -5  -6    6.50    1.11
   2  -5  -6    4.64    0.77
  -3   5   6   17.71    1.75
  -3   5   6   15.79    1.66
   3  -5  -6   16.53    1.68
  -4   5   6    2.04    0.87
   4  -5  -6    1.55    0.75
   4  -5  -6    2.46    0.71
  -5   5   6    5.91    1.22
   5  -5  -6    4.45    0.99
   5  -5  -6    5.14    0.98
  -6   5   6    2.49    1.02
   6  -5  -6    4.46    0.97
   6  -5  -6    5.30    1.12
  -7   5   6    5.91    1.41
   7  -5  -6    5.64    1.05
  -8   5   6    0.06    0.91
   8  -5  -6    1.12    0.77
  -9   5   6    0.38    1.09
   7   6   6    0.78    0.88
  -7  -6  -6   -1.06    1.25
   6   6   6    4.55    1.12
  -6  -6  -6    6.19    1.76
   5   6   6    5.33    1.02
   5   6   6    2.90    0.92
  -5  -6  -6    4.96    1.57
   4   6   6    2.01    0.69
   4   6   6    1.88    0.77
  -4  -6  -6    1.26    0.77
  -4  -6  -6    0.41    1.12
   3   6   6    4.57    0.90
   3   6   6    4.41    0.95
  -3  -6  -6    6.58    1.17
  -3  -6  -6    4.57    1.26
   2   6   6    2.44    0.81
   2   6   6    1.02    0.61
  -2  -6  -6    1.66    0.81
  -2  -6  -6    0.47    0.88
   1   6   6    1.37    0.64
   1   6   6    1.48    0.81
  -1  -6  -6    2.94    0.86
  -1  -6  -6    3.20    0.91
   0   6   6    3.55    0.82
   0   6   6    4.49    1.14
   0  -6  -6    3.94    0.94
   0  -6  -6    5.15    0.84
  -1   6   6    1.73    0.98
  -1   6   6    1.22    0.65
   1  -6  -6    0.31    0.70
  -2   6   6   32.38    2.01
  -2   6   6   31.17    2.31
   2  -6  -6   27.95    2.01
  -3   6   6   92.92    3.51
  -3   6   6   92.91    3.79
   3  -6  -6   95.86    3.56
  -4   6   6   15.41    1.88
   4  -6  -6   13.24    1.60
   4  -6  -6   14.79    1.48
  -5   6   6   27.05    2.49
   5  -6  -6   24.59    1.69
   5  -6  -6   21.45    2.04
  -6   6   6   -0.43    0.79
   6  -6  -6    1.32    0.79
   6  -6  -6    1.47    0.72
  -7   6   6    3.80    1.35
   7  -6  -6    2.92    0.94
  -8   6   6   -0.76    0.90
   8  -6  -6    0.73    0.77
  -9   6   6    0.96    1.32
   9  -6  -6    2.23    0.96
  -7  -7  -6    6.87    2.02
   6   7   6   12.88    1.77
  -6  -7  -6   13.66    2.46
   5   7   6   -0.12    0.65
  -5  -7  -6   -0.21    1.04
   4   7   6   54.60    2.77
   4   7   6   52.02    2.40
  -4  -7  -6   50.41    2.58
  -4  -7  -6   57.26    3.41
   3   7   6    0.08    0.65
   3   7   6    1.12    0.66
  -3  -7  -6    0.45    0.94
  -3  -7  -6    0.29    0.74
   2   7   6   45.53    2.48
   2   7   6   39.06    2.02
  -2  -7  -6   48.40    2.53
  -2  -7  -6   42.48    2.51
   1   7   6   17.36    1.86
   1   7   6   14.69    1.53
  -1  -7  -6   12.29    1.54
   0   7   6   33.14    2.35
   0   7   6   32.21    1.94
   0  -7  -6   31.54    2.10
  -1   7   6  119.25    3.94
  -1   7   6  117.51    4.53
   1  -7  -6  114.64    4.08
  -2   7   6   29.81    2.72
  -2   7   6   32.82    2.06
   2  -7  -6   33.35    2.23
  -3   7   6   37.28    2.30
  -3   7   6   39.06    2.69
   3  -7  -6   40.84    2.39
  -4   7   6   27.46    2.63
   4  -7  -6   26.05    1.99
   4  -7  -6   26.52    1.77
  -5   7   6    3.86    1.25
   5  -7  -6    2.00    0.89
   5  -7  -6    3.72    0.91
  -6   7   6    0.79    1.00
   6  -7  -6    0.40    0.61
   6  -7  -6    1.54    0.82
  -7   7   6    6.21    1.72
   7  -7  -6    4.33    1.06
  -8   7   6   -0.51    1.05
   8  -7  -6    0.06    0.76
  -7  -8  -6    0.28    1.52
  -6  -8  -6    3.03    1.62
   5   8   6    4.93    1.23
  -5  -8  -6    5.09    1.62
   4   8   6    3.12    1.07
   4   8   6    3.25    0.89
  -4  -8  -6    3.40    1.33
  -4  -8  -6    4.06    1.10
   3   8   6   14.67    1.79
   3   8   6   12.93    1.49
  -3  -8  -6   14.34    1.76
   2   8   6   22.82    2.23
   2   8   6   24.56    1.74
  -2  -8  -6   25.26    2.24
   1   8   6   88.49    3.28
   1   8   6   95.15    3.98
  -1  -8  -6   86.62    3.59
   0   8   6   64.60    2.85
   0   8   6   64.22    3.43
   0  -8  -6   67.97    3.17
  -1   8   6    5.04    1.04
  -1   8   6    4.20    1.35
   1  -8  -6    4.66    1.13
  -2   8   6   49.03    2.62
  -2   8   6   55.81    3.39
   2  -8  -6   50.85    2.78
  -3   8   6    4.08    1.08
  -3   8   6    2.97    1.30
   3  -8  -6    6.07    1.27
  -4   8   6   -0.89    0.86
  -4   8   6    0.51    0.66
   4  -8  -6   -0.35    0.62
   4  -8  -6    0.67    0.58
  -5   8   6    4.49    1.43
   5  -8  -6    3.61    0.97
   5  -8  -6    4.16    1.19
  -6   8   6    5.42    1.62
   6  -8  -6    3.34    1.01
   6  -8  -6    2.75    1.09
  -7   8   6    1.57    1.28
   7  -8  -6    2.60    1.01
   4   9   6    1.34    0.94
  -4  -9  -6   -0.67    0.75
   3   9   6    5.48    1.28
   3   9   6    3.58    0.96
  -3  -9  -6    3.49    1.13
   2   9   6    0.81    0.90
   2   9   6   -0.05    0.54
  -2  -9  -6    0.48    0.81
   1   9   6    0.32    0.92
   1   9   6   -0.25    0.54
  -1  -9  -6    1.25    0.82
   0   9   6    4.08    1.35
   0  -9  -6    4.29    1.12
  -1   9   6    3.69    0.94
  -1   9   6    3.16    1.35
   1  -9  -6    2.81    1.04
  -2   9   6    4.67    1.17
  -2   9   6   11.14    2.05
   2  -9  -6    6.63    1.35
  -3   9   6    1.65    1.25
  -3   9   6    0.45    0.72
   3  -9  -6   -0.24    0.75
  -4   9   6    6.97    1.32
  -4   9   6    6.34    1.72
   4  -9  -6    6.42    1.15
   4  -9  -6    7.54    1.51
  -5   9   6   -0.48    1.05
   5  -9  -6    2.87    0.91
   5  -9  -6    2.26    1.02
  -6   9   6    0.46    1.31
   6  -9  -6   -0.21    0.61
   7  -9  -6    0.68    0.77
  -4 -10  -6    0.10    0.89
   3  10   6   33.66    2.61
  -3 -10  -6   40.65    2.76
   2  10   6   15.54    2.12
   2  10   6   15.63    1.72
  -2 -10  -6   17.66    2.10
   1  10   6    3.72    1.41
   1  10   6    3.49    0.97
  -1 -10  -6    3.60    1.09
   0  10   6   48.16    3.38
   0  10   6   46.32    2.58
   0 -10  -6   58.46    3.16
  -1  10   6    3.09    0.97
  -1  10   6    2.32    1.31
   1 -10  -6    1.25    0.91
  -2  10   6   -0.50    1.06
  -2  10   6    0.53    0.66
   2 -10  -6    0.54    0.80
  -3  10   6   -0.01    1.24
  -3  10   6    1.30    0.89
   3 -10  -6    4.11    1.25
  -4  10   6    6.06    1.91
  -4  10   6    6.14    1.36
   4 -10  -6    6.36    1.44
  -5  10   6    8.70    2.20
   5 -10  -6    7.56    1.55
   5 -10  -6   10.02    1.49
   6 -10  -6   -0.14    0.71
  -4 -11  -6   25.98    2.65
  -3 -11  -6   -0.72    0.87
  -2 -11  -6   30.83    2.84
   1  11   6    9.02    1.43
  -1 -11  -6    7.32    1.58
   0  11   6    1.46    0.84
   0 -11  -6    3.32    1.13
  -1  11   6   16.08    1.92
   1 -11  -6   17.19    2.11
  -2  11   6   10.92    1.70
   2 -11  -6   12.01    1.82
  -3  11   6   15.42    1.97
   3 -11  -6   15.66    2.07
  -4  11   6    9.74    1.68
   4 -11  -6   18.66    2.35
  -5  11   6    2.76    1.12
   5 -11  -6    1.87    1.17
   5 -11  -6    1.76    0.90
  -4 -12  -6    3.14    1.30
  -3 -12  -6    4.99    1.44
  -2 -12  -6   -0.82    0.84
  -1 -12  -6   -0.44    0.82
   0  12   6   12.01    1.67
   0 -12  -6    8.31    1.74
  -1  12   6    0.61    0.88
   1 -12  -6    0.48    0.89
  -2  12   6    1.22    0.93
   2 -12  -6    1.00    1.00
  -3  12   6    5.04    1.32
   3 -12  -6    9.34    1.80
  -4  12   6    0.26    0.92
   4 -12  -6    0.65    1.11
   5 -12  -6   12.64    2.06
  -1 -13  -6    0.76    0.97
   0 -13  -6    4.52    1.40
  -1  13   6   -0.05    0.86
   1 -13  -6   -0.02    0.95
  -2  13   6    0.15    0.94
   1 -13   7   15.49    2.14
   0 -13   7    0.72    1.08
   0  13  -7    1.69    1.77
   1  13  -7    2.34    1.69
  -3  12  -7    8.90    2.69
  -2  12  -7    2.52    1.98
   1 -12   7    1.64    1.10
  -1  12  -7   -0.26    1.53
   0 -12   7    9.37    1.71
   0  12  -7   11.78    2.59
  -1 -12   7    2.83    1.27
   1  12  -7    2.06    1.60
  -2 -12   7    1.62    1.11
   2  12  -7    3.96    1.76
  -3 -12   7   -1.09    0.89
   3  12  -7    1.53    1.41
   4  12  -7    3.52    1.58
   4 -11   7    0.43    0.86
  -4  11  -7   -0.40    1.60
  -3  11  -7    1.67    1.82
  -2  11  -7   -0.01    1.39
   1 -11   7   -1.28    0.75
  -1  11  -7   -0.19    1.39
   0 -11   7   -0.05    0.80
   0  11  -7   -0.54    1.35
  -1 -11   7    0.17    0.95
   1  11  -7    1.39    1.48
  -2 -11   7   -0.29    0.96
   2  11  -7    0.46    1.21
  -3 -11   7    0.94    1.09
   3  11  -7    0.75    1.19
  -4 -11   7   -0.28    0.96
   4  11  -7   -1.15    0.95
   5  11  -7    0.30    0.95
   5 -10   7   12.70    1.79
  -5  10  -7   13.92    2.89
   4 -10   7    0.15    0.79
  -4  10  -7    0.53    1.45
   3 -10   7    5.58    1.21
  -3  10  -7    3.69    1.79
  -2  10  -7   -0.83    1.32
   1 -10   7    3.25    1.05
  -1  10  -7    1.16    1.41
   0 -10   7    7.54    1.39
   0  10  -7    6.05    1.79
  -1 -10   7    5.11    1.19
   1  10  -7    5.39    1.75
  -2 -10   7   13.80    1.88
   2  10  -7   15.53    2.38
  -3 -10   7    5.22    1.34
   3  10  -7   10.95    2.05
   3  10  -7    4.40    1.51
  -4 -10   7    1.56    1.08
   4  10  -7    3.28    1.34
   4  10  -7    2.57    1.54
  -5 -10   7    2.18    1.15
   5  10  -7   -0.48    0.91
   5  10  -7   -0.28    1.35
  -6 -10   7   14.64    2.16
   6  10  -7    9.54    2.48
   6  10  -7   12.69    2.11
  -6   9  -7    2.12    1.78
   5  -9   7    0.72    0.88
  -5   9  -7    0.63    1.47
  -4   9  -7   40.94    4.50
   3  -9   7   21.57    2.00
  -3   9  -7   21.48    2.96
   2  -9   7    8.60    1.28
  -2   9  -7    8.08    2.09
   1  -9   7   10.66    1.44
  -1   9  -7   11.43    2.24
   0  -9   7   -0.55    0.71
   0   9  -7   -0.20    0.73
   0   9  -7   -0.19    1.05
  -1  -9   7   17.93    1.95
   1   9  -7   24.64    2.47
   1   9  -7   26.63    2.98
  -2  -9   7   12.37    1.67
   2   9  -7   10.09    1.76
   2   9  -7   12.21    2.11
  -3  -9   7    1.82    0.95
   3   9  -7    2.60    1.25
   3   9  -7    2.77    1.21
  -4  -9   7   43.91    2.78
   4   9  -7   36.34    3.54
   4   9  -7   50.61    3.16
  -5  -9   7    6.64    1.55
   5   9  -7    7.56    1.57
   5   9  -7    2.39    1.58
  -6  -9   7    1.51    1.15
   6   9  -7   -1.23    1.18
   6   9  -7    0.54    0.89
  -7  -9   7    4.76    1.50
   7   9  -7    3.77    1.29
   6  -8   7   -0.47    0.76
  -6   8  -7   -1.58    0.99
   5  -8   7    5.34    1.21
  -5   8  -7    6.33    1.90
   4  -8   7    0.13    0.66
  -4   8  -7   -0.30    1.17
   3  -8   7    0.26    0.62
  -3   8  -7   -0.57    1.02
   2  -8   7    8.59    1.22
   2  -8   7    8.94    1.26
  -2   8  -7   12.88    2.28
  -2   8  -7   12.08    1.65
   1  -8   7   -0.13    0.62
   1  -8   7    0.32    0.59
  -1   8  -7   -0.12    1.00
  -1   8  -7   -1.09    0.60
   0  -8   7   17.82    1.76
   0   8  -7   21.08    2.12
   0   8  -7   17.71    2.43
  -1  -8   7   27.97    1.97
   1   8  -7   26.35    2.45
   1   8  -7   23.62    2.69
  -2  -8   7   19.48    1.95
   2   8  -7   20.51    2.31
   2   8  -7   18.68    2.30
  -3  -8   7    1.37    0.89
   3   8  -7    3.29    1.30
   3   8  -7    1.99    1.10
  -4  -8   7    0.78    0.89
   4   8  -7    1.87    1.29
   4   8  -7   -0.29    0.72
  -5  -8   7    0.01    0.86
   5   8  -7    3.81    1.17
   5   8  -7   -0.95    0.99
  -6  -8   7    6.75    1.51
   6   8  -7    5.20    1.91
   6   8  -7    3.07    1.14
  -7  -8   7    1.97    1.14
   7   8  -7    2.76    1.14
   7   8  -7    0.84    1.56
  -7   7  -7   -0.37    1.30
   6  -7   7   -0.68    0.61
  -6   7  -7    0.64    1.24
   5  -7   7    1.98    0.83
  -5   7  -7    1.69    1.29
   4  -7   7    0.40    0.66
  -4   7  -7    1.25    0.87
  -4   7  -7    2.77    1.28
   3  -7   7    5.10    1.05
  -3   7  -7    4.77    1.14
  -3   7  -7    6.49    1.68
   2  -7   7    3.68    0.87
   2  -7   7    4.38    0.92
  -2   7  -7    4.31    1.46
  -2   7  -7    2.79    0.93
   1  -7   7    1.69    0.74
   1  -7   7    2.78    0.75
  -1   7  -7    2.93    0.98
  -1   7  -7    2.42    1.25
   0  -7   7    6.20    0.91
   0  -7   7    3.91    0.92
   0   7  -7    5.24    1.51
   0   7  -7    6.59    1.24
  -1  -7   7    3.95    1.01
   1   7  -7    3.49    1.21
   1   7  -7    5.62    1.25
  -2  -7   7    4.36    1.04
   2   7  -7    2.73    1.03
   2   7  -7    2.17    0.99
  -3  -7   7   12.11    1.60
   3   7  -7   15.51    1.89
   3   7  -7   14.15    1.99
  -4  -7   7   -0.06    0.69
   4   7  -7   -0.09    0.85
   4   7  -7   -0.23    0.66
  -5  -7   7    8.54    1.49
   5   7  -7    9.04    2.03
   5   7  -7    9.74    1.54
  -6  -7   7   -1.25    0.73
   6   7  -7   -1.20    0.54
   6   7  -7   -0.85    0.99
  -7  -7   7    1.11    1.04
   7   7  -7    1.55    1.54
   7   7  -7    2.50    1.01
   8   7  -7    4.32    1.36
   7  -6   7    1.58    0.97
  -7   6  -7    6.47    1.85
   6  -6   7    4.23    1.09
  -6   6  -7    5.16    1.45
  -6   6  -7    5.18    1.54
   5  -6   7   24.23    2.12
  -5   6  -7   28.27    2.91
  -5   6  -7   27.30    2.55
   4  -6   7    0.01    0.60
  -4   6  -7   -1.35    0.62
  -4   6  -7   -0.47    0.80
   3  -6   7   19.71    1.74
  -3   6  -7   14.37    2.06
  -3   6  -7   15.54    1.74
   2  -6   7    9.61    1.15
   2  -6   7   11.08    1.28
  -2   6  -7   10.76    1.80
  -2   6  -7   11.98    1.54
   1  -6   7   21.70    1.57
   1  -6   7   19.84    1.41
  -1   6  -7   23.46    2.47
  -1   6  -7   17.31    1.83
   0  -6   7   88.45    2.75
   0  -6   7   89.69    3.23
   0   6  -7   91.86    4.05
   0   6  -7   94.85    3.65
  -1  -6   7    2.12    0.79
   1   6  -7    2.03    1.02
   1   6  -7    4.91    1.13
  -2  -6   7   15.57    1.68
   2   6  -7   15.51    1.81
   2   6  -7   14.67    1.94
  -3  -6   7   25.68    1.89
   3   6  -7   30.12    2.03
   3   6  -7   27.24    2.59
  -4  -6   7    0.68    0.70
   4   6  -7   -0.01    0.95
   4   6  -7    1.05    0.76
  -5  -6   7   11.29    1.62
   5   6  -7    4.11    1.45
   5   6  -7   10.82    1.52
  -6  -6   7   25.37    2.35
   6   6  -7   25.75    3.14
   6   6  -7   30.45    2.19
  -7  -6   7   -0.67    0.80
   7   6  -7    0.70    1.49
   7   6  -7    0.55    0.78
  -8  -6   7   10.88    1.97
   8   6  -7   17.24    2.18
   8   6  -7   13.63    2.75
  -8   5  -7    2.07    1.43
   7  -5   7    5.67    1.27
  -7   5  -7    4.03    1.51
  -7   5  -7    5.21    1.65
   6  -5   7   18.43    1.90
  -6   5  -7   19.10    2.38
  -6   5  -7   18.53    2.44
   5  -5   7    0.87    0.67
  -5   5  -7    0.30    0.84
  -5   5  -7   -0.39    0.78
   4  -5   7   29.14    1.90
  -4   5  -7   33.01    2.33
  -4   5  -7   31.67    2.39
   3  -5   7   26.20    1.71
  -3   5  -7   26.93    2.05
  -3   5  -7   31.62    2.31
   2  -5   7   35.58    1.73
   2  -5   7   35.10    1.81
  -2   5  -7   30.34    2.32
  -2   5  -7   34.11    2.11
   1  -5   7   94.99    3.09
   1  -5   7   99.05    2.96
  -1   5  -7   87.13    3.48
  -1   5  -7   95.96    3.92
   0  -5   7    5.59    0.82
   0  -5   7    4.71    0.90
   0   5  -7    5.80    1.27
   0   5  -7    5.48    1.12
  -1  -5   7    1.37    0.53
  -1  -5   7    0.62    0.63
   1   5  -7    0.20    0.77
   1   5  -7    0.45    0.79
  -2  -5   7   98.26    3.52
   2   5  -7  105.33    4.05
   2   5  -7  102.97    3.61
  -3  -5   7    6.69    1.16
   3   5  -7    7.21    1.15
   3   5  -7    6.38    1.36
  -4  -5   7   38.57    2.30
   4   5  -7   43.27    2.24
   4   5  -7   42.17    2.94
  -5  -5   7    9.75    1.43
   5   5  -7   10.85    1.97
   5   5  -7   10.68    1.43
  -6  -5   7   36.67    2.37
   6   5  -7   40.56    2.41
   6   5  -7   39.75    3.79
  -7  -5   7   13.70    1.81
   7   5  -7   12.90    1.75
   7   5  -7    9.64    2.31
   8   5  -7    2.35    1.02
   8   5  -7    3.18    1.82
   9   5  -7    2.04    1.14
  -8   4  -7    2.11    1.29
  -8   4  -7   -0.12    1.33
   7  -4   7    5.24    1.23
  -7   4  -7    6.07    1.67
  -7   4  -7    8.34    1.81
   6  -4   7    0.25    0.72
  -6   4  -7    1.36    1.09
  -6   4  -7    0.07    0.78
   5  -4   7   14.40    1.65
  -5   4  -7   15.67    2.11
  -5   4  -7   17.25    2.05
   4  -4   7    5.04    1.03
  -4   4  -7    6.00    1.27
  -4   4  -7    5.14    1.29
   3  -4   7    7.27    1.06
  -3   4  -7    4.97    1.14
  -3   4  -7    5.24    1.23
   2  -4   7    1.78    0.65
   2  -4   7    3.55    0.70
  -2   4  -7    3.36    0.96
  -2   4  -7    2.68    1.00
   1  -4   7   13.86    1.28
   1  -4   7   21.76    1.42
  -1   4  -7   16.80    1.67
  -1   4  -7   16.86    1.78
   0  -4   7   21.22    1.24
   0  -4   7   18.83    1.56
   0   4  -7   18.69    1.80
   0   4  -7   18.27    1.76
  -1  -4   7    2.33    0.69
  -1  -4   7    2.18    0.56
   1   4  -7    2.72    0.88
   1   4  -7    2.38    0.80
  -2  -4   7    1.55    0.69
  -2  -4   7    2.37    0.53
   2   4  -7    1.00    0.64
   2   4  -7    2.68    0.94
  -3  -4   7   20.53    1.82
   3   4  -7   19.89    2.14
   3   4  -7   20.23    1.43
  -4  -4   7    1.12    0.73
   4   4  -7    2.56    0.73
   4   4  -7    2.11    1.04
  -5  -4   7    8.27    1.33
   5   4  -7   10.82    1.91
   5   4  -7   11.82    1.43
  -6  -4   7   13.48    1.70
   6   4  -7   13.15    1.56
   6   4  -7   17.12    2.51
  -7  -4   7    0.14    0.80
   7   4  -7    0.91    0.77
   7   4  -7    0.27    1.17
   8   4  -7    7.90    1.48
   8   4  -7    3.62    1.84
   9   4  -7    1.32    1.05
   8  -3   7    2.15    1.00
  -8   3  -7    6.26    2.01
   7  -3   7    5.35    1.20
  -7   3  -7    3.40    1.27
  -7   3  -7    5.10    1.78
   6  -3   7    0.67    0.67
  -6   3  -7    1.21    0.91
  -6   3  -7    1.32    1.21
   5  -3   7    0.40    0.60
  -5   3  -7    1.18    0.76
  -5   3  -7   -0.14    0.86
   4  -3   7   12.25    1.36
  -4   3  -7   14.44    1.63
  -4   3  -7   14.99    1.90
   3  -3   7    0.30    0.56
  -3   3  -7    1.37    0.79
  -3   3  -7    1.28    0.72
   2  -3   7   92.96    2.73
   2  -3   7   93.89    2.95
  -2   3  -7   85.54    3.42
  -2   3  -7   88.88    3.17
   1  -3   7   24.35    1.41
   1  -3   7   25.02    1.43
  -1   3  -7   21.87    1.57
  -1   3  -7   24.96    1.77
   0  -3   7    8.63    0.93
   0  -3   7    7.56    1.00
   0   3  -7    6.24    1.14
   0   3  -7    8.32    1.08
  -1  -3   7   20.80    1.47
  -1  -3   7   20.90    1.13
   1   3  -7   24.48    2.05
   1   3  -7   21.35    1.31
  -2  -3   7   17.76    1.01
  -2  -3   7   18.53    1.64
   2   3  -7   17.12    1.14
   2   3  -7   18.26    1.82
  -3  -3   7   52.01    2.49
   3   3  -7   48.64    2.78
   3   3  -7   53.26    2.05
  -4  -3   7   26.83    1.89
   4   3  -7   26.46    1.56
   4   3  -7   27.36    2.59
  -5  -3   7    0.10    0.64
   5   3  -7   -0.21    0.77
   5   3  -7   -0.07    0.49
  -6  -3   7    1.06    0.75
   6   3  -7    3.15    1.38
   6   3  -7    2.40    0.84
  -7  -3   7    1.09    0.80
   7   3  -7   -0.25    1.10
   7   3  -7    1.19    0.72
   8   3  -7    0.57    1.32
   8   3  -7   -0.31    0.69
  -9  -3   7    1.84    1.27
   9   3  -7    3.50    1.17
   8  -2   7    0.99    0.88
  -8   2  -7    0.30    1.35
   7  -2   7   20.26    2.05
  -7   2  -7   17.66    2.19
  -7   2  -7   19.64    2.86
   6  -2   7    4.77    1.09
  -6   2  -7    5.62    1.61
  -6   2  -7    6.08    1.26
   5  -2   7   61.75    2.71
  -5   2  -7   63.90    2.98
  -5   2  -7   60.74    3.53
   4  -2   7   -0.33    0.50
  -4   2  -7    0.36    0.60
  -4   2  -7   -0.49    0.77
   3  -2   7   44.71    2.05
  -3   2  -7   47.31    2.15
  -3   2  -7   43.69    2.62
   2  -2   7   68.61    2.24
   2  -2   7   70.51    2.51
  -2   2  -7   65.27    2.97
  -2   2  -7   70.73    2.47
   1  -2   7    0.49    0.45
   1  -2   7   -0.05    0.38
  -1   2  -7    0.45    0.58
  -1   2  -7    0.27    0.53
   0  -2   7  160.49    4.19
   0  -2   7  159.41    3.73
   0   2  -7  161.26    4.64
   0   2  -7  152.86    3.68
  -1  -2   7  136.17    3.24
  -1  -2   7  131.21    3.86
   1   2  -7  137.34    4.24
   1   2  -7  131.44    3.02
  -2  -2   7   90.19    3.17
  -2  -2   7   94.57    2.48
   2   2  -7   93.26    2.43
   2   2  -7   94.14    3.50
  -3  -2   7   64.19    2.68
  -3  -2   7   62.85    1.89
   3   2  -7   60.39    2.04
   3   2  -7   58.50    2.97
  -4  -2   7   10.97    1.39
   4   2  -7   14.53    1.13
   4   2  -7   16.48    1.98
  -5  -2   7   19.40    1.82
   5   2  -7   20.93    1.50
   5   2  -7   19.40    2.25
  -6  -2   7   43.27    2.36
   6   2  -7   40.97    2.20
   6   2  -7   39.75    3.05
  -7  -2   7    3.89    1.03
   7   2  -7    4.46    1.58
   7   2  -7    4.63    1.09
   8   2  -7   22.28    2.22
   8   2  -7   17.35    2.89
  -9  -2   7    0.14    1.02
   9   2  -7    1.09    0.92
   8  -1   7   -0.26    0.73
  -8   1  -7    0.13    1.33
   7  -1   7    8.89    1.45
   7  -1   7   11.08    1.63
  -7   1  -7   10.44    2.24
   6  -1   7    1.57    0.78
   6  -1   7    2.42    0.88
  -6   1  -7    1.53    1.27
   5  -1   7    3.14    0.88
   5  -1   7    1.72    0.77
  -5   1  -7    3.14    1.27
   4  -1   7   25.50    1.68
   4  -1   7   23.88    1.54
  -4   1  -7   25.00    1.64
  -4   1  -7   22.87    2.41
   3  -1   7   99.27    3.20
  -3   1  -7   98.29    3.98
  -3   1  -7  104.92    3.14
   2  -1   7    7.72    0.86
   2  -1   7    7.44    0.97
  -2   1  -7    6.21    1.15
  -2   1  -7    6.92    0.84
   1  -1   7   93.60    2.87
   1  -1   7   94.71    2.79
  -1   1  -7   97.46    3.44
  -1   1  -7   94.77    2.82
   0  -1   7    3.72    0.67
   0   1  -7    3.37    0.84
   0   1  -7    2.58    0.70
  -1  -1   7   88.47    2.46
   1   1  -7   81.53    2.83
   1   1  -7   84.50    3.16
  -2  -1   7   59.66    1.94
  -2  -1   7   59.66    2.47
   2   1  -7   52.82    2.30
   2   1  -7   53.28    2.57
   2   1  -7   53.65    1.54
  -3  -1   7    0.82    0.45
  -3  -1   7    1.34    0.63
   3   1  -7    0.87    0.80
   3   1  -7    1.47    0.48
  -4  -1   7  111.75    3.86
  -4  -1   7  121.42    3.09
   4   1  -7  118.63    4.47
   4   1  -7  129.49    3.42
  -5  -1   7    9.58    1.33
   5   1  -7    9.69    1.16
  -6  -1   7    3.20    0.89
   6   1  -7    3.59    0.90
   6   1  -7    4.66    1.43
  -7  -1   7   10.78    1.48
   7   1  -7   12.31    1.57
   7   1  -7    7.20    1.88
   8   1  -7    2.06    0.90
   8   1  -7    3.21    1.72
  -9  -1   7    8.25    1.80
   9   1  -7    8.37    1.59
   8   0   7   -0.05    0.69
  -8   0  -7    0.32    1.33
   7   0   7   -0.04    0.75
   7   0   7    0.06    0.67
  -7   0  -7   -0.44    1.29
   6   0   7   -0.03    0.61
   6   0   7   -0.54    0.62
  -6   0  -7   -1.38    1.04
   5   0   7    0.80    0.66
   5   0   7   -0.09    0.58
  -5   0  -7    0.27    0.95
   4   0   7    0.52    0.54
   4   0   7   -0.85    0.47
  -4   0  -7   -0.73    0.92
   3   0   7    0.47    0.46
   3   0   7    0.71    0.54
  -3   0  -7   -0.12    0.42
  -3   0  -7    1.20    0.94
   2   0   7   -0.17    0.41
  -2   0  -7   -0.55    0.62
  -2   0  -7   -0.79    0.35
   1   0   7    2.12    0.60
  -1   0  -7   -0.35    0.41
  -1   0  -7   -0.42    0.57
   0   0   7   -0.03    0.38
   0   0  -7   -0.46    0.42
   0   0  -7    0.07    0.50
  -1   0   7   -0.26    0.34
   1   0  -7    0.41    0.59
   1   0  -7   -0.01    0.47
  -2   0   7   -0.68    0.30
   2   0  -7    1.31    0.69
   2   0  -7   -0.72    0.40
  -3   0   7   -0.08    0.37
   3   0  -7    0.53    0.68
   3   0  -7   -0.57    0.49
   3   0  -7   -0.01    0.34
  -4   0   7   -0.30    0.39
   4   0  -7   -0.33    0.40
   4   0  -7   -1.04    0.55
   4   0  -7   -0.06    0.70
  -5   0   7    0.52    0.57
  -5   0   7    0.41    0.49
   5   0  -7   -0.42    0.47
   5   0  -7    0.17    0.83
  -6   0   7   -0.18    0.53
   6   0  -7   -0.17    0.54
   6   0  -7    0.99    1.07
  -7   0   7   -0.31    0.58
   7   0  -7   -0.47    0.57
   7   0  -7    1.23    1.32
  -8   0   7    0.58    0.94
   8   0  -7    0.65    0.72
   8   0  -7   -0.12    1.33
  -9   0   7    1.17    1.12
   8   1   7   -1.15    0.69
  -8  -1  -7    0.09    1.41
   7   1   7   10.01    1.45
  -7  -1  -7    9.81    2.21
   6   1   7    1.48    0.77
   6   1   7    0.80    0.75
  -6  -1  -7   -0.37    1.14
   5   1   7    2.67    0.79
   5   1   7    1.36    0.72
  -5  -1  -7    4.72    1.51
   4   1   7   24.29    1.63
   4   1   7   24.42    1.50
  -4  -1  -7   21.71    2.48
   3   1   7  108.14    2.97
   3   1   7  107.01    3.28
  -3  -1  -7  105.04    4.22
  -3  -1  -7  103.56    2.92
   2   1   7    7.15    0.95
  -2  -1  -7    6.62    1.22
  -2  -1  -7    6.04    0.85
   1   1   7   95.62    2.89
  -1  -1  -7   94.37    2.95
  -1  -1  -7   88.66    3.26
   0   1   7    2.82    0.63
   0  -1  -7    2.76    0.73
   0  -1  -7    3.64    0.85
  -1   1   7   84.61    2.62
   1  -1  -7   85.19    3.04
   1  -1  -7   86.22    2.94
  -2   1   7   57.36    2.13
   2  -1  -7   56.55    2.55
   2  -1  -7   60.71    2.47
  -3   1   7    1.60    0.56
   3  -1  -7    2.15    0.75
   3  -1  -7    0.81    0.71
  -4   1   7  111.77    3.37
   4  -1  -7  127.56    3.96
   4  -1  -7  125.66    3.35
   4  -1  -7  120.87    4.30
  -5   1   7    9.34    1.13
   5  -1  -7   12.15    1.44
   5  -1  -7   10.89    1.65
   5  -1  -7   10.41    1.22
  -6   1   7    1.83    0.76
  -6   1   7    4.03    0.83
   6  -1  -7    2.93    1.22
   6  -1  -7    3.90    0.91
  -7   1   7   11.04    1.43
   7  -1  -7    9.68    1.45
   7  -1  -7   11.74    2.17
  -8   1   7    2.83    1.23
  -9   1   7    9.27    1.89
   8   2   7    3.08    1.11
  -8  -2  -7    0.96    1.64
   7   2   7   19.84    1.97
  -7  -2  -7   20.66    2.95
   6   2   7    6.02    1.16
  -6  -2  -7    6.22    1.88
   5   2   7   63.27    2.69
   5   2   7   60.49    2.60
  -5  -2  -7   66.01    3.95
   4   2   7   -0.32    0.45
   4   2   7    0.38    0.59
  -4  -2  -7   -0.48    0.90
   3   2   7   45.28    1.78
   3   2   7   45.97    2.10
  -3  -2  -7   51.76    3.05
  -3  -2  -7   41.70    1.86
   2   2   7   71.89    2.60
  -2  -2  -7   72.27    2.52
  -2  -2  -7   71.63    3.17
   1   2   7    0.10    0.43
  -1  -2  -7    0.26    0.59
  -1  -2  -7    0.04    0.47
   0   2   7  163.48    4.10
   0  -2  -7  158.53    4.35
   0  -2  -7  168.01    4.55
  -1   2   7  131.72    3.59
   1  -2  -7  131.29    3.87
   1  -2  -7  130.50    3.89
  -2   2   7   87.90    2.87
   2  -2  -7   92.31    3.20
   2  -2  -7   94.74    3.22
  -3   2   7   64.51    2.45
  -3   2   7   59.95    2.04
   3  -2  -7   62.56    2.77
   3  -2  -7   63.81    2.72
  -4   2   7   13.62    1.35
  -4   2   7   16.10    1.39
   4  -2  -7   17.29    1.67
   4  -2  -7   15.85    1.74
  -5   2   7   15.88    1.52
   5  -2  -7   17.91    1.74
   5  -2  -7   19.53    1.46
   5  -2  -7   18.26    2.06
  -6   2   7   40.29    2.15
   6  -2  -7   47.41    2.45
   6  -2  -7   41.89    3.04
   6  -2  -7   47.63    2.43
  -7   2   7    3.53    0.97
   7  -2  -7    6.32    1.77
   7  -2  -7    1.76    0.90
  -8   2   7   18.42    2.27
  -8  -3  -7    4.09    2.00
   7   3   7    4.34    1.07
  -7  -3  -7    5.14    1.88
   6   3   7    0.11    0.68
  -6  -3  -7    0.95    1.33
   5   3   7    0.18    0.65
  -5  -3  -7    0.46    1.09
   4   3   7   14.41    1.43
  -4  -3  -7   13.98    2.08
   3   3   7   -0.30    0.45
  -3  -3  -7   -0.19    0.92
  -3  -3  -7   -0.03    0.50
   2   3   7   94.06    3.04
  -2  -3  -7   91.38    3.05
  -2  -3  -7   94.95    3.69
   1   3   7   23.77    1.47
  -1  -3  -7   21.79    1.53
  -1  -3  -7   21.51    1.61
   0   3   7    9.11    1.09
   0  -3  -7    8.32    1.14
   0  -3  -7    5.98    0.98
  -1   3   7   22.17    1.44
   1  -3  -7   19.74    1.72
   1  -3  -7   25.09    1.62
  -2   3   7   20.63    1.65
   2  -3  -7   17.30    1.57
   2  -3  -7   16.88    1.59
  -3   3   7   57.26    2.43
   3  -3  -7   57.15    2.61
   3  -3  -7   53.71    2.56
  -4   3   7   26.31    1.64
  -4   3   7   26.68    1.73
   4  -3  -7   26.48    1.98
   4  -3  -7   26.20    1.83
  -5   3   7    1.05    0.65
  -5   3   7    1.02    0.63
   5  -3  -7    0.85    0.62
   5  -3  -7    0.43    0.82
  -6   3   7    1.97    0.85
  -6   3   7    2.37    0.79
   6  -3  -7    2.75    0.92
   6  -3  -7    1.37    1.07
  -7   3   7    1.24    0.82
   7  -3  -7    1.33    0.81
   7  -3  -7    0.46    0.59
   7   4   7    3.26    1.02
  -7  -4  -7    5.18    1.90
   6   4   7    0.55    0.71
  -6  -4  -7    0.43    1.23
   5   4   7   18.69    1.75
  -5  -4  -7   17.18    2.43
   4   4   7    3.79    0.91
  -4  -4  -7    4.83    1.51
   3   4   7    3.99    0.87
  -3  -4  -7    7.27    1.46
  -3  -4  -7    4.96    0.92
   2   4   7    2.73    0.78
  -2  -4  -7    1.49    0.92
  -2  -4  -7    2.65    0.82
   1   4   7   14.65    1.38
  -1  -4  -7   16.11    1.63
  -1  -4  -7   17.76    1.59
   0   4   7   19.72    1.64
   0  -4  -7   19.76    1.62
   0  -4  -7   16.76    1.61
  -1   4   7    2.28    0.74
   1  -4  -7    2.19    0.77
   1  -4  -7    2.61    0.72
  -2   4   7    1.02    0.63
   2  -4  -7    1.78    0.70
   2  -4  -7    2.09    0.83
  -3   4   7   18.86    1.71
   3  -4  -7   20.53    1.75
   3  -4  -7   20.09    1.84
  -4   4   7    0.56    0.65
  -4   4   7    2.13    0.78
   4  -4  -7    2.01    0.83
   4  -4  -7    3.15    0.93
  -5   4   7   12.25    1.47
  -5   4   7   15.72    1.70
   5  -4  -7    9.50    1.38
  -6   4   7   13.13    1.71
  -6   4   7   12.11    1.50
   6  -4  -7   11.74    1.55
   6  -4  -7   11.53    1.34
   7  -4  -7    1.26    0.74
  -7  -5  -7    4.61    1.80
   6   5   7   18.29    1.80
  -6  -5  -7   16.70    2.59
   5   5   7   -0.23    0.59
  -5  -5  -7   -0.80    0.97
   4   5   7   34.80    2.01
  -4  -5  -7   35.46    3.24
   3   5   7   33.21    1.91
  -3  -5  -7   27.67    2.56
  -3  -5  -7   27.02    1.85
   2   5   7   31.38    1.85
  -2  -5  -7   35.48    2.28
  -2  -5  -7   34.81    2.04
   1   5   7   93.75    3.23
  -1  -5  -7   99.33    3.43
  -1  -5  -7   98.47    3.54
   0   5   7    5.37    0.99
   0  -5  -7    4.96    1.07
   0  -5  -7    4.30    0.87
  -1   5   7    0.38    0.53
   1  -5  -7    0.43    0.65
   1  -5  -7    1.60    0.63
  -2   5   7  111.43    3.73
   2  -5  -7  108.52    3.88
   2  -5  -7  108.39    3.32
  -3   5   7    6.52    1.15
   3  -5  -7    8.63    1.30
  -4   5   7   45.73    2.49
   4  -5  -7   45.55    2.52
  -5   5   7   11.00    1.48
   5  -5  -7    8.82    1.36
   6  -5  -7   38.78    2.39
   6  -5  -7   36.79    2.10
   7  -5  -7   10.79    1.45
   8  -5  -7    2.16    0.95
  -7  -6  -7    1.52    1.51
  -6  -6  -7    7.28    2.00
   5   6   7   26.41    1.88
  -5  -6  -7   24.67    2.89
   4   6   7    0.82    0.65
  -4  -6  -7   -0.44    0.99
   3   6   7   18.84    1.71
  -3  -6  -7   15.61    2.05
  -3  -6  -7   13.04    1.52
   2   6   7   13.76    1.42
  -2  -6  -7   13.91    1.59
  -2  -6  -7   13.17    1.64
   1   6   7   19.42    1.72
  -1  -6  -7   18.87    1.68
  -1  -6  -7   25.04    2.11
   0   6   7   95.36    3.37
   0  -6  -7   90.67    3.54
  -1   6   7    4.05    0.92
   1  -6  -7    5.84    1.12
  -2   6   7   15.96    1.69
   2  -6  -7   16.74    1.75
  -3   6   7   29.35    2.00
   3  -6  -7   28.98    2.07
  -4   6   7    0.93    0.73
   4  -6  -7    0.26    0.62
  -5   6   7    7.19    1.29
   5  -6  -7    7.29    1.36
   6  -6  -7   27.78    2.13
   6  -6  -7   26.61    1.90
   7  -6  -7    0.21    0.67
   8  -6  -7   14.81    1.82
  -7  -7  -7   -0.65    1.32
  -6  -7  -7   -0.62    1.20
   5   7   7    3.19    0.94
  -5  -7  -7    1.10    1.28
   4   7   7    3.11    0.88
  -4  -7  -7    0.36    1.09
   3   7   7    4.54    0.99
  -3  -7  -7    7.95    1.35
  -3  -7  -7    5.27    1.40
   2   7   7    2.83    0.83
  -2  -7  -7    4.18    1.05
   1   7   7    3.13    0.87
  -1  -7  -7    2.38    0.90
   0   7   7    5.61    1.05
   0  -7  -7    6.92    1.28
  -1   7   7    4.71    1.00
   1  -7  -7    3.92    1.06
  -2   7   7    3.08    0.93
   2  -7  -7    2.61    0.95
  -3   7   7   13.24    1.65
   3  -7  -7   16.85    1.89
  -4   7   7   -0.26    0.63
   4  -7  -7    0.23    0.77
  -5   7   7    7.88    1.46
   5  -7  -7   13.98    1.78
   6  -7  -7   -1.45    0.68
   6  -7  -7    0.72    0.66
   7  -7  -7   -0.64    0.68
   8  -7  -7    2.62    1.02
  -6  -8  -7   -0.04    1.36
  -5  -8  -7    4.91    1.69
   4   8   7   -0.85    0.60
   3   8   7    0.85    0.70
  -3  -8  -7    0.48    0.81
   2   8   7    9.50    1.32
  -2  -8  -7    9.05    1.44
   1   8   7    1.04    0.71
  -1  -8  -7    0.70    0.74
   0   8   7   17.41    1.80
   0  -8  -7   16.26    1.87
  -1   8   7   26.42    2.24
   1  -8  -7   26.10    2.37
  -2   8   7   20.82    2.07
   2  -8  -7   24.70    2.35
  -3   8   7    5.99    1.29
   3  -8  -7    2.18    1.01
  -4   8   7    1.45    0.84
   4  -8  -7    2.02    1.01
  -5   8   7    0.95    0.82
   5  -8  -7    0.90    0.96
  -6   8   7    4.92    1.29
   6  -8  -7    7.77    1.53
   6  -8  -7    2.89    1.00
   7  -8  -7    1.15    0.78
  -4  -9  -7    6.82    1.46
   3   9   7   23.20    2.04
  -3  -9  -7   19.23    2.16
   2   9   7    9.05    1.34
  -2  -9  -7    8.82    1.57
   1   9   7   11.32    1.58
  -1  -9  -7   10.73    1.69
   0   9   7   -0.19    0.51
   0  -9  -7   -0.07    0.68
  -1   9   7   21.84    2.15
   1  -9  -7   21.48    2.25
  -2   9   7   10.75    1.59
   2  -9  -7    9.79    1.60
  -3   9   7    0.64    0.82
   3  -9  -7    0.62    0.87
  -4   9   7   45.48    2.89
   4  -9  -7   51.68    3.08
  -5   9   7    5.09    1.29
   5  -9  -7    4.81    1.40
  -6   9   7    0.74    0.88
   6  -9  -7    0.28    1.01
   6  -9  -7    0.13    0.70
  -4 -10  -7   -0.90    0.88
  -3 -10  -7    4.54    1.36
   2  10   7    1.15    0.84
  -2 -10  -7    2.04    1.09
   1  10   7    1.94    0.93
  -1 -10  -7    3.11    1.12
   0  10   7    7.10    1.30
   0 -10  -7    7.58    1.49
  -1  10   7    3.80    1.07
   1 -10  -7    5.52    1.31
  -2  10   7   15.33    1.94
   2 -10  -7    9.89    1.69
  -3  10   7    6.01    1.34
   3 -10  -7    7.69    1.58
  -4  10   7    2.74    1.06
   4 -10  -7    2.46    1.13
  -5  10   7    0.18    0.79
   5 -10  -7    1.77    1.13
  -3 -11  -7    1.60    1.17
  -2 -11  -7    0.01    0.94
   1  11   7   -0.56    0.72
  -1 -11  -7   -0.23    0.86
   0  11   7   -0.03    0.76
   0 -11  -7    1.52    0.99
  -1  11   7    1.85    0.99
   1 -11  -7    1.97    1.09
  -2  11   7   -0.65    0.76
   2 -11  -7   -0.86    0.84
  -3  11   7    0.63    0.88
   3 -11  -7    0.74    1.09
  -4  11   7    0.49    0.88
   4 -11  -7   -1.23    0.82
   5 -11  -7    0.77    1.07
  -3 -12  -7   10.78    2.02
  -2 -12  -7    2.07    1.22
  -1 -12  -7    0.48    1.00
   0  12   7    8.13    1.51
   0 -12  -7    9.70    1.79
  -1  12   7    2.55    1.09
   1 -12  -7    3.65    1.36
  -2  12   7    2.65    1.14
   2 -12  -7    4.15    1.36
  -3  12   7    3.46    1.21
   3 -12  -7   -0.55    1.01
   0  13   7    2.22    1.13
  -1  13   7    1.60    1.10
   0 -12   8   -0.93    0.88
  -1 -12   8    1.97    1.27
   1  12  -8    6.66    2.12
  -2 -12   8    0.41    1.08
   1 -11   8   23.96    2.41
  -1  11  -8   26.27    3.67
   0 -11   8    5.02    1.39
   0  11  -8    1.75    1.74
  -1 -11   8    1.87    1.13
   1  11  -8    0.56    1.48
  -2 -11   8   10.98    1.84
   2  11  -8   14.96    2.51
  -3 -11   8    3.33    1.37
   3  11  -8    3.27    1.49
   4 -10   8   12.92    1.81
   3 -10   8    8.67    1.45
  -2  10  -8    3.79    1.87
   1 -10   8    0.45    0.87
  -1  10  -8    2.29    1.62
   0 -10   8    4.79    1.25
   0  10  -8    5.36    1.80
  -1 -10   8   15.81    2.00
   1  10  -8   19.16    2.75
  -2 -10   8   -0.50    0.87
   2  10  -8    0.72    1.12
   2  10  -8   -0.39    1.02
  -3 -10   8   10.19    1.73
   3  10  -8   12.62    2.23
   3  10  -8   12.17    2.11
  -4 -10   8    7.00    1.55
   4  10  -8    7.32    2.03
  -5 -10   8    2.50    1.26
   5  10  -8    1.69    1.56
   5  -9   8    1.11    0.95
   4  -9   8    1.50    0.93
   3  -9   8   -0.38    0.69
   2  -9   8   -0.26    0.61
  -2   9  -8   -0.51    1.16
   1  -9   8    0.37    0.73
  -1   9  -8    0.38    1.33
   0  -9   8    0.14    0.70
   0   9  -8   -0.12    1.17
   0   9  -8    1.89    0.99
  -1  -9   8    0.02    0.72
   1   9  -8   -1.31    0.74
   1   9  -8   -0.91    0.96
  -2  -9   8    1.20    0.86
   2   9  -8    0.03    1.01
   2   9  -8    2.19    1.18
  -3  -9   8    5.13    1.29
   3   9  -8    4.97    1.45
   3   9  -8    2.18    1.36
  -4  -9   8    0.13    0.77
   4   9  -8   -0.36    0.80
   4   9  -8   -1.36    0.99
  -5  -9   8   -0.24    0.89
   5   9  -8    0.09    1.36
  -6  -9   8    2.06    1.18
   6   9  -8   -0.89    1.28
   5  -8   8    8.45    1.47
   4  -8   8   14.01    1.72
   3  -8   8    3.06    0.96
   2  -8   8   18.79    1.77
  -2   8  -8   23.10    2.89
  -2   8  -8   19.59    2.18
   1  -8   8    0.33    0.72
  -1   8  -8    1.40    1.31
  -1   8  -8    0.34    0.77
   0  -8   8   12.28    1.58
   0   8  -8   11.87    2.14
   0   8  -8   11.28    1.70
  -1  -8   8   59.48    2.93
   1   8  -8   59.92    3.52
   1   8  -8   56.10    3.26
  -2  -8   8    4.76    1.19
   2   8  -8    3.15    1.18
   2   8  -8    6.58    1.52
  -3  -8   8   24.50    2.35
   3   8  -8   23.18    2.40
   3   8  -8   19.58    2.48
  -4  -8   8    2.34    1.08
   4   8  -8    0.86    1.11
   4   8  -8    1.10    0.92
  -5  -8   8   -0.67    0.84
   5   8  -8   -2.39    0.79
  -6  -8   8    5.74    1.54
   6   8  -8    7.66    2.22
  -7  -8   8   -0.18    0.94
   6  -7   8   17.24    2.05
   5  -7   8    2.54    0.96
   4  -7   8    2.98    0.96
  -4   7  -8    0.58    0.91
   3  -7   8   22.53    1.95
  -3   7  -8   18.32    2.03
   2  -7   8    8.40    1.24
  -2   7  -8   10.26    1.61
   1  -7   8   62.77    2.54
   1  -7   8   61.96    2.74
  -1   7  -8   63.67    3.20
  -1   7  -8   58.50    3.64
   0  -7   8   27.46    1.97
   0   7  -8   31.82    2.69
   0   7  -8   34.85    3.12
  -1  -7   8   14.85    1.65
   1   7  -8   17.72    2.16
   1   7  -8   14.14    1.86
  -2  -7   8   25.47    1.95
   2   7  -8   27.25    2.50
   2   7  -8   28.40    2.71
  -3  -7   8   15.19    1.84
   3   7  -8   17.08    1.93
   3   7  -8   15.72    2.16
  -4  -7   8   13.80    1.80
   4   7  -8   13.54    1.77
   4   7  -8   11.40    2.01
  -5  -7   8   24.98    2.43
   5   7  -8   25.05    3.08
  -6  -7   8    2.41    1.17
   6   7  -8    3.16    1.65
  -7  -7   8   12.98    1.99
   7   7  -8   14.52    2.80
  -8  -7   8   -0.25    1.04
   6  -6   8   -0.47    0.73
  -6   6  -8    0.41    1.06
   5  -6   8    9.60    1.47
  -5   6  -8    8.13    1.60
   4  -6   8    4.00    1.03
  -4   6  -8    4.89    1.22
   3  -6   8    0.96    0.71
  -3   6  -8    1.70    0.89
   2  -6   8    3.09    0.88
   2  -6   8    2.75    0.78
  -2   6  -8    0.27    0.75
   1  -6   8    0.97    0.67
   1  -6   8    2.69    0.78
  -1   6  -8    0.84    0.77
   0  -6   8    0.53    0.55
   0  -6   8   -0.73    0.56
   0   6  -8    0.70    0.76
  -1  -6   8   10.45    1.38
   1   6  -8   11.12    1.65
  -2  -6   8   -0.41    0.58
   2   6  -8   -0.37    0.68
  -3  -6   8   13.51    1.68
   3   6  -8   12.94    1.97
  -4  -6   8   -0.54    0.60
   4   6  -8    0.12    0.91
  -5  -6   8   -0.40    0.61
   5   6  -8    0.09    1.02
  -6  -6   8    4.99    1.28
   6   6  -8    4.27    1.66
  -7  -6   8   -1.02    0.80
   7   6  -8   -0.50    1.23
  -8  -6   8    1.84    1.18
   7  -5   8    0.74    0.79
  -7   5  -8    1.08    1.29
   6  -5   8    0.06    0.68
  -6   5  -8    0.50    1.08
   5  -5   8    0.25    0.72
  -5   5  -8    1.03    1.05
   4  -5   8    3.61    0.97
  -4   5  -8    2.43    1.08
   3  -5   8    8.84    1.24
  -3   5  -8    7.98    1.44
   2  -5   8    9.79    1.16
   2  -5   8    8.98    1.16
  -2   5  -8    9.45    1.44
   1  -5   8   12.03    1.31
   1  -5   8    8.80    1.12
  -1   5  -8   10.08    1.51
   0  -5   8   20.07    1.32
   0  -5   8   14.37    1.48
   0   5  -8   14.87    1.77
  -1  -5   8    0.96    0.65
  -1  -5   8    1.01    0.54
   1   5  -8    1.54    0.88
  -2  -5   8    2.15    0.83
   2   5  -8    3.37    1.04
  -3  -5   8    2.11    0.84
   3   5  -8    1.35    0.94
  -4  -5   8   14.93    1.76
   4   5  -8   12.57    1.97
  -5  -5   8    9.84    1.54
   5   5  -8    9.11    1.93
  -6  -5   8    0.22    0.71
   6   5  -8   -0.63    0.92
  -7  -5   8    3.42    1.21
   7   5  -8    3.48    1.69
  -8  -5   8   -0.23    1.00
   8   5  -8    1.39    1.59
   7  -4   8   -0.44    0.74
  -7   4  -8   -0.71    1.14
   6  -4   8    0.47    0.71
  -6   4  -8    1.17    1.08
   5  -4   8   44.11    2.45
  -5   4  -8   42.26    2.98
   4  -4   8   13.56    1.53
  -4   4  -8   16.51    2.03
   3  -4   8   24.08    1.92
  -3   4  -8   20.03    2.09
   2  -4   8   78.37    2.81
   2  -4   8   74.29    2.59
  -2   4  -8   72.79    3.28
   1  -4   8   19.78    1.39
   1  -4   8   20.33    1.48
  -1   4  -8   16.48    1.77
   0  -4   8    1.63    0.62
   0  -4   8    3.20    0.83
   0   4  -8    1.69    0.87
  -1  -4   8   55.31    2.53
  -1  -4   8   56.74    2.01
   1   4  -8   48.76    2.73
  -2  -4   8    0.37    0.63
   2   4  -8    0.10    0.72
  -3  -4   8   82.57    3.37
   3   4  -8   90.42    4.04
  -4  -4   8    4.73    1.07
   4   4  -8    2.83    1.13
  -5  -4   8   10.30    1.54
   5   4  -8    8.14    1.72
  -6  -4   8   41.71    2.55
   6   4  -8   37.90    3.57
  -7  -4   8    9.49    1.59
   7   4  -8   14.95    2.59
   8   4  -8    5.20    2.03
   7  -3   8    9.81    1.56
  -7   3  -8   12.65    2.36
   6  -3   8    8.00    1.36
  -6   3  -8   12.57    2.12
   5  -3   8    0.81    0.64
  -5   3  -8    1.88    1.06
   4  -3   8   43.72    2.28
  -4   3  -8   44.19    2.83
   3  -3   8   36.16    2.02
  -3   3  -8   41.95    2.62
   2  -3   8    7.26    0.95
   2  -3   8    5.87    0.95
  -2   3  -8    6.03    1.21
   1  -3   8  116.81    3.47
   1  -3   8  114.95    3.37
  -1   3  -8  110.27    4.06
   0  -3   8   23.65    1.43
   0  -3   8   24.56    1.59
   0   3  -8   23.71    2.11
  -1  -3   8   19.01    1.70
  -1  -3   8   24.22    1.35
   1   3  -8   21.26    2.03
  -2  -3   8    0.94    0.47
  -2  -3   8    0.69    0.64
   2   3  -8    0.65    0.72
  -3  -3   8   14.65    1.63
   3   3  -8   14.25    1.89
  -4  -3   8   38.38    2.27
   4   3  -8   35.31    2.60
  -5  -3   8   18.88    1.90
   5   3  -8   16.55    2.29
  -6  -3   8    1.57    0.88
   6   3  -8    1.45    1.18
  -7  -3   8   26.42    2.39
   7   3  -8   31.36    3.48
   8   3  -8    2.40    1.64
  -8   2  -8   -0.94    1.09
   7  -2   8    0.16    0.80
  -7   2  -8   -0.70    1.10
   6  -2   8    1.78    0.87
  -6   2  -8    0.41    1.04
   5  -2   8    7.92    1.25
  -5   2  -8   11.17    1.96
   4  -2   8   -0.03    0.58
  -4   2  -8   -0.24    0.87
   3  -2   8    0.47    0.55
  -3   2  -8    0.55    0.79
   2  -2   8   39.95    1.95
   2  -2   8   40.52    1.79
  -2   2  -8   39.15    2.47
   1  -2   8    0.98    0.63
   1  -2   8    0.17    0.51
  -1   2  -8    0.84    0.73
   0  -2   8   -0.77    0.39
   0  -2   8    0.02    0.53
   0   2  -8    1.00    0.75
  -1  -2   8    8.79    1.22
  -1  -2   8   10.16    1.02
   1   2  -8    9.77    1.40
  -2  -2   8    0.78    0.47
  -2  -2   8    0.32    0.60
   2   2  -8    0.19    0.71
  -3  -2   8    0.71    0.47
  -3  -2   8    1.34    0.71
   3   2  -8    0.19    0.77
  -4  -2   8   21.12    1.92
   4   2  -8   21.54    2.30
  -5  -2   8   -0.62    0.60
   5   2  -8   -0.45    0.92
  -6  -2   8   -0.31    0.63
   6   2  -8    1.25    1.11
  -7  -2   8    6.25    1.28
   7   2  -8    6.61    1.86
   8   2  -8   -0.97    1.34
   8  -1   8    4.04    1.20
  -8   1  -8    3.33    1.79
   7  -1   8   -0.62    0.74
  -7   1  -8    2.67    1.58
   6  -1   8   28.60    2.01
  -6   1  -8   33.73    3.39
   5  -1   8   -0.02    0.60
  -5   1  -8   -0.21    0.83
   4  -1   8    6.28    1.10
  -4   1  -8    6.26    1.42
   3  -1   8   17.05    1.55
  -3   1  -8   20.05    2.14
   2  -1   8    7.36    1.06
   2  -1   8    7.99    0.97
  -2   1  -8    8.59    1.42
   1  -1   8   44.42    1.99
   1  -1   8   47.69    2.09
  -1   1  -8   46.69    2.48
   0  -1   8    0.59    0.50
   0  -1   8    0.84    0.58
   0   1  -8    1.54    0.67
   0   1  -8    0.35    0.61
  -1  -1   8   40.10    2.08
  -1  -1   8   40.62    1.73
   1   1  -8   42.87    2.11
   1   1  -8   42.68    2.35
  -2  -1   8   97.21    2.75
  -2  -1   8   87.00    3.29
   2   1  -8   88.98    3.55
  -3  -1   8    1.78    0.75
  -3  -1   8    2.44    0.62
   3   1  -8    4.33    1.18
  -4  -1   8    0.14    0.44
  -4  -1   8   -0.50    0.50
   4   1  -8    0.20    0.76
  -5  -1   8   68.74    3.06
   5   1  -8   66.59    3.62
  -6  -1   8    4.03    1.06
   6   1  -8    4.69    1.50
  -7  -1   8    1.61    0.85
   7   1  -8    1.99    1.47
   8   1  -8    2.51    1.61
  -9  -1   8    0.66    1.05
   8   0   8    5.03    1.27
   7   0   8   32.43    2.29
  -7   0  -8   33.49    3.76
   6   0   8   11.72    1.54
  -6   0  -8   12.66    2.34
   5   0   8    9.89    1.37
  -5   0  -8    8.19    1.79
   4   0   8   65.50    2.74
  -4   0  -8   62.22    3.50
   3   0   8   58.61    2.50
  -3   0  -8   61.88    3.22
   2   0   8    4.65    0.88
  -2   0  -8    5.61    0.86
  -2   0  -8    8.04    1.38
   1   0   8    4.14    0.82
  -1   0  -8    3.70    0.99
  -1   0  -8    2.69    0.74
   0   0   8  193.64    4.59
   0   0  -8  196.06    4.95
   0   0  -8  186.25    5.38
  -1   0   8  209.04    4.76
   1   0  -8  205.60    5.31
   1   0  -8  202.01    5.66
  -2   0   8    7.51    0.96
   2   0  -8    8.58    1.20
   2   0  -8    7.85    1.24
  -3   0   8  142.04    3.77
   3   0  -8  149.44    4.47
   3   0  -8  143.82    4.81
  -4   0   8   24.87    1.83
  -4   0   8   26.86    1.47
   4   0  -8   25.84    2.41
   4   0  -8   24.36    1.80
  -5   0   8   10.24    1.13
  -5   0   8    7.11    1.20
   5   0  -8    6.34    1.49
  -6   0   8    0.17    0.61
   6   0  -8    1.64    1.13
  -7   0   8   11.62    1.60
   7   0  -8   12.59    2.26
   8   0  -8   15.16    2.68
  -9   0   8    4.63    1.54
   8   1   8    5.52    1.38
   7   1   8   -0.41    0.75
  -7  -1  -8    1.20    1.44
   6   1   8   34.56    2.19
  -6  -1  -8   30.98    3.44
   5   1   8   -0.07    0.59
  -5  -1  -8   -0.49    0.96
   4   1   8    5.73    1.04
  -4  -1  -8    4.60    1.38
   3   1   8   18.35    1.63
  -3  -1  -8   18.34    2.06
   2   1   8    7.14    1.02
  -2  -1  -8    7.09    1.37
  -2  -1  -8    9.11    1.08
   1   1   8   48.53    2.10
  -1  -1  -8   44.68    2.07
  -1  -1  -8   52.36    2.59
   0   1   8    0.74    0.56
   0  -1  -8   -0.13    0.61
   0  -1  -8    0.26    0.53
  -1   1   8   44.91    1.96
   1  -1  -8   41.24    2.31
   1  -1  -8   41.36    2.16
  -2   1   8   93.22    2.99
   2  -1  -8   92.59    3.35
   2  -1  -8   98.39    3.60
  -3   1   8    2.71    0.71
   3  -1  -8    2.98    0.88
   3  -1  -8    3.13    1.03
  -4   1   8    0.59    0.53
   4  -1  -8    1.53    0.74
   4  -1  -8    0.06    0.67
  -5   1   8   68.86    2.68
   5  -1  -8   75.55    3.16
   5  -1  -8   74.38    3.73
  -6   1   8    3.27    0.94
   6  -1  -8    4.40    1.44
  -7   1   8    0.93    0.73
   7  -1  -8    1.17    1.29
   8  -1  -8    3.31    1.78
  -9   1   8    3.12    1.28
   8   2   8    0.24    0.89
   7   2   8    0.11    0.77
  -7  -2  -8    0.41    1.47
   6   2   8    1.12    0.83
  -6  -2  -8    2.22    1.44
   5   2   8    8.53    1.30
  -5  -2  -8    6.85    1.73
   4   2   8   -0.12    0.55
  -4  -2  -8    0.39    0.97
   3   2   8    1.54    0.66
  -3  -2  -8    1.33    0.60
  -3  -2  -8   -0.52    0.74
   2   2   8   39.12    1.97
  -2  -2  -8   36.32    2.39
  -2  -2  -8   37.81    1.93
   1   2   8    0.04    0.49
  -1  -2  -8   -0.27    0.51
  -1  -2  -8    0.85    0.71
   0   2   8    0.37    0.46
   0  -2  -8   -0.49    0.56
   0  -2  -8   -0.48    0.56
  -1   2   8   10.02    1.17
   1  -2  -8    7.74    1.14
   1  -2  -8   12.36    1.47
  -2   2   8   -0.29    0.47
   2  -2  -8    0.08    0.58
   2  -2  -8   -0.37    0.54
  -3   2   8    0.74    0.57
   3  -2  -8    0.97    0.78
   3  -2  -8    1.76    0.80
  -4   2   8   20.91    1.72
   4  -2  -8   19.65    2.02
   4  -2  -8   18.74    1.81
  -5   2   8    0.36    0.56
   5  -2  -8    1.54    0.75
   5  -2  -8   -0.34    0.81
  -6   2   8   -0.05    0.58
   6  -2  -8   -1.19    0.80
   6  -2  -8   -0.67    0.58
  -7   2   8    4.67    1.09
   7  -2  -8    3.93    1.57
   7   3   8    7.75    1.41
  -7  -3  -8    9.63    2.46
   6   3   8    7.08    1.27
  -6  -3  -8    8.72    2.06
   5   3   8    0.74    0.66
  -5  -3  -8    1.02    1.18
   4   3   8   48.39    2.36
  -4  -3  -8   42.71    3.15
   3   3   8   43.97    2.14
  -3  -3  -8   37.64    2.66
  -3  -3  -8   37.45    1.94
   2   3   8    5.99    1.03
  -2  -3  -8    5.97    1.02
  -2  -3  -8    7.23    1.34
   1   3   8  112.45    3.53
  -1  -3  -8  113.49    3.68
  -1  -3  -8  110.00    3.87
   0   3   8   28.46    1.68
   0  -3  -8   27.32    1.80
   0  -3  -8   29.92    1.87
  -1   3   8   21.01    1.50
   1  -3  -8   21.84    1.70
   1  -3  -8   21.31    1.86
  -2   3   8    0.05    0.51
   2  -3  -8    0.47    0.67
   2  -3  -8    0.06    0.64
  -3   3   8   12.12    1.39
   3  -3  -8   12.99    1.54
   3  -3  -8   14.59    1.63
  -4   3   8   37.94    2.09
   4  -3  -8   36.83    2.37
   4  -3  -8   34.75    2.21
  -5   3   8   19.98    1.86
   5  -3  -8   17.66    2.09
   5  -3  -8   21.87    2.05
  -6   3   8    0.93    0.71
   6  -3  -8    0.43    1.00
   6  -3  -8    1.66    0.79
  -7   3   8   24.20    2.21
   7  -3  -8   28.05    2.14
   7   4   8    1.51    0.95
  -7  -4  -8   -0.63    1.25
   6   4   8    0.60    0.82
  -6  -4  -8   -0.11    1.19
   5   4   8   53.93    2.67
  -5  -4  -8   45.37    3.56
   4   4   8   10.54    1.37
  -4  -4  -8   10.63    1.87
   3   4   8   20.74    1.81
  -3  -4  -8   18.08    2.11
  -3  -4  -8   18.90    1.67
   2   4   8   82.63    2.99
  -2  -4  -8   76.17    3.01
  -2  -4  -8   74.21    3.32
   1   4   8   17.29    1.59
  -1  -4  -8   22.51    1.92
  -1  -4  -8   20.55    1.86
   0   4   8    2.96    0.80
   0  -4  -8    2.59    0.84
   0  -4  -8    3.08    0.89
  -1   4   8   57.84    2.53
   1  -4  -8   56.34    2.52
   1  -4  -8   59.04    2.78
  -2   4   8    0.49    0.61
   2  -4  -8    0.15    0.60
   2  -4  -8    0.48    0.70
  -3   4   8   87.90    3.37
   3  -4  -8   84.87    3.47
   3  -4  -8   95.50    3.47
  -4   4   8    3.04    0.90
   4  -4  -8    3.88    1.06
   4  -4  -8    4.67    1.08
  -5   4   8    8.47    1.35
   5  -4  -8    6.86    1.31
  -6   4   8   41.80    2.47
   6  -4  -8   40.70    2.47
  -7   4   8   12.40    1.68
   7  -4  -8   13.55    1.78
  -7  -5  -8    0.25    1.45
   6   5   8    0.47    0.83
  -6  -5  -8   -0.21    1.11
   5   5   8    0.29    0.64
  -5  -5  -8   -0.25    1.15
   4   5   8    3.23    0.91
  -4  -5  -8    2.82    1.41
   3   5   8    4.62    0.96
  -3  -5  -8    7.05    1.16
  -3  -5  -8    7.58    1.49
   2   5   8    8.26    1.19
  -2  -5  -8    8.73    1.28
  -2  -5  -8   10.17    1.53
   1   5   8   10.32    1.31
  -1  -5  -8   11.60    1.43
  -1  -5  -8   10.32    1.40
   0   5   8   17.49    1.70
   0  -5  -8   16.54    1.74
   0  -5  -8   16.49    1.56
  -1   5   8    1.65    0.75
   1  -5  -8    1.09    0.72
   1  -5  -8    0.83    0.65
  -2   5   8    0.57    0.61
   2  -5  -8    4.78    1.07
  -3   5   8    3.43    0.95
   3  -5  -8    2.75    0.92
  -4   5   8   15.51    1.77
   4  -5  -8   12.37    1.68
  -5   5   8   10.15    1.45
   5  -5  -8    7.44    1.37
  -6   5   8    0.75    0.79
   6  -5  -8    0.18    0.74
  -7   5   8    5.62    1.29
  -8   5   8    2.47    1.08
  -7  -6  -8    0.98    1.65
   6   6   8    0.83    0.85
  -6  -6  -8    1.36    1.60
   5   6   8    7.88    1.30
   4   6   8    7.29    1.21
  -4  -6  -8    7.56    1.71
   3   6   8    1.60    0.75
  -3  -6  -8    0.77    0.75
  -3  -6  -8    2.62    1.13
   2   6   8    2.18    0.75
  -2  -6  -8    2.26    0.93
  -2  -6  -8    2.79    1.02
   1   6   8    1.63    0.73
  -1  -6  -8    1.57    0.80
  -1  -6  -8    1.91    0.80
   0   6   8   -0.15    0.58
   0  -6  -8    0.04    0.62
  -1   6   8   10.35    1.39
   1  -6  -8   11.03    1.59
  -2   6   8    0.14    0.60
   2  -6  -8   -0.30    0.72
  -3   6   8   12.31    1.61
   3  -6  -8   14.09    1.78
  -4   6   8   -1.18    0.46
   4  -6  -8   -0.08    0.73
  -5   6   8    1.72    0.84
   5  -6  -8    1.61    0.87
  -6   6   8    5.24    1.26
   6  -6  -8    3.85    1.14
  -7   6   8   -0.30    0.77
  -8   6   8    2.36    1.13
  -6  -7  -8   10.02    2.23
   5   7   8    1.95    0.90
  -5  -7  -8    0.71    1.37
   4   7   8    2.84    0.95
  -4  -7  -8    2.77    1.33
   3   7   8   21.63    1.98
  -3  -7  -8   23.21    2.38
  -3  -7  -8   24.68    2.28
   2   7   8   10.74    1.43
  -2  -7  -8    9.14    1.50
   1   7   8   66.05    2.92
  -1  -7  -8   61.33    3.08
   0   7   8   32.42    2.11
   0  -7  -8   28.20    2.17
  -1   7   8   14.92    1.69
   1  -7  -8   14.20    1.80
  -2   7   8   25.48    2.28
   2  -7  -8   30.90    2.23
  -3   7   8   16.20    1.87
   3  -7  -8   13.90    1.81
  -4   7   8   14.95    1.90
   4  -7  -8   14.11    1.92
  -5   7   8   22.46    2.33
   5  -7  -8   24.32    2.41
  -6   7   8    2.46    1.05
   6  -7  -8    4.64    1.31
  -7   7   8   12.56    1.97
   4   8   8   12.09    1.60
   3   8   8    5.29    1.16
  -3  -8  -8    6.21    1.30
   2   8   8   21.21    1.97
  -2  -8  -8   19.37    2.10
   1   8   8   -0.45    0.54
  -1  -8  -8   -0.60    0.71
   0   8   8    9.99    1.45
   0  -8  -8   12.73    1.77
  -1   8   8   57.90    2.93
   1  -8  -8   55.74    3.15
  -2   8   8    3.73    1.06
   2  -8  -8    2.14    0.96
  -3   8   8   20.05    2.18
   3  -8  -8   23.19    2.39
  -4   8   8    1.18    0.93
   4  -8  -8    3.31    1.17
  -5   8   8    0.09    0.75
   5  -8  -8    0.31    0.79
  -6   8   8    5.24    1.36
   6  -8  -8    6.31    1.45
  -7   8   8   -0.33    0.86
   3   9   8    0.23    0.78
  -3  -9  -8   -0.04    0.80
   2   9   8   -0.58    0.64
  -2  -9  -8   -0.07    0.76
   1   9   8    2.79    0.92
  -1  -9  -8    1.92    1.06
   0   9   8    0.03    0.69
   0  -9  -8    0.79    0.89
  -1   9   8   -0.63    0.58
   1  -9  -8    0.10    0.75
  -2   9   8    1.66    0.86
   2  -9  -8    1.48    0.98
  -3   9   8    4.42    1.18
   3  -9  -8    6.74    1.50
  -4   9   8   -0.24    0.75
   4  -9  -8   -0.37    0.86
  -5   9   8   -0.11    0.85
   5  -9  -8   -1.26    0.69
  -6   9   8    1.89    1.06
   6  -9  -8    0.27    0.97
   3  10   8    8.52    1.49
  -3 -10  -8    6.70    1.57
   2  10   8    2.69    1.06
  -2 -10  -8    4.05    1.32
   1  10   8    0.96    0.87
  -1 -10  -8    1.51    1.11
   0  10   8    7.36    1.40
   0 -10  -8    4.92    1.41
  -1  10   8   12.70    1.75
   1 -10  -8   15.90    2.13
  -2  10   8    0.42    0.78
   2 -10  -8   -0.09    0.81
  -3  10   8   10.86    1.78
   3 -10  -8   14.33    2.08
  -4  10   8    5.47    1.35
   4 -10  -8    5.30    1.56
  -5  10   8    0.71    1.01
   5 -10  -8    1.85    1.11
   6 -10  -8    1.44    1.13
  -3 -11  -8   13.58    2.12
   2  11   8    0.71    0.87
  -2 -11  -8    0.89    1.04
   1  11   8   21.29    2.29
  -1 -11  -8   22.56    2.60
   0  11   8    3.38    1.14
   0 -11  -8    4.51    1.36
  -1  11   8    2.41    1.05
   1 -11  -8    0.43    1.00
  -2  11   8   12.49    1.90
   2 -11  -8   16.68    2.35
  -3  11   8    4.92    1.38
   3 -11  -8    4.28    1.41
   4 -11  -8    0.68    1.14
   1  12   8    6.40    1.47
  -1 -12  -8    9.24    1.81
   0  12   8   -0.50    0.89
   0 -12  -8    1.12    1.08
  -1  12   8    1.64    1.03
   1 -12  -8    3.18    1.34
  -2  12   8   -0.50    0.86
   0 -12   9    4.52    1.44
   0 -11   9   -0.55    0.94
  -1 -11   9    1.43    1.17
  -2 -11   9    1.03    1.09
   4 -10   9   10.61    1.70
   0 -10   9   -0.65    0.73
  -1 -10   9   10.10    1.76
  -2 -10   9   -0.25    0.93
   2  10  -9    0.58    1.23
  -3 -10   9   10.59    1.88
   3  10  -9   13.24    2.37
  -4 -10   9   11.81    2.07
   4  10  -9   13.45    2.54
   5  10  -9   -0.48    1.48
   4  -9   9   19.31    2.12
   3  -9   9   25.84    2.28
   1  -9   9   -0.42    0.81
   0  -9   9   24.37    2.34
   0   9  -9   32.28    2.99
  -1  -9   9    1.02    0.89
   1   9  -9   -0.16    1.01
  -2  -9   9    7.88    1.55
   2   9  -9   10.58    1.95
  -3  -9   9    6.14    1.47
   3   9  -9    8.92    1.99
  -4  -9   9    3.92    1.36
   4   9  -9    5.04    1.69
  -5  -9   9   27.88    2.79
   5   9  -9   34.04    3.81
   5  -8   9    5.57    1.29
   4  -8   9    4.44    1.17
   3  -8   9    7.21    1.29
  -3   8  -9   10.29    1.76
   2  -8   9   17.53    1.79
  -2   8  -9   17.38    2.17
   1  -8   9    1.01    0.77
  -1   8  -9   -0.78    0.78
   0  -8   9    3.63    1.11
   0   8  -9    4.49    1.32
  -1  -8   9    6.05    1.36
   1   8  -9    8.82    1.75
  -2  -8   9    1.31    0.88
   2   8  -9    0.97    0.98
  -3  -8   9    8.41    1.56
   3   8  -9    6.68    1.76
  -4  -8   9   17.26    2.13
   4   8  -9   16.61    2.59
  -5  -8   9   -0.87    0.81
   5   8  -9    1.48    1.41
  -6  -8   9    5.02    1.45
   6   8  -9    6.71    2.21
   5  -7   9   -0.05    0.69
   4  -7   9   10.38    1.51
  -4   7  -9   10.11    1.77
   3  -7   9    2.66    0.92
  -3   7  -9    4.75    1.37
   2  -7   9    1.40    0.79
  -2   7  -9    2.73    1.11
   1  -7   9    9.06    1.35
   1  -7   9    8.38    1.23
  -1   7  -9   10.72    1.71
   0  -7   9    1.70    0.76
   0   7  -9    0.71    0.85
  -1  -7   9   14.83    1.78
   1   7  -9   12.86    1.92
  -2  -7   9    1.26    0.84
   2   7  -9    2.88    1.21
  -3  -7   9    1.55    0.96
   3   7  -9   -0.46    0.96
  -4  -7   9    3.76    1.22
   4   7  -9    1.67    1.24
  -5  -7   9    6.95    1.48
   5   7  -9    2.99    1.58
  -6  -7   9   -0.48    0.94
   6   7  -9   -0.59    1.22
  -7  -7   9    8.13    1.72
   6  -6   9    0.66    0.84
  -6   6  -9    2.23    1.35
   5  -6   9   -1.02    0.64
  -5   6  -9    0.36    0.92
   4  -6   9   25.82    2.25
  -4   6  -9   32.14    2.87
   3  -6   9   10.36    1.43
  -3   6  -9   10.04    1.67
   2  -6   9   19.07    1.79
  -2   6  -9   25.17    2.42
   1  -6   9   35.58    2.10
   1  -6   9   33.45    1.93
  -1   6  -9   38.63    2.65
   0  -6   9   26.34    1.93
   0  -6   9   31.29    1.76
   0   6  -9   29.43    2.30
  -1  -6   9   22.69    2.04
   1   6  -9   28.25    2.64
  -2  -6   9   67.34    3.19
   2   6  -9   74.16    3.81
  -3  -6   9   15.21    1.83
   3   6  -9   16.49    2.27
  -4  -6   9   40.48    2.60
   4   6  -9   32.65    3.22
  -5  -6   9    2.37    1.05
   5   6  -9    1.81    1.43
  -6  -6   9    4.23    1.28
   6   6  -9    3.26    1.64
  -7  -6   9    3.87    1.39
   7   6  -9    2.60    1.68
  -7   5  -9    0.99    1.34
   6  -5   9    1.84    1.00
  -6   5  -9    2.01    1.23
   5  -5   9    5.50    1.19
  -5   5  -9    5.75    1.53
   4  -5   9    1.38    0.79
  -4   5  -9    1.45    1.05
   3  -5   9    4.97    1.03
  -3   5  -9    4.25    1.19
   2  -5   9   22.15    1.83
  -2   5  -9   17.55    2.02
   1  -5   9   58.03    2.57
   1  -5   9   55.97    2.40
  -1   5  -9   53.58    3.02
   0  -5   9  113.36    3.87
   0  -5   9  121.81    3.49
   0   5  -9  105.60    4.29
  -1  -5   9    0.32    0.63
   1   5  -9    0.22    0.81
  -2  -5   9  124.96    4.34
   2   5  -9  112.71    4.64
  -3  -5   9    3.84    1.04
   3   5  -9    3.98    1.22
  -4  -5   9    3.13    1.05
   4   5  -9    3.84    1.30
  -5  -5   9    5.40    1.26
   5   5  -9    4.21    1.57
  -6  -5   9    3.36    1.20
   6   5  -9    3.41    1.56
  -7  -5   9    5.29    1.39
   7   5  -9    2.79    1.61
  -8  -5   9    1.90    1.20
  -7   4  -9    0.26    1.21
   6  -4   9    0.77    0.80
  -6   4  -9    0.92    1.17
   5  -4   9    3.77    1.07
  -5   4  -9    4.82    1.47
   4  -4   9    1.81    0.77
  -4   4  -9    2.97    1.18
   3  -4   9   11.19    1.40
  -3   4  -9   10.46    1.72
   2  -4   9   -0.50    0.54
  -2   4  -9    0.19    0.70
   1  -4   9   19.43    1.69
   1  -4   9   17.84    1.57
  -1   4  -9   13.76    1.82
   0  -4   9   22.27    1.44
   0  -4   9   19.97    1.53
   0   4  -9   18.24    2.05
  -1  -4   9   -0.25    0.53
  -1  -4   9    1.23    0.56
   1   4  -9   -0.60    0.70
  -2  -4   9   18.95    1.85
   2   4  -9   17.30    2.03
  -3  -4   9   -0.64    0.53
   3   4  -9   -0.19    0.81
  -4  -4   9    1.91    0.87
   4   4  -9    0.26    0.89
  -5  -4   9   -0.61    0.64
   5   4  -9   -0.95    0.77
  -6  -4   9    1.80    1.00
   6   4  -9    2.46    1.35
  -7  -4   9    0.80    0.93
   7   4  -9   -0.02    1.32
  -8  -4   9   -0.72    0.92
   7  -3   9   -0.66    0.75
  -7   3  -9   -0.11    1.19
   6  -3   9    2.06    1.00
  -6   3  -9    3.52    1.51
   5  -3   9   12.27    1.58
  -5   3  -9   15.20    2.19
   4  -3   9    7.80    1.24
  -4   3  -9    7.24    1.53
   3  -3   9    8.75    1.25
  -3   3  -9   10.09    1.62
   2  -3   9   23.10    1.62
   2  -3   9   24.65    1.53
  -2   3  -9   20.66    2.17
   1  -3   9    2.44    0.75
   1  -3   9    2.35    0.76
  -1   3  -9    2.60    0.92
   0  -3   9   62.78    2.68
   0  -3   9   60.04    2.36
   0   3  -9   62.14    3.07
  -1  -3   9   35.41    2.12
  -1  -3   9   33.55    1.67
   1   3  -9   31.98    2.35
  -2  -3   9   41.80    1.81
  -2  -3   9   42.50    2.38
   2   3  -9   49.25    2.80
  -3  -3   9    1.44    0.75
   3   3  -9    0.91    0.89
  -4  -3   9   10.21    1.49
   4   3  -9    9.69    1.76
  -5  -3   9    3.62    1.03
   5   3  -9    3.69    1.37
  -6  -3   9    3.52    1.14
   6   3  -9    3.12    1.47
  -7  -3   9    1.03    1.01
   7   3  -9    1.30    1.40
  -8  -3   9    1.56    1.11
   8   3  -9    4.61    2.00
   7  -2   9    9.36    1.66
  -7   2  -9    6.86    1.90
   6  -2   9    1.74    0.93
  -6   2  -9    3.63    1.43
   5  -2   9    5.32    1.14
  -5   2  -9    5.09    1.58
   4  -2   9   32.17    2.02
  -4   2  -9   31.14    2.90
   3  -2   9   12.41    1.41
  -3   2  -9   10.99    1.72
   2  -2   9   88.58    2.90
   2  -2   9   81.05    3.02
  -2   2  -9   83.56    3.71
   1  -2   9    5.18    0.95
   1  -2   9    5.66    0.94
  -1   2  -9    6.21    1.27
   0  -2   9   -0.99    0.44
   0  -2   9   -0.35    0.45
   0   2  -9    1.46    0.81
  -1  -2   9   36.66    1.73
  -1  -2   9   29.67    1.96
   1   2  -9   39.80    2.43
  -2  -2   9    9.45    1.34
  -2  -2   9    9.92    1.07
   2   2  -9    8.49    1.47
  -3  -2   9   26.73    1.93
  -3  -2   9   27.48    1.47
   3   2  -9   22.50    2.34
  -4  -2   9   56.91    2.91
   4   2  -9   58.52    3.39
  -5  -2   9    2.85    0.93
   5   2  -9    1.81    1.06
  -6  -2   9   21.42    2.21
   6   2  -9   17.00    2.48
  -7  -2   9    9.16    1.54
   7   2  -9   12.96    2.41
  -8  -2   9    1.06    1.01
   8   2  -9    0.52    1.48
   7  -1   9    0.67    0.89
  -7   1  -9    1.55    1.35
   6  -1   9   24.70    2.23
  -6   1  -9   25.96    3.05
   5  -1   9    3.75    1.06
  -5   1  -9    3.84    1.37
   4  -1   9   33.43    2.07
  -4   1  -9   30.12    2.97
   3  -1   9   15.36    1.60
  -3   1  -9   16.43    2.01
   2  -1   9    0.61    0.54
   2  -1   9    0.02    0.52
  -2   1  -9    0.20    0.76
   1  -1   9    1.59    0.67
   1  -1   9    0.65    0.57
  -1   1  -9    1.58    0.82
   0  -1   9   19.85    1.36
   0  -1   9   20.88    1.83
   0   1  -9   18.62    1.91
  -1  -1   9    6.73    0.96
  -1  -1   9    5.19    1.02
   1   1  -9    6.24    1.23
  -2  -1   9    1.12    0.67
  -2  -1   9    2.28    0.66
   2   1  -9    1.46    0.85
  -3  -1   9   11.06    1.47
  -3  -1   9    8.57    1.01
   3   1  -9   10.02    1.60
  -4  -1   9   -0.21    0.60
   4   1  -9    1.12    0.87
  -5  -1   9   40.93    2.49
   5   1  -9   44.19    3.09
  -6  -1   9   15.29    1.81
   6   1  -9   13.36    2.25
  -7  -1   9   19.08    2.10
   7   1  -9   21.15    2.94
   8   1  -9   12.35    2.61
   7   0   9    0.41    0.79
  -7   0  -9   -1.34    1.12
   6   0   9    0.33    0.71
  -6   0  -9    1.27    1.31
   5   0   9   -0.08    0.64
  -5   0  -9    0.81    1.05
   4   0   9    0.58    0.67
  -4   0  -9   -1.52    0.73
   3   0   9   -0.73    0.52
  -3   0  -9    0.06    0.78
   2   0   9   -0.13    0.45
  -2   0  -9    0.38    0.72
  -2   0  -9    0.44    0.52
   1   0   9   -0.04    0.52
  -1   0  -9   -0.41    0.67
  -1   0  -9    0.20    0.51
   0   0   9   -0.54    0.45
   0   0  -9    0.02    0.60
   0   0  -9   -0.12    0.68
  -1   0   9   -0.27    0.46
   1   0  -9   -0.33    0.60
   1   0  -9    0.84    0.75
  -2   0   9    0.01    0.46
   2   0  -9    0.17    0.58
   2   0  -9    0.21    0.73
  -3   0   9   -0.26    0.42
   3   0  -9   -0.48    0.52
   3   0  -9    1.17    0.86
  -4   0   9    0.22    0.51
  -4   0   9   -1.11    0.49
   4   0  -9   -0.32    0.78
   4   0  -9    0.14    0.63
  -5   0   9   -0.25    0.65
   5   0  -9   -0.71    0.75
  -6   0   9    0.66    0.72
   6   0  -9    1.04    1.14
  -7   0   9   -0.56    0.68
   7   0  -9    0.64    1.28
   8   0  -9    0.38    1.37
   7   1   9    0.92    0.93
  -7  -1  -9    1.03    1.37
   6   1   9   25.41    2.27
  -6  -1  -9   28.37    3.21
   5   1   9    3.09    0.95
  -5  -1  -9    4.15    1.45
   4   1   9   43.96    2.36
  -4  -1  -9   42.45    3.03
   3   1   9   16.77    1.65
  -3  -1  -9   14.68    1.99
   2   1   9   -0.08    0.51
  -2  -1  -9    0.30    0.56
  -2  -1  -9    0.47    0.80
   1   1   9    2.94    0.79
  -1  -1  -9    1.37    0.67
  -1  -1  -9    0.87    0.80
   0   1   9   17.43    1.53
   0  -1  -9   19.92    1.94
   0  -1  -9   20.24    1.77
  -1   1   9    7.20    1.04
   1  -1  -9    6.98    1.17
   1  -1  -9    5.40    1.19
  -2   1   9    1.46    0.62
   2  -1  -9    0.98    0.75
   2  -1  -9    1.00    0.73
  -3   1   9   10.69    1.23
   3  -1  -9   14.50    1.76
   3  -1  -9   10.92    1.48
  -4   1   9    0.15    0.48
   4  -1  -9    0.36    0.72
   4  -1  -9   -0.56    0.65
  -5   1   9   41.57    2.10
   5  -1  -9   41.28    2.84
   5  -1  -9   40.65    2.45
  -6   1   9   13.13    1.67
   6  -1  -9   17.59    2.38
  -7   1   9   24.15    2.29
   7  -1  -9   21.06    2.82
   8  -1  -9   10.06    2.35
   7   2   9   11.47    1.68
  -7  -2  -9    7.03    2.13
   6   2   9    1.89    0.93
  -6  -2  -9   -1.54    1.15
   5   2   9    6.35    1.28
  -5  -2  -9    6.45    1.80
   4   2   9   35.03    2.17
  -4  -2  -9   33.03    3.05
   3   2   9   11.47    1.40
  -3  -2  -9   14.41    1.95
   2   2   9   81.40    3.09
  -2  -2  -9   87.66    3.75
  -2  -2  -9   87.96    3.13
   1   2   9    6.74    1.05
  -1  -2  -9    3.81    1.04
  -1  -2  -9    5.73    1.06
   0   2   9    0.94    0.57
   0  -2  -9    0.36    0.65
   0  -2  -9    0.66    0.66
  -1   2   9   33.19    1.86
   1  -2  -9   33.84    2.06
   1  -2  -9   36.92    2.22
  -2   2   9    8.98    1.19
   2  -2  -9    8.88    1.38
   2  -2  -9   11.05    1.44
  -3   2   9   25.86    1.71
   3  -2  -9   28.26    1.98
   3  -2  -9   28.81    2.17
  -4   2   9   58.01    2.52
   4  -2  -9   52.10    2.71
   4  -2  -9   54.62    3.03
  -5   2   9    1.89    0.76
   5  -2  -9    0.86    0.76
   5  -2  -9    1.81    1.02
   6  -2  -9   22.04    2.63
   6  -2  -9   22.37    2.21
  -7   2   9    6.63    1.31
   7  -2  -9    9.57    2.13
   7   3   9    0.06    0.89
  -7  -3  -9   -0.25    1.45
   6   3   9    1.92    0.97
  -6  -3  -9    5.37    1.90
   5   3   9   13.82    1.70
  -5  -3  -9   15.26    2.40
   4   3   9    8.63    1.28
  -4  -3  -9    6.99    1.64
   3   3   9    9.22    1.29
  -3  -3  -9    7.31    1.52
   2   3   9   21.17    1.82
  -2  -3  -9   23.28    1.69
  -2  -3  -9   21.44    2.19
   1   3   9    3.17    0.83
  -1  -3  -9    3.35    0.98
  -1  -3  -9    1.78    0.83
   0   3   9   65.58    2.67
   0  -3  -9   62.74    2.86
   0  -3  -9   65.69    2.95
  -1   3   9   37.39    2.02
   1  -3  -9   31.41    2.09
   1  -3  -9   33.70    2.10
  -2   3   9   41.46    2.18
   2  -3  -9   51.06    2.59
   2  -3  -9   43.10    2.43
  -3   3   9    1.91    0.72
   3  -3  -9    1.05    0.76
   3  -3  -9    0.91    0.80
  -4   3   9    9.46    1.28
   4  -3  -9    9.09    1.42
   4  -3  -9   11.51    1.64
  -5   3   9    3.24    0.95
   5  -3  -9    4.20    1.30
   5  -3  -9    4.16    1.14
  -6   3   9    3.11    0.95
   6  -3  -9    1.44    0.91
   7  -3  -9    1.84    0.97
   7   4   9    0.42    0.90
   6   4   9   -0.71    0.64
  -6  -4  -9   -0.29    1.19
   5   4   9    2.58    0.98
  -5  -4  -9    1.45    1.26
   4   4   9    1.96    0.78
  -4  -4  -9    2.04    1.16
   3   4   9    8.12    1.27
  -3  -4  -9    9.87    1.67
  -3  -4  -9   10.53    1.37
   2   4   9    1.03    0.63
  -2  -4  -9   -0.39    0.59
  -2  -4  -9    0.68    0.77
   1   4   9   17.79    1.72
  -1  -4  -9   15.95    1.73
  -1  -4  -9   17.07    1.83
   0   4   9   19.56    1.80
   0  -4  -9   20.90    2.00
   0  -4  -9   20.73    1.91
  -1   4   9   -0.44    0.53
   1  -4  -9    0.06    0.59
   1  -4  -9    0.61    0.66
  -2   4   9   19.13    1.84
   2  -4  -9   21.58    1.93
   2  -4  -9   18.71    1.94
  -3   4   9   -0.17    0.52
   3  -4  -9    0.80    0.73
   3  -4  -9    0.18    0.73
  -4   4   9    0.80    0.72
   4  -4  -9    0.75    0.80
  -5   4   9    0.37    0.67
   5  -4  -9    0.39    0.70
  -6   4   9    2.52    0.96
   6  -4  -9    2.29    0.91
  -7   4   9    1.11    0.84
   7  -4  -9    1.88    1.04
   6   5   9    3.91    1.17
  -6  -5  -9    5.75    1.95
   5   5   9    6.69    1.32
  -5  -5  -9    7.00    1.88
   4   5   9    0.21    0.67
  -4  -5  -9   -0.41    0.90
   3   5   9    6.85    1.23
  -3  -5  -9    6.29    1.48
  -3  -5  -9    4.06    1.05
   2   5   9   20.91    1.89
  -2  -5  -9   18.20    1.98
  -2  -5  -9   21.10    1.97
   1   5   9   53.48    2.61
  -1  -5  -9   55.71    2.82
  -1  -5  -9   60.22    2.86
   0   5   9  118.44    3.99
   0  -5  -9  123.55    4.34
   0  -5  -9  116.71    4.02
  -1   5   9   -0.65    0.48
   1  -5  -9    0.32    0.65
   1  -5  -9    0.69    0.79
  -2   5   9  133.19    4.40
   2  -5  -9  126.59    4.56
  -3   5   9    3.77    1.03
   3  -5  -9    4.54    1.12
  -4   5   9    1.82    0.88
   4  -5  -9    3.14    1.08
  -5   5   9    4.85    1.14
   5  -5  -9    4.92    1.28
  -6   5   9    2.12    0.96
   6  -5  -9    2.78    1.02
  -7   5   9    4.61    1.23
   7  -5  -9    3.94    1.26
   6   6   9    1.42    1.01
  -6  -6  -9   -0.30    1.27
   5   6   9    0.39    0.77
  -5  -6  -9   -0.87    1.15
   4   6   9   25.01    2.18
  -4  -6  -9   28.90    2.88
   3   6   9    9.21    1.39
  -3  -6  -9   11.66    1.80
  -3  -6  -9    9.50    1.46
   2   6   9   21.52    2.02
  -2  -6  -9   24.80    2.26
  -2  -6  -9   20.26    2.08
   1   6   9   38.90    2.29
  -1  -6  -9   37.48    2.30
  -1  -6  -9   38.22    2.49
   0   6   9   30.55    2.03
   0  -6  -9   27.98    2.46
  -1   6   9   20.13    1.97
   1  -6  -9   31.02    2.60
  -2   6   9   76.46    3.34
   2  -6  -9   64.97    3.28
  -3   6   9   16.97    1.93
   3  -6  -9   13.82    1.81
  -4   6   9   39.39    2.54
   4  -6  -9   38.03    2.56
  -5   6   9    4.15    1.15
   5  -6  -9    2.41    1.01
  -6   6   9    2.62    1.10
   6  -6  -9    4.12    1.26
  -7   6   9    2.39    1.06
   7  -6  -9    3.81    1.31
  -6  -7  -9    2.79    1.69
   5   7   9   -0.21    0.78
  -5  -7  -9    0.09    1.24
   4   7   9   13.58    1.69
  -4  -7  -9   10.23    1.88
   3   7   9    2.98    0.98
  -3  -7  -9    3.82    1.12
   2   7   9    2.44    0.91
  -2  -7  -9    2.92    1.07
   1   7   9   11.85    1.59
  -1  -7  -9    7.62    1.48
   0   7   9    1.35    0.77
   0  -7  -9   -0.01    0.72
  -1   7   9   12.68    1.67
   1  -7  -9   12.08    1.76
  -2   7   9    0.32    0.65
   2  -7  -9    1.45    0.91
  -3   7   9    2.09    0.88
   3  -7  -9    0.51    0.88
  -4   7   9    1.93    0.97
   4  -7  -9    3.95    1.18
  -5   7   9    5.74    1.34
   5  -7  -9    5.52    1.33
  -6   7   9    0.71    0.86
   6  -7  -9   -0.39    0.83
  -7   7   9   11.50    1.91
   4   8   9    6.20    1.37
   3   8   9    7.50    1.42
  -3  -8  -9    8.80    1.61
   2   8   9   16.05    1.82
  -2  -8  -9   19.06    2.17
   1   8   9    0.61    0.75
  -1  -8  -9    1.01    0.89
   0   8   9    3.95    1.15
   0  -8  -9    4.43    1.30
  -1   8   9    6.86    1.31
   1  -8  -9    7.82    1.54
  -2   8   9    1.16    0.83
   2  -8  -9    1.70    1.01
  -3   8   9   11.34    1.72
   3  -8  -9    8.09    1.55
  -4   8   9   16.28    2.07
   4  -8  -9   17.43    2.24
  -5   8   9    0.28    0.84
   5  -8  -9    0.47    0.90
  -6   8   9    4.99    1.39
   6  -8  -9    8.73    1.75
   4   9   9   23.76    2.33
   3   9   9   24.05    2.32
  -3  -9  -9   27.05    2.70
   2   9   9    8.59    1.51
  -2  -9  -9    7.39    1.60
   1   9   9    1.58    0.87
  -1  -9  -9    0.21    1.00
   0   9   9   26.24    2.52
   0  -9  -9   27.08    2.67
  -1   9   9   -0.14    0.69
   1  -9  -9    0.50    0.85
  -2   9   9   12.24    1.83
   2  -9  -9    6.93    1.53
  -3   9   9    9.60    1.64
   3  -9  -9    7.04    1.56
  -4   9   9    2.92    1.19
   4  -9  -9    1.71    1.17
  -5   9   9   24.55    2.62
   5  -9  -9   37.67    2.85
   6  -9  -9   12.27    2.02
   3  10   9    1.56    0.98
  -3 -10  -9    3.98    1.40
   2  10   9   34.85    2.83
  -2 -10  -9   27.41    2.80
   1  10   9    4.73    1.32
  -1 -10  -9    3.24    1.29
   0  10   9    0.80    0.94
   0 -10  -9   -0.60    0.94
  -1  10   9   14.43    1.96
   1 -10  -9   12.15    2.00
  -2  10   9    0.08    0.81
   2 -10  -9   -0.54    0.83
  -3  10   9   12.46    1.93
   3 -10  -9   12.90    2.14
  -4  10   9   13.25    1.98
   4 -10  -9   14.58    2.22
  -3 -11  -9    0.70    1.20
   2  11   9    1.93    1.10
  -2 -11  -9    1.51    1.23
   1  11   9    0.32    0.92
  -1 -11  -9    0.05    1.00
   0  11   9   -0.65    0.75
   0 -11  -9    0.26    1.01
  -1  11   9    1.08    0.95
   1 -11  -9    3.05    1.34
  -2  11   9    1.01    0.94
   2 -11  -9    1.36    1.21
   0 -11  10    6.67    1.64
  -1 -11  10    7.35    1.69
   0 -10  10   -0.04    0.97
  -1 -10  10    8.88    1.72
  -2 -10  10    7.10    1.62
   2  10 -10    6.23    1.93
  -3 -10  10    0.60    1.00
   3  10 -10    1.20    1.48
   4  10 -10   17.61    2.88
   4  -9  10    1.82    1.03
  -1   9 -10   -0.20    1.00
   0  -9  10    0.87    1.00
   0   9 -10    3.70    1.40
  -1  -9  10    2.31    1.06
   1   9 -10    5.01    1.66
  -2  -9  10    2.02    1.08
   2   9 -10   -0.56    1.11
  -3  -9  10    0.45    0.98
   3   9 -10    0.20    1.26
  -4  -9  10    1.10    1.10
   4   9 -10    1.85    1.60
   4  -8  10    5.00    1.24
   3  -8  10    2.54    1.04
  -3   8 -10    3.42    1.41
  -2   8 -10    2.41    1.24
  -1   8 -10   11.03    1.92
   0  -8  10    0.61    0.84
   0   8 -10   -0.23    0.83
  -1  -8  10    5.79    1.33
   1   8 -10    8.43    1.83
  -2  -8  10    8.42    1.62
   2   8 -10    7.50    1.74
  -3  -8  10    1.97    1.14
   3   8 -10    4.54    1.64
  -4  -8  10   32.08    2.94
   4   8 -10   28.19    3.29
  -5  -8  10    3.38    1.45
   5   8 -10    3.65    1.70
   5  -7  10   10.55    1.67
   4  -7  10   -0.05    0.78
  -4   7 -10    0.63    1.05
   3  -7  10   29.58    2.45
  -3   7 -10   26.60    2.76
   2  -7  10    5.41    1.15
  -2   7 -10    5.65    1.48
   1  -7  10   -1.33    0.61
  -1   7 -10    0.23    0.93
   0  -7  10   22.91    2.15
   0   7 -10   20.86    2.46
  -1  -7  10   18.53    2.07
   1   7 -10   14.48    2.12
  -2  -7  10    7.96    1.45
   2   7 -10    7.20    1.68
  -3  -7  10   22.56    2.40
   3   7 -10   23.20    2.82
  -4  -7  10    2.95    1.15
   4   7 -10    8.13    1.97
  -5  -7  10   12.53    2.00
   5   7 -10   14.24    2.45
  -6  -7  10   15.98    2.24
   6   7 -10   14.04    2.66
  -6   6 -10   -0.61    1.16
   5  -6  10    0.85    0.91
  -5   6 -10   -0.17    1.01
   4  -6  10    5.36    1.25
  -4   6 -10    2.46    1.17
   3  -6  10    3.13    0.99
  -3   6 -10    2.10    1.02
   2  -6  10    8.61    1.32
  -2   6 -10    9.76    1.75
   1  -6  10   39.99    2.33
   1  -6  10   44.09    2.25
  -1   6 -10   38.53    2.73
   0  -6  10   -0.35    0.64
   0   6 -10   -0.42    0.74
  -1  -6  10   -0.25    0.66
   1   6 -10   -0.01    0.89
  -2  -6  10    0.77    0.81
   2   6 -10    0.57    0.91
  -3  -6  10   -0.42    0.68
   3   6 -10    1.79    1.17
  -4  -6  10    0.51    0.86
   4   6 -10    0.68    1.07
  -5  -6  10    0.11    0.84
   5   6 -10    0.01    1.13
  -6  -6  10    3.66    1.31
   6   6 -10    3.66    1.63
  -7  -6  10    8.29    1.75
  -6   5 -10    1.15    1.30
   5  -5  10   10.60    1.64
  -5   5 -10   11.07    2.04
   4  -5  10   -0.08    0.77
  -4   5 -10    0.05    0.97
   3  -5  10    1.14    0.79
  -3   5 -10    1.25    0.93
   2  -5  10    0.31    0.67
  -2   5 -10    0.38    0.81
   1  -5  10    2.80    0.88
   1  -5  10    1.94    0.80
  -1   5 -10    2.29    1.03
   0  -5  10    7.63    1.12
   0  -5  10    4.85    1.05
   0   5 -10    5.77    1.44
  -1  -5  10   -0.53    0.70
   1   5 -10   -0.45    0.78
  -2  -5  10    3.10    1.00
   2   5 -10    6.73    1.50
  -3  -5  10   17.60    2.02
   3   5 -10   19.33    2.43
  -4  -5  10    0.17    0.73
   4   5 -10    0.08    0.91
  -5  -5  10    1.68    1.00
   5   5 -10   -0.33    0.97
  -6  -5  10    0.64    0.98
   6   5 -10    0.58    1.26
  -7  -5  10    1.47    1.08
   7   5 -10   -0.61    1.26
   6  -4  10    8.43    1.52
  -6   4 -10   11.90    2.24
   5  -4  10   -0.45    0.66
  -5   4 -10   -1.07    0.92
   4  -4  10   14.15    1.70
  -4   4 -10   13.36    2.03
   3  -4  10   20.81    1.93
  -3   4 -10   20.91    2.40
   2  -4  10   31.42    1.96
  -2   4 -10   30.58    2.40
   1  -4  10   53.00    2.52
   1  -4  10   53.33    2.42
  -1   4 -10   54.49    3.07
   0  -4  10    7.36    1.23
   0  -4  10    8.12    1.11
   0   4 -10    6.49    1.43
  -1  -4  10   67.27    3.05
  -1  -4  10   65.50    2.49
   1   4 -10   66.84    3.46
  -2  -4  10    8.32    1.38
   2   4 -10   10.68    1.75
  -3  -4  10    0.53    0.72
   3   4 -10    0.17    0.86
  -4  -4  10   11.29    1.64
   4   4 -10    9.83    1.85
  -5  -4  10   12.02    1.78
   5   4 -10   12.34    2.22
  -6  -4  10    1.84    1.04
   6   4 -10    1.86    1.35
  -7  -4  10    7.07    1.57
   7   4 -10    7.00    2.03
  -8  -4  10    0.46    1.09
   6  -3  10    1.66    0.94
  -6   3 -10    0.75    1.17
   5  -3  10   33.05    2.30
  -5   3 -10   34.41    3.30
   4  -3  10    6.81    1.28
  -4   3 -10    5.68    1.48
   3  -3  10    3.64    0.97
  -3   3 -10    4.25    1.31
   2  -3  10    5.60    1.04
  -2   3 -10    5.30    1.26
   1  -3  10   -0.02    0.58
   1  -3  10    0.88    0.64
  -1   3 -10    1.14    0.89
   0  -3  10   62.59    2.52
   0  -3  10   55.90    2.65
   0   3 -10   60.41    3.26
  -1  -3  10    4.10    0.82
  -1  -3  10    4.16    1.02
   1   3 -10    1.76    1.01
  -2  -3  10   26.79    2.04
   2   3 -10   22.33    2.37
  -3  -3  10  101.89    4.08
   3   3 -10  107.98    4.68
  -4  -3  10    0.11    0.65
   4   3 -10    0.09    0.84
  -5  -3  10    0.72    0.79
   5   3 -10   -0.05    1.02
  -6  -3  10   21.54    2.33
   6   3 -10   22.59    2.94
  -7  -3  10   -0.30    0.80
   7   3 -10    1.59    1.49
  -8  -3  10   10.12    1.83
   6  -2  10    3.69    1.22
  -6   2 -10    3.46    1.52
   5  -2  10    1.58    0.83
  -5   2 -10    1.43    1.20
   4  -2  10    2.91    0.98
  -4   2 -10    3.85    1.32
   3  -2  10    0.99    0.73
  -3   2 -10    0.89    0.90
   2  -2  10   12.83    1.44
  -2   2 -10   12.24    1.77
   1  -2  10   22.24    1.63
   1  -2  10   19.17    1.69
  -1   2 -10   15.73    1.94
   0  -2  10    0.71    0.68
   0  -2  10    1.82    0.68
   0   2 -10    0.82    0.79
  -1  -2  10   10.19    1.19
  -1  -2  10    9.07    1.34
   1   2 -10    9.61    1.59
  -2  -2  10   33.77    1.78
  -2  -2  10   35.24    2.28
   2   2 -10   33.50    2.46
  -3  -2  10    0.36    0.64
   3   2 -10   -0.59    0.67
  -4  -2  10   36.12    2.40
   4   2 -10   35.19    3.18
  -5  -2  10   14.56    1.86
   5   2 -10   14.21    2.21
  -6  -2  10    0.43    0.81
   6   2 -10    0.04    1.11
  -7  -2  10    1.51    0.95
   7   2 -10    2.96    1.70
  -8  -2  10    1.60    1.14
   8   2 -10    3.05    1.81
   6  -1  10    7.26    1.40
  -6   1 -10    5.40    1.78
   5  -1  10    3.31    1.01
  -5   1 -10    4.19    1.45
   4  -1  10   -0.46    0.62
  -4   1 -10    0.74    0.94
   3  -1  10   42.67    2.34
  -3   1 -10   47.76    3.08
   2  -1  10   42.31    2.24
  -2   1 -10   44.34    2.80
   1  -1  10    0.48    0.55
   1  -1  10   -0.24    0.52
  -1   1 -10    1.00    0.81
   0  -1  10    8.93    1.27
   0  -1  10    7.91    1.13
   0   1 -10    6.04    1.29
  -1  -1  10   68.15    2.60
  -1  -1  10   62.59    2.90
   1   1 -10   72.76    3.40
  -2  -1  10   12.29    1.29
  -2  -1  10   14.55    1.70
   2   1 -10   15.32    1.92
  -3  -1  10   -0.01    0.59
  -3  -1  10    0.46    0.55
   3   1 -10    0.70    0.84
  -4  -1  10   -0.23    0.67
   4   1 -10   -0.34    0.77
  -5  -1  10   22.97    2.27
   5   1 -10   23.07    2.72
  -6  -1  10    3.42    1.12
   6   1 -10    2.68    1.40
  -7  -1  10   -0.99    0.70
   7   1 -10    1.65    1.45
  -8  -1  10   18.72    2.25
   8   1 -10   19.14    3.17
   6   0  10    1.85    1.00
  -6   0 -10    1.46    1.27
   5   0  10    3.91    1.03
  -5   0 -10    6.63    1.71
   4   0  10   29.44    2.04
  -4   0 -10   30.74    2.98
   3   0  10   16.56    1.75
  -3   0 -10   17.17    2.18
   2   0  10    1.29    0.69
  -2   0 -10    1.63    0.94
  -2   0 -10    0.26    0.59
   1   0  10   93.65    3.30
  -1   0 -10   89.20    3.25
  -1   0 -10   95.62    3.93
   0   0  10   33.53    1.92
   0   0 -10   34.94    2.03
   0   0 -10   30.98    2.30
  -1   0  10    5.82    1.00
   1   0 -10    5.76    1.26
   1   0 -10    7.52    1.22
  -2   0  10   57.09    2.34
   2   0 -10   50.17    2.65
   2   0 -10   48.29    2.84
  -3   0  10    0.78    0.56
   3   0 -10    0.80    0.92
   3   0 -10    0.98    0.78
  -4   0  10  111.25    3.49
  -4   0  10  110.34    4.29
   4   0 -10  116.43    4.77
  -5   0  10    7.44    1.36
   5   0 -10    9.24    1.80
  -6   0  10   52.32    2.99
   6   0 -10   59.80    3.91
  -7   0  10   15.19    1.95
   7   0 -10   20.93    2.98
  -8   0  10    2.83    1.16
   8   0 -10    2.84    1.69
   6   1  10    8.38    1.54
  -6  -1 -10    4.11    1.67
   5   1  10    1.49    0.84
  -5  -1 -10    0.49    1.16
   4   1  10    0.91    0.73
  -4  -1 -10    0.17    0.93
   3   1  10   45.93    2.42
  -3  -1 -10   45.59    3.02
   2   1  10   37.09    2.12
  -2  -1 -10   37.20    2.56
  -2  -1 -10   39.37    2.08
   1   1  10    2.15    0.78
  -1  -1 -10   -0.20    0.68
  -1  -1 -10    0.89    0.65
   0   1  10    8.17    1.19
   0  -1 -10    8.02    1.24
   0  -1 -10    7.32    1.32
  -1   1  10   69.23    2.78
   1  -1 -10   68.23    3.26
   1  -1 -10   73.42    3.12
  -2   1  10   11.32    1.28
   2  -1 -10   12.31    1.70
   2  -1 -10   12.06    1.56
  -3   1  10    1.11    0.66
   3  -1 -10    0.41    0.73
   3  -1 -10    2.45    1.02
  -4   1  10   -0.40    0.53
   4  -1 -10   -0.23    0.55
   4  -1 -10   -0.36    0.77
  -5   1  10   24.38    2.35
   5  -1 -10   25.70    2.74
   5  -1 -10   25.54    2.36
  -6   1  10    2.77    1.01
   6  -1 -10    2.86    1.33
  -7   1  10   -0.78    0.70
   7  -1 -10   -0.03    1.29
   8  -1 -10   17.61    2.90
   6   2  10    3.36    1.17
  -6  -2 -10    2.08    1.53
   5   2  10    0.47    0.77
  -5  -2 -10    0.71    1.28
   4   2  10    2.82    0.99
  -4  -2 -10    3.36    1.35
   3   2  10    0.83    0.65
  -3  -2 -10    0.63    0.90
   2   2  10   12.50    1.50
  -2  -2 -10   13.67    1.52
  -2  -2 -10   17.29    2.09
   1   2  10   20.61    1.82
  -1  -2 -10   23.46    2.02
  -1  -2 -10   17.23    1.91
   0   2  10    1.73    0.71
   0  -2 -10    0.77    0.70
   0  -2 -10    0.33    0.72
  -1   2  10   10.73    1.31
   1  -2 -10   10.23    1.41
   1  -2 -10   10.13    1.49
  -2   2  10   33.71    1.97
   2  -2 -10   34.92    2.29
   2  -2 -10   34.77    2.40
  -3   2  10   -0.24    0.53
   3  -2 -10   -0.27    0.66
   3  -2 -10   -0.73    0.51
  -4   2  10   37.14    2.13
   4  -2 -10   39.80    2.76
   4  -2 -10   35.19    2.32
  -5   2  10   19.67    1.85
   5  -2 -10   17.18    2.26
   5  -2 -10   18.14    1.99
   6  -2 -10    0.00    1.17
   6  -2 -10    1.20    0.94
  -7   2  10    2.11    1.02
   6   3  10   -0.82    0.78
  -6  -3 -10    0.28    1.29
   5   3  10   38.82    2.53
  -5  -3 -10   38.98    3.63
   4   3  10    7.76    1.32
  -4  -3 -10    8.68    1.81
   3   3  10    4.77    1.05
  -3  -3 -10    4.69    1.31
   2   3  10    5.76    1.07
  -2  -3 -10    5.79    1.11
  -2  -3 -10    6.13    1.33
   1   3  10   -0.22    0.55
  -1  -3 -10    0.61    0.63
  -1  -3 -10    0.59    0.74
   0   3  10   60.32    2.70
   0  -3 -10   65.86    3.03
   0  -3 -10   63.81    3.05
  -1   3  10    3.50    0.88
   1  -3 -10    2.22    0.90
   1  -3 -10    2.73    1.01
  -2   3  10   21.25    1.86
   2  -3 -10   22.76    2.14
   2  -3 -10   29.48    2.16
  -3   3  10  109.25    3.83
   3  -3 -10  107.62    4.17
   3  -3 -10  112.44    4.30
  -4   3  10    0.14    0.65
   4  -3 -10    0.08    0.66
   4  -3 -10   -0.21    0.84
  -5   3  10    0.11    0.63
   5  -3 -10    0.04    0.79
  -6   3  10   19.24    2.02
   6  -3 -10   20.94    2.23
  -7   3  10    0.32    0.81
   7  -3 -10   -0.62    0.81
   6   4  10    8.91    1.61
  -6  -4 -10   14.73    2.58
   5   4  10    0.75    0.89
  -5  -4 -10    0.76    1.31
   4   4  10   12.45    1.62
  -4  -4 -10   17.14    2.40
   3   4  10   19.11    1.88
  -3  -4 -10   18.00    2.21
   2   4  10   29.42    1.99
  -2  -4 -10   28.66    2.25
  -2  -4 -10   33.88    2.18
   1   4  10   52.31    2.58
  -1  -4 -10   55.09    2.77
  -1  -4 -10   52.76    2.84
   0   4  10    9.18    1.35
   0  -4 -10    7.83    1.32
   0  -4 -10    6.73    1.29
  -1   4  10   63.93    2.91
   1  -4 -10   66.61    3.15
   1  -4 -10   64.03    3.07
  -2   4  10    8.77    1.33
   2  -4 -10    7.48    1.36
   2  -4 -10    8.21    1.39
  -3   4  10    0.36    0.61
   3  -4 -10   -0.54    0.67
  -4   4  10   14.09    1.66
   4  -4 -10   10.59    1.60
  -5   4  10   10.86    1.60
   5  -4 -10   11.65    1.77
  -6   4  10    4.79    1.23
   6  -4 -10    1.26    0.94
   7  -4 -10    6.50    1.48
   6   5  10    2.36    1.15
  -6  -5 -10    1.42    1.43
   5   5  10    8.26    1.49
  -5  -5 -10    7.87    1.84
   4   5  10    0.20    0.73
  -4  -5 -10    2.02    1.14
   3   5  10    2.89    0.92
  -3  -5 -10    1.15    1.03
   2   5  10   -0.38    0.58
  -2  -5 -10    0.47    0.82
  -2  -5 -10    0.85    0.80
   1   5  10    2.14    0.81
  -1  -5 -10    2.14    0.95
  -1  -5 -10    3.48    1.04
   0   5  10    6.04    1.15
   0  -5 -10    7.18    1.34
   0  -5 -10    6.41    1.21
  -1   5  10   -0.06    0.54
   1  -5 -10    0.96    0.79
  -2   5  10    4.49    1.14
   2  -5 -10    4.12    1.13
  -3   5  10   16.80    1.89
   3  -5 -10   19.07    2.10
  -4   5  10   -0.61    0.62
   4  -5 -10    0.23    0.83
  -5   5  10    0.22    0.82
   5  -5 -10    1.01    0.93
  -6   5  10    1.18    0.89
   6  -5 -10   -0.51    0.74
  -7   5  10   -0.80    0.77
   7  -5 -10    1.00    0.95
   6   6  10    0.63    1.01
   5   6  10    0.14    0.86
  -5  -6 -10    2.35    1.45
   4   6  10    4.93    1.25
  -4  -6 -10    1.54    1.22
   3   6  10    3.76    1.07
  -3  -6 -10    1.35    1.06
   2   6  10   10.80    1.51
  -2  -6 -10   10.99    1.64
  -2  -6 -10    7.58    1.45
   1   6  10   45.02    2.55
  -1  -6 -10   39.62    2.65
   0   6  10    0.22    0.65
   0  -6 -10    0.57    0.77
  -1   6  10    0.01    0.63
   1  -6 -10    0.21    0.79
  -2   6  10   -0.56    0.61
   2  -6 -10    1.18    0.93
  -3   6  10    0.43    0.74
   3  -6 -10   -0.54    0.77
  -4   6  10   -0.15    0.67
   4  -6 -10    0.12    0.78
  -5   6  10    0.17    0.80
   5  -6 -10    0.39    0.85
  -6   6  10    0.99    0.98
   6  -6 -10    3.66    1.24
  -7   6  10   11.08    1.84
   7  -6 -10   10.88    1.90
   5   7  10    8.26    1.57
  -5  -7 -10    9.66    2.05
   4   7  10   -0.19    0.83
   3   7  10   27.08    2.39
   2   7  10    5.34    1.28
  -2  -7 -10    5.13    1.30
   1   7  10    0.02    0.68
  -1  -7 -10   -0.66    0.77
   0   7  10   19.93    2.14
   0  -7 -10   20.83    2.29
  -1   7  10   14.73    1.85
   1  -7 -10   19.53    2.25
  -2   7  10    8.52    1.50
   2  -7 -10    7.74    1.52
  -3   7  10   19.43    2.19
   3  -7 -10   29.85    2.80
  -4   7  10    5.14    1.35
   4  -7 -10    4.13    1.32
  -5   7  10   15.05    2.05
   5  -7 -10   15.63    2.15
  -6   7  10   20.57    2.40
   6  -7 -10   16.04    2.25
   4   8  10    4.46    1.32
   3   8  10    2.78    1.11
   2   8  10    3.13    1.08
  -2  -8 -10    4.17    1.30
   1   8  10   11.35    1.69
  -1  -8 -10   12.35    1.97
   0   8  10    0.49    0.79
   0  -8 -10    0.22    0.97
  -1   8  10    6.89    1.47
   1  -8 -10    7.94    1.64
  -2   8  10   10.62    1.66
   2  -8 -10   10.81    1.86
  -3   8  10    1.74    0.99
   3  -8 -10    3.37    1.25
  -4   8  10   30.68    2.86
   4  -8 -10   31.54    3.01
  -5   8  10    4.63    1.40
   5  -8 -10    2.34    1.18
   6  -8 -10   17.88    2.44
   4   9  10    0.73    0.99
   3   9  10   -0.12    0.79
   2   9  10   -1.18    0.74
  -2  -9 -10   -0.52    0.91
   1   9  10    0.90    0.80
  -1  -9 -10   -0.21    0.90
   0   9  10    5.80    1.39
   0  -9 -10    3.61    1.30
  -1   9  10    2.12    1.05
   1  -9 -10    3.91    1.40
  -2   9  10    0.55    0.83
   2  -9 -10    1.12    1.02
  -3   9  10    0.56    0.88
   3  -9 -10    0.26    1.02
  -4   9  10    3.64    1.29
   4  -9 -10    0.02    1.03
   2  10  10    0.21    0.91
  -2 -10 -10    0.06    1.05
   1  10  10    5.78    1.46
  -1 -10 -10    5.21    1.56
   0  10  10    1.19    0.95
   0 -10 -10    0.70    1.06
  -1  10  10    7.36    1.61
   1 -10 -10    6.83    1.74
  -2  10  10    6.30    1.46
   2 -10 -10    5.34    1.57
   3 -10 -10   -0.28    0.99
   0 -10  11    7.87    1.72
  -1 -10  11    0.26    1.06
   2  10 -11    5.32    1.84
  -1   9 -11    0.04    1.14
   0  -9  11   10.12    1.68
   0   9 -11   12.46    2.19
  -1  -9  11   13.00    2.02
   1   9 -11   21.58    2.83
  -2  -9  11    1.61    1.20
   2   9 -11    1.13    1.39
  -3  -9  11    9.65    1.87
   3   9 -11   11.79    2.40
   3  -8  11   10.66    1.62
  -3   8 -11   10.50    2.09
  -2   8 -11    2.84    1.41
  -1   8 -11    2.74    1.34
   0  -8  11    5.91    1.40
   0   8 -11    6.92    1.74
  -1  -8  11    2.67    1.16
   1   8 -11    2.73    1.42
  -2  -8  11    3.47    1.24
   2   8 -11    2.20    1.31
  -3  -8  11    0.55    0.92
   3   8 -11    0.67    1.21
  -4  -8  11   -0.15    1.04
   4   8 -11   -0.24    1.12
   4  -7  11    0.91    0.98
  -4   7 -11    0.97    1.20
   3  -7  11    0.66    0.88
  -3   7 -11    1.05    1.16
   2  -7  11    0.43    0.77
  -2   7 -11    1.60    1.19
  -1   7 -11   -0.20    1.00
   0  -7  11   -0.90    0.74
   0   7 -11    1.05    1.07
  -1  -7  11    1.65    1.01
   1   7 -11    0.38    0.99
  -2  -7  11   -0.25    0.79
   2   7 -11    0.37    1.08
  -3  -7  11   -1.43    0.81
   3   7 -11    0.77    1.15
  -4  -7  11   -0.34    0.78
   4   7 -11    1.69    1.39
  -5  -7  11   -0.88    0.89
   5   7 -11   -0.06    1.26
  -5   6 -11    4.30    1.57
   4  -6  11   16.77    2.01
  -4   6 -11   15.64    2.35
   3  -6  11    3.94    1.17
  -3   6 -11    2.81    1.33
   2  -6  11    3.42    1.04
  -2   6 -11    3.32    1.29
   1  -6  11   21.20    1.94
  -1   6 -11   17.40    2.30
   0  -6  11    0.77    0.80
   0   6 -11    1.67    1.13
  -1  -6  11    4.26    1.19
   1   6 -11    5.31    1.41
  -2  -6  11   13.10    1.86
   2   6 -11    8.48    1.80
  -3  -6  11    1.12    0.99
   3   6 -11    1.66    1.18
  -4  -6  11   12.43    1.95
   4   6 -11    7.93    1.89
  -5  -6  11   10.54    1.89
   5   6 -11   11.39    2.32
  -6  -6  11    2.00    1.27
   5  -5  11   13.37    1.84
  -5   5 -11   16.38    2.41
   4  -5  11   16.34    1.99
  -4   5 -11   19.56    2.49
   3  -5  11    1.95    0.92
  -3   5 -11    1.63    1.05
   2  -5  11   14.60    1.71
  -2   5 -11   14.49    2.15
   1  -5  11    4.14    1.06
   1  -5  11    3.32    0.94
  -1   5 -11    5.43    1.45
   0  -5  11    2.64    0.98
   0   5 -11    1.70    1.11
  -1  -5  11   11.89    1.67
   1   5 -11   10.42    1.85
  -2  -5  11    1.79    0.91
   2   5 -11    2.53    1.16
  -3  -5  11   34.41    2.51
   3   5 -11   39.23    3.56
  -4  -5  11    9.46    1.71
   4   5 -11   11.69    2.19
  -5  -5  11   16.31    2.17
   5   5 -11   12.83    2.37
  -6  -5  11   15.69    2.24
   6   5 -11   14.97    2.65
   5  -4  11    7.03    1.47
  -5   4 -11    4.27    1.56
   4  -4  11    4.69    1.22
  -4   4 -11    7.99    1.70
   3  -4  11    1.17    0.85
  -3   4 -11    1.67    1.05
   2  -4  11    4.85    1.05
  -2   4 -11    6.15    1.48
   1  -4  11    8.79    1.36
   1  -4  11    8.70    1.25
  -1   4 -11    7.09    1.48
   0  -4  11    0.42    0.64
   0  -4  11    1.09    0.76
   0   4 -11    1.70    1.00
  -1  -4  11    1.31    0.80
   1   4 -11    2.34    1.09
  -2  -4  11    2.99    0.98
   2   4 -11    2.88    1.13
  -3  -4  11    1.10    0.84
   3   4 -11    0.32    0.87
  -4  -4  11   13.42    1.87
   4   4 -11    8.26    1.81
  -5  -4  11    0.02    0.79
   5   4 -11    0.19    1.17
  -6  -4  11    0.03    0.97
   6   4 -11    1.55    1.32
  -7  -4  11    5.93    1.55
   5  -3  11    2.62    1.05
  -5   3 -11    5.70    1.73
   4  -3  11   -1.03    0.59
  -4   3 -11    0.41    1.06
   3  -3  11    0.83    0.73
  -3   3 -11    0.00    0.92
   2  -3  11    6.13    1.17
  -2   3 -11    7.51    1.58
   1  -3  11    1.31    0.73
   1  -3  11    1.02    0.72
  -1   3 -11    0.83    0.88
   0  -3  11    1.12    0.79
   0  -3  11    2.62    0.86
   0   3 -11    1.34    0.98
  -1  -3  11    8.35    1.19
  -1  -3  11    8.19    1.35
   1   3 -11    8.08    1.57
  -2  -3  11   -0.01    0.60
   2   3 -11    0.04    0.72
  -3  -3  11   18.25    2.07
   3   3 -11   17.83    2.33
  -4  -3  11    7.77    1.54
   4   3 -11    9.15    1.84
  -5  -3  11    2.08    1.08
   5   3 -11    0.93    1.19
  -6  -3  11    6.26    1.53
   6   3 -11    7.46    2.01
  -7  -3  11    2.05    1.17
   7   3 -11    1.65    1.50
   5  -2  11   -0.56    0.75
  -5   2 -11    0.43    1.09
   4  -2  11    9.65    1.51
  -4   2 -11    4.96    1.49
   3  -2  11   22.74    2.07
  -3   2 -11   27.05    2.77
   2  -2  11    3.30    0.95
  -2   2 -11    2.90    1.15
   1  -2  11   50.70    2.52
   1  -2  11   45.43    2.34
  -1   2 -11   46.64    2.95
   0  -2  11   30.72    1.88
   0  -2  11   29.66    2.06
   0   2 -11   27.33    2.64
  -1  -2  11   25.82    1.72
  -1  -2  11   25.14    2.23
   1   2 -11   30.06    2.78
  -2  -2  11   56.11    2.34
  -2  -2  11   52.62    2.90
   2   2 -11   53.14    3.21
  -3  -2  11    0.21    0.68
   3   2 -11    1.03    0.93
  -4  -2  11   12.99    1.84
   4   2 -11   10.31    1.91
  -5  -2  11   29.21    2.71
   5   2 -11   27.32    3.07
  -6  -2  11    5.29    1.37
   6   2 -11    1.29    1.38
  -7  -2  11   12.86    1.95
   7   2 -11    8.39    2.26
   5  -1  11    8.49    1.51
  -5   1 -11    8.60    1.95
   4  -1  11    4.66    1.16
  -4   1 -11    7.54    1.72
   3  -1  11    8.79    1.35
  -3   1 -11   15.34    2.18
   2  -1  11   40.91    2.31
  -2   1 -11   37.84    2.76
   1  -1  11    1.21    0.69
   1  -1  11    0.82    0.65
  -1   1 -11    0.92    0.77
   0  -1  11   51.33    2.66
   0  -1  11   54.66    2.46
   0   1 -11   46.38    2.95
  -1  -1  11   35.87    2.01
  -1  -1  11   35.43    2.31
   1   1 -11   32.89    2.53
  -2  -1  11   -0.10    0.55
  -2  -1  11   -0.10    0.68
   2   1 -11    0.04    0.72
  -3  -1  11   26.77    2.44
  -3  -1  11   21.51    1.54
   3   1 -11   22.90    2.56
  -4  -1  11    1.79    0.97
   4   1 -11    2.88    1.23
  -5  -1  11    6.52    1.42
   5   1 -11    5.55    1.61
  -6  -1  11    2.60    1.18
   6   1 -11    2.93    1.45
  -7  -1  11   -1.63    0.77
   7   1 -11   -0.02    1.31
   6   0  11   -0.53    0.73
  -6   0 -11   -0.38    1.09
   5   0  11    0.61    0.84
  -5   0 -11   -1.07    0.93
   4   0  11    0.25    0.73
  -4   0 -11   -0.04    0.97
   3   0  11    0.34    0.68
  -3   0 -11    2.28    1.08
   2   0  11   -0.62    0.52
  -2   0 -11    0.40    0.75
   1   0  11    0.15    0.56
   1   0  11   -0.88    0.46
  -1   0 -11   -0.43    0.69
  -1   0 -11    0.14    0.62
   0   0  11    0.31    0.63
   0   0 -11    0.22    0.81
   0   0 -11   -0.55    0.53
  -1   0  11   -0.49    0.47
   1   0 -11    0.02    0.73
   1   0 -11    0.43    0.67
  -2   0  11    0.21    0.59
   2   0 -11   -1.00    0.57
   2   0 -11    0.63    0.74
  -3   0  11    0.47    0.69
  -3   0  11    0.25    0.55
   3   0 -11   -1.21    0.70
  -4   0  11    0.00    0.73
   4   0 -11    0.23    0.95
  -5   0  11   -0.02    0.69
   5   0 -11    0.05    0.91
  -6   0  11   -0.71    0.69
   6   0 -11   -1.06    1.03
  -7   0  11   -0.93    0.65
   7   0 -11   -1.25    1.27
  -8   0  11   -1.00    0.84
   5   1  11    7.30    1.39
  -5  -1 -11    6.68    1.78
   4   1  11    5.13    1.15
  -4  -1 -11    7.36    1.70
   3   1  11   13.41    1.64
  -3  -1 -11   11.56    1.93
   2   1  11   39.87    2.29
  -2  -1 -11   35.11    2.65
  -2  -1 -11   39.07    2.24
   1   1  11   -0.16    0.62
  -1  -1 -11   -0.47    0.61
  -1  -1 -11    0.31    0.68
   0   1  11   49.21    2.49
   0  -1 -11   55.36    3.08
   0  -1 -11   49.02    2.60
  -1   1  11   36.78    2.06
   1  -1 -11   31.24    2.23
   1  -1 -11   40.80    2.63
  -2   1  11   -0.11    0.57
   2  -1 -11    0.93    0.78
   2  -1 -11   -0.53    0.65
  -3   1  11   24.64    1.72
   3  -1 -11   20.57    2.13
   3  -1 -11   27.22    2.66
  -4   1  11    2.17    0.78
   4  -1 -11    2.49    1.16
   4  -1 -11    2.58    0.98
  -5   1  11    4.45    1.23
   5  -1 -11    4.39    1.47
  -6   1  11    2.35    1.05
   6  -1 -11    2.43    1.37
  -7   1  11    0.52    0.84
   7  -1 -11    1.03    1.37
  -8   1  11    2.59    1.23
   5   2  11   -1.04    0.62
  -5  -2 -11    0.39    1.14
   4   2  11    6.60    1.34
  -4  -2 -11    7.18    1.70
   3   2  11   25.23    2.21
  -3  -2 -11   27.80    2.77
   2   2  11    1.86    0.80
  -2  -2 -11    3.32    1.16
  -2  -2 -11    4.49    1.05
   1   2  11   50.07    2.54
  -1  -2 -11   45.55    2.85
  -1  -2 -11   50.64    2.65
   0   2  11   31.02    1.97
   0  -2 -11   35.78    2.50
   0  -2 -11   27.50    2.04
  -1   2  11   24.78    2.06
   1  -2 -11   21.75    2.15
   1  -2 -11   25.28    2.41
  -2   2  11   52.65    2.53
   2  -2 -11   54.23    3.09
   2  -2 -11   55.99    2.93
  -3   2  11    0.19    0.62
   3  -2 -11    0.93    0.78
   3  -2 -11   -0.14    0.83
  -4   2  11   11.14    1.49
   4  -2 -11   15.73    2.14
  -5   2  11   27.58    2.25
   5  -2 -11   27.17    2.55
   5  -2 -11   25.99    2.85
  -6   2  11    2.18    0.98
   6  -2 -11    1.14    0.95
   6  -2 -11    1.53    1.32
  -7   2  11   11.71    1.80
   5   3  11    5.78    1.35
  -5  -3 -11    3.45    1.60
   4   3  11   -0.08    0.72
  -4  -3 -11    0.43    1.08
   3   3  11    1.02    0.80
  -3  -3 -11    2.38    1.11
   2   3  11    4.25    1.03
  -2  -3 -11    5.94    1.17
  -2  -3 -11    5.49    1.35
   1   3  11    1.47    0.75
  -1  -3 -11    1.40    0.82
  -1  -3 -11    1.03    0.78
   0   3  11    1.59    0.83
   0  -3 -11    2.52    0.96
   0  -3 -11    1.60    0.84
  -1   3  11    5.59    1.15
   1  -3 -11    7.14    1.39
   1  -3 -11    6.46    1.30
  -2   3  11    0.16    0.64
   2  -3 -11   -0.56    0.69
   2  -3 -11   -0.63    0.60
  -3   3  11   17.98    1.84
   3  -3 -11   17.79    2.13
   3  -3 -11   15.89    1.96
  -4   3  11   12.50    1.58
   4  -3 -11    9.14    1.53
   4  -3 -11   11.42    1.87
  -5   3  11    0.14    0.72
   5  -3 -11    0.86    0.94
   6  -3 -11    2.93    1.14
  -7   3  11    1.52    0.92
   5   4  11    5.27    1.40
  -5  -4 -11    4.46    1.72
   4   4  11    7.46    1.38
  -4  -4 -11    6.10    1.68
   3   4  11    1.35    0.86
  -3  -4 -11    0.86    1.04
   2   4  11    4.59    1.12
  -2  -4 -11    5.79    1.20
  -2  -4 -11    6.08    1.44
   1   4  11    6.49    1.23
  -1  -4 -11    5.41    1.21
  -1  -4 -11    7.16    1.40
   0   4  11   -0.16    0.61
   0  -4 -11    0.13    0.66
   0  -4 -11    0.36    0.75
  -1   4  11    0.93    0.70
   1  -4 -11    1.63    0.93
   1  -4 -11    2.15    0.98
  -2   4  11    0.85    0.70
   2  -4 -11    2.50    1.03
   2  -4 -11    4.21    1.13
  -3   4  11    0.61    0.75
   3  -4 -11    1.76    0.98
  -4   4  11   16.46    1.90
   4  -4 -11   13.63    1.86
  -5   4  11   -0.39    0.71
   5  -4 -11   -0.22    0.80
  -6   4  11    0.54    0.87
   6  -4 -11   -1.62    0.70
   7  -4 -11    6.51    1.59
   5   5  11   16.61    2.10
  -5  -5 -11   12.59    2.27
   4   5  11   15.63    1.89
  -4  -5 -11   23.19    2.74
   3   5  11    1.50    0.94
  -3  -5 -11    1.66    1.14
   2   5  11   16.15    1.82
  -2  -5 -11   13.54    1.87
  -2  -5 -11   18.81    2.04
   1   5  11    2.63    0.92
  -1  -5 -11    5.23    1.25
  -1  -5 -11    2.50    1.05
   0   5  11    2.91    0.97
   0  -5 -11    3.33    1.03
   0  -5 -11    2.14    1.00
  -1   5  11    8.12    1.39
   1  -5 -11   10.68    1.66
  -2   5  11    2.83    0.93
   2  -5 -11    4.40    1.26
  -3   5  11   44.50    2.73
   3  -5 -11   47.03    3.00
  -4   5  11   10.10    1.56
   4  -5 -11   11.59    1.85
  -5   5  11   14.25    1.84
   5  -5 -11   14.88    2.10
  -6   5  11   19.69    2.26
   6  -5 -11   23.37    2.57
  -5  -6 -11    2.44    1.56
   4   6  11   16.89    2.05
  -4  -6 -11   14.75    2.30
   3   6  11    4.40    1.21
  -3  -6 -11    4.74    1.34
   2   6  11    0.49    0.84
  -2  -6 -11    2.09    1.07
   1   6  11   17.73    1.96
  -1  -6 -11   27.10    2.58
   0   6  11    0.68    0.76
   0  -6 -11    1.47    0.99
  -1   6  11    4.89    1.22
   1  -6 -11    5.74    1.40
  -2   6  11    7.87    1.40
   2  -6 -11    8.78    1.60
  -3   6  11    0.97    0.91
   3  -6 -11    2.27    1.03
  -4   6  11   10.15    1.67
   4  -6 -11    9.51    1.75
  -5   6  11   13.10    1.91
   5  -6 -11   16.28    2.19
  -6   6  11    1.11    1.00
   6  -6 -11    0.72    1.11
   4   7  11    0.02    0.90
   3   7  11    0.90    0.89
   2   7  11    0.22    0.81
  -2  -7 -11   -0.04    0.79
   1   7  11    0.32    0.80
  -1  -7 -11    0.51    0.96
   0   7  11    2.50    0.96
   0  -7 -11    0.60    0.95
  -1   7  11    2.44    1.00
   1  -7 -11    2.17    1.07
  -2   7  11   -0.24    0.78
   2  -7 -11    0.07    0.82
  -3   7  11    0.58    0.89
   3  -7 -11    1.14    0.93
  -4   7  11   -0.46    0.76
   4  -7 -11    1.12    1.02
  -5   7  11    1.64    1.00
   5  -7 -11   -0.75    0.91
   3   8  11   14.50    1.98
   2   8  11    1.12    0.93
  -2  -8 -11    3.03    1.27
   1   8  11    2.28    1.00
  -1  -8 -11    0.26    0.98
   0   8  11    6.42    1.41
   0  -8 -11    5.30    1.51
  -1   8  11    3.16    1.10
   1  -8 -11    1.95    1.17
  -2   8  11    3.24    1.14
   2  -8 -11    1.49    1.15
  -3   8  11   -0.84    0.78
   3  -8 -11   -0.16    0.99
  -4   8  11    0.94    0.95
   4  -8 -11    2.69    1.20
   2   9  11   19.52    2.32
  -2  -9 -11   17.08    2.36
   1   9  11   -0.37    0.79
  -1  -9 -11    1.58    1.21
   0   9  11   13.63    1.98
   0  -9 -11   13.36    2.13
  -1   9  11   15.22    2.07
   1  -9 -11   17.26    2.47
  -2   9  11    1.33    1.04
   2  -9 -11    1.51    1.19
   3  -9 -11   14.69    2.25
  -1   9 -12    5.61    1.73
   0   9 -12    1.35    1.31
  -1  -9  12   -0.58    1.01
   1   9 -12   -0.36    1.30
  -2   8 -12    8.80    2.04
  -1   8 -12    3.40    1.53
   0  -8  12   20.45    2.31
   0   8 -12   20.20    2.72
  -1  -8  12    0.40    1.05
   1   8 -12    2.89    1.41
  -2  -8  12    5.94    1.51
   2   8 -12   11.80    2.31
   3   8 -12    1.39    1.46
   3  -7  12    1.33    0.99
  -2   7 -12   19.53    2.64
  -1   7 -12   16.06    2.42
   0  -7  12    3.27    1.23
   0   7 -12    2.90    1.44
  -1  -7  12   18.63    2.24
   1   7 -12   16.25    2.46
  -2  -7  12    4.66    1.39
   2   7 -12    4.38    1.67
  -3  -7  12    5.37    1.48
   3   7 -12    3.23    1.55
   4   7 -12   10.51    2.23
   3  -6  12    3.95    1.19
  -3   6 -12    1.83    1.26
   2  -6  12    0.22    0.83
  -2   6 -12   -1.07    0.84
  -1   6 -12    7.37    1.78
   0  -6  12    2.37    1.03
   0   6 -12    3.94    1.46
  -1  -6  12   -0.73    0.80
   1   6 -12    0.05    0.87
  -2  -6  12    3.75    1.29
   2   6 -12    6.09    1.60
  -3  -6  12    2.97    1.23
   3   6 -12    1.38    1.35
  -4  -6  12    0.05    0.91
   4   6 -12   -0.94    1.00
   4  -5  12    3.08    1.12
  -4   5 -12    1.42    1.27
   3  -5  12    0.83    0.88
  -3   5 -12    1.67    1.15
   2  -5  12    3.82    1.13
  -2   5 -12    2.44    1.23
   1  -5  12    1.36    0.82
  -1   5 -12    1.18    1.10
   0  -5  12    2.02    1.01
   0   5 -12    2.08    1.16
  -1  -5  12    3.44    1.13
   1   5 -12    2.96    1.26
  -2  -5  12    1.95    1.08
   2   5 -12    1.01    1.16
  -3  -5  12    2.24    1.15
   3   5 -12    4.52    1.64
  -4  -5  12    6.81    1.58
   4   5 -12    5.20    1.78
  -5  -5  12   -0.38    0.95
   5   5 -12   -1.39    1.07
   4  -4  12    0.73    0.88
  -4   4 -12    0.46    1.05
   3  -4  12   12.47    1.75
  -3   4 -12   12.86    2.19
   2  -4  12    1.08    0.86
  -2   4 -12    0.60    1.03
   1  -4  12   12.28    1.58
  -1   4 -12   13.24    2.10
   0  -4  12   22.25    2.13
   0  -4  12   23.62    2.02
   0   4 -12   19.91    2.45
  -1  -4  12    0.57    0.75
   1   4 -12    0.35    0.93
  -2  -4  12   27.40    2.53
   2   4 -12   30.02    3.05
  -3  -4  12   23.90    2.48
   3   4 -12   26.98    3.00
   4   4 -12    5.23    1.71
  -5  -4  12   13.17    2.07
   5   4 -12   12.91    2.36
   4  -3  12   12.01    1.76
  -4   3 -12   14.52    2.31
   3  -3  12    1.86    0.94
  -3   3 -12   -0.01    0.99
   2  -3  12    7.31    1.28
  -2   3 -12    8.21    1.74
   1  -3  12   11.17    1.54
   1  -3  12    9.54    1.43
  -1   3 -12    9.54    1.78
   0  -3  12    6.11    1.25
   0  -3  12    9.94    1.39
   0   3 -12    5.94    1.43
  -1  -3  12   17.52    1.97
  -1  -3  12   13.99    1.54
   1   3 -12   17.16    2.29
  -2  -3  12    3.93    1.16
   2   3 -12    4.19    1.32
  -3  -3  12   16.67    2.08
   3   3 -12   16.45    2.35
  -4  -3  12    7.22    1.49
   4   3 -12    9.87    1.97
  -5  -3  12    0.15    0.90
   5   3 -12   -0.74    1.00
  -6  -3  12    8.87    1.77
   6   3 -12   11.73    2.37
   4  -2  12    0.78    0.82
  -4   2 -12    0.71    1.09
   3  -2  12    3.79    1.08
  -3   2 -12    3.35    1.34
   2  -2  12    1.21    0.87
  -2   2 -12    0.50    0.90
   1  -2  12    0.45    0.72
   1  -2  12    0.36    0.71
  -1   2 -12   -0.55    0.73
   0  -2  12   -0.14    0.68
   0  -2  12    0.43    0.66
   0   2 -12    0.77    0.94
  -1  -2  12    1.17    0.70
  -1  -2  12    0.15    0.73
   1   2 -12    0.52    0.84
  -2  -2  12    0.70    0.78
   2   2 -12    2.32    1.08
  -3  -2  12    1.94    1.00
   3   2 -12    1.69    1.20
  -4  -2  12    0.38    0.82
   4   2 -12    0.16    0.96
  -5  -2  12    0.91    0.90
   5   2 -12    0.83    1.24
  -6  -2  12   -0.20    0.95
   6   2 -12   -0.83    1.19
   5  -1  12    3.72    1.24
  -5   1 -12    1.77    1.27
   4  -1  12    3.17    1.11
  -4   1 -12    3.76    1.43
   3  -1  12    0.84    0.86
  -3   1 -12    0.41    0.94
   2  -1  12   10.81    1.53
  -2   1 -12   19.32    2.39
   1  -1  12    0.82    0.75
   1  -1  12    1.09    0.77
  -1   1 -12    1.34    0.94
   0  -1  12    0.69    0.69
   0  -1  12    1.28    0.70
   0   1 -12    1.33    0.97
  -1  -1  12   20.53    2.11
  -1  -1  12   22.68    1.92
   1   1 -12   22.49    2.49
  -2  -1  12    0.37    0.64
  -2  -1  12    2.08    0.96
   2   1 -12    1.69    1.02
  -3  -1  12   10.48    1.69
   3   1 -12    8.94    1.81
  -4  -1  12   11.77    1.80
   4   1 -12   13.03    2.17
  -5  -1  12   -0.66    0.77
   5   1 -12    0.26    1.16
  -6  -1  12    4.54    1.36
   6   1 -12    7.96    2.12
   5   0  12    0.24    0.88
  -5   0 -12    2.62    1.34
   4   0  12    2.34    1.09
  -4   0 -12    1.79    1.35
   3   0  12   18.84    2.02
  -3   0 -12   21.41    2.63
   2   0  12    8.77    1.41
  -2   0 -12   12.72    1.98
   1   0  12   21.18    2.00
   1   0  12   18.75    1.90
  -1   0 -12   24.17    2.58
   0   0  12   15.23    1.81
   0   0  12   14.31    1.64
   0   0 -12   11.93    1.81
  -1   0  12    1.89    0.85
  -1   0  12    0.98    0.79
   1   0 -12    2.43    0.93
   1   0 -12    1.97    1.02
  -2   0  12   21.98    1.94
  -2   0  12   21.71    2.25
   2   0 -12   20.39    2.39
  -3   0  12   -0.39    0.63
  -3   0  12    0.24    0.63
   3   0 -12   -0.47    0.89
  -4   0  12    5.19    1.28
   4   0 -12    6.00    1.58
  -5   0  12   27.28    2.65
   5   0 -12   24.61    3.01
  -6   0  12    5.50    1.50
   6   0 -12    3.22    1.60
   7   0 -12    1.05    1.59
   5   1  12    2.56    1.10
  -5  -1 -12    5.12    1.73
   4   1  12    2.86    1.07
  -4  -1 -12    2.23    1.27
   3   1  12    0.02    0.74
  -3  -1 -12   -0.25    0.96
   2   1  12   14.97    1.73
  -2  -1 -12   14.63    2.06
   1   1  12    0.92    0.72
  -1  -1 -12    0.51    0.76
  -1  -1 -12    0.86    0.89
   0   1  12   -0.13    0.63
   0  -1 -12    0.57    0.71
   0  -1 -12    0.20    0.79
  -1   1  12   21.86    1.95
   1  -1 -12   25.66    2.64
   1  -1 -12   18.82    2.05
  -2   1  12    0.10    0.58
   2  -1 -12    1.37    0.90
   2  -1 -12   -0.48    0.69
  -3   1  12    8.42    1.28
   3  -1 -12    4.28    1.32
   3  -1 -12    5.74    1.30
  -4   1  12   11.25    1.76
   4  -1 -12    9.09    1.60
   4  -1 -12   10.92    1.99
  -5   1  12   -0.29    0.70
   5  -1 -12   -0.28    1.06
  -6   1  12    8.31    1.64
   6  -1 -12    7.01    1.95
   7  -1 -12    1.56    1.66
  -5  -2 -12   -1.19    0.91
   4   2  12   -0.57    0.82
  -4  -2 -12    0.59    1.06
   3   2  12    5.44    1.26
  -3  -2 -12    3.44    1.34
   2   2  12    0.74    0.79
  -2  -2 -12    0.12    0.84
   1   2  12   -0.20    0.63
  -1  -2 -12   -0.43    0.67
  -1  -2 -12    1.10    0.97
   0   2  12    0.16    0.69
   0  -2 -12   -0.15    0.74
   0  -2 -12   -0.16    0.77
  -1   2  12   -0.17    0.67
   1  -2 -12    0.04    0.86
   1  -2 -12    0.91    0.86
  -2   2  12    1.48    0.88
   2  -2 -12    3.23    1.06
   2  -2 -12   -0.13    0.91
  -3   2  12    0.33    0.71
   3  -2 -12    0.22    0.77
   3  -2 -12    0.59    0.96
  -4   2  12   -0.23    0.60
   4  -2 -12    0.32    0.86
   4  -2 -12   -0.39    1.00
   5  -2 -12    0.28    0.89
   5  -2 -12    0.93    1.16
  -6   2  12    1.53    0.95
   4   3  12   13.20    1.85
  -4  -3 -12    8.44    1.94
   3   3  12    0.34    0.75
  -3  -3 -12    1.37    1.09
   2   3  12    7.13    1.31
  -2  -3 -12    6.86    1.55
   1   3  12    9.44    1.43
  -1  -3 -12   10.53    1.79
  -1  -3 -12   12.30    1.72
   0   3  12    9.32    1.42
   0  -3 -12    7.86    1.53
   0  -3 -12    6.03    1.33
  -1   3  12   16.61    1.86
   1  -3 -12   16.67    2.00
   1  -3 -12   15.95    2.05
  -2   3  12    3.00    0.96
   2  -3 -12    3.40    1.15
   2  -3 -12    3.77    1.23
  -3   3  12   13.49    1.67
   3  -3 -12   15.34    1.97
   3  -3 -12   17.98    2.28
  -4   3  12    9.86    1.49
   4  -3 -12    7.59    1.49
  -5   3  12   -0.12    0.71
   5  -3 -12    0.83    0.96
   6  -3 -12    8.30    1.71
   4   4  12   -0.21    0.75
  -4  -4 -12    2.65    1.30
   3   4  12   10.90    1.68
  -3  -4 -12   11.27    1.97
   2   4  12   -1.34    0.58
  -2  -4 -12   -0.34    0.84
   1   4  12   13.28    1.71
  -1  -4 -12   16.95    2.16
  -1  -4 -12   13.75    1.84
   0   4  12   18.42    1.95
   0  -4 -12   23.78    2.41
   0  -4 -12   22.48    2.42
  -1   4  12    1.37    0.78
   1  -4 -12    0.69    0.88
   1  -4 -12   -0.87    0.75
  -2   4  12   22.53    2.13
   2  -4 -12   24.67    2.48
  -3   4  12   19.39    1.99
   3  -4 -12   23.33    2.46
  -4   4  12    3.58    1.12
   4  -4 -12    4.70    1.38
  -5   4  12   13.20    1.79
   5  -4 -12   14.20    2.08
   6  -4 -12    1.17    1.03
   4   5  12    3.08    1.10
  -4  -5 -12    3.39    1.47
   3   5  12    0.87    0.81
  -3  -5 -12    0.19    1.06
   2   5  12    2.03    1.05
  -2  -5 -12    2.68    1.20
   1   5  12    1.83    0.88
  -1  -5 -12    0.72    0.90
  -1  -5 -12    1.00    0.93
   0   5  12    1.65    0.90
  -1   5  12    6.55    1.31
   1  -5 -12    3.81    1.29
  -2   5  12   -0.61    0.62
   2  -5 -12    1.50    1.06
  -3   5  12    1.31    0.89
   3  -5 -12    0.91    0.92
  -4   5  12    7.13    1.42
   4  -5 -12    5.12    1.41
  -5   5  12    0.49    0.90
   5  -5 -12   -0.33    0.95
  -6   5  12    4.56    1.34
  -4  -6 -12    2.91    1.38
   3   6  12    2.69    1.12
   2   6  12   -0.78    0.71
   1   6  12    4.86    1.24
  -1  -6 -12    5.13    1.44
   0   6  12    2.96    1.06
   0  -6 -12    2.16    1.09
  -1   6  12    0.83    0.83
   1  -6 -12    0.86    0.93
  -2   6  12    3.74    1.18
   2  -6 -12    3.59    1.29
  -3   6  12    3.27    1.12
   3  -6 -12    3.39    1.29
  -4   6  12    0.85    0.96
   4  -6 -12   -0.55    0.89
  -5   6  12    1.84    1.06
   5  -6 -12   -0.62    0.85
   2   7  12   14.91    2.01
  -2  -7 -12   12.47    1.99
   1   7  12   20.19    2.20
  -1  -7 -12   17.69    2.35
   0   7  12    2.02    1.08
   0  -7 -12    3.41    1.30
  -1   7  12   12.68    1.85
   1  -7 -12   22.46    2.57
  -2   7  12    5.52    1.39
   2  -7 -12    3.55    1.31
  -3   7  12    8.07    1.61
   3  -7 -12   10.06    1.86
  -4   7  12    9.83    1.80
  -2  -8 -12   10.18    2.00
   1   8  12    2.45    1.07
  -1  -8 -12    3.47    1.36
   0   8  12   20.57    2.35
   0  -8 -12   19.07    2.42
  -1   8  12    1.07    1.03
   1  -8 -12    3.99    1.47
  -2   8  12   10.91    1.82
   2  -8 -12   10.90    2.00
   0   7 -13    0.69    1.23
  -1  -7  13    6.47    1.54
   1   7 -13    5.63    1.75
  -2  -7  13    0.95    1.16
  -2   6 -13   16.14    2.54
  -1   6 -13    1.08    1.19
   0  -6  13   39.23    2.72
   0   6 -13   33.03    3.41
  -1  -6  13    3.84    1.16
   1   6 -13    0.20    1.05
  -2  -6  13   10.90    1.85
   2   6 -13    9.03    2.02
  -3  -6  13    7.31    1.76
   3   6 -13    9.03    2.08
   3  -5  13    0.79    0.95
   2  -5  13    7.66    1.51
  -2   5 -13    7.50    1.82
  -1   5 -13    9.83    2.02
   0  -5  13    2.19    1.11
   0   5 -13    4.61    1.51
  -1  -5  13   -0.07    0.86
   1   5 -13   -0.05    0.98
  -2  -5  13   16.05    2.16
   2   5 -13   19.06    2.67
  -3  -5  13   -0.12    0.95
   3   5 -13    2.03    1.31
   3  -4  13    1.92    1.07
  -3   4 -13   -0.30    1.05
   2  -4  13   -0.18    0.81
  -2   4 -13   -0.84    0.86
   1  -4  13    0.40    0.81
  -1   4 -13   -0.30    0.99
   0  -4  13    2.67    1.10
   0   4 -13    2.92    1.29
  -1  -4  13    0.03    0.84
   1   4 -13   -0.73    0.85
  -2  -4  13    0.28    0.91
   2   4 -13    0.93    1.05
  -3  -4  13    4.43    1.33
   3   4 -13    5.46    1.74
  -4  -4  13    1.80    1.18
   4   4 -13    1.82    1.44
   3  -3  13   -0.84    0.69
  -3   3 -13   -0.75    0.95
   2  -3  13    7.27    1.38
  -2   3 -13    2.28    1.26
   1  -3  13    0.60    0.85
  -1   3 -13    0.97    1.16
   0  -3  13    3.18    1.06
   0  -3  13    3.19    1.14
   0   3 -13    3.45    1.27
  -1  -3  13   -0.82    0.72
   1   3 -13   -0.27    0.84
  -2  -3  13    5.79    1.43
   2   3 -13    4.99    1.48
  -3  -3  13   -0.19    0.88
   3   3 -13    0.04    0.98
  -4  -3  13    9.93    1.84
   4   3 -13    6.67    1.84
  -5  -3  13   -0.43    0.88
   5   3 -13   -0.41    1.27
   3  -2  13    4.52    1.20
  -3   2 -13    6.11    1.76
   2  -2  13   12.35    1.70
  -2   2 -13   16.36    2.32
   1  -2  13    0.11    0.72
  -1   2 -13    0.73    1.00
   0  -2  13   24.01    2.17
   0  -2  13   21.07    2.22
   0   2 -13   22.52    2.59
  -1  -2  13   10.20    1.43
  -1  -2  13    6.38    1.36
   1   2 -13    7.97    1.69
  -2  -2  13    8.29    1.58
   2   2 -13   10.04    1.90
  -3  -2  13   13.10    1.94
   3   2 -13   13.37    2.31
  -4  -2  13    0.72    1.01
   4   2 -13   -0.10    1.08
  -5  -2  13   14.50    2.12
   5   2 -13   10.86    2.27
   3  -1  13   16.90    2.03
  -3   1 -13   16.69    2.40
   2  -1  13    5.34    1.28
  -2   1 -13    5.15    1.55
   1  -1  13   13.20    1.75
  -1   1 -13   14.53    2.17
   0  -1  13    1.06    0.83
   0  -1  13    0.60    0.71
   0   1 -13    1.62    1.04
  -1  -1  13   24.99    2.42
  -1  -1  13   21.94    2.04
   1   1 -13   20.27    2.56
  -2  -1  13    5.40    1.36
  -2  -1  13    6.70    1.23
   2   1 -13    9.21    1.83
  -3  -1  13    3.78    1.26
   3   1 -13    3.41    1.46
  -4  -1  13    7.04    1.56
   4   1 -13    6.91    1.79
  -5  -1  13    1.04    1.07
   5   1 -13    2.64    1.47
   3   0  13   -1.36    0.70
  -3   0 -13    1.83    1.19
   2   0  13    0.19    0.82
  -2   0 -13    0.54    1.10
   1   0  13   -0.27    0.73
  -1   0 -13    0.54    0.97
   0   0  13    0.04    0.74
   0   0  13    0.79    0.79
   0   0 -13    0.68    0.95
  -1   0  13    0.09    0.68
  -1   0  13   -0.66    0.55
   1   0 -13    0.03    0.88
  -2   0  13   -0.61    0.66
  -2   0  13   -0.78    0.70
   2   0 -13   -1.12    0.77
  -3   0  13    0.10    0.71
   3   0 -13   -0.05    0.92
  -4   0  13    0.85    0.91
   4   0 -13    0.94    1.13
  -5   0  13    0.11    0.92
   5   0 -13    0.29    1.19
   6   0 -13    0.74    1.35
   3   1  13   14.32    1.94
  -3  -1 -13   17.42    2.52
   2   1  13    4.25    1.19
  -2  -1 -13    4.08    1.39
   1   1  13   12.99    1.71
  -1  -1 -13   11.20    1.66
  -1  -1 -13   13.11    2.07
   0   1  13    1.80    0.88
   0  -1 -13    1.59    1.11
   0  -1 -13    1.68    0.99
  -1   1  13   26.42    2.25
   1  -1 -13   24.96    2.71
   1  -1 -13   23.80    2.39
  -2   1  13    7.61    1.33
   2  -1 -13   11.30    1.79
   2  -1 -13   10.74    1.94
  -3   1  13    4.65    1.13
  -3   1  13    3.12    1.10
   3  -1 -13    3.13    1.35
   3  -1 -13    1.52    1.02
  -4   1  13    8.36    1.62
   4  -1 -13    7.96    1.88
  -5   1  13    1.72    1.12
   5  -1 -13    1.59    1.39
   6  -1 -13   -1.57    1.17
   3   2  13    3.93    1.22
  -3  -2 -13    5.94    1.67
   2   2  13   12.11    1.73
  -2  -2 -13   12.78    2.10
   1   2  13    0.55    0.81
  -1  -2 -13    0.55    0.95
  -1  -2 -13   -0.21    0.80
   0   2  13   22.24    2.17
   0  -2 -13   28.65    2.91
   0  -2 -13   21.30    2.25
  -1   2  13    6.38    1.24
   1  -2 -13    8.12    1.57
   1  -2 -13    7.36    1.66
  -2   2  13   12.51    1.68
   2  -2 -13    9.63    1.68
   2  -2 -13   16.10    2.20
  -3   2  13   10.23    1.57
   3  -2 -13   12.68    1.90
   3  -2 -13   13.99    2.24
  -4   2  13    1.63    0.92
   4  -2 -13    0.05    1.07
   4  -2 -13    1.16    1.00
  -5   2  13   12.56    1.94
   5  -2 -13   11.63    1.91
   3   3  13    0.65    0.90
  -3  -3 -13    0.61    1.09
   2   3  13    6.48    1.33
  -2  -3 -13    8.26    1.72
   1   3  13   -0.10    0.72
  -1  -3 -13    2.07    1.01
  -1  -3 -13    0.61    1.01
   0   3  13    3.98    1.14
   0  -3 -13    3.10    1.17
   0  -3 -13    3.75    1.24
  -1   3  13    0.80    0.75
   1  -3 -13   -0.31    0.88
   1  -3 -13    0.55    0.87
  -2   3  13    5.27    1.25
   2  -3 -13    3.93    1.25
   2  -3 -13    3.60    1.35
  -3   3  13    0.04    0.75
   3  -3 -13   -0.79    0.80
  -4   3  13    9.64    1.56
   4  -3 -13   11.21    1.88
   5  -3 -13    1.14    0.97
  -3  -4 -13   -0.29    0.91
   2   4  13   -0.60    0.67
  -2  -4 -13    0.12    0.94
   1   4  13    1.76    0.97
  -1  -4 -13    1.87    1.01
  -1  -4 -13    1.55    1.08
   0   4  13    2.92    1.08
   0  -4 -13    2.46    1.25
   0  -4 -13    2.91    1.18
  -1   4  13    0.39    0.77
   1  -4 -13   -0.55    0.90
  -2   4  13   -0.29    0.75
   2  -4 -13    0.49    0.88
  -3   4  13    3.47    1.14
   3  -4 -13    5.34    1.44
  -4   4  13    1.31    0.91
   4  -4 -13    0.14    0.90
  -5   4  13   -0.23    0.85
  -3  -5 -13    0.86    1.19
   2   5  13    7.74    1.53
  -2  -5 -13    8.80    1.76
   1   5  13    7.99    1.47
  -1  -5 -13    9.74    1.81
   0   5  13    3.47    1.09
   0  -5 -13    2.44    1.22
  -1   5  13   -0.20    0.78
   1  -5 -13    1.03    1.01
  -2   5  13   20.59    2.19
   2  -5 -13   23.15    2.59
  -3   5  13   -0.29    0.81
   3  -5 -13    0.85    1.04
  -4   5  13   28.02    2.59
   4  -5 -13   23.62    2.70
  -5   5  13    2.63    1.17
   1   6  13    0.40    0.83
  -1  -6 -13    1.02    1.05
   0   6  13   37.45    2.68
   0  -6 -13   35.24    3.17
  -1   6  13   -0.89    0.75
   1  -6 -13   -0.39    0.93
  -2   6  13    9.70    1.71
  -3   6  13    9.98    1.68
   3  -6 -13   12.21    2.03
  -1  -7 -13    9.24    1.88
   0  -7 -13    3.47    1.38
   1  -7 -13    4.79    1.57
  -1  -5  14   -0.98    0.89
  -2  -5  14   -0.54    0.84
   2  -4  14   11.61    1.81
   0   4 -14   13.36    2.32
  -1  -4  14   33.10    2.95
  -2  -4  14    4.09    1.33
   2   4 -14    2.49    1.38
   2  -3  14    2.52    1.13
   1  -3  14   32.39    2.64
  -1   3 -14   33.04    3.33
   0  -3  14   10.78    1.75
   0   3 -14    9.89    2.01
  -1  -3  14    1.83    1.06
   1   3 -14    3.86    1.48
  -2  -3  14    6.20    1.55
   2   3 -14    8.51    1.90
  -3  -3  14    6.80    1.65
   3   3 -14    7.27    1.92
   2  -2  14    3.64    1.21
  -2   2 -14    3.84    1.44
   1  -2  14    0.81    0.89
  -1   2 -14    0.20    1.13
   0  -2  14    0.81    0.88
   0  -2  14    2.18    1.13
   0   2 -14    1.50    1.24
  -1  -2  14    0.08    0.88
   1   2 -14    2.37    1.27
  -2  -2  14    2.51    1.13
   2   2 -14    2.50    1.27
  -3  -2  14    1.66    1.09
   3   2 -14    2.42    1.44
   2  -1  14   -0.72    0.77
  -2   1 -14   -0.32    0.93
   1  -1  14   11.07    1.72
  -1   1 -14    9.59    2.01
   0  -1  14    0.18    0.82
   0  -1  14   -0.25    0.80
   0   1 -14    2.27    1.23
  -1  -1  14    4.22    1.27
  -1  -1  14    2.90    1.06
   1   1 -14    2.79    1.38
  -2  -1  14   21.44    2.44
   2   1 -14   18.45    2.56
  -3  -1  14    0.60    0.88
   3   1 -14   -0.09    1.13
   4   1 -14    2.98    1.57
   2   0  14   12.26    1.87
  -2   0 -14   12.66    2.22
   1   0  14    0.16    0.86
  -1   0 -14   -0.43    0.89
   0   0  14   18.25    2.17
   0   0  14   21.25    2.16
   0   0 -14   13.59    2.22
  -1   0  14   29.86    2.53
  -1   0  14   26.43    2.62
   1   0 -14   20.39    2.68
  -2   0  14    3.68    1.23
  -2   0  14    4.51    1.24
   2   0 -14    3.92    1.49
  -3   0  14   16.68    2.24
   3   0 -14   16.52    2.55
   4   0 -14    8.78    2.02
   2   1  14    1.08    0.95
  -2  -1 -14   -0.25    1.03
   1   1  14    7.87    1.47
  -1  -1 -14    9.50    1.93
   0   1  14    1.34    0.91
   0   1  14   -0.23    0.70
   0  -1 -14   -1.98    0.77
  -1   1  14    2.35    1.02
  -1   1  14    5.53    1.36
   1  -1 -14    2.66    1.32
  -2   1  14   20.28    2.16
  -2   1  14   20.09    2.38
   2  -1 -14   18.60    2.53
  -3   1  14    1.00    0.93
   3  -1 -14    0.35    1.03
   4  -1 -14    5.58    1.76
   5  -1 -14   13.88    2.56
   2   2  14    2.51    1.08
  -2  -2 -14    2.47    1.28
   1   2  14   -0.64    0.74
  -1  -2 -14    0.03    0.93
   0   2  14    1.85    1.07
   0  -2 -14    1.13    1.23
   0  -2 -14    0.56    0.94
  -1   2  14    0.91    0.94
   1  -2 -14    0.07    0.96
   1  -2 -14    2.20    1.12
  -2   2  14    2.89    1.07
   2  -2 -14    3.21    1.36
   2  -2 -14    3.17    1.27
  -3   2  14    1.86    0.98
   3  -2 -14    2.72    1.23
   3  -2 -14    1.28    1.24
  -2  -3 -14    1.58    1.24
   1   3  14   31.67    2.69
  -1  -3 -14   35.19    3.34
   0   3  14   12.60    1.79
   0  -3 -14   11.93    1.90
   0  -3 -14   11.58    2.06
  -1   3  14    2.41    1.09
   1  -3 -14    0.84    1.09
   1  -3 -14    4.47    1.41
  -2   3  14    8.73    1.55
   2  -3 -14    7.66    1.68
   2  -3 -14    6.36    1.69
  -3   3  14    8.19    1.52
   3  -3 -14    6.75    1.58
  -4   3  14   18.33    2.07
  -2  -4 -14   10.79    2.05
  -1  -4 -14    9.68    1.92
   0   4  14    9.57    1.69
   0  -4 -14   12.63    2.03
  -1   4  14   30.45    2.72
   1  -4 -14   33.34    3.01
  -2   4  14    0.32    0.86
   2  -4 -14    1.50    1.10
  -3   4  14   19.89    2.23
  -4   4  14    0.02    0.84
  -1  -5 -14   10.46    1.86
   0  -5 -14   -0.49    0.93
   1  -5 -14    0.61    0.93
  -1  -2  15   17.24    2.24
   0  -1  15    8.24    1.62
  -1  -1  15    1.64    1.04
   0   0  15    0.15    0.86
   0   0  15   -0.12    0.81
  -1   0  15   -0.27    0.90
  -1   0  15   -0.28    0.83
   0   1  15    5.78    1.43
  -1   1  15    1.77    1.01
  -1   1  15    0.68    0.96
   1  -1 -15    0.63    1.23
  -2   1  15    6.98    1.53
   2  -1 -15    9.06    1.96
   0   2  15    2.67    1.14
   0  -2 -15    2.92    1.24
  -1   2  15   18.07    2.21
   1  -2 -15   18.38    2.64
   1  -2 -15   15.93    2.22
  -2   2  15   -0.13    0.92
   2  -2 -15    1.17    1.22
   0  -3 -15    9.43    1.75
   1  -3 -15   11.15    2.11
   0   0   0    0.00    0.00
;
_shelx_hkl_checksum              70643
loop_
_space_group_symop_operation_xyz
'x, y, z'
'-x, y+1/2, -z+1/2'
'-x, -y, -z'
'x, -y-1/2, z-1/2'
loop_
_atom_site_label
_atom_site_type_symbol
_atom_site_fract_x
_atom_site_fract_y
_atom_site_fract_z
_atom_site_U_iso_or_equiv
_atom_site_adp_type
_atom_site_occupancy
_atom_site_site_symmetry_order
_atom_site_calc_flag
_atom_site_refinement_flags_posn
_atom_site_refinement_flags_adp
_atom_site_refinement_flags_occupancy
_atom_site_disorder_assembly
_atom_site_disorder_group
Mn1 Mn 0.18843(5) 1.11320(3) 0.82761(3) 0.02045(13) Uani 1 1 d . . . . .
C1 C 0.2116(3) 1.0581(2) 0.5472(2) 0.0171(5) Uani 1 1 d . . . . .
C2 C 0.3552(3) 0.8899(2) 0.6211(2) 0.0175(5) Uani 1 1 d . . . . .
C3 C 0.1141(3) 1.1882(2) 0.5479(2) 0.0192(5) Uani 1 1 d . . . . .
C4 C 0.4571(3) 0.7868(2) 0.7027(2) 0.0228(5) Uani 1 1 d . . . . .
N1 N 0.2730(2) 0.99814(18) 0.65865(16) 0.0173(4) Uani 1 1 d . . . . .
N2 N 0.2504(3) 0.99297(19) 0.44409(17) 0.0202(4) Uani 1 1 d . . . . .
N3 N 0.3419(3) 0.8867(2) 0.49374(19) 0.0210(4) Uani 1 1 d . . . . .
H3 H 0.379(4) 0.831(3) 0.443(3) 0.040(9) Uiso 1 1 d . . . . .
O1 O 0.0832(2) 1.22889(16) 0.65748(15) 0.0245(4) Uani 1 1 d . . . . .
O2 O 0.0701(2) 1.24412(17) 0.44470(15) 0.0271(4) Uani 1 1 d . . . . .
O3 O 0.5417(3) 0.70528(17) 0.64059(16) 0.0316(4) Uani 1 1 d . . . . .
O4 O 0.4488(3) 0.79334(17) 0.82031(16) 0.0349(5) Uani 1 1 d . . . . .
O5 O -0.0780(2) 0.99650(16) 0.80973(14) 0.0247(4) Uani 1 1 d . . . . .
H5A H -0.1394 1.0061 0.7407 0.037 Uiso 1 1 d R U . . .
H5B H -0.0645 0.9175 0.8211 0.037 Uiso 1 1 d R U . . .
O6 O 0.2793(3) 0.97960(18) 0.97528(17) 0.0363(5) Uani 1 1 d . . . . .
H6A H 0.3510 0.9196 0.9609 0.054 Uiso 1 1 d R U . . .
H6B H 0.2328 0.9625 1.0422 0.054 Uiso 1 1 d R U . . .
loop_
_atom_site_aniso_label
_atom_site_aniso_U_11
_atom_site_aniso_U_22
_atom_site_aniso_U_33
_atom_site_aniso_U_23
_atom_site_aniso_U_13
_atom_site_aniso_U_12
Mn1 0.0266(2) 0.0200(2) 0.0149(2) -0.00146(14) 0.00292(14) -0.00394(15)
C1 0.0155(11) 0.0187(12) 0.0173(11) 0.0005(9) 0.0029(9) -0.0012(9)
C2 0.0161(11) 0.0197(12) 0.0170(11) -0.0002(9) 0.0028(9) -0.0011(9)
C3 0.0170(11) 0.0192(12) 0.0214(12) 0.0015(10) 0.0020(9) -0.0030(9)
C4 0.0241(12) 0.0210(13) 0.0233(13) -0.0010(10) 0.0023(10) -0.0020(10)
N1 0.0198(10) 0.0180(10) 0.0140(9) 0.0006(8) 0.0011(8) 0.0006(8)
N2 0.0209(10) 0.0229(11) 0.0168(10) 0.0009(8) 0.0016(8) 0.0004(8)
N3 0.0230(10) 0.0209(11) 0.0195(10) -0.0031(9) 0.0043(8) 0.0023(9)
O1 0.0339(10) 0.0190(9) 0.0207(9) -0.0019(7) 0.0034(7) 0.0054(7)
O2 0.0316(9) 0.0276(10) 0.0218(9) 0.0115(7) 0.0012(7) 0.0022(8)
O3 0.0344(10) 0.0309(10) 0.0290(10) -0.0039(8) -0.0004(8) 0.0153(8)
O4 0.0529(12) 0.0300(11) 0.0221(10) 0.0067(8) 0.0061(8) 0.0092(9)
O5 0.0322(9) 0.0230(9) 0.0184(8) 0.0030(7) -0.0008(7) -0.0052(7)
O6 0.0412(11) 0.0370(11) 0.0319(10) 0.0118(9) 0.0095(8) 0.0136(9)
loop_
_atom_type_symbol
_atom_type_description
_atom_type_scat_dispersion_real
_atom_type_scat_dispersion_imag
_atom_type_scat_source
C C 0.0033 0.0016 'International Tables Vol C Tables 4.2.6.8 and 6.1.1.4'
H H 0.0000 0.0000 'International Tables Vol C Tables 4.2.6.8 and 6.1.1.4'
N N 0.0061 0.0033 'International Tables Vol C Tables 4.2.6.8 and 6.1.1.4'
O O 0.0106 0.0060 'International Tables Vol C Tables 4.2.6.8 and 6.1.1.4'
Mn Mn 0.3368 0.7283 'International Tables Vol C Tables 4.2.6.8 and 6.1.1.4'
loop_
_geom_angle_atom_site_label_1
_geom_angle_atom_site_label_2
_geom_angle_atom_site_label_3
_geom_angle
_geom_angle_site_symmetry_1
_geom_angle_site_symmetry_3
O6 Mn1 O2 97.34(7) . 4_586
O6 Mn1 O3 87.51(7) . 2_656
O2 Mn1 O3 90.59(7) 4_586 2_656
O6 Mn1 O1 172.22(7) . .
O2 Mn1 O1 88.76(6) 4_586 .
O3 Mn1 O1 97.29(6) 2_656 .
O6 Mn1 O5 85.48(7) . .
O2 Mn1 O5 91.81(6) 4_586 .
O3 Mn1 O5 172.82(6) 2_656 .
O1 Mn1 O5 89.53(6) . .
O6 Mn1 N1 98.92(7) . .
O2 Mn1 N1 163.52(7) 4_586 .
O3 Mn1 N1 92.75(7) 2_656 .
O1 Mn1 N1 74.82(6) . .
O5 Mn1 N1 86.85(6) . .
N2 C1 N1 113.9(2) . .
N2 C1 C3 125.5(2) . .
N1 C1 C3 120.60(19) . .
N1 C2 N3 109.04(19) . .
N1 C2 C4 128.14(19) . .
N3 C2 C4 122.8(2) . .
O2 C3 O1 126.5(2) . .
O2 C3 C1 119.0(2) . .
O1 C3 C1 114.54(19) . .
O4 C4 O3 128.6(2) . .
O4 C4 C2 117.7(2) . .
O3 C4 C2 113.7(2) . .
C2 N1 C1 103.64(18) . .
C2 N1 Mn1 145.51(15) . .
C1 N1 Mn1 110.79(14) . .
C1 N2 N3 102.61(18) . .
C2 N3 N2 110.86(19) . .
C2 N3 H3 131(2) . .
N2 N3 H3 118(2) . .
C3 O1 Mn1 119.07(14) . .
C3 O2 Mn1 137.43(15) . 4_585
C4 O3 Mn1 133.12(16) . 2_646
Mn1 O5 H5A 113.2 . .
Mn1 O5 H5B 115.0 . .
H5A O5 H5B 107.1 . .
Mn1 O6 H6A 119.9 . .
Mn1 O6 H6B 129.8 . .
H6A O6 H6B 107.9 . .
loop_
_geom_bond_atom_site_label_1
_geom_bond_atom_site_label_2
_geom_bond_distance
_geom_bond_site_symmetry_2
Mn1 O6 2.1240(17) .
Mn1 O2 2.1329(16) 4_586
Mn1 O3 2.1471(17) 2_656
Mn1 O1 2.2179(16) .
Mn1 O5 2.2424(16) .
Mn1 N1 2.2590(18) .
C1 N2 1.324(3) .
C1 N1 1.359(3) .
C1 C3 1.501(3) .
C2 N1 1.328(3) .
C2 N3 1.335(3) .
C2 C4 1.504(3) .
C3 O2 1.241(3) .
C3 O1 1.264(3) .
C4 O4 1.246(3) .
C4 O3 1.249(3) .
N2 N3 1.348(3) .
N3 H3 0.84(3) .
O2 Mn1 2.1329(16) 4_585
O3 Mn1 2.1472(17) 2_646
O5 H5A 0.8198 .
O5 H5B 0.8197 .
O6 H6A 0.8220 .
O6 H6B 0.8242 .
loop_
_geom_hbond_atom_site_label_D
_geom_hbond_atom_site_label_H
_geom_hbond_atom_site_label_A
_geom_hbond_distance_DH
_geom_hbond_distance_HA
_geom_hbond_distance_DA
_geom_hbond_angle_DHA
_geom_hbond_site_symmetry_A
N3 H3 O4 0.84(3) 1.91(3) 2.747(3) 177(3) 4_575
O6 H6B O5 0.82 2.04 2.801(2) 154.1 3_577
O6 H6A O3 0.82 2.57 3.086(3) 122.3 4_576
O6 H6A O4 0.82 2.13 2.848(3) 146.1 .
O5 H5B O1 0.82 1.95 2.755(2) 169.3 2_546
O5 H5A N2 0.82 2.03 2.839(2) 168.3 3_576
loop_
_geom_torsion_atom_site_label_1
_geom_torsion_atom_site_label_2
_geom_torsion_atom_site_label_3
_geom_torsion_atom_site_label_4
_geom_torsion
_geom_torsion_site_symmetry_1
_geom_torsion_site_symmetry_2
_geom_torsion_site_symmetry_3
_geom_torsion_site_symmetry_4
N2 C1 C3 O2 -2.7(3) . . . .
N1 C1 C3 O2 175.6(2) . . . .
N2 C1 C3 O1 176.5(2) . . . .
N1 C1 C3 O1 -5.2(3) . . . .
N1 C2 C4 O4 8.6(4) . . . .
N3 C2 C4 O4 -174.5(2) . . . .
N1 C2 C4 O3 -170.8(2) . . . .
N3 C2 C4 O3 6.1(3) . . . .
N3 C2 N1 C1 -0.1(2) . . . .
C4 C2 N1 C1 177.1(2) . . . .
N3 C2 N1 Mn1 176.27(19) . . . .
C4 C2 N1 Mn1 -6.5(4) . . . .
N2 C1 N1 C2 0.3(2) . . . .
C3 C1 N1 C2 -178.18(19) . . . .
N2 C1 N1 Mn1 -177.53(15) . . . .
C3 C1 N1 Mn1 4.0(2) . . . .
N1 C1 N2 N3 -0.3(2) . . . .
C3 C1 N2 N3 178.1(2) . . . .
N1 C2 N3 N2 0.0(3) . . . .
C4 C2 N3 N2 -177.5(2) . . . .
C1 N2 N3 C2 0.2(2) . . . .
O2 C3 O1 Mn1 -177.34(18) . . . .
C1 C3 O1 Mn1 3.6(2) . . . .
O1 C3 O2 Mn1 87.5(3) . . . 4_585
C1 C3 O2 Mn1 -93.5(3) . . . 4_585
O4 C4 O3 Mn1 -40.5(4) . . . 2_646
C2 C4 O3 Mn1 138.85(18) . . . 2_646
