#------------------------------------------------------------------------------
#$Date: 2021-03-30 11:48:32 +0300 (Tue, 30 Mar 2021) $
#$Revision: 263437 $
#$URL: file:///home/coder/svn-repositories/cod/cif/1/56/13/1561359.cif $
#------------------------------------------------------------------------------
#
# This file is available in the Crystallography Open Database (COD),
# http://www.crystallography.net/
#
# All data on this site have been placed in the public domain by the
# contributors.
#
data_1561359
loop_
_publ_author_name
'Markovski, Mishel R.'
'Siidra, Oleg I.'
'Kayukov, Roman A.'
'Nazarchuk, Evgeni W.'
_publ_section_title
;
 Porous layered and open-framework mixed-valence copper tellurites
;
_journal_name_full               'Journal of Solid State Chemistry'
_journal_page_first              215
_journal_page_last               220
_journal_paper_doi               10.1016/j.jssc.2016.08.028
_journal_volume                  243
_journal_year                    2016
_chemical_formula_sum            'Cu2 O18 Te7 Tl2'
_chemical_formula_weight         1717.02
_space_group_crystal_system      monoclinic
_space_group_IT_number           14
_space_group_name_Hall           '-P 2yn'
_space_group_name_H-M_alt        'P 1 21/n 1'
_atom_sites_solution_hydrogens   .
_audit_creation_method           SHELXL-2014/7
_cell_angle_alpha                90
_cell_angle_beta                 90.978(8)
_cell_angle_gamma                90
_cell_formula_units_Z            2
_cell_length_a                   7.605(2)
_cell_length_b                   11.825(3)
_cell_length_c                   9.849(3)
_cell_measurement_reflns_used    1284
_cell_measurement_temperature    293(2)
_cell_measurement_theta_max      32.741
_cell_measurement_theta_min      2.692
_cell_volume                     885.6(4)
_computing_structure_refinement  'SHELXL-2014/7 (Sheldrick, 2014)'
_diffrn_ambient_temperature      293(2)
_diffrn_measured_fraction_theta_full 0.974
_diffrn_measured_fraction_theta_max 0.925
_diffrn_measurement_device_type  'Bruker Apex 2 Duo'
_diffrn_radiation_type           MoK\a
_diffrn_radiation_wavelength     0.71073
_diffrn_reflns_av_R_equivalents  0.0403
_diffrn_reflns_av_unetI/netI     0.0506
_diffrn_reflns_Laue_measured_fraction_full 0.974
_diffrn_reflns_Laue_measured_fraction_max 0.925
_diffrn_reflns_limit_h_max       11
_diffrn_reflns_limit_h_min       -11
_diffrn_reflns_limit_k_max       13
_diffrn_reflns_limit_k_min       -17
_diffrn_reflns_limit_l_max       14
_diffrn_reflns_limit_l_min       -13
_diffrn_reflns_number            8028
_diffrn_reflns_point_group_measured_fraction_full 0.974
_diffrn_reflns_point_group_measured_fraction_max 0.925
_diffrn_reflns_theta_full        25.242
_diffrn_reflns_theta_max         32.741
_diffrn_reflns_theta_min         2.692
_exptl_absorpt_coefficient_mu    31.903
_exptl_crystal_density_diffrn    6.439
_exptl_crystal_description       prism
_exptl_crystal_F_000             1456
_refine_diff_density_max         1.882
_refine_diff_density_min         -1.759
_refine_diff_density_rms         0.390
_refine_ls_extinction_coef       .
_refine_ls_extinction_method     none
_refine_ls_goodness_of_fit_ref   0.983
_refine_ls_hydrogen_treatment    undef
_refine_ls_matrix_type           full
_refine_ls_number_parameters     133
_refine_ls_number_reflns         3017
_refine_ls_number_restraints     0
_refine_ls_restrained_S_all      0.983
_refine_ls_R_factor_all          0.0499
_refine_ls_R_factor_gt           0.0307
_refine_ls_shift/su_max          0.001
_refine_ls_shift/su_mean         0.000
_refine_ls_structure_factor_coef Fsqd
_refine_ls_weighting_details
'w=1/[\s^2^(Fo^2^)+(0.0198P)^2^] where P=(Fo^2^+2Fc^2^)/3'
_refine_ls_weighting_scheme      calc
_refine_ls_wR_factor_gt          0.0522
_refine_ls_wR_factor_ref         0.0577
_reflns_Friedel_coverage         0.000
_reflns_Friedel_fraction_full    .
_reflns_Friedel_fraction_max     .
_reflns_number_gt                2310
_reflns_number_total             3017
_reflns_threshold_expression     'I > 2\s(I)'
_cod_data_source_file            JSSC-2016-243-215.cif
_cod_data_source_block           Tl+2[Cu2+2Te6+Te4+6O18]
_cod_original_sg_symbol_H-M      'P 21/n'
_cod_database_code               1561359
_shelx_shelxl_version_number     2014/7
_shelx_space_group_comment
;
The symmetry employed for this shelxl refinement is uniquely defined
by the following loop, which should always be used as a source of
symmetry information in preference to the above space-group names.
They are only intended as comments.
;
_shelx_res_file
;

    shelx.res created by SHELXL-2014/7


TITL shelxt_c.res in Pn               New: P21/n
CELL  0.71073    7.6050   11.8250    9.8490    90.000    90.978    90.000
ZERR        2    0.0020    0.0030    0.0030     0.000     0.008     0.000
LATT   1
SYMM     0.50000 - X ,    0.50000 + Y ,    0.50000 - Z
SFAC Cu  O Te Tl
UNIT     4   36  14   4
L.S. 20
conn 12 2 $Tl $Cu
FMAP 2
PLAN 50
ACTA
BOND
CONF
WGHT    0.019800
FVAR       0.04308
TL1   4   -0.031964    0.535956   -0.242250    11.00000    0.02651    0.02714 =
         0.03823    0.00293    0.00629   -0.00101
TE1   3   -0.035461    0.034157    0.153810    11.00000    0.00919    0.01118 =
         0.00772    0.00073    0.00097   -0.00059
TE2   3   -0.210333    0.280447   -0.056307    11.00000    0.00842    0.01323 =
         0.00601   -0.00032    0.00024    0.00095
TE3   3    0.291410    0.242636    0.044298    11.00000    0.00894    0.01232 =
         0.00639   -0.00096   -0.00102    0.00062
TE4   3    0.500000    0.500000    0.000000    10.50000    0.00859    0.00863 =
         0.00509    0.00016    0.00048    0.00036
CU1   1   -0.350765    0.250731    0.245038    11.00000    0.00938    0.01512 =
         0.00663   -0.00148    0.00056   -0.00247
O1    2   -0.148339    0.256622    0.126011    11.00000    0.00857    0.02218 =
         0.00642    0.00031    0.00023    0.00064
O2    2    0.011479    0.324703   -0.115228    11.00000    0.00521    0.01435 =
         0.01259   -0.00121    0.00284    0.00004
O3    2   -0.073477    0.086241   -0.053318    11.00000    0.01253    0.01436 =
         0.00106   -0.00215   -0.00281    0.00013
O4    2    0.178508    0.111792    0.173294    11.00000    0.01189    0.01547 =
         0.01197    0.00498   -0.00574   -0.00453
O5    2    0.272163    0.159163   -0.115248    11.00000    0.01443    0.01124 =
         0.00542   -0.00104   -0.00180    0.00427
O6    2    0.409030    0.367046   -0.082022    11.00000    0.02055    0.01535 =
         0.00419   -0.00271    0.00174   -0.00469
O7    2   -0.263115    0.438736   -0.013119    11.00000    0.01003    0.01307 =
         0.01518   -0.00388   -0.00083   -0.00026
O8    2    0.028138   -0.067426    0.322494    11.00000    0.01553    0.01536 =
         0.00699    0.00000    0.00244    0.00297
O9    2    0.514313    0.185877    0.095003    11.00000    0.01327    0.02232 =
         0.00948   -0.00094   -0.00168    0.00070
HKLF 4

REM  shelxt_c.res in Pn               New: P21/n
REM R1 =  0.0307 for    2310 Fo > 4sig(Fo)  and  0.0499 for all    3017 data
REM    133 parameters refined using      0 restraints

END

WGHT      0.0197      0.0000

REM Highest difference peak  1.882,  deepest hole -1.759,  1-sigma level  0.390
Q1    1  -0.0233  0.5844 -0.3041  11.00000  0.05    1.88
Q2    1  -0.0212  0.4979 -0.2930  11.00000  0.05    1.62
Q3    1  -0.1005  0.4128 -0.2979  11.00000  0.05    1.47
Q4    1   0.1711  0.1858 -0.1379  11.00000  0.05    1.44
Q5    1  -0.0683  0.3382  0.2050  11.00000  0.05    1.41
Q6    1  -0.1204  0.5985 -0.3392  11.00000  0.05    1.32
Q7    1  -0.2789  0.1836 -0.0815  11.00000  0.05    1.31
Q8    1  -0.1514  0.2835 -0.0198  11.00000  0.05    1.31
Q9    1  -0.0594  0.2851 -0.1035  11.00000  0.05    1.30
Q10   1  -0.0779 -0.1361  0.3007  11.00000  0.05    1.27
Q11   1   0.0989  0.0856  0.2163  11.00000  0.05    1.25
Q12   1   0.2067  0.1175 -0.1170  11.00000  0.05    1.25
Q13   1  -0.0764  0.1419  0.2388  11.00000  0.05    1.24
Q14   1  -0.5235  0.2626  0.1986  11.00000  0.05    1.23
Q15   1  -0.1534 -0.0840  0.3183  11.00000  0.05    1.22
Q16   1  -0.0346  0.4780 -0.3786  11.00000  0.05    1.21
Q17   1  -0.2798  0.1768  0.3665  11.00000  0.05    1.21
Q18   1  -0.0515 -0.0578  0.2991  11.00000  0.05    1.17
Q19   1   0.0287  0.2547  0.1997  11.00000  0.05    1.17
Q20   1  -0.0312 -0.0346  0.0990  11.00000  0.05    1.16
Q21   1  -0.2624  0.2217 -0.0019  11.00000  0.05    1.16
Q22   1  -0.3691  0.3371 -0.0689  11.00000  0.05    1.16
Q23   1   0.0380 -0.0367  0.3899  11.00000  0.05    1.15
Q24   1  -0.0271  0.0697  0.0978  11.00000  0.05    1.14
Q25   1   0.2248  0.1035  0.1262  11.00000  0.05    1.14
Q26   1   0.6124  0.1613  0.1891  11.00000  0.05    1.13
Q27   1  -0.1947  0.1990  0.3000  11.00000  0.05    1.12
Q28   1   0.2683  0.4171 -0.1865  11.00000  0.05    1.12
Q29   1   0.2738  0.2006  0.0897  11.00000  0.05    1.11
Q30   1   0.0491  0.4076 -0.1342  11.00000  0.05    1.11
Q31   1   0.4916  0.2012 -0.1216  11.00000  0.05    1.10
Q32   1  -0.0409  0.6367 -0.1301  11.00000  0.05    1.10
Q33   1  -0.2311  0.1190  0.2461  11.00000  0.05    1.10
Q34   1   0.2015 -0.1207  0.2321  11.00000  0.05    1.10
Q35   1  -0.0095  0.2786 -0.1979  11.00000  0.05    1.09
Q36   1  -0.0683  0.5155 -0.2138  11.00000  0.05    1.09
Q37   1   0.0598  0.6001 -0.2375  11.00000  0.05    1.09
Q38   1   0.4720  0.2798 -0.1586  11.00000  0.05    1.08
Q39   1  -0.1559 -0.0169 -0.0123  11.00000  0.05    1.08
Q40   1   0.1567  0.3166  0.0463  11.00000  0.05    1.08
Q41   1  -0.0293  0.4066 -0.0850  11.00000  0.05    1.08
Q42   1  -0.0954  0.2975  0.1327  11.00000  0.05    1.08
Q43   1  -0.1909  0.1742 -0.1840  11.00000  0.05    1.07
Q44   1   0.3106  0.1875  0.2656  11.00000  0.05    1.07
Q45   1   0.5413  0.3160  0.0234  11.00000  0.05    1.07
Q46   1   0.4286  0.2437 -0.1680  11.00000  0.05    1.07
Q47   1  -0.0982  0.1739  0.1602  11.00000  0.05    1.06
Q48   1   0.4840  0.1351  0.0763  11.00000  0.05    1.06
Q49   1   0.2729  0.1053  0.2427  11.00000  0.05    1.06
Q50   1   0.0028  0.4267 -0.0002  11.00000  0.05    1.06
;
_shelx_res_checksum              49684
_shelx_hkl_file
;
   1   0   0   -0.03    0.06
   2   0   0   69.89    1.37
   3   0   0    0.02    0.15
   4   0   0  364.25    6.65
   5   0   0    0.14    0.22
   6   0   0   63.11    1.79
   7   0   0    0.30    0.35
   8   0   0    2.36    0.56
  10   0   0    3.24    0.52
  11   0   0    0.30    0.36
   0  -1   0    0.15    0.09
  -1  -1   0    2.50    0.29
   1   1   0    3.24    0.35
   2   1   0   22.62    0.75
   3   1   0    1.59    0.29
   4  -1   0   70.41    1.44
   4   1   0   71.97    1.82
   5  -1   0    0.68    0.21
   5   1   0    0.11    0.27
   6  -1   0  108.74    2.44
   6   1   0  110.49    2.82
   7  -1   0    3.20    0.47
   7   1   0    4.59    0.68
   8  -1   0   84.82    2.37
   9  -1   0   -0.17    0.24
  10  -1   0    7.84    0.67
  10   1   0    8.59    0.81
  11  -1   0    0.49    0.36
  11   1   0    1.33    0.47
   0  -2   0    2.00    0.31
   1  -2   0   13.15    0.46
  -1  -2   0   12.03    0.57
   1   2   0   11.64    0.61
  -2  -2   0 1000.00   17.48
   2   2   0  994.53   17.57
   3   2   0  104.84    2.46
   4  -2   0   77.13    2.38
   4   2   0   79.52    2.11
   5   2   0   23.74    1.13
   6  -2   0    8.95    0.47
   6   2   0   10.61    0.96
   7  -2   0   15.98    0.74
   7   2   0   15.83    1.13
   8  -2   0   10.23    0.73
   8  -2   0    9.69    0.53
   9  -2   0   13.43    0.91
   9  -2   0   13.36    0.66
  10  -2   0   19.82    0.85
  11  -2   0    0.21    0.31
 -11   2   0   -0.50    1.06
  11   2   0   -0.07    0.42
   0  -3   0    0.14    0.25
   1  -3   0   15.30    0.65
  -1  -3   0   14.35    0.76
   2  -3   0   11.43    1.01
   2  -3   0   10.44    0.46
  -2  -3   0   10.79    0.67
   2   3   0   11.10    0.72
  -2   3   0   11.53    0.62
   3  -3   0    0.67    0.13
   3  -3   0    1.28    0.49
   3   3   0    0.47    0.32
   4  -3   0   73.16    2.50
   4   3   0   74.14    2.16
   5  -3   0   39.90    1.87
   5   3   0   44.50    1.67
   6   3   0  115.14    3.22
   7  -3   0    0.82    0.19
   7  -3   0    0.86    0.24
   8  -3   0   43.16    1.13
   8  -3   0   47.83    1.37
   9  -3   0   11.78    0.76
   9  -3   0   10.07    0.55
  10  -3   0    7.99    0.75
 -10   3   0    6.47    1.57
 -11   3   0   -0.39    1.01
  11   3   0   -0.25    0.42
   0  -4   0  756.50   13.68
   1  -4   0   74.79    2.44
   1  -4   0   74.76    1.90
  -1  -4   0   73.70    2.03
   2  -4   0    3.67    0.40
  -2  -4   0    4.02    0.53
   2  -4   0    3.28    0.66
   3  -4   0   18.08    1.27
   3  -4   0   15.99    0.63
  -3  -4   0   16.15    0.92
   3   4   0   17.18    1.01
  -3   4   0   16.59    0.87
   4  -4   0  112.07    2.24
   4  -4   0  112.60    3.53
  -4   4   0  113.79    3.04
   4   4   0  113.14    3.05
   5  -4   0   88.48    1.80
   5  -4   0   88.51    3.13
   5   4   0   92.79    2.77
   6  -4   0   43.89    2.19
  -8   4   0    0.46    0.72
  -9   4   0   10.32    1.66
 -10   4   0    2.40    1.16
  11   4   0   15.79    1.33
   0  -5   0    0.67    0.44
   0  -5   0   -0.35    0.26
  -1  -5   0    6.53    0.69
   1  -5   0    8.95    0.74
  -1  -5   0    8.92    0.92
   1  -5   0   10.67    1.11
  -2  -5   0    1.54    0.41
   2  -5   0    0.78    0.51
   2  -5   0    1.07    0.33
   3  -5   0   32.69    1.09
   3  -5   0   33.31    1.84
  -3  -5   0   32.72    1.39
  -3   5   0   32.44    1.13
   4  -5   0   39.87    1.18
   4  -5   0   37.79    2.03
   4   5   0   44.33    1.81
  -4   5   0   38.78    1.50
   5  -5   0   12.55    1.42
   5  -5   0   15.04    0.64
  -5   5   0   14.86    1.21
   6  -5   0   46.24    2.42
   6  -5   0   48.70    1.25
  -6   5   0   47.52    2.08
   7  -5   0   30.22    0.92
   7  -5   0   31.70    0.89
  -7   5   0   32.54    1.90
  -8   5   0   27.91    1.94
  -9   5   0    2.99    1.03
  11   5   0    1.52    0.63
   0  -6   0   31.80    1.72
   0  -6   0   35.33    1.45
   1  -6   0   20.27    1.72
  -1  -6   0   14.66    0.99
  -1  -6   0   17.52    1.22
   1  -6   0   14.82    0.93
  -2  -6   0  205.77    5.01
  -2  -6   0  207.68    4.77
   2  -6   0  199.74    4.47
   2  -6   0  208.51    5.60
  -3  -6   0  142.96    3.65
   3  -6   0  139.07    3.27
   3  -6   0  140.79    4.44
  -3  -6   0  146.24    3.70
  -3   6   0  141.99    3.02
   4  -6   0   17.78    0.88
   4  -6   0   18.23    1.80
  -4   6   0   17.81    0.95
   5  -6   0   52.82    1.54
   5  -6   0   50.35    2.61
  -5   6   0   52.26    1.91
   6  -6   0    2.70    0.41
   6  -6   0    2.76    0.88
  -6   6   0    3.27    0.72
   7  -6   0   59.18    1.62
  -7   6   0   62.60    2.56
   0  -7   0    0.06    0.35
   0  -7   0   -0.26    0.39
  -1  -7   0   21.74    1.25
   1  -7   0   22.00    1.64
  -1  -7   0   20.91    1.47
   1  -7   0   21.04    1.17
  -2  -7   0    3.38    0.62
   2  -7   0    2.16    0.53
  -2  -7   0    2.66    0.66
   2  -7   0    1.87    0.69
  -2   7   0    3.13    0.30
  -3  -7   0    3.15    0.66
   3  -7   0    4.29    0.61
  -3  -7   0    2.72    0.61
   3  -7   0    4.67    1.02
  -3   7   0    3.40    0.38
   4  -7   0    2.04    0.79
  -4  -7   0    2.41    0.55
   4  -7   0    2.40    0.50
  -4   7   0    2.97    0.45
   5  -7   0   50.84    1.69
   5  -7   0   51.97    2.80
  -5   7   0   51.67    1.78
   6  -7   0   39.26    1.42
   6  -7   0   39.01    2.50
   7  -7   0    4.68    0.58
   8  -7   0   16.52    0.87
   8  -7   0   17.07    0.75
   0  -8   0   46.36    1.95
   0  -8   0   50.94    2.45
  -1  -8   0   78.14    3.04
   1  -8   0   78.70    3.25
   1  -8   0   81.86    2.64
  -1  -8   0   80.27    2.70
  -2  -8   0   30.06    1.74
   2  -8   0   31.12    2.06
   2  -8   0   27.04    1.44
  -2  -8   0   30.02    1.60
  -3  -8   0    5.45    0.87
  -3  -8   0    4.25    0.80
   3  -8   0    4.95    1.07
   3  -8   0    5.14    0.74
  -4  -8   0   -0.30    0.40
   4  -8   0    0.28    0.38
   4  -8   0    0.08    0.60
   5  -8   0   75.68    2.37
   5  -8   0   75.11    3.60
   6  -8   0    6.92    0.78
   6  -8   0    5.54    1.34
   7  -8   0   63.90    2.06
   7  -8   0   62.26    3.46
   8  -8   0    0.26    0.42
   8  -8   0    0.28    0.31
   0  -9   0    0.35    0.54
   0  -9   0   -0.03    0.39
  -1  -9   0    6.51    0.94
   1  -9   0    6.10    0.91
  -1  -9   0    7.15    1.13
   1  -9   0    6.55    1.18
  -2  -9   0    0.46    0.44
  -2  -9   0    0.74    0.56
   2  -9   0   -0.57    0.49
   2  -9   0    0.52    0.46
   3  -9   0   51.96    2.90
  -3  -9   0   49.84    2.26
   3  -9   0   48.84    2.04
   4  -9   0    5.05    0.81
   4  -9   0    3.75    1.09
  -4  -9   0    5.64    0.90
   5  -9   0    3.69    1.18
   5  -9   0    3.57    0.70
   6  -9   0   11.49    1.08
   6  -9   0    8.93    1.70
   7  -9   0   37.62    2.85
   7  -9   0   33.94    1.59
   8  -9   0    8.99    0.92
   9  -9   0    1.13    0.49
   0 -10   0   81.93    3.55
   0 -10   0   80.03    2.94
   1 -10   0   17.49    1.49
  -1 -10   0   13.84    1.41
   1 -10   0   16.24    1.98
  -1 -10   0   15.67    1.73
   2 -10   0    0.50    0.66
   2 -10   0   -0.22    0.39
  -2 -10   0    0.44    0.58
  -2 -10   0    0.16    0.53
  -3 -10   0   55.84    2.56
   3 -10   0   54.67    2.30
   3 -10   0   55.47    3.20
   4 -10   0    0.64    0.53
   4 -10   0    1.66    0.96
   5 -10   0   15.12    1.34
   5 -10   0   18.60    2.39
   6 -10   0    0.38    0.51
   6 -10   0   -0.12    0.85
   7 -10   0   11.61    1.14
   7 -10   0   11.13    1.99
   8 -10   0    3.28    0.73
   9 -10   0   25.47    1.32
   0 -11   0    0.03    0.62
   0 -11   0   -0.18    0.48
  -1 -11   0   13.50    1.45
   1 -11   0   13.55    1.42
   1 -11   0   17.13    2.06
  -1 -11   0   15.31    1.80
   2 -11   0    0.87    0.79
  -2 -11   0    1.08    0.72
   2 -11   0    0.17    0.50
  -2 -11   0   -0.38    0.45
   3 -11   0    1.67    0.98
  -3 -11   0    0.54    0.64
   3 -11   0    0.68    0.59
   4 -11   0    0.80    0.63
   4 -11   0   -0.42    0.72
   5 -11   0   39.88    3.03
   5 -11   0   32.52    1.84
   6 -11   0    3.77    0.83
   6 -11   0    3.19    1.31
   7 -11   0    2.50    1.24
   7 -11   0    5.02    0.92
   8 -11   0    3.95    0.81
   9 -11   0   10.27    1.08
   0 -12   0    5.31    1.29
   0 -12   0    2.89    0.86
   1 -12   0   30.62    2.95
   1 -12   0   26.68    1.81
  -1 -12   0   29.53    1.96
  -1 -12   0   25.63    2.49
  -2 -12   0   29.33    2.17
   2 -12   0   22.27    1.88
   2 -12   0   23.83    2.69
  -3 -12   0    2.02    0.85
   3 -12   0    2.00    0.74
   3 -12   0    1.13    0.97
   4 -12   0    8.69    1.21
   4 -12   0    9.89    1.95
   5 -12   0   14.58    1.52
   5 -12   0   15.34    2.44
   6 -12   0    1.49    1.16
   6 -12   0    1.17    0.71
   7 -12   0    4.81    0.97
   7 -12   0    4.05    1.53
   8 -12   0    4.80    0.95
   0 -13   0    0.58    0.66
   0 -13   0    0.40    0.77
  -1 -13   0    1.28    0.88
   1 -13   0    3.29    0.96
   1 -13   0    3.92    1.31
  -1 -13   0    3.83    1.01
   2 -13   0    0.93    0.89
   2 -13   0    1.91    0.83
  -2 -13   0    2.00    0.93
   3 -13   0   23.14    2.89
   3 -13   0   28.62    1.95
  -3 -13   0   24.24    2.30
   4 -13   0    0.10    0.96
   4 -13   0    0.09    0.61
   5 -13   0    1.97    1.28
   5 -13   0    1.34    0.78
   6 -13   0    0.85    0.70
   6 -13   0    1.42    1.14
   7 -13   0   19.60    1.78
   8 -13   0    0.56    0.71
   0 -14   0   40.08    2.47
   0 -14   0   32.63    3.15
   1 -14   0    8.52    1.39
   1 -14   0   11.25    1.93
  -1 -14   0    7.67    1.59
  -2 -14   0   14.20    2.01
   2 -14   0   17.32    2.48
   2 -14   0   14.07    1.72
  -3 -14   0    6.53    1.43
   3 -14   0    5.09    1.61
   3 -14   0    3.60    1.02
   4 -14   0    1.03    1.15
   4 -14   0    0.31    0.74
   5 -14   0    0.71    0.72
   5 -14   0   -0.73    0.91
   6 -14   0    2.42    1.40
   6 -14   0    1.66    0.92
   7 -14   0   -0.32    0.74
   0 -15   0   -0.62    0.89
   0 -15   0    0.02    0.76
   1 -15   0    7.91    1.77
   1 -15   0    7.16    1.38
  -1 -15   0    4.18    1.36
   2 -15   0    2.94    1.01
  -2 -15   0    1.34    0.99
   2 -15   0    2.14    1.20
  -3 -15   0   -0.02    0.86
   3 -15   0    0.11    0.73
   3 -15   0    0.30    1.16
   4 -15   0    0.34    1.04
   4 -15   0    0.03    0.77
   5 -15   0   11.94    1.68
   5 -15   0    9.62    2.20
   6 -15   0   -0.26    1.16
   6 -15   0    0.90    0.89
   0 -16   0    6.86    1.69
   1 -16   0    1.50    0.98
  -1 -16   0    0.77    1.06
   1 -16   0    3.15    1.46
   2 -16   0    5.06    1.74
   2 -16   0    4.78    1.28
  -2 -16   0    5.71    1.50
   3 -16   0    2.65    1.10
   3 -16   0    4.45    1.75
   4 -16   0    5.01    1.25
   4 -16   0    5.15    1.89
   5 -16   0   -0.97    1.09
   5 -16   0   -0.60    0.81
   0 -17   0    0.24    1.02
   1 -17   0    1.40    1.27
  -1 -17   0   -0.34    0.92
   2 -17   0    1.73    1.36
   2 -17   0   -1.36    0.80
  -2 -17   0    0.83    1.15
   3 -17   0    1.94    1.19
   3 -17   0    3.70    1.70
  11   0  -1    0.70    0.39
  10   0  -1    0.26    0.36
   9   0  -1   23.96    1.10
   8   0  -1    0.16    0.27
   7   0  -1    1.33    0.44
   6   0  -1    0.78    0.34
   5   0  -1   24.73    0.97
   4   0  -1   -0.27    0.18
   3   0  -1    4.19    0.36
   2   0  -1    0.11    0.15
  -1   0   1    5.97    0.30
   1   0  -1    6.41    0.28
   1   0  -1    6.60    0.34
   0   0   1    0.03    0.08
   0   0  -1    0.01    0.07
   0   0   1    0.07    0.08
   1   0   1    0.52    0.16
   1   0   1    0.34    0.13
   2   0   1   -0.05    0.15
   2   0   1   -0.07    0.11
   3   0   1    2.95    0.28
   4   0   1    0.26    0.19
   5   0   1   66.44    1.71
   6   0   1   -0.15    0.27
   7   0   1   13.95    0.89
   8   0   1    0.14    0.41
  11   0   1   24.92    1.13
  11  -1  -1    0.42    0.39
  11   1  -1    0.20    0.43
 -11   1   1    0.45    1.15
  10  -1  -1   44.20    1.51
  10   1  -1   43.20    1.67
   9  -1  -1    0.00    0.29
   9   1  -1    0.11    0.33
   8  -1  -1   83.03    2.09
   8  -1  -1   85.09    2.42
   7  -1  -1    0.29    0.32
   7  -1  -1    0.35    0.24
   7   1  -1   -0.30    0.33
   6  -1  -1  120.58    2.79
   6  -1  -1  123.72    2.60
   6   1  -1  125.52    3.09
   5  -1  -1    3.66    0.38
   5  -1  -1    4.14    0.35
   5   1  -1    2.80    0.47
   4  -1  -1  146.98    2.83
   4  -1  -1  146.85    2.91
   4   1  -1  149.44    3.21
   3  -1  -1   55.75    1.22
   3  -1  -1   55.27    1.18
   3   1  -1   54.56    1.47
   2  -1  -1   32.39    0.79
   2  -1  -1   33.10    0.76
   2   1  -1   33.19    0.98
  -1  -1   1    0.43    0.17
   1  -1  -1    0.62    0.14
   1   1  -1    0.34    0.19
   0  -1   1    2.91    0.20
   0  -1  -1    2.81    0.26
   0  -1   1    2.51    0.25
   0   1  -1    2.70    0.19
   1  -1   1    0.57    0.11
  -1  -1  -1    0.31    0.17
   1  -1   1    0.33    0.12
   1   1   1    0.32    0.20
   2   1   1   47.59    1.24
   3   1   1   32.36    1.03
   4   1   1   57.82    1.58
   5  -1   1    6.75    0.41
   5   1   1    6.18    0.62
   6  -1   1   52.99    1.44
   6   1   1   56.15    1.80
   7  -1   1    0.29    0.30
   7   1   1    0.18    0.38
   8  -1   1   15.96    0.96
   9  -1   1    4.29    0.69
  10  -1   1    2.53    0.41
  11  -1   1    0.60    0.34
  11   1   1    0.86    0.44
  11  -2  -1   14.46    0.86
 -11   2   1   14.03    2.26
  11   2  -1   13.73    1.16
  10  -2  -1    0.86    0.36
  10   2  -1    0.48    0.42
 -10   2   1    0.89    1.00
   9  -2  -1    2.07    0.39
   9   2  -1    2.32    0.51
   8  -2  -1    0.83    0.29
   8  -2  -1    1.33    0.42
   7  -2  -1    1.13    0.35
   7  -2  -1    0.76    0.25
   6  -2  -1    0.18    0.22
   6  -2  -1    0.11    0.18
   6  -2  -1    0.31    0.40
   6   2  -1   -0.15    0.35
   5  -2  -1    7.51    0.39
   5  -2  -1    9.23    0.95
   5  -2  -1    7.18    0.45
   5   2  -1    8.00    0.77
   4  -2  -1    1.56    0.48
   4  -2  -1    1.19    0.22
   4  -2  -1    1.94    0.21
   4   2  -1    1.16    0.34
   3  -2  -1   39.20    0.90
   3   2  -1   38.98    1.28
  -2  -2   1   11.76    0.61
   2  -2  -1   11.61    0.43
   2   2  -1   11.20    0.64
  -2   2   1   12.09    0.78
  -1  -2   1    4.91    0.46
   1  -2  -1    6.12    0.37
   0  -2   1    0.34    0.21
   0  -2  -1    0.73    0.24
   0   2  -1    0.73    0.14
  -1  -2  -1    0.52    0.25
   1  -2   1    0.75    0.14
   1  -2   1    0.49    0.19
   1   2   1    0.54    0.26
   2   2   1    7.29    0.60
   3   2   1   48.99    1.50
   4   2   1   14.61    0.84
   5   2   1    1.06    0.40
   6   2   1    0.14    0.35
   7  -2   1   22.70    0.85
   7   2   1   22.06    1.32
   8  -2   1    4.34    0.53
   9  -2   1   38.76    1.40
   9  -2   1   34.45    1.05
  10  -2   1    0.29    0.45
  10  -2   1    0.07    0.25
  11  -3  -1    4.21    0.54
  11   3  -1    4.54    0.79
 -11   3   1    4.51    1.51
  10  -3  -1   16.73    0.83
 -10   3   1   15.58    2.17
  10   3  -1   15.93    1.13
   9  -3  -1    0.10    0.27
   9  -3  -1   -0.10    0.37
  -9   3   1    0.05    0.82
   8  -3  -1   84.54    2.03
   8  -3  -1   91.42    2.27
  -8   3   1   82.42    3.64
   7  -3  -1    1.62    0.34
   7  -3  -1    1.60    0.28
  -7   3   1    1.27    0.72
   6  -3  -1   82.01    2.82
   6  -3  -1   79.15    1.84
   6  -3  -1   77.64    1.76
   6   3  -1   82.08    2.57
   5  -3  -1   81.39    1.72
   5  -3  -1   82.83    2.79
   5  -3  -1   78.04    1.75
  -5   3   1   81.95    2.85
   5   3  -1   80.38    2.45
   4  -3  -1   91.43    1.87
   4  -3  -1   89.47    2.93
   4   3  -1   91.59    2.51
  -4   3   1   90.01    2.76
   3  -3  -1    1.21    0.53
   3  -3  -1    0.98    0.21
  -3   3   1    1.09    0.42
   3   3  -1    1.69    0.39
   2  -3  -1   44.87    1.16
   2  -3  -1   44.97    1.81
  -2  -3   1   44.51    1.40
  -2   3   1   46.21    1.38
  -1  -3   1  217.61    4.43
   1  -3  -1  219.75    4.28
  -1   3   1  221.43    4.23
   0  -3  -1    1.20    0.31
   0  -3   1    1.49    0.31
   0   3   1    1.50    0.26
  -1  -3  -1  139.14    3.17
   1  -3   1  150.84    2.97
  -2  -3  -1    7.28    0.62
   2  -3   1    6.91    0.41
   2  -3   1    8.29    0.32
   2  -3   1    8.23    0.88
   2   3   1    7.97    0.69
   3  -3   1    2.28    0.56
   3   3   1    1.40    0.39
   4   3   1   46.09    1.66
   5   3   1   18.27    1.11
   6   3   1   23.35    1.33
 -11   3  -1   11.70    2.07
 -11   4   1    0.12    1.04
  11   4  -1   -0.10    0.50
  10  -4  -1    0.47    0.31
  10   4  -1    0.62    0.49
 -10   4   1    1.18    1.06
   9  -4  -1   16.24    0.78
   9  -4  -1   18.59    0.94
  -9   4   1   17.85    2.07
   8  -4  -1    0.45    0.28
   8  -4  -1   -0.20    0.21
  -8   4   1    0.32    0.70
   7  -4  -1    0.21    0.59
   7  -4  -1    0.55    0.24
   7  -4  -1    0.52    0.27
  -7   4   1    0.72    0.68
   6  -4  -1    6.84    0.46
   6  -4  -1    8.22    0.48
   6  -4  -1    8.65    1.19
  -6   4   1    7.81    1.12
   5  -4  -1    5.27    0.91
   5  -4  -1    4.75    0.40
  -5   4   1    5.14    0.86
   5   4  -1    5.10    0.74
   4  -4  -1   14.29    0.60
   4  -4  -1   13.35    1.38
   4   4  -1   14.11    0.98
  -4   4   1   13.84    1.13
   3  -4  -1    7.09    0.46
  -3  -4   1    7.26    0.70
   3  -4  -1    7.45    1.00
  -3   4   1    8.80    0.77
   2  -4  -1    3.12    0.69
  -2  -4   1    1.83    0.42
   2  -4  -1    1.42    0.32
  -2   4   1    1.34    0.34
  -1  -4   1    1.07    0.34
   1  -4  -1    1.05    0.52
   1  -4  -1    0.88    0.31
  -1   4   1    0.82    0.26
   0  -4  -1   56.96    1.68
   0  -4  -1   57.28    2.08
   0  -4   1   52.80    1.89
   0   4   1   56.81    1.39
  -1  -4  -1    0.88    0.34
   1  -4   1    0.91    0.31
   1  -4   1    1.70    0.51
  -2  -4  -1   61.07    1.84
   2  -4   1   61.18    1.56
   2  -4   1   60.21    2.24
   3  -4   1    4.24    0.37
   3  -4   1    5.16    0.83
  -3  -4  -1    4.64    0.59
   3   4   1    3.59    0.59
   4  -4   1   17.12    0.56
   4  -4   1   18.12    1.34
   4   4   1   19.10    1.15
   5   4   1   77.37    2.55
 -10   4  -1    7.55    1.54
  11   5  -1    2.83    0.75
  10   5  -1   20.35    1.36
 -10   5   1   26.43    2.53
   9  -5  -1    0.23    0.36
   9  -5  -1    0.20    0.29
  -9   5   1    0.36    0.76
   8  -5  -1    7.94    0.61
   8  -5  -1    6.72    0.59
  -8   5   1    6.82    1.24
   7  -5  -1    4.03    0.99
   7  -5  -1    2.81    0.40
   7  -5  -1    2.45    0.37
  -7   5   1    2.61    0.81
   6  -5  -1   52.23    2.58
   6  -5  -1   53.77    1.48
   6  -5  -1   54.19    1.41
  -6   5   1   52.96    2.28
   5  -5  -1   21.32    1.88
   5  -5  -1   20.24    0.83
  -5   5   1   21.40    1.33
   4  -5  -1   21.50    1.62
   4  -5  -1   23.26    0.91
  -4   5   1   23.41    1.21
   3  -5  -1  296.33    5.85
   3  -5  -1  293.39    7.32
  -3  -5   1  308.98    6.31
  -3   5   1  295.61    5.98
  -2  -5   1    7.87    0.79
   2  -5  -1   12.72    1.35
   2  -5  -1    8.12    0.69
  -2   5   1    8.71    0.57
  -1  -5   1  113.55    3.17
   1  -5  -1  116.47    2.86
   1  -5  -1  118.29    3.57
  -1   5   1  115.77    2.48
   0  -5   1   29.13    1.23
   0  -5   1   28.99    1.48
   0  -5  -1   30.09    1.59
   0  -5  -1   27.63    1.23
  -1  -5  -1   88.89    2.47
  -1  -5  -1   85.11    2.76
   1  -5   1   91.99    2.91
   1  -5   1   82.34    2.24
  -2  -5  -1   25.75    1.21
   2  -5   1   25.13    1.02
   2  -5   1   26.04    1.54
  -2  -5  -1   25.51    1.32
  -3  -5  -1  128.69    3.31
   3  -5   1  136.14    4.04
   3  -5   1  130.44    2.91
  -3   5  -1  131.38    2.82
   4  -5   1    0.59    0.50
   4  -5   1    0.64    0.25
   4   5   1    1.31    0.47
  -4   5  -1    1.06    0.39
   5  -5   1    0.46    0.22
  -8   5  -1    0.68    0.72
  10   6  -1    0.92    0.57
   9  -6  -1    1.95    0.42
   9  -6  -1    1.92    0.42
   8  -6  -1    6.86    0.59
   8  -6  -1    5.76    0.59
  -8   6   1    8.67    1.29
   7  -6  -1   12.78    1.67
   7  -6  -1   10.92    0.71
   7  -6  -1   11.93    0.67
  -7   6   1   12.42    1.38
   6  -6  -1    1.03    0.69
   6  -6  -1    2.57    0.42
  -6   6   1    1.50    0.61
   5  -6  -1    7.53    1.27
   5  -6  -1    9.39    0.76
  -5   6   1    8.66    0.94
   4  -6  -1   17.43    0.90
   4  -6  -1   15.97    1.72
  -4   6   1   18.81    1.04
   3  -6  -1    1.27    0.63
  -3  -6   1    0.30    0.37
  -3  -6   1    0.73    0.39
   3  -6  -1    0.98    0.37
  -3   6   1    0.84    0.31
   2  -6  -1   24.65    1.16
  -2  -6   1   26.40    1.33
   2  -6  -1   25.90    1.74
  -2  -6   1   27.57    1.38
  -2   6   1   24.47    0.93
   1  -6  -1    5.43    0.91
   1  -6  -1    4.83    0.63
  -1  -6   1    5.18    0.78
  -1  -6   1    4.66    0.66
  -1   6   1    6.18    0.49
   0  -6   1    7.82    1.01
   0  -6  -1    8.01    1.08
   0  -6   1    6.96    0.77
   0  -6  -1    8.29    0.85
  -1  -6  -1    3.24    0.58
   1  -6   1    2.70    0.68
   1  -6   1    2.79    0.51
  -1  -6  -1    3.38    0.72
  -2  -6  -1   30.82    1.45
   2  -6   1   35.42    1.93
   2  -6   1   33.61    1.33
  -2  -6  -1   32.75    1.62
  -3  -6  -1   37.22    1.61
   3  -6   1   33.89    1.29
  -3  -6  -1   37.61    1.66
   4  -6   1   27.04    1.09
   4  -6   1   26.82    1.85
  -4  -6  -1   27.69    1.32
  -4   6  -1   25.73    1.06
   5  -6   1   19.75    0.88
   5  -6   1   19.02    1.88
  -5   6  -1   22.12    1.20
   6  -6   1    1.11    0.32
  -6   6  -1    0.91    0.52
   9  -7  -1    4.15    0.52
   9  -7  -1    2.68    0.54
   8  -7  -1   11.88    0.83
   8  -7  -1   12.60    0.76
   7  -7  -1    9.53    0.66
   7  -7  -1    8.76    1.49
   7  -7  -1   10.31    0.86
   6  -7  -1    0.20    0.65
   6  -7  -1    0.53    0.38
  -6   7   1    0.24    0.49
   5  -7  -1   64.61    2.01
   5  -7  -1   60.49    3.06
  -5   7   1   66.66    2.19
   4  -7  -1    5.30    0.65
   4  -7  -1    4.86    1.08
  -4   7   1    5.48    0.66
   3  -7  -1   19.92    1.10
   3  -7  -1   17.02    1.79
  -3  -7   1   18.39    1.18
  -3  -7   1   23.55    1.35
  -3   7   1   17.10    0.85
   2  -7  -1   31.85    1.45
   2  -7  -1   34.46    2.12
  -2  -7   1   37.30    1.67
  -2  -7   1   36.14    1.71
  -2   7   1   34.11    1.11
  -1  -7   1  298.02    6.59
   1  -7  -1  297.45    6.49
  -1  -7   1  308.95    7.20
   1  -7  -1  298.72    7.64
  -1   7   1  303.69    5.74
   0  -7  -1    0.89    0.54
   0  -7  -1    1.82    0.49
   0  -7   1    1.55    0.50
   0  -7   1    0.48    0.51
  -1  -7  -1   81.26    2.62
   1  -7   1   88.00    2.54
   1  -7   1   79.01    3.10
  -1  -7  -1   81.04    2.99
  -2  -7  -1   50.37    2.00
   2  -7   1   51.99    1.83
  -2  -7  -1   49.45    2.17
   2  -7   1   55.00    2.56
  -3  -7  -1   40.54    1.79
   3  -7   1   39.42    1.54
  -3  -7  -1   40.59    1.85
   3  -7   1   40.59    2.30
   4  -7   1    5.93    0.68
   4  -7   1    6.40    1.21
  -4  -7  -1    6.75    0.88
   5  -7   1    6.19    0.66
   5  -7   1    6.70    1.25
   6  -7   1    8.99    0.75
   7  -7   1    2.18    0.45
   9  -8  -1   22.08    1.16
   8  -8  -1    0.90    0.91
   8  -8  -1    0.50    0.45
   7  -8  -1    0.02    0.70
   7  -8  -1    0.13    0.40
   6  -8  -1   12.11    1.79
   6  -8  -1   14.23    1.01
   5  -8  -1    9.86    0.97
   5  -8  -1    8.28    1.51
   4  -8  -1   14.18    1.03
   4  -8  -1   11.43    1.63
  -4   8   1   12.83    0.84
   3  -8  -1    7.98    0.89
   3  -8  -1    8.93    1.47
  -3  -8   1    6.83    0.95
  -3  -8   1    7.84    1.02
  -3   8   1    8.99    0.63
   2  -8  -1    6.87    0.87
   2  -8  -1    5.07    1.09
  -2  -8   1    9.13    1.05
  -2  -8   1    8.82    1.12
  -2   8   1    9.09    0.58
  -1  -8   1   28.71    1.54
   1  -8  -1   29.63    2.03
   1  -8  -1   31.14    1.57
  -1  -8   1   31.94    1.84
   0  -8   1   25.26    1.43
   0  -8  -1   26.24    1.85
   0  -8   1   26.16    1.77
   0  -8  -1   27.27    1.49
   1  -8   1    8.55    1.26
  -1  -8  -1    8.04    0.98
   1  -8   1    9.07    0.97
  -1  -8  -1   10.80    1.34
  -2  -8  -1    5.94    0.88
  -2  -8  -1    6.29    1.04
   2  -8   1    3.07    0.87
   2  -8   1    4.87    0.73
   3  -8   1    6.77    0.83
  -3  -8  -1    6.37    0.92
   3  -8   1    7.45    1.29
  -3  -8  -1    6.42    1.01
   4  -8   1    4.86    1.12
  -4  -8  -1    5.14    0.88
   4  -8   1    4.34    0.67
   5  -8   1   40.74    2.69
   5  -8   1   43.32    1.68
   6  -8   1   25.47    1.24
   7  -8   1    1.82    0.48
   8  -8   1    0.34    0.35
  10   9  -1    3.44    0.88
   9  -9  -1    4.20    0.73
   8  -9  -1    6.35    0.86
   8  -9  -1    6.56    1.60
   7  -9  -1    0.86    0.50
   7  -9  -1    0.29    0.84
   6  -9  -1    0.19    0.43
   6  -9  -1    1.41    0.97
   5  -9  -1    8.89    0.99
   5  -9  -1   12.57    1.94
   4  -9  -1    0.46    0.45
   4  -9  -1   -0.31    0.58
   3  -9  -1  186.34    4.75
  -3  -9   1  183.05    4.98
   3  -9  -1  182.83    6.11
  -3  -9   1  187.29    5.09
   2  -9  -1   -0.25    0.55
   2  -9  -1    0.56    0.45
  -2  -9   1    0.47    0.50
  -2  -9   1   -0.19    0.40
  -1  -9   1   18.43    1.31
   1  -9  -1   15.91    1.38
  -1  -9   1   18.84    1.75
   1  -9  -1   17.10    1.87
   0  -9  -1   26.49    1.94
   0  -9   1   28.84    1.60
   0  -9   1   25.17    1.84
   0  -9  -1   25.12    1.54
  -1  -9  -1  164.82    4.54
  -1  -9  -1  163.60    5.14
   1  -9   1  167.36    5.34
   2  -9   1    2.28    0.60
   2  -9   1    2.90    0.92
  -2  -9  -1    3.44    0.85
  -2  -9  -1    2.47    0.68
   3  -9   1   30.85    2.31
  -3  -9  -1   31.53    1.89
   3  -9   1   31.91    1.60
   4  -9   1   47.34    2.88
  -4  -9  -1   49.45    2.24
   4  -9   1   44.76    1.90
   5  -9   1    7.74    1.59
   5  -9   1   10.18    1.03
   6  -9   1    6.69    0.84
   7  -9   1    1.01    0.47
   8  -9   1   15.39    0.99
   9 -10  -1    2.40    0.71
   8 -10  -1    2.45    0.70
   8 -10  -1    0.94    1.08
   7 -10  -1   36.83    3.43
   7 -10  -1   34.02    1.77
   6 -10  -1    0.37    0.50
   6 -10  -1   -0.47    0.81
   5 -10  -1    2.05    1.03
   5 -10  -1    2.23    0.66
   4 -10  -1    8.75    1.68
   4 -10  -1    8.96    1.10
   3 -10  -1   41.84    2.82
  -3 -10   1   40.16    2.17
   3 -10  -1   41.28    2.01
   2 -10  -1   15.18    2.02
  -2 -10   1   13.38    1.41
  -2 -10   1   15.52    1.65
   2 -10  -1   16.95    1.48
   1 -10  -1    0.17    0.48
  -1 -10   1    0.42    0.51
   1 -10  -1    0.81    0.75
  -1 -10   1   -0.49    0.47
   0 -10   1    1.08    0.72
   0 -10  -1    1.33    0.62
   0 -10  -1    0.70    0.73
   0 -10   1    1.41    0.60
  -1 -10  -1   15.01    1.46
   1 -10   1   19.69    2.18
   1 -10   1   13.77    1.35
  -1 -10  -1   11.49    1.56
   2 -10   1    4.74    1.19
  -2 -10  -1    6.69    1.04
   2 -10   1    5.51    0.89
  -2 -10  -1    8.97    1.38
   3 -10   1   47.41    2.94
   3 -10   1   47.39    2.09
  -3 -10  -1   44.52    2.40
   4 -10   1    6.87    1.48
   4 -10   1    7.06    0.94
  -4 -10  -1    6.98    1.13
   5 -10   1   16.66    2.21
   5 -10   1   17.12    1.23
   6 -10   1    0.30    0.47
   7 -10   1   23.56    1.40
   8 -10   1   14.87    1.20
   9 -10   1    0.49    0.44
   9 -11  -1    5.80    0.95
   8 -11  -1    0.98    1.06
   8 -11  -1    0.84    0.67
   7 -11  -1    9.21    1.89
   7 -11  -1   11.70    1.28
   6 -11  -1    9.88    2.02
   6 -11  -1    9.79    1.22
   5 -11  -1   23.85    1.61
   5 -11  -1   19.47    2.54
   4 -11  -1    0.98    0.92
   4 -11  -1    0.14    0.55
  -3 -11   1    1.03    0.67
   3 -11  -1   -0.27    0.49
   3 -11  -1    0.53    0.78
   2 -11  -1   -0.18    0.66
  -2 -11   1   -0.18    0.55
   2 -11  -1    0.35    0.51
  -2 -11   1    0.95    0.70
  -1 -11   1  142.17    4.34
   1 -11  -1  122.28    4.05
  -1 -11   1  127.08    4.67
   1 -11  -1  129.99    5.08
   0 -11   1    0.57    0.62
   0 -11   1    0.58    0.69
   0 -11  -1    2.16    0.74
   0 -11  -1    1.29    0.86
  -1 -11  -1    5.84    1.32
   1 -11   1    5.70    1.29
  -1 -11  -1    3.86    0.89
   1 -11   1    2.83    0.78
   2 -11   1   57.97    2.51
   2 -11   1   59.32    3.36
  -2 -11  -1   55.69    2.62
  -2 -11  -1   59.18    3.00
  -3 -11  -1   23.89    1.86
   3 -11   1   24.43    1.62
   3 -11   1   24.93    2.59
   4 -11   1   27.72    2.95
   4 -11   1   25.42    1.62
   5 -11   1   -0.38    0.77
   5 -11   1    0.10    0.52
   6 -11   1   54.59    2.35
   7 -11   1    0.14    0.51
   8 -11   1   12.42    1.20
   9 -11   1   -0.07    0.49
   8 -12  -1    0.28    0.66
   7 -12  -1    1.54    0.78
   7 -12  -1   -0.63    0.92
   6 -12  -1    1.53    1.12
   6 -12  -1    2.94    0.87
   5 -12  -1   28.33    3.13
   5 -12  -1   34.98    2.05
   4 -12  -1   -0.07    0.90
   4 -12  -1    0.72    0.65
   3 -12  -1   -0.13    0.54
   3 -12  -1    0.66    0.86
  -3 -12   1    0.05    0.64
   2 -12  -1    4.78    1.28
   2 -12  -1    3.53    0.90
  -2 -12   1    3.90    1.09
   1 -12  -1   44.10    2.35
  -1 -12   1   44.20    2.40
  -1 -12   1   41.62    2.68
   1 -12  -1   46.07    3.04
   0 -12   1    0.57    0.61
   0 -12  -1    0.46    0.79
   0 -12  -1    0.72    0.64
   0 -12   1   -0.10    0.64
  -1 -12  -1    7.50    1.22
   1 -12   1    5.35    1.02
  -1 -12  -1    7.47    1.45
   1 -12   1    6.86    1.50
   2 -12   1    0.32    0.74
  -2 -12  -1    1.02    0.75
   2 -12   1    0.12    0.57
  -3 -12  -1    0.84    0.81
   3 -12   1    2.17    0.74
   3 -12   1    0.14    0.79
   4 -12   1    0.72    0.88
   4 -12   1    1.41    0.75
   5 -12   1   58.68    2.64
   5 -12   1   59.47    3.95
   6 -12   1    1.10    0.62
   7 -12   1    8.76    1.19
   8 -12   1    0.32    0.59
   7 -13  -1    1.22    1.24
   7 -13  -1    2.22    0.85
   6 -13  -1    1.65    1.22
   6 -13  -1    2.17    0.89
   5 -13  -1   -0.37    0.58
   5 -13  -1   -0.22    0.95
   4 -13  -1    6.48    1.19
   4 -13  -1    4.83    1.59
  -3 -13   1   47.37    2.78
   3 -13  -1   48.22    3.46
   3 -13  -1   46.86    2.52
   2 -13  -1    2.70    1.17
  -2 -13   1    0.59    0.79
   2 -13  -1   -0.15    0.64
  -1 -13   1   15.96    1.77
   1 -13  -1   19.62    2.53
   1 -13  -1   15.09    1.71
  -1 -13   1   14.93    1.99
   0 -13   1    9.39    1.69
   0 -13   1   10.79    1.49
   0 -13  -1   10.39    1.80
   0 -13  -1   12.46    1.54
   1 -13   1   32.18    2.09
   1 -13   1   28.10    2.92
  -1 -13  -1   26.13    2.61
  -1 -13  -1   30.49    2.13
   2 -13   1   24.26    2.79
   2 -13   1   22.90    2.01
  -2 -13  -1   26.05    2.52
   3 -13   1    2.81    1.30
  -3 -13  -1    3.96    1.12
   3 -13   1    3.86    0.97
   4 -13   1   54.88    2.67
   4 -13   1   54.16    3.79
   5 -13   1    1.85    0.81
   5 -13   1    3.00    1.29
   6 -13   1   29.71    1.96
   7 -13   1    0.75    0.70
   7 -14  -1   16.18    2.74
   7 -14  -1   20.37    1.95
   6 -14  -1   -1.23    0.93
   6 -14  -1    0.67    0.76
   5 -14  -1   -0.07    1.00
   5 -14  -1    0.68    0.81
   4 -14  -1    0.67    0.99
   4 -14  -1    1.95    0.85
   3 -14  -1   35.45    3.78
   3 -14  -1   38.81    2.41
  -3 -14   1   30.57    2.73
   2 -14  -1    0.18    0.65
  -2 -14   1   -0.51    0.78
   2 -14  -1   -0.64    0.76
   1 -14  -1    2.31    1.21
   1 -14  -1    0.36    0.73
  -1 -14   1    2.44    1.05
   0 -14   1    0.22    0.73
   0 -14  -1    0.51    0.75
   0 -14   1    0.59    0.89
   0 -14  -1    0.39    0.88
   1 -14   1   12.55    1.69
   1 -14   1   14.11    2.26
  -1 -14  -1   14.94    2.08
   2 -14   1    1.37    1.04
  -2 -14  -1    0.64    0.88
   2 -14   1    0.31    0.71
  -3 -14  -1   34.12    2.54
   3 -14   1   36.22    2.30
   3 -14   1   34.82    3.56
   4 -14   1   -0.21    0.66
   4 -14   1    2.72    1.36
   5 -14   1    6.00    1.20
   5 -14   1    8.15    2.03
   6 -14   1    0.67    0.76
   7 -14   1   24.12    2.07
   6 -15  -1    7.82    1.44
   6 -15  -1    9.11    2.24
   5 -15  -1   -0.06    1.10
   5 -15  -1   -0.04    0.75
   4 -15  -1    0.48    0.81
   4 -15  -1    1.79    1.27
   3 -15  -1    9.43    1.56
   3 -15  -1   12.46    2.42
   2 -15  -1    0.47    1.09
   2 -15  -1    0.79    0.83
  -2 -15   1    1.33    1.03
   1 -15  -1   14.50    1.86
  -1 -15   1   15.06    2.22
   1 -15  -1   11.56    2.11
   0 -15   1   18.26    2.06
   0 -15  -1   17.83    2.48
   0 -15   1   20.45    2.59
   1 -15   1   17.73    2.00
  -1 -15  -1   17.06    2.35
   1 -15   1   15.04    2.39
   2 -15   1   15.01    1.89
  -2 -15  -1   12.22    1.93
   2 -15   1   15.02    2.43
   3 -15   1    3.06    1.05
   3 -15   1    2.39    1.34
  -3 -15  -1    4.38    1.33
   4 -15   1   27.96    2.47
   4 -15   1   29.71    3.52
   5 -15   1    2.63    1.01
   6 -15   1   17.80    1.91
   5 -16  -1   14.23    1.85
   5 -16  -1   11.79    2.56
   4 -16  -1   -0.13    1.15
   4 -16  -1    0.54    0.84
   3 -16  -1    0.13    1.15
   3 -16  -1    0.42    0.86
   2 -16  -1    0.42    1.10
   2 -16  -1    0.74    0.88
   1 -16  -1   19.45    2.81
  -1 -16   1   28.40    3.06
   1 -16  -1   27.91    2.60
   0 -16   1    0.67    1.09
   0 -16  -1    0.70    1.05
  -1 -16  -1    9.53    1.96
   1 -16   1    8.94    1.61
   1 -16   1    8.35    1.98
   2 -16   1    1.70    1.00
  -2 -16  -1    2.54    1.24
   2 -16   1    1.47    1.30
   3 -16   1   -0.38    1.10
   3 -16   1    0.26    0.84
  -3 -16  -1   -0.03    0.98
   4 -16   1    0.81    0.91
   5 -16   1   34.99    2.50
   3 -17  -1    1.39    1.42
   3 -17  -1    1.46    1.02
   2 -17  -1    5.30    1.42
   2 -17  -1    3.86    1.61
   1 -17  -1   38.14    3.90
   0 -17   1    0.62    1.27
   0 -17  -1    0.71    1.14
  -1 -17  -1   -0.45    0.96
   1 -17   1   -0.38    1.09
   2 -17   1   23.07    3.29
  -2 -17  -1   22.93    2.78
   2 -17   1   21.45    2.37
   3 -17   1    6.15    1.50
 -11   0   2   -0.76    1.02
  11   0  -2    0.15    0.40
  10   0  -2   39.90    1.58
 -10   0   2   39.96    3.54
   9   0  -2    0.29    0.34
   8   0  -2   24.95    1.10
   7   0  -2    0.20    0.26
   7   0  -2    0.36    0.36
   6   0  -2   41.98    1.31
   6   0  -2   42.17    1.52
   5   0  -2   -0.12    0.18
   5   0  -2   -0.17    0.23
   4   0  -2    0.69    0.25
   4   0  -2    0.69    0.22
   3   0  -2   -0.27    0.18
   3   0  -2   -0.30    0.14
   2   0  -2  358.52    6.55
   2   0  -2  365.97    6.66
  -1   0   2    0.17    0.29
   1   0  -2    0.01    0.17
  -1   0   2   -0.14    0.14
   1   0  -2   -0.03    0.15
   0   0   2    2.31    0.33
   0   0   2    1.65    0.25
   0   0  -2    1.88    0.26
   1   0   2    0.09    0.20
   1   0   2    0.19    0.18
  -1   0  -2    0.06    0.17
   1   0   2    0.43    0.18
   2   0   2  293.74    5.48
   2   0   2  301.44    5.39
   3   0   2   -0.09    0.14
   3   0   2   -0.23    0.18
   4   0   2   72.72    1.78
   5   0   2    0.29    0.26
   6   0   2    0.86    0.35
   7   0   2   -0.10    0.33
   8   0   2   13.38    1.07
  11  -1  -2    1.90    0.51
 -11  -1   2    2.29    1.50
 -11   1   2   -0.35    1.08
  11   1  -2    2.07    0.57
  10  -1  -2    3.28    0.56
  10   1  -2    2.66    0.57
 -10   1   2    3.16    1.41
   9  -1  -2    5.84    0.63
   9   1  -2    4.91    0.66
  -9   1   2    3.27    1.14
   8  -1  -2    8.85    0.72
   8   1  -2    9.99    0.84
   7  -1  -2    1.40    0.33
   7  -1  -2    1.97    0.46
   7   1  -2    1.95    0.41
   6  -1  -2   75.31    2.06
   6  -1  -2   74.37    1.88
   6   1  -2   76.76    2.03
   6   1  -2   75.25    2.27
   5  -1  -2    1.78    0.35
   5  -1  -2    2.35    0.33
   5   1  -2    2.51    0.38
   5   1  -2    2.80    0.50
   4  -1  -2   86.68    1.97
   4  -1  -2   88.61    2.08
   4   1  -2   91.31    2.11
   4   1  -2   91.83    2.29
   3  -1  -2   54.13    1.39
   3  -1  -2   57.15    1.33
   3   1  -2   54.68    1.55
  -3   1   2   53.28    1.98
   3   1  -2   54.90    1.41
   2  -1  -2  177.64    3.42
   2  -1  -2  176.42    3.46
  -2   1   2  179.68    4.00
   2   1  -2  178.36    3.47
  -1  -1   2  102.23    2.21
  -1  -1   2  107.18    2.49
   1  -1  -2  101.26    2.14
   1  -1  -2  103.23    2.15
  -1   1   2  102.81    2.41
  -1   1   2  101.68    2.13
   1   1  -2  103.58    2.13
   0  -1   2    1.84    0.23
   0  -1   2    1.47    0.26
   0  -1  -2    1.54    0.26
   0   1   2    1.41    0.31
   0   1   2    1.46    0.24
   0   1  -2    1.83    0.22
  -1  -1  -2  205.84    3.97
   1  -1   2  202.64    3.81
   1  -1   2  205.28    3.77
   1   1   2  197.38    3.84
   1   1   2  205.52    3.95
   1   1   2  203.35    3.97
   2  -1   2   74.74    1.59
   2  -1   2   76.50    1.60
   2   1   2   77.02    1.83
   3  -1   2  149.78    2.89
   3  -1   2  153.38    2.84
   3   1   2  149.37    3.21
   4  -1   2   70.13    1.58
   4  -1   2   70.19    1.48
   4   1   2   72.23    1.91
   5  -1   2   91.58    2.06
   5   1   2   92.09    2.41
   6  -1   2   24.71    0.95
   6   1   2   23.69    1.18
   7  -1   2   52.38    1.61
   7   1   2   55.23    1.96
   8  -1   2    8.05    0.75
   9  -1   2   15.99    1.02
  11  -1   2    6.60    0.61
  11  -2  -2    7.73    0.80
 -11  -2   2    8.55    2.04
  11   2  -2    9.49    1.03
 -11   2   2    8.73    1.86
  10  -2  -2   16.99    0.95
  10   2  -2   17.40    1.17
 -10   2   2   19.33    2.41
   9  -2  -2    2.20    0.44
  -9   2   2    1.66    1.03
   9   2  -2    2.37    0.56
   8  -2  -2    8.87    0.87
   8  -2  -2    9.57    0.66
  -8   2   2    9.11    1.56
   8   2  -2    9.63    0.87
   7  -2  -2   12.42    0.80
   7  -2  -2   11.63    0.65
  -7   2   2   10.83    1.54
   7   2  -2   11.14    0.79
   6  -2  -2    7.47    0.93
   6  -2  -2    7.10    0.50
   6  -2  -2    7.61    0.63
  -6   2   2    6.21    1.10
   6   2  -2    5.85    0.75
   5  -2  -2    1.53    0.32
   5  -2  -2    1.52    0.27
   5  -2  -2    2.09    0.61
  -5   2   2    2.04    0.67
   5   2  -2    2.17    0.46
   4  -2  -2  208.37    4.04
   4  -2  -2  203.37    5.08
   4  -2  -2  207.29    4.09
  -4   2   2  217.94    5.15
   4   2  -2  210.27    4.52
   3  -2  -2    1.02    0.44
   3  -2  -2    0.55    0.20
   3  -2  -2    0.24    0.20
  -3   2   2    0.49    0.41
   3   2  -2    1.02    0.33
   2  -2  -2    5.53    0.40
  -2  -2   2    4.91    0.48
   2  -2  -2    4.84    0.40
   2   2  -2    5.27    0.52
   2   2  -2    5.00    0.42
  -2   2   2    4.67    0.58
  -1  -2   2    1.07    0.28
   1  -2  -2    0.81    0.25
  -1  -2   2    0.73    0.36
   1  -2  -2    0.90    0.22
   1   2  -2    1.16    0.24
  -1   2   2    0.93    0.32
   0  -2   2  272.65    5.19
   0  -2   2  272.99    5.01
   0   2   2  275.66    5.24
   0   2  -2  270.66    5.01
  -1  -2  -2   38.36    1.21
   1  -2   2   39.27    1.08
   1  -2   2   38.47    0.95
   2  -2   2    5.74    0.32
   2  -2   2    5.32    0.38
   2   2   2    4.32    0.49
   3  -2   2    0.33    0.16
   3  -2   2   -0.05    0.13
   3   2   2    0.07    0.28
   4  -2   2   54.25    1.14
   4   2   2   55.41    1.75
   5   2   2   56.02    1.89
   6   2   2   39.08    1.64
   7  -2   2    4.85    0.47
   7   2   2    4.48    0.76
   8  -2   2   58.34    1.63
   9  -2   2    2.18    0.47
  10  -2   2   -0.23    0.37
  10  -2   2    0.43    0.25
  11  -3  -2   -0.22    0.38
 -11   3   2   -0.30    1.02
  11   3  -2    0.49    0.51
  10  -3  -2    6.26    0.67
  10   3  -2    6.46    0.87
 -10   3   2    8.25    1.69
   9  -3  -2   -0.57    0.26
  -9   3   2   -0.54    0.82
   9   3  -2    0.95    0.46
   8  -3  -2   18.06    0.98
   8  -3  -2   16.24    0.83
  -8   3   2   14.54    1.84
   8   3  -2   20.03    1.12
   7  -3  -2    7.04    0.57
   7  -3  -2    6.90    0.65
  -7   3   2    6.01    1.17
   6  -3  -2    4.17    0.82
   6  -3  -2    3.98    0.43
   6  -3  -2    3.56    0.45
  -6   3   2    2.99    0.82
   5  -3  -2   24.59    0.90
   5  -3  -2   25.40    1.57
   5  -3  -2   24.97    0.87
   5   3  -2   25.06    1.29
  -5   3   2   22.60    1.50
   4  -3  -2  246.52    4.72
   4  -3  -2  246.86    4.70
   4  -3  -2  248.06    6.05
   4   3  -2  241.05    5.28
  -4   3   2  241.33    5.66
   3  -3  -2    0.60    0.20
   3  -3  -2    1.40    0.54
   3  -3  -2    0.61    0.23
  -3  -3   2    0.44    0.27
   3   3  -2    0.58    0.32
  -3   3   2    0.67    0.38
   2  -3  -2    3.26    0.38
   2  -3  -2    5.49    0.84
  -2  -3   2    3.38    0.46
  -2   3   2    3.49    0.51
   1  -3  -2  135.24    3.64
  -1  -3   2  134.39    3.03
   1  -3  -2  133.90    2.91
  -1   3   2  134.03    2.95
   1   3  -2  133.39    2.80
   0  -3   2   14.08    0.57
   0  -3  -2   10.92    0.70
   0  -3   2   12.33    0.71
   0   3  -2   12.70    0.54
   0   3   2   11.31    0.64
   1  -3   2  103.99    2.38
   1  -3   2  108.09    2.18
  -1  -3  -2  107.55    2.59
  -2  -3  -2   95.46    2.42
   2  -3   2   92.48    2.08
   2  -3   2   95.39    1.91
   2   3   2   94.83    2.43
   3  -3   2  118.40    2.42
   3  -3   2  120.86    2.31
   3   3   2  122.17    3.01
   4   3   2   72.71    2.23
   5   3   2  126.67    3.37
   6   3   2   17.10    1.20
  11  -4  -2    0.69    0.42
  11   4  -2    1.34    0.60
 -11   4   2   -0.08    1.00
  10  -4  -2   31.84    1.30
  10   4  -2   34.72    1.71
 -10   4   2   34.89    3.01
   9  -4  -2   49.11    1.60
  -9   4   2   49.77    2.92
   9   4  -2   49.44    2.00
   8  -4  -2    5.41    0.63
   8  -4  -2    6.53    0.62
  -8   4   2    5.27    1.24
   8   4  -2    6.08    0.79
   7  -4  -2    6.30    0.62
   7  -4  -2    7.41    0.61
   7  -4  -2    6.04    1.08
  -7   4   2    6.14    1.17
   6  -4  -2   13.21    1.44
   6  -4  -2   13.61    0.72
   6  -4  -2   12.62    0.69
  -6   4   2   12.63    1.43
   5  -4  -2   30.60    1.06
   5  -4  -2   31.82    1.90
   5  -4  -2   30.60    1.04
   5   4  -2   31.36    1.57
  -5   4   2   30.50    1.66
   4  -4  -2   12.41    1.32
   4  -4  -2   11.43    0.62
  -4   4   2   13.93    1.01
   4   4  -2   11.42    1.01
   3  -4  -2    9.56    1.16
   3  -4  -2    7.89    0.54
  -3  -4   2    9.26    0.79
  -3   4   2    8.57    0.83
   2  -4  -2  216.16    5.45
  -2  -4   2  204.59    4.55
   2  -4  -2  211.54    4.33
  -2   4   2  212.14    4.47
   1  -4  -2   30.14    1.67
  -1  -4   2   30.42    1.24
   1  -4  -2   31.20    1.18
   1   4  -2   31.84    1.04
  -1   4   2   30.20    1.10
   0  -4   2    0.52    0.32
   0  -4  -2    0.25    0.32
   0  -4  -2   -0.22    0.42
   0   4   2    0.97    0.30
   0   4  -2    1.00    0.25
  -1  -4  -2    4.26    0.71
   1  -4   2    3.18    0.45
  -1  -4  -2    5.32    0.62
   2  -4   2   49.55    1.21
  -2  -4  -2   48.99    1.68
   3  -4   2  133.25    2.86
   3  -4   2  136.62    2.65
   3   4   2  140.21    3.46
   4  -4   2   46.33    1.22
   4  -4   2   48.60    1.07
   4   4   2   50.33    1.89
   5   4   2   20.60    1.26
  11  -5  -2   -0.18    0.39
  11   5  -2   -0.67    0.49
  10  -5  -2    2.86    0.54
 -10   5   2    3.20    1.16
  10   5  -2    3.00    0.73
   9  -5  -2    0.04    0.35
  -9   5   2    0.11    0.79
   9   5  -2    0.80    0.50
   8  -5  -2   -0.08    0.29
   8  -5  -2    0.43    0.37
  -8   5   2   -0.12    0.65
   7  -5  -2   14.61    1.70
   7  -5  -2   11.84    0.73
   7  -5  -2   11.46    0.74
  -7   5   2   11.57    1.46
   6  -5  -2   72.58    1.96
   6  -5  -2   72.43    1.89
   6  -5  -2   70.22    3.06
  -6   5   2   67.59    2.70
   5  -5  -2    4.53    0.97
   5  -5  -2    5.80    0.53
   5  -5  -2    6.13    0.59
  -5   5   2    5.38    0.85
  -4  -5   2    0.84    0.41
   4  -5  -2    0.43    0.28
   4  -5  -2    0.54    0.61
  -4   5   2    0.78    0.43
   3  -5  -2   56.63    2.56
  -3  -5   2   58.53    1.99
   3  -5  -2   58.13    1.73
  -3   5   2   57.54    1.85
   2  -5  -2  172.51    3.98
   2  -5  -2  183.59    5.14
  -2  -5   2  185.53    4.25
  -2   5   2  185.17    3.95
   1  -5  -2    0.33    0.50
  -1  -5   2    0.83    0.38
   1  -5  -2    0.56    0.32
  -1   5   2    0.30    0.27
   0  -5  -2   91.66    3.13
   0  -5  -2   94.02    2.59
   0  -5   2   95.30    2.98
   0  -5   2   97.23    2.57
   0   5  -2   97.88    2.22
   0   5   2   93.50    2.28
   1  -5   2   68.22    2.01
  -1  -5  -2   73.43    2.23
   1  -5   2   69.82    2.56
  -1  -5  -2   70.37    2.58
   2  -5   2   17.22    0.88
  -2  -5  -2   18.90    1.09
  -2  -5  -2   16.36    1.19
   2  -5   2   18.15    1.35
   3  -5   2   60.60    1.70
  -3  -5  -2   63.82    2.23
  -3  -5  -2   58.27    2.00
   4  -5   2   51.76    1.21
   4  -5   2   49.20    1.43
  -4  -5  -2   46.05    1.88
   4   5   2   53.43    2.05
   5  -5   2    7.86    0.52
  10  -6  -2    2.97    0.56
  10   6  -2    3.05    0.74
   9  -6  -2    3.56    0.59
   9   6  -2    3.23    0.73
  -9   6   2    3.71    1.07
   8  -6  -2    8.29    0.76
  -8   6   2    5.13    1.11
   7  -6  -2   60.34    1.87
   7  -6  -2   60.30    1.77
   7  -6  -2   56.43    2.98
  -7   6   2   63.63    2.66
   6  -6  -2   15.38    0.88
   6  -6  -2   16.05    1.83
   6  -6  -2   14.98    0.83
  -6   6   2   15.97    1.47
   5  -6  -2   26.17    1.16
   5  -6  -2   23.67    2.17
  -5   6   2   29.08    1.55
   4  -6  -2   35.53    1.39
   4  -6  -2   32.23    2.14
  -4   6   2   38.18    1.56
   3  -6  -2    0.60    0.60
  -3  -6   2    0.76    0.42
   3  -6  -2    0.37    0.33
  -3   6   2    0.44    0.36
   2  -6  -2   38.81    1.52
  -2  -6   2   40.09    1.67
   2  -6  -2   39.05    2.18
  -2   6   2   40.40    1.37
   1  -6  -2    9.96    1.27
  -1  -6   2    8.40    0.87
  -1  -6   2   11.46    1.14
   1  -6  -2    8.31    0.85
  -1   6   2    9.76    0.65
   0  -6  -2    8.47    1.11
   0  -6   2    8.87    1.09
   0  -6   2    6.76    0.76
   0  -6  -2    7.29    0.82
   0   6   2    8.48    0.62
   0   6  -2    7.89    0.55
   1  -6   2  173.22    4.14
  -1  -6  -2  175.35    4.86
  -1  -6  -2  184.34    4.40
   1  -6   2  183.45    5.00
   2  -6   2   27.95    1.76
  -2  -6  -2   26.90    1.40
   2  -6   2   29.76    1.26
  -2  -6  -2   27.81    1.60
  -3  -6  -2   14.51    1.04
   3  -6   2   12.15    0.82
  -3  -6  -2   14.10    1.29
   3  -6   2   12.67    1.47
   4  -6   2    1.52    0.39
  -4  -6  -2    2.40    0.59
  -4   6  -2    2.19    0.39
   5  -6   2  109.93    2.60
   6  -6   2   14.37    0.73
  10  -7  -2    5.32    0.72
  10   7  -2    1.85    0.74
   9  -7  -2    7.27    0.80
   9   7  -2    7.38    1.03
   8  -7  -2    9.70    1.61
   8  -7  -2    9.64    0.90
   7  -7  -2    0.37    0.40
   7  -7  -2    1.14    0.88
  -7   7   2    0.27    0.59
   6  -7  -2    0.77    0.41
   6  -7  -2    0.59    0.67
  -6   7   2    1.55    0.61
   5  -7  -2   49.98    1.78
   5  -7  -2   47.25    2.76
  -5   7   2   43.57    1.85
   4  -7  -2  115.03    3.12
   4  -7  -2  115.40    4.41
  -4   7   2  123.77    3.17
  -3  -7   2    3.00    0.64
   3  -7  -2    3.53    0.61
   3  -7  -2    3.24    0.92
  -3   7   2    3.20    0.54
   2  -7  -2   14.53    1.68
  -2  -7   2   16.95    1.19
   2  -7  -2   16.56    1.07
  -2   7   2   17.19    0.86
  -1  -7   2   43.62    2.04
  -1  -7   2   40.52    1.78
   1  -7  -2   39.53    2.26
   1  -7  -2   43.54    1.76
  -1   7   2   41.55    1.35
   0  -7  -2    6.72    0.84
   0  -7   2    8.31    1.16
   0  -7   2    8.35    0.91
   0  -7  -2    8.44    1.21
   0   7  -2    7.74    0.66
  -1  -7  -2    4.89    0.95
   1  -7   2    4.32    0.91
  -1  -7  -2    4.83    0.79
   1  -7   2    4.44    0.68
   2  -7   2  132.05    4.37
  -2  -7  -2  126.97    3.63
  -2  -7  -2  130.77    4.04
   2  -7   2  131.94    3.38
  -3  -7  -2   -0.05    0.45
  -3  -7  -2   -0.05    0.41
   3  -7   2    0.40    0.35
   3  -7   2    0.60    0.59
  -4  -7  -2   35.66    1.81
   4  -7   2   34.90    1.42
   5  -7   2   30.81    1.28
   6  -7   2    1.08    0.38
   7  -7   2    1.86    0.40
  10  -8  -2   11.35    1.01
  10   8  -2   11.19    1.33
   9  -8  -2   44.67    1.78
   9   8  -2   37.74    2.00
   8  -8  -2    0.68    0.48
   8  -8  -2    0.10    0.81
   7  -8  -2    6.33    0.83
   7  -8  -2    6.03    1.41
   6  -8  -2   -0.84    0.58
   6  -8  -2    0.04    0.38
   5  -8  -2   20.39    2.23
   5  -8  -2   18.81    1.18
  -5   8   2   17.84    1.23
   4  -8  -2   73.80    2.47
   4  -8  -2   75.95    3.62
  -4   8   2   75.52    2.28
  -3  -8   2   15.39    1.37
   3  -8  -2   15.33    1.88
   3  -8  -2   13.60    1.20
  -3   8   2   16.82    0.91
  -2  -8   2    2.52    0.65
   2  -8  -2    1.89    0.82
   2  -8  -2    2.43    0.59
  -2  -8   2    2.81    0.71
  -2   8   2    2.70    0.46
  -1  -8   2   44.37    2.21
   1  -8  -2   44.08    2.49
  -1  -8   2   46.33    1.99
   1  -8  -2   44.25    1.90
  -1   8   2   43.30    1.44
   0  -8   2   30.30    1.57
   0  -8  -2   27.58    1.54
   0  -8  -2   25.69    1.89
   0  -8   2   29.16    1.85
   0   8  -2   29.16    1.20
  -1  -8  -2    0.65    0.48
   1  -8   2    0.93    0.59
  -1  -8  -2    0.87    0.60
   1  -8   2   -0.11    0.37
  -2  -8  -2    7.08    0.94
   2  -8   2    6.25    0.81
   2  -8   2    6.91    1.18
  -2  -8  -2    6.40    1.08
   3  -8   2  143.24    5.03
  -3  -8  -2  145.17    4.40
   3  -8   2  148.32    3.80
   4  -8   2   17.34    1.11
  -4  -8  -2   18.14    1.60
   5  -8   2   14.53    0.99
   6  -8   2    3.58    0.59
   7  -8   2   23.89    1.13
   9  -9  -2    1.66    0.61
   9   9  -2    0.85    0.61
   8  -9  -2   -0.70    0.79
   8  -9  -2    0.06    0.46
   7  -9  -2   37.52    2.81
   7  -9  -2   34.06    1.73
   6  -9  -2   23.53    1.42
   6  -9  -2   23.78    2.63
   5  -9  -2    3.09    0.69
   5  -9  -2    2.30    1.00
   4  -9  -2    4.27    1.21
   4  -9  -2    4.06    0.76
   3  -9  -2   50.64    2.97
   3  -9  -2   43.45    1.98
  -3   9   2   45.33    1.56
   2  -9  -2   47.93    2.86
   2  -9  -2   46.56    2.05
  -2  -9   2   46.22    2.30
  -2  -9   2   45.32    2.13
  -2   9   2   45.59    1.49
   1  -9  -2    2.48    0.68
   1  -9  -2    1.17    0.74
  -1  -9   2    0.82    0.51
  -1  -9   2    1.22    0.65
   0  -9   2   50.97    2.21
   0  -9  -2   52.78    2.80
   0  -9   2   55.29    2.70
   0  -9  -2   54.61    2.33
  -1  -9  -2    0.42    0.57
   1  -9   2    0.27    0.57
  -1  -9  -2    0.17    0.43
   1  -9   2    0.26    0.45
  -2  -9  -2   13.10    1.57
   2  -9   2   12.88    1.22
  -2  -9  -2   10.37    1.21
   2  -9   2   13.39    1.74
  -3  -9  -2    4.09    0.93
   3  -9   2    4.43    0.77
   3  -9   2    1.58    0.83
   4  -9   2   15.60    2.02
  -4  -9  -2   20.18    1.79
   4  -9   2   21.76    1.30
   5  -9   2   11.63    1.09
   6  -9   2    5.65    0.78
   7  -9   2   14.67    1.00
   8  -9   2    6.03    0.71
   9 -10  -2    0.44    0.59
   9  10  -2    1.43    0.70
   8 -10  -2    3.39    1.38
   8 -10  -2    4.52    0.87
   7 -10  -2   24.08    1.56
   7 -10  -2   21.53    2.57
   6 -10  -2   48.55    3.34
   6 -10  -2   55.58    2.32
   5 -10  -2    7.41    0.99
   5 -10  -2    7.77    1.62
   4 -10  -2    0.38    0.51
   4 -10  -2   -0.09    0.73
   3 -10  -2   -0.04    0.46
   3 -10  -2    1.52    0.90
  -2 -10   2  100.25    3.48
  -2 -10   2  102.08    3.80
   2 -10  -2  101.29    3.43
   2 -10  -2  108.60    4.53
  -1 -10   2    5.64    0.96
   1 -10  -2    6.85    1.38
  -1 -10   2    6.59    1.21
   1 -10  -2    5.38    0.95
   0 -10  -2   45.67    2.21
   0 -10   2   39.75    2.04
   0 -10  -2   40.92    2.62
   0 -10   2   41.76    2.51
  -1 -10  -2   57.61    3.03
  -1 -10  -2   65.19    2.71
   1 -10   2   59.94    2.51
   1 -10   2   63.97    3.21
  -2 -10  -2   29.89    1.79
   2 -10   2   22.96    2.34
  -2 -10  -2   25.87    1.99
   2 -10   2   26.38    1.61
   3 -10   2    0.98    0.80
   3 -10   2    1.33    0.57
  -3 -10  -2    1.10    0.72
   4 -10   2    6.45    0.92
   4 -10   2    3.01    1.11
  -4 -10  -2    9.48    1.34
   5 -10   2   42.03    1.95
   6 -10   2    0.57    0.50
   7 -10   2    5.82    0.86
   8 -10   2    3.94    0.69
   9 -11  -2   18.14    1.59
   9  11  -2   15.74    1.64
   8 -11  -2    0.99    1.17
   8 -11  -2    1.31    0.74
   8  11  -2   -0.04    0.56
   7 -11  -2    0.14    0.63
   7 -11  -2   -0.27    0.87
   6 -11  -2    1.68    0.72
   6 -11  -2    0.29    1.03
   5 -11  -2   40.40    3.09
   5 -11  -2   38.72    2.09
   4 -11  -2   13.18    2.22
   4 -11  -2   14.92    1.49
   3 -11  -2    4.07    0.88
   3 -11  -2    4.56    1.41
   2 -11  -2   10.48    1.83
  -2 -11   2   11.61    1.56
  -2 -11   2    9.06    1.24
   2 -11  -2    8.44    1.21
   1 -11  -2    5.25    1.29
  -1 -11   2    3.30    0.82
   1 -11  -2    5.18    0.97
  -1 -11   2    3.67    1.04
   0 -11  -2    0.20    0.56
   0 -11   2   -0.32    0.46
   0 -11   2    0.43    0.71
   0 -11  -2    0.00    0.73
  -1 -11  -2    1.20    0.67
  -1 -11  -2    1.36    0.90
   1 -11   2    3.68    0.84
   1 -11   2    2.46    0.99
   2 -11   2   35.71    1.98
   2 -11   2   35.93    2.69
  -2 -11  -2   40.43    2.54
   3 -11   2   11.99    1.92
   3 -11   2   12.58    1.36
  -3 -11  -2   14.01    1.75
   4 -11   2    4.05    0.85
  -4 -11  -2    3.87    1.02
   4 -11   2    5.53    1.55
   5 -11   2    0.51    0.59
   6 -11   2    0.06    0.54
   7 -11   2   13.95    1.31
   8 -11   2    0.23    0.50
   9 -11   2    4.05    0.67
   8 -12  -2    8.22    1.25
   8 -12  -2    6.44    1.73
   7 -12  -2    0.95    1.02
   7 -12  -2    0.14    0.63
   6 -12  -2    1.76    1.19
   6 -12  -2    2.05    0.85
   5 -12  -2   -0.01    0.61
   5 -12  -2   -0.30    0.85
   4 -12  -2  102.73    3.78
   4 -12  -2  104.67    5.10
   3 -12  -2    7.70    1.24
   3 -12  -2    6.78    1.63
   2 -12  -2   29.74    3.10
   2 -12  -2   30.73    1.99
  -1 -12   2   24.33    2.05
   1 -12  -2   21.50    1.95
  -1 -12   2   22.13    2.30
   1 -12  -2   22.68    2.69
   0 -12   2   37.09    2.16
   0 -12  -2   34.64    2.16
   0 -12   2   39.89    2.72
   0 -12  -2   37.61    2.74
  -1 -12  -2    2.56    0.86
  -1 -12  -2    3.09    1.06
   1 -12   2    3.32    0.87
   1 -12   2    3.92    1.23
  -2 -12  -2   44.26    2.78
   2 -12   2   42.16    2.29
   2 -12   2   37.90    2.91
   3 -12   2   24.00    1.72
  -3 -12  -2   27.41    2.48
   3 -12   2   26.45    2.88
   4 -12   2    5.03    0.98
   5 -12   2   -0.72    0.50
   6 -12   2    3.42    0.86
   7 -12   2    2.08    0.79
   8 -12   2    6.76    1.00
   7 -13  -2   28.28    1.98
   7 -13  -2   24.63    3.18
   6 -13  -2   -0.76    0.91
   6 -13  -2   -0.18    0.69
   5 -13  -2    1.19    1.08
   5 -13  -2    1.05    0.77
   4 -13  -2    0.22    0.65
   4 -13  -2    1.21    1.11
   3 -13  -2   14.86    2.45
   3 -13  -2   14.87    1.71
   2 -13  -2    0.50    0.88
   2 -13  -2    0.08    0.67
  -1 -13   2    0.28    0.71
  -1 -13   2    5.04    1.26
   1 -13  -2    0.99    0.97
   1 -13  -2    1.71    0.85
   0 -13  -2   15.45    2.20
   0 -13  -2   19.46    1.94
   0 -13   2   12.64    1.95
   0 -13   2   17.44    1.80
   1 -13   2    2.04    0.85
   1 -13   2    3.69    1.30
  -1 -13  -2    3.14    1.17
   2 -13   2   15.60    2.32
   2 -13   2   11.05    1.48
  -2 -13  -2   12.99    1.98
   3 -13   2    0.49    0.69
  -3 -13  -2    0.82    0.88
   3 -13   2    0.40    0.99
   4 -13   2    4.63    1.05
   5 -13   2   15.51    1.65
   6 -13   2    0.43    0.66
   7 -13   2    1.36    0.73
   7 -14  -2   -0.23    1.05
   7 -14  -2    0.22    0.79
   6 -14  -2   44.40    2.62
   6 -14  -2   42.84    4.23
   5 -14  -2    0.20    1.02
   5 -14  -2    0.21    0.71
   4 -14  -2    8.41    2.06
   4 -14  -2    7.51    1.30
   3 -14  -2    4.98    1.16
   3 -14  -2    4.26    1.47
   2 -14  -2   50.26    3.64
   2 -14  -2   52.04    2.85
   1 -14  -2    5.19    1.19
   1 -14  -2    2.07    1.20
   0 -14   2   53.69    3.46
   0 -14   2   53.68    2.90
   0 -14  -2   54.88    2.93
   0 -14  -2   54.97    3.54
   1 -14   2    6.51    1.60
  -1 -14  -2    5.20    1.45
   1 -14   2    4.57    1.12
  -2 -14  -2    4.56    1.36
   2 -14   2    6.35    1.23
   2 -14   2    5.37    1.61
   3 -14   2    1.21    0.78
  -3 -14  -2   -0.19    0.83
   4 -14   2   11.02    1.52
   5 -14   2   -0.38    0.63
   6 -14   2    4.06    1.04
   7 -14   2   -0.32    0.68
   6 -15  -2    2.47    1.52
   6 -15  -2    0.70    0.88
   5 -15  -2   15.63    1.89
   5 -15  -2   17.56    2.91
   4 -15  -2    0.68    0.88
   4 -15  -2    0.33    1.28
   3 -15  -2    1.24    1.17
   3 -15  -2    1.20    0.88
   2 -15  -2    0.76    0.86
   2 -15  -2    1.00    1.11
   1 -15  -2    1.21    0.88
   1 -15  -2    0.61    1.01
   0 -15   2   14.95    1.87
   0 -15  -2   10.43    1.98
   1 -15   2   -0.03    0.74
  -1 -15  -2    1.14    1.04
  -2 -15  -2    8.91    1.70
   2 -15   2   10.80    1.64
   3 -15   2   10.76    1.61
  -3 -15  -2    9.49    1.71
   4 -15   2    2.09    0.96
   5 -15   2   -0.50    0.72
   6 -15   2   -0.62    0.74
   5 -16  -2    5.47    1.93
   5 -16  -2    3.81    1.22
   4 -16  -2   50.96    4.92
   4 -16  -2   57.91    3.23
   3 -16  -2    1.37    0.95
   3 -16  -2    0.32    1.16
   2 -16  -2   17.44    2.73
   2 -16  -2   16.02    2.01
   1 -16  -2    1.60    1.20
   1 -16  -2    2.31    1.11
   0 -16  -2   12.14    2.22
  -1 -16  -2    3.54    1.38
   1 -16   2    4.33    1.23
  -2 -16  -2   19.86    2.56
   2 -16   2   21.36    2.28
   3 -16   2    0.16    0.86
  -3 -16  -2   -0.02    0.98
   4 -16   2    0.04    0.86
   5 -16   2    1.76    1.01
   3 -17  -2    4.08    1.31
   3 -17  -2    2.71    1.63
   2 -17  -2    2.98    1.22
   2 -17  -2    3.63    1.62
   1 -17  -2    2.31    1.39
   0 -17  -2    1.36    1.27
  -1 -17  -2    1.48    1.23
  -2 -17  -2    9.05    1.92
   2 -17   2    9.36    1.69
   3 -17   2    0.93    0.97
  11   0  -3    0.80    0.51
 -11   0   3   -0.22    1.13
 -10   0   3   -0.45    0.95
  10   0  -3    0.68    0.42
  -9   0   3   47.49    3.16
   9   0  -3   46.55    1.72
   8   0  -3   -0.20    0.27
  -8   0   3   -0.13    0.79
  -7   0   3   37.63    2.51
   7   0  -3   38.08    1.40
   6   0  -3    0.04    0.31
   6   0  -3   -0.20    0.22
  -6   0   3    0.43    0.65
   5   0  -3  205.65    4.51
   5   0  -3  210.47    4.32
  -4   0   3   -0.38    0.41
   4   0  -3    0.30    0.26
   4   0  -3    0.28    0.22
  -3   0   3  390.59    8.18
   3   0  -3  384.20    7.21
   3   0  -3  390.99    7.38
  -2   0   3    0.20    0.21
   2   0  -3   -0.07    0.20
  -2   0   3    0.10    0.36
   2   0  -3    0.53    0.22
  -1   0   3    3.52    0.52
  -1   0   3    1.81    0.31
   1   0  -3    2.45    0.33
   0   0  -3   -0.16    0.17
   0   0   3    0.04    0.28
   0   0   3    0.34    0.22
   1   0   3  508.18    9.22
   1   0   3  516.27    9.38
   1   0   3  518.09    9.26
  -1   0  -3  504.42    9.26
   2   0   3    0.19    0.19
   2   0   3    0.63    0.23
   3   0   3   34.45    1.12
   3   0   3   35.04    1.04
   4   0   3    0.17    0.19
   4   0   3    0.21    0.24
   5   0   3    0.15    0.28
   6   0   3    0.20    0.31
   7   0   3    4.13    0.60
   8   0   3   -0.21    0.40
 -11  -1   3   -0.29    1.06
  11  -1  -3    0.49    0.45
 -11   1   3    0.27    1.20
  11   1  -3   -0.63    0.39
  10  -1  -3    2.99    0.59
 -10  -1   3    2.55    1.37
  10   1  -3    2.45    0.61
 -10   1   3    1.09    1.04
   9  -1  -3   21.72    1.13
  -9  -1   3   19.08    2.53
  -9   1   3   21.79    2.49
   9   1  -3   21.97    1.21
   8  -1  -3    8.10    0.75
   8   1  -3    7.85    0.79
  -8   1   3    6.17    1.39
   7  -1  -3   46.62    1.55
   7   1  -3   47.49    1.64
  -7   1   3   47.52    2.70
   6  -1  -3    2.14    0.46
   6  -1  -3    2.34    0.40
   6   1  -3    2.33    0.56
  -6   1   3    0.11    0.63
   6   1  -3    1.79    0.40
   5  -1  -3   84.45    2.14
   5  -1  -3   88.19    2.29
   5  -1  -3   88.43    2.77
  -5   1   3   83.84    3.15
   5   1  -3   90.37    2.48
   5   1  -3   82.85    2.20
   4  -1  -3    1.29    0.53
   4  -1  -3    0.67    0.25
   4  -1  -3    0.73    0.28
   4   1  -3    0.93    0.28
  -4   1   3    0.19    0.49
   4   1  -3    0.96    0.33
  -3  -1   3    0.51    0.44
   3  -1  -3    0.01    0.18
   3  -1  -3   -0.12    0.21
   3   1  -3    0.28    0.22
   3   1  -3    0.04    0.25
  -3   1   3    0.57    0.44
  -2  -1   3    4.33    0.69
  -2  -1   3    4.44    0.46
   2  -1  -3    4.84    0.44
   2  -1  -3    5.58    0.48
   2   1  -3    4.36    0.41
  -2   1   3    4.69    0.43
  -2   1   3    4.41    0.65
  -1  -1   3   19.16    0.97
   1  -1  -3   18.42    0.76
  -1  -1   3   18.19    0.78
   1   1  -3   17.14    0.70
  -1   1   3   18.01    0.94
  -1   1   3   17.38    0.73
   0  -1  -3  101.68    2.30
   0  -1   3  100.04    2.26
   0  -1   3  101.12    2.34
   0   1  -3   99.85    2.18
   0   1   3  101.91    2.41
   0   1   3   96.43    2.22
   1  -1   3    6.42    0.46
   1  -1   3    6.82    0.48
   1  -1   3    5.74    0.48
  -1  -1  -3    6.91    0.57
  -1   1  -3    6.75    0.45
   1   1   3    7.67    0.60
   1   1   3    6.80    0.55
   1   1   3    6.39    0.51
   2  -1   3   54.94    1.38
   2  -1   3   54.06    1.38
   2   1   3   53.42    1.43
   2   1   3   55.59    1.54
   3  -1   3    0.29    0.21
   3  -1   3    0.42    0.20
   3   1   3    0.76    0.29
   4  -1   3  122.30    2.55
   4  -1   3  124.13    2.66
   4   1   3  123.85    2.92
   5  -1   3   85.80    1.97
   5  -1   3   89.82    2.13
   5   1   3   88.96    2.40
   6  -1   3   36.20    1.25
   6   1   3   40.46    1.55
   7  -1   3   76.12    2.08
   7   1   3   75.68    2.40
   8  -1   3   18.46    1.02
 -11  -2   3   11.26    2.35
  11  -2  -3   17.40    1.10
 -11   2   3   10.81    2.06
  11   2  -3   12.86    1.23
  10  -2  -3    0.69    0.44
 -10  -2   3    0.41    1.07
 -10   2   3    1.88    1.15
  10   2  -3    0.65    0.49
   9  -2  -3    2.47    0.50
   9   2  -3    2.22    0.56
  -9   2   3    2.67    1.18
   8  -2  -3    2.06    0.44
   8   2  -3    1.41    0.46
  -8   2   3    3.58    1.08
   7  -2  -3   98.01    2.63
   7  -2  -3   91.23    2.39
  -7   2   3   92.61    3.74
   7   2  -3   93.48    2.62
   6  -2  -3    0.65    0.28
   6  -2  -3    0.49    0.32
   6  -2  -3    0.63    0.49
  -6   2   3    1.10    0.70
   6   2  -3    0.39    0.32
   5  -2  -3   94.77    2.39
   5  -2  -3   93.47    2.28
   5  -2  -3  100.90    3.17
   5   2  -3   94.48    2.72
   5   2  -3   94.22    2.44
  -5   2   3   92.20    3.28
   4  -2  -3    6.67    0.55
   4  -2  -3    6.82    0.59
   4  -2  -3    8.27    0.99
   4   2  -3    7.15    0.75
   4   2  -3    6.80    0.61
  -4   2   3    4.98    0.87
   3  -2  -3   62.24    1.67
  -3  -2   3   64.65    1.79
   3  -2  -3   58.59    2.28
   3  -2  -3   64.10    1.65
  -3   2   3   63.46    2.19
   3   2  -3   66.80    1.94
   3   2  -3   64.46    1.72
  -2  -2   3   13.13    0.73
   2  -2  -3   13.57    0.67
   2  -2  -3   13.43    0.67
  -2  -2   3   13.58    1.11
   2   2  -3   13.18    0.65
  -2   2   3   11.96    0.97
   1  -2  -3  578.38   10.36
  -1  -2   3  567.89   10.67
  -1  -2   3  564.06   10.39
  -1   2   3  555.03   10.64
   1   2  -3  575.74   10.24
   0  -2  -3   85.67    2.13
   0  -2   3   83.26    2.06
   0  -2   3   89.17    2.08
   0   2  -3   85.15    1.94
   0   2   3   86.55    2.17
   1  -2   3   28.93    0.89
   1  -2   3   29.05    0.98
  -1  -2  -3   29.81    1.12
   1  -2   3   29.08    0.89
   1   2   3   25.27    1.02
  -2  -2  -3   21.79    0.98
   2  -2   3   20.89    0.80
   2  -2   3   21.11    0.73
   2   2   3   22.75    0.99
   3  -2   3   91.20    2.03
   3  -2   3   91.87    1.99
   3   2   3   90.82    2.39
   4  -2   3   33.83    0.97
   4  -2   3   33.15    0.96
   4   2   3   30.80    1.31
   5  -2   3    2.19    0.32
   5  -2   3    2.11    0.28
   5   2   3    1.71    0.48
   6  -2   3   12.55    0.64
   6  -2   3   12.31    0.57
   6   2   3   14.03    1.13
   7  -2   3   13.90    0.72
   8  -2   3    0.49    0.33
   9  -2   3    0.28    0.34
  11  -3  -3    0.29    0.43
 -11  -3   3    0.15    1.26
 -11   3   3    0.01    1.09
  11   3  -3   -0.36    0.47
  10  -3  -3    5.11    0.69
 -10  -3   3    3.96    1.51
  10   3  -3    3.45    0.71
 -10   3   3    3.54    1.31
   9  -3  -3    9.47    0.84
   9   3  -3   10.51    1.03
  -9   3   3   13.04    1.93
   8  -3  -3    3.77    0.54
  -8   3   3    1.45    0.94
   8   3  -3    1.14    0.46
   7  -3  -3   81.98    2.23
   7  -3  -3   82.04    2.35
   7   3  -3   84.58    2.53
  -7   3   3   86.23    3.52
   6  -3  -3    7.32    0.63
   6  -3  -3    7.51    0.70
   6  -3  -3    7.01    1.06
   6   3  -3    7.12    0.73
  -6   3   3    9.45    1.32
   5  -3  -3   14.37    0.77
   5  -3  -3   12.47    0.70
   5  -3  -3   14.21    1.43
   5   3  -3   13.31    1.12
  -5   3   3   13.13    1.39
   5   3  -3   13.92    0.84
   4  -3  -3   13.76    1.37
   4  -3  -3   12.36    0.69
   4  -3  -3   11.50    0.67
   4   3  -3   12.40    0.75
  -4   3   3   10.39    1.10
   4   3  -3   11.87    1.00
   3  -3  -3   74.43    1.92
   3  -3  -3   71.06    2.71
   3  -3  -3   74.71    1.89
  -3  -3   3   73.86    2.07
  -3   3   3   72.54    2.35
   3   3  -3   72.31    1.96
  -2  -3   3   17.10    1.15
   2  -3  -3   15.98    0.79
   2  -3  -3   16.24    0.76
  -2  -3   3   14.60    0.84
   2  -3  -3   16.09    1.38
   2   3  -3   14.96    0.73
  -2   3   3   16.90    0.97
  -1  -3   3    2.24    0.40
  -1  -3   3    2.84    0.53
   1  -3  -3    2.03    0.39
   1   3  -3    2.48    0.35
  -1   3   3    2.92    0.47
   0  -3   3   38.63    1.18
   0  -3   3   36.90    1.29
   0  -3  -3   36.92    1.33
   0   3   3   37.56    1.30
   0   3  -3   35.37    1.08
   1  -3   3   77.13    1.71
   1  -3   3   80.49    1.81
  -1  -3  -3   77.59    2.17
   1  -3   3   77.95    1.99
   1   3   3   78.38    2.07
   2  -3   3  151.49    3.24
   2  -3   3  154.53    3.08
  -2  -3  -3  155.11    3.57
   3  -3   3    9.88    0.49
   3  -3   3   11.22    0.60
   3   3   3   10.39    0.87
   4  -3   3   27.36    0.81
   4  -3   3   26.67    0.87
   4   3   3   24.11    1.25
   5  -3   3   53.22    1.34
   5  -3   3   54.77    1.32
   5   3   3   58.97    2.06
   6  -3   3   59.62    1.40
   6  -3   3   58.92    1.41
   7  -3   3   45.47    1.20
   8  -3   3    2.20    0.32
  11  -4  -3    2.18    0.57
 -11  -4   3    0.40    1.39
 -11   4   3    2.35    1.28
  11   4  -3    1.19    0.66
  10  -4  -3   18.58    1.10
  10   4  -3   20.53    1.38
 -10   4   3   14.08    2.04
   9  -4  -3   27.79    1.28
  -9   4   3   27.93    2.63
   9   4  -3   29.03    1.56
   8  -4  -3    8.62    0.78
   8   4  -3    7.29    0.90
  -8   4   3    9.38    1.51
   7  -4  -3    8.71    0.77
   7  -4  -3    8.71    0.80
   7  -4  -3    9.21    1.31
  -7   4   3   10.42    1.49
   7   4  -3    8.66    0.89
   6  -4  -3    0.31    0.29
   6  -4  -3    0.07    0.54
   6  -4  -3    0.32    0.31
   6   4  -3    0.43    0.35
  -6   4   3    0.47    0.57
   5  -4  -3   89.23    2.30
   5  -4  -3   87.87    3.34
   5  -4  -3   89.08    2.25
  -5   4   3   85.83    3.00
   5   4  -3   88.19    2.49
   4  -4  -3    4.23    0.50
   4  -4  -3    5.28    1.02
   4  -4  -3    4.05    0.50
   4   4  -3    5.94    0.64
  -4   4   3    5.26    0.83
  -3  -4   3  187.22    4.20
   3  -4  -3  182.56    5.12
   3  -4  -3  182.66    3.85
   3  -4  -3  180.89    3.95
  -3   4   3  179.95    4.35
   3   4  -3  184.25    4.01
  -2  -4   3   72.61    2.15
   2  -4  -3   72.91    2.00
   2  -4  -3   68.23    2.75
  -2   4   3   68.72    2.11
   2   4  -3   70.05    1.91
  -1  -4   3    3.80    0.56
   1  -4  -3    3.86    0.77
   1  -4  -3    3.68    0.52
  -1  -4   3    3.78    0.59
  -1   4   3    3.22    0.50
   1   4  -3    4.80    0.48
   0  -4  -3    7.42    0.74
   0  -4   3    7.00    0.56
   0  -4   3    6.80    0.68
   0   4  -3    7.76    0.50
   0   4   3    6.85    0.67
   1  -4   3  365.23    7.07
   1  -4   3  366.87    6.74
  -1  -4  -3  363.32    7.33
   1   4   3  354.65    7.07
   2  -4   3   96.69    2.15
  -2  -4  -3  100.12    2.73
   2  -4   3   98.51    2.41
   3  -4   3    7.89    0.45
   3  -4   3    8.06    0.59
   3   4   3    8.50    0.85
   4  -4   3   41.82    1.10
   4  -4   3   41.17    1.25
   4   4   3   44.94    1.78
   5  -4   3    1.85    0.25
   5  -4   3    1.62    0.30
   6  -4   3   10.59    0.47
   6  -4   3   10.38    0.52
  10  -5  -3    2.29    0.58
 -10   5   3    0.59    0.95
  10   5  -3    1.51    0.63
   9  -5  -3   16.42    1.04
   9   5  -3   19.87    1.35
  -9   5   3   20.73    2.17
   8  -5  -3   11.69    0.83
   8   5  -3    8.97    1.01
  -8   5   3    9.19    1.43
   7  -5  -3    9.72    0.83
   7  -5  -3   10.59    1.46
   7   5  -3    9.74    0.98
  -7   5   3   12.86    1.51
   6  -5  -3   16.26    0.91
   6  -5  -3   15.50    0.87
   6  -5  -3   16.06    1.76
  -6   5   3   15.34    1.53
   6   5  -3   14.47    1.01
   5  -5  -3   89.89    2.41
   5  -5  -3   85.04    3.50
   5  -5  -3   89.25    2.31
  -5   5   3   86.69    2.98
   5   5  -3   88.27    2.57
   4  -5  -3    0.47    0.33
   4  -5  -3    0.05    0.55
   4  -5  -3   -0.16    0.23
  -4   5   3    0.99    0.50
   4   5  -3    0.38    0.31
   3  -5  -3   16.90    1.73
  -3  -5   3   14.80    1.01
   3  -5  -3   14.77    0.86
   3   5  -3   14.13    0.86
  -3   5   3   13.43    0.98
   2  -5  -3   36.39    2.04
  -2  -5   3   32.15    1.45
   2  -5  -3   32.90    1.34
  -2   5   3   32.31    1.33
   2   5  -3   32.46    1.22
  -1  -5   3   96.80    2.57
   1  -5  -3   92.03    3.33
   1  -5  -3   89.91    2.55
  -1  -5   3   88.37    2.59
   1   5  -3   91.54    2.29
  -1   5   3   89.62    2.40
   0  -5   3   43.32    1.61
   0  -5  -3   41.54    1.62
   0  -5  -3   43.14    2.08
   0  -5   3   42.59    1.27
   0   5   3   44.69    1.46
   0   5  -3   43.50    1.32
  -1  -5  -3    7.17    1.00
   1  -5   3    6.93    0.71
  -1  -5  -3    8.35    0.87
  -2  -5  -3   12.53    1.06
   2  -5   3   10.00    0.83
   2  -5   3   13.20    0.62
   3  -5   3    2.13    0.42
  -3  -5  -3    2.34    0.55
   3  -5   3    2.87    0.34
   4  -5   3   90.75    2.32
   4  -5   3   96.91    2.08
   4   5   3   95.18    2.95
   5  -5   3   24.18    0.77
   5  -5   3   23.21    0.94
   6  -5   3    0.21    0.24
   6  -5   3    0.27    0.17
  10  -6  -3    2.98    0.66
  10   6  -3    3.18    0.79
   9  -6  -3    0.07    0.40
  -9   6   3    0.22    0.80
   9   6  -3    0.81    0.54
   8  -6  -3   17.00    1.07
  -8   6   3   15.29    1.77
   8   6  -3   17.89    1.29
   7  -6  -3   30.89    2.25
   7  -6  -3   36.00    1.48
   7   6  -3   34.59    1.67
  -7   6   3   37.61    2.14
   6  -6  -3   10.40    1.56
   6  -6  -3    8.52    0.83
   6  -6  -3   10.46    0.75
   6   6  -3   10.29    1.00
  -6   6   3    7.82    1.14
   5  -6  -3    5.82    1.18
   5  -6  -3    4.59    0.63
   5  -6  -3    5.05    0.61
  -5   6   3    6.35    0.94
   5   6  -3    6.16    0.78
   4  -6  -3   33.69    2.21
   4  -6  -3   33.82    1.43
  -4   6   3   35.07    1.62
   4   6  -3   33.52    1.45
  -3  -6   3   20.25    1.22
   3  -6  -3   24.42    1.21
   3  -6  -3   23.70    2.17
  -3   6   3   20.33    1.15
   3   6  -3   21.26    1.09
   2  -6  -3    0.38    0.39
   2  -6  -3   -0.03    0.52
  -2  -6   3   -0.09    0.32
   2   6  -3    1.54    0.38
  -2   6   3    0.93    0.37
   1  -6  -3  200.33    4.66
  -1  -6   3  201.95    4.72
   1  -6  -3  189.46    5.59
  -1  -6   3  204.47    4.54
  -1   6   3  194.19    4.35
   1   6  -3  195.70    4.26
   0  -6   3  233.61    5.31
   0  -6   3  238.09    4.66
   0  -6  -3  235.09    5.43
   0  -6  -3  238.71    6.36
   0   6  -3  235.35    4.82
   0   6   3  240.57    5.03
   1  -6   3   22.07    1.20
  -1  -6  -3   21.34    1.24
  -1  -6  -3   20.44    1.77
  -2  -6  -3   44.03    1.89
  -2  -6  -3   43.02    2.11
   2  -6   3   45.66    1.66
   3  -6   3   70.57    2.13
  -3  -6  -3   70.92    2.73
  -3  -6  -3   74.56    2.51
  -4  -6  -3  114.10    3.57
   4  -6   3  115.20    2.87
   5  -6   3   -0.02    0.28
   6  -6   3   46.46    1.45
   7  -6   3    1.85    0.33
  10  -7  -3    1.11    0.55
  10   7  -3    1.21    0.66
   9  -7  -3    0.00    0.44
   9   7  -3    0.62    0.58
   8  -7  -3   22.71    1.29
   8  -7  -3   22.04    2.32
  -8   7   3   21.27    1.99
   8   7  -3   23.27    1.48
   7  -7  -3   69.04    2.30
   7  -7  -3   66.70    3.43
   7   7  -3   60.67    2.41
  -7   7   3   70.37    2.90
   6  -7  -3    4.46    0.69
   6  -7  -3    3.39    1.07
  -6   7   3    2.18    0.73
   6   7  -3    1.60    0.52
   5  -7  -3    2.36    0.93
   5  -7  -3    3.45    0.66
  -5   7   3    3.31    0.71
   5   7  -3    4.19    0.70
   4  -7  -3   44.59    1.81
   4  -7  -3   47.18    2.73
   4   7  -3   44.06    1.77
  -4   7   3   43.64    1.83
   3  -7  -3  100.90    2.94
   3  -7  -3   98.61    3.98
  -3  -7   3   97.59    3.13
  -3   7   3  104.55    2.84
   3   7  -3   99.87    2.80
  -2  -7   3   12.02    1.16
   2  -7  -3    9.04    1.47
   2  -7  -3    9.49    0.97
   2   7  -3   11.72    0.81
  -2   7   3   12.49    0.97
   1  -7  -3   29.07    1.50
  -1  -7   3   31.89    1.58
   1  -7  -3   31.37    2.07
  -1   7   3   28.26    1.23
   1   7  -3   28.65    1.22
   0  -7  -3    6.98    0.87
   0  -7   3    7.43    0.60
   0  -7   3    6.86    0.86
   0  -7  -3    7.10    1.13
   0   7   3    5.86    0.67
   0   7  -3    6.56    0.63
  -1  -7  -3   89.29    2.94
   1  -7   3   91.45    2.76
  -1  -7  -3   91.26    3.46
   2  -7   3   42.54    1.74
  -2  -7  -3   42.92    2.27
  -2  -7  -3   46.09    2.00
  -3  -7  -3    1.90    0.73
  -3  -7  -3    1.83    0.59
   3  -7   3    2.56    0.56
  -4  -7  -3   10.65    1.28
   4  -7   3    9.02    0.87
   5  -7   3   12.71    0.87
   6  -7   3   41.61    1.48
   7  -7   3   11.22    0.71
  10  -8  -3   23.45    1.41
  10   8  -3   16.99    1.66
   9  -8  -3    2.59    0.70
   9   8  -3    3.25    0.81
   8  -8  -3    9.29    1.71
   8  -8  -3    7.19    0.91
   8   8  -3    6.70    1.02
   7  -8  -3    6.94    0.90
   7  -8  -3    8.49    1.60
  -7   8   3    6.37    1.08
   7   8  -3    3.56    0.79
   6  -8  -3    2.17    1.03
   6  -8  -3    2.43    0.61
  -6   8   3    2.39    0.72
   6   8  -3    1.88    0.59
   5  -8  -3   12.82    1.87
   5  -8  -3   15.17    1.11
  -5   8   3   15.58    1.32
   5   8  -3   14.31    1.24
   4  -8  -3    8.21    0.96
   4  -8  -3    5.94    1.33
  -4   8   3   10.68    1.01
   4   8  -3    8.22    0.93
   3  -8  -3    0.77    0.71
  -3  -8   3    0.56    0.48
   3  -8  -3    0.81    0.46
  -3   8   3    0.20    0.39
   3   8  -3    0.35    0.36
   2  -8  -3  101.53    4.11
   2  -8  -3  103.45    3.17
  -2  -8   3  102.42    3.26
  -2   8   3  101.89    2.71
   2   8  -3   95.60    2.79
  -1  -8   3    6.61    0.93
   1  -8  -3    7.12    1.32
   1  -8  -3    5.42    0.83
   1   8  -3    6.54    0.70
  -1   8   3    6.01    0.69
   0  -8   3    7.37    0.93
   0  -8  -3    8.32    1.38
   0  -8   3    6.87    0.60
   0  -8  -3    6.12    0.93
  -1  -8  -3   59.98    2.43
  -1  -8  -3   59.16    2.86
   1  -8   3   60.36    2.28
  -2  -8  -3  189.16    5.66
   2  -8   3  199.28    4.85
  -2  -8  -3  200.43    5.18
   3  -8   3    1.77    0.54
  -3  -8  -3    2.39    0.79
   4  -8   3   30.82    1.48
  -4  -8  -3   29.62    1.84
   5  -8   3   18.92    1.15
   6  -8   3   23.24    1.21
   7  -8   3    4.95    0.63
   9  -9  -3    2.99    0.75
   9   9  -3    4.14    0.94
   8  -9  -3    0.00    0.93
   8  -9  -3    0.75    0.59
   8   9  -3    1.18    0.67
   7  -9  -3    1.19    0.94
   7  -9  -3    0.31    0.52
   7   9  -3    0.22    0.50
   6  -9  -3   57.38    2.33
   6  -9  -3   58.23    3.47
   6   9  -3   58.47    2.37
   5  -9  -3   47.63    2.09
   5  -9  -3   43.26    2.98
   5   9  -3   45.27    2.01
  -5   9   3   50.00    2.00
   4  -9  -3   -0.15    0.45
   4  -9  -3   -0.13    0.74
   4   9  -3    0.24    0.39
  -4   9   3    0.66    0.46
   3  -9  -3   13.29    1.32
   3  -9  -3   15.46    1.98
   3   9  -3   14.64    1.07
  -3   9   3   17.95    1.04
  -2  -9   3   20.35    1.49
   2  -9  -3   27.33    2.65
   2  -9  -3   21.23    1.44
  -2   9   3   23.82    1.16
   2   9  -3   23.00    1.26
  -1  -9   3   40.92    2.03
   1  -9  -3   45.35    2.75
   1  -9  -3   45.67    2.11
  -1   9   3   44.36    1.61
   0  -9   3    6.30    0.93
   0  -9  -3    4.36    1.12
   0  -9  -3    5.50    0.95
  -1  -9  -3    5.33    0.93
   1  -9   3    4.48    0.83
  -1  -9  -3    4.01    1.07
  -2  -9  -3    4.53    1.08
   2  -9   3    3.75    0.77
  -2  -9  -3    4.37    0.91
   3  -9   3    9.14    1.04
  -3  -9  -3    9.52    1.41
   4  -9   3   20.65    1.30
  -4  -9  -3   21.79    1.96
   5  -9   3    0.57    0.48
   6  -9   3   10.71    1.04
   7  -9   3   30.22    1.41
   8  -9   3   11.94    0.85
   9 -10  -3    0.12    0.62
   9  10  -3    1.27    0.70
   8 -10  -3   12.29    2.10
   8 -10  -3   12.97    1.36
   8  10  -3   10.87    1.34
   7 -10  -3    3.73    0.85
   7 -10  -3    3.50    1.31
   7  10  -3    3.28    0.81
   6 -10  -3   11.07    1.28
   6 -10  -3   12.08    2.00
   6  10  -3   11.71    1.26
   5 -10  -3   29.73    1.80
   5 -10  -3   33.79    3.30
   5  10  -3   29.91    1.67
   4 -10  -3    4.80    1.40
   4 -10  -3    4.26    0.88
   3 -10  -3   -0.11    0.70
   3 -10  -3    1.56    0.66
  -3  10   3    0.84    0.42
   2 -10  -3    3.61    0.81
  -2 -10   3    3.25    0.85
   2 -10  -3    4.26    1.23
  -2  10   3    4.55    0.66
   1 -10  -3    0.47    0.74
  -1 -10   3   -0.84    0.39
   1 -10  -3    1.10    0.59
   0 -10  -3   91.85    3.40
   0 -10   3  102.03    3.42
   0 -10  -3   91.72    4.07
  -1 -10  -3   14.18    1.85
   1 -10   3   10.56    1.24
  -1 -10  -3    8.57    1.18
   2 -10   3    4.76    0.87
  -2 -10  -3    2.58    0.91
  -3 -10  -3   16.34    1.86
   3 -10   3   19.04    1.39
  -4 -10  -3   45.48    2.49
   4 -10   3   44.42    2.05
   5 -10   3    4.48    0.83
   6 -10   3    9.39    1.05
   7 -10   3   21.57    1.32
   8 -10   3    0.24    0.45
   8 -11  -3   28.52    3.22
   8 -11  -3   32.39    1.94
   7 -11  -3    8.25    1.17
   7 -11  -3    6.00    1.66
   6 -11  -3   -0.05    0.54
   6 -11  -3    1.31    1.07
   5 -11  -3    7.38    1.14
   5 -11  -3    7.44    1.79
   4 -11  -3   21.16    1.81
   4 -11  -3   22.04    2.65
   3 -11  -3   11.27    1.37
   3 -11  -3   14.26    2.13
  -2 -11   3    0.00    0.56
   2 -11  -3    0.72    0.86
   2 -11  -3    1.44    0.66
   1 -11  -3    0.36    0.78
   1 -11  -3    0.24    0.57
  -1 -11   3    0.71    0.62
   0 -11  -3    0.86    0.81
   0 -11  -3    0.36    0.62
   0 -11   3    0.09    0.56
   1 -11   3   33.11    1.94
  -1 -11  -3   31.61    2.39
  -1 -11  -3   27.21    1.91
   2 -11   3    2.70    0.79
  -2 -11  -3    2.92    0.99
   3 -11   3    7.77    1.12
  -3 -11  -3    9.97    1.57
  -4 -11  -3   19.09    2.03
   4 -11   3   14.63    1.45
   5 -11   3    1.99    0.69
   6 -11   3   12.82    1.32
   7 -11   3    1.16    0.61
   8 -11   3    4.32    0.78
   8 -12  -3   -0.37    0.89
   8 -12  -3   -0.79    0.64
   7 -12  -3   12.95    1.56
   7 -12  -3    9.44    2.01
   6 -12  -3   -0.58    0.83
   6 -12  -3    1.32    0.75
   5 -12  -3    2.74    1.31
   5 -12  -3    0.30    0.69
   4 -12  -3    3.11    0.90
   4 -12  -3    0.66    0.92
   3 -12  -3   36.38    2.24
   3 -12  -3   33.75    3.31
   2 -12  -3   18.20    2.43
   2 -12  -3   21.70    1.98
   1 -12  -3   13.39    1.57
   1 -12  -3   13.96    2.14
  -1 -12   3   10.47    1.42
   0 -12  -3    0.86    0.97
   0 -12   3    0.89    0.69
   0 -12  -3    0.82    0.70
   1 -12   3    1.21    0.72
  -1 -12  -3    1.97    1.06
  -2 -12  -3   33.24    2.55
   2 -12   3   34.66    2.09
  -3 -12  -3   -0.04    0.74
   3 -12   3   -0.25    0.49
  -4 -12  -3    3.40    1.13
   4 -12   3    3.35    0.88
   5 -12   3   14.65    1.50
   6 -12   3    5.85    1.04
   7 -12   3    3.17    0.82
   8 -12   3    6.25    0.96
   7 -13  -3    0.06    0.77
   7 -13  -3    0.28    1.05
   6 -13  -3   25.90    2.22
   6 -13  -3   19.67    2.85
   5 -13  -3    1.34    1.24
   5 -13  -3    1.81    0.85
   4 -13  -3    0.60    0.98
   4 -13  -3   -0.10    0.71
   3 -13  -3    0.71    0.72
   3 -13  -3    0.63    1.04
   2 -13  -3    1.73    0.85
   2 -13  -3    1.08    1.08
  -1 -13   3   13.09    1.64
   1 -13  -3   14.65    2.32
   1 -13  -3   10.13    1.50
   0 -13  -3    0.71    1.00
   0 -13  -3    1.63    0.88
   0 -13   3    1.96    0.84
  -1 -13  -3   11.38    1.90
   1 -13   3   10.33    1.47
  -2 -13  -3    3.87    1.26
   2 -13   3    6.03    1.15
   3 -13   3   14.94    1.68
  -3 -13  -3   15.16    2.06
   4 -13   3    0.80    0.71
   5 -13   3    0.06    0.68
   6 -13   3   11.46    1.43
   7 -13   3    3.67    0.93
   6 -14  -3    1.19    1.26
   6 -14  -3   -0.57    0.72
   5 -14  -3   43.29    4.20
   5 -14  -3   39.44    2.55
   4 -14  -3    0.12    0.78
   4 -14  -3    2.72    1.33
   3 -14  -3    0.54    0.81
   3 -14  -3    0.49    1.04
   2 -14  -3    3.23    1.02
   2 -14  -3    3.13    1.32
   1 -14  -3   10.03    1.59
   1 -14  -3   10.41    2.10
   0 -14  -3    2.14    1.18
   0 -14   3    5.55    1.20
   1 -14   3    5.20    1.20
  -1 -14  -3    4.63    1.43
  -2 -14  -3    2.20    1.21
   2 -14   3    3.96    1.03
  -3 -14  -3    3.72    1.27
   3 -14   3    4.27    1.15
   4 -14   3    1.42    0.83
   5 -14   3    0.77    0.83
   6 -14   3   -0.77    0.64
   6 -15  -3   -0.05    0.84
   5 -15  -3    2.19    1.04
   5 -15  -3   -0.95    0.90
   4 -15  -3    9.98    2.22
   4 -15  -3    9.91    1.63
   3 -15  -3    0.85    1.20
   3 -15  -3    0.61    0.85
   2 -15  -3    1.15    0.93
   2 -15  -3    0.75    1.15
   1 -15  -3    5.00    1.69
   1 -15  -3    5.43    1.34
   0 -15   3    1.11    0.90
   0 -15  -3    0.13    1.00
   1 -15   3    9.54    1.56
  -1 -15  -3    6.95    1.77
  -2 -15  -3    1.23    1.12
   2 -15   3    3.80    1.10
   3 -15   3    8.86    1.51
  -3 -15  -3   15.26    2.15
   4 -15   3    3.18    1.07
   5 -15   3    0.52    0.89
   4 -16  -3   -0.45    1.10
   4 -16  -3    0.16    0.86
   3 -16  -3   17.72    2.81
   3 -16  -3   14.55    1.93
   2 -16  -3    0.73    0.91
   2 -16  -3    0.24    1.11
   1 -16  -3    0.38    1.08
   0 -16  -3    7.19    1.91
   1 -16   3    0.53    0.93
  -1 -16  -3   -0.10    1.03
  -2 -16  -3    1.03    1.09
   2 -16   3   -0.72    0.76
  -3 -16  -3    1.08    1.15
   3 -16   3    0.54    0.90
   4 -16   3    6.81    1.40
   3 -17  -3    2.78    1.27
   3 -17  -3    1.47    1.37
   2 -17  -3    0.57    1.26
   1 -17  -3    0.39    1.18
   0 -17  -3    1.40    1.18
  -1 -17  -3   14.68    2.42
   2 -17   3    0.31    0.95
  -2 -17  -3   -0.58    0.98
 -11   0   4    0.54    1.20
  11   0  -4   -0.70    0.41
  10   0  -4    8.29    0.95
 -10   0   4    7.12    1.77
  -9   0   4   -0.30    0.76
   9   0  -4   -0.01    0.38
  -8   0   4    5.16    1.36
   8   0  -4    4.63    0.65
  -7   0   4    0.34    0.69
   7   0  -4    0.05    0.30
   6   0  -4   48.00    1.67
  -6   0   4   53.39    2.73
   5   0  -4    0.06    0.24
   5   0  -4    0.66    0.50
  -5   0   4   -0.36    0.46
   5   0  -4    0.17    0.30
   4   0  -4   64.35    1.96
  -4   0   4   60.65    2.54
   4   0  -4   58.76    1.75
   3   0  -4    0.06    0.24
  -3   0   4    0.36    0.40
   3   0  -4   -0.01    0.22
   2   0  -4   15.83    0.77
  -2   0   4   16.77    0.79
  -2   0   4   15.79    1.11
  -1   0   4   -0.36    0.18
  -1   0   4   -0.12    0.31
   1   0  -4   -0.18    0.20
   0   0  -4  163.82    3.39
   0   0   4  153.55    3.36
   0   0   4  154.53    3.56
   1   0   4   -0.34    0.21
  -1   0  -4   -0.75    0.18
   1   0   4   -0.31    0.21
   1   0   4   -0.05    0.29
   2   0   4    1.41    0.30
   2   0   4    1.49    0.32
   3   0   4   -0.24    0.19
   3   0   4   -0.22    0.21
   4   0   4    1.30    0.34
   4   0   4    0.05    0.23
   5   0   4    0.23    0.30
   6   0   4    0.29    0.35
   7   0   4    0.80    0.39
 -11  -1   4   22.42    2.90
  11  -1  -4   23.24    1.42
  11   1  -4   21.64    1.45
 -11   1   4   15.44    2.47
  10  -1  -4    0.07    0.39
 -10  -1   4    0.42    1.08
  10   1  -4   -0.60    0.39
 -10   1   4    0.32    1.09
   9  -1  -4   36.55    1.60
  -9  -1   4   37.68    3.38
   9   1  -4   39.38    1.72
  -9   1   4   36.77    3.26
  -8  -1   4   22.17    2.48
   8  -1  -4   19.54    1.10
   8   1  -4   20.80    1.18
  -8   1   4   16.03    2.10
   7  -1  -4   20.23    1.06
  -7  -1   4   20.51    2.27
   7   1  -4   21.25    1.13
  -7   1   4   18.65    2.06
  -6  -1   4    7.37    1.34
   6  -1  -4    6.13    0.65
   6   1  -4    8.13    0.76
  -6   1   4    5.10    1.13
   5  -1  -4    3.69    0.57
   5  -1  -4    5.90    0.90
  -5  -1   4    4.70    1.03
   5  -1  -4    5.13    0.57
  -5   1   4    4.00    0.91
   5   1  -4    5.27    0.60
   5   1  -4    4.09    0.64
  -4  -1   4    9.78    1.24
   4  -1  -4    8.73    0.62
   4  -1  -4   10.76    1.12
   4  -1  -4    8.46    0.75
  -4   1   4    7.89    1.10
   4   1  -4    6.99    0.64
   4   1  -4    9.59    0.85
  -3  -1   4    2.15    0.63
  -3  -1   4    2.42    0.40
   3  -1  -4    1.66    0.34
   3  -1  -4    2.49    0.42
   3   1  -4    2.14    0.43
  -3   1   4    2.25    0.63
   3   1  -4    2.15    0.39
  -2  -1   4   18.05    1.15
  -2  -1   4   18.99    0.88
   2  -1  -4   16.83    0.81
  -2   1   4   18.05    0.81
  -2   1   4   17.60    1.13
   2   1  -4   18.50    0.84
   1  -1  -4  104.56    2.52
  -1  -1   4  109.48    2.81
  -1  -1   4  109.81    2.56
  -1   1   4  102.66    2.76
   1   1  -4  104.64    2.46
  -1   1   4  104.21    2.47
   0  -1  -4   19.83    0.90
   0  -1   4   18.37    0.87
   0  -1   4   18.46    0.93
   0   1   4   20.21    0.87
   0   1  -4   20.16    0.83
   0   1   4   19.94    1.00
  -1  -1  -4  102.34    2.53
   1  -1   4  105.39    2.46
   1  -1   4  103.58    2.47
   1  -1   4  107.11    2.39
   1   1   4  101.38    2.57
   1   1   4  103.47    2.44
  -1   1  -4  105.04    2.40
   2  -1   4   10.02    0.64
   2  -1   4   10.00    0.62
   2   1   4   10.76    0.66
   2   1   4    9.17    0.66
   3  -1   4  139.63    2.98
   3  -1   4  138.46    3.00
   3   1   4  135.03    3.16
   3   1   4  133.16    3.02
   4  -1   4    3.76    0.44
   4  -1   4    3.30    0.41
   4   1   4    3.82    0.55
   5  -1   4   34.74    1.17
   5  -1   4   35.10    1.24
   5   1   4   37.01    1.48
   6  -1   4    5.86    0.61
   6   1   4    5.81    0.74
   7  -1   4    2.81    0.50
   8  -1   4   21.11    1.09
 -11  -2   4    0.54    1.19
  11  -2  -4   -0.54    0.43
  11   2  -4    0.64    0.57
 -11   2   4   -1.10    1.02
 -10  -2   4    3.05    1.41
  10  -2  -4    3.53    0.67
  10   2  -4    2.75    0.67
 -10   2   4    3.89    1.39
   9  -2  -4    2.24    0.55
  -9  -2   4    2.35    1.25
   9   2  -4    1.81    0.56
  -9   2   4    1.92    1.12
  -8  -2   4   24.59    2.70
   8  -2  -4   24.90    1.24
   8   2  -4   24.55    1.33
  -8   2   4   25.97    2.53
  -7  -2   4   -0.22    0.76
   7  -2  -4    0.00    0.27
  -7   2   4   -0.04    0.74
   7   2  -4    0.60    0.39
  -6  -2   4    8.79    1.49
   6  -2  -4   10.54    0.76
   6  -2  -4   10.45    1.24
   6   2  -4   11.51    0.84
  -6   2   4    9.53    1.42
   5  -2  -4    3.50    0.49
   5  -2  -4    3.55    0.54
  -5  -2   4    1.92    0.85
   5  -2  -4    4.74    0.89
   5   2  -4    2.51    0.47
  -5   2   4    3.02    0.85
   4  -2  -4   74.03    1.99
   4  -2  -4   75.08    2.75
   4  -2  -4   74.10    2.06
  -4  -2   4   66.99    2.80
  -4   2   4   69.04    2.62
   4   2  -4   65.78    2.20
   4   2  -4   71.97    2.04
   3  -2  -4    1.32    0.35
   3  -2  -4    1.26    0.33
  -3  -2   4    2.38    0.68
  -3  -2   4    1.27    0.35
  -3   2   4    0.95    0.46
   3   2  -4    1.50    0.34
  -2  -2   4  150.96    3.90
  -2  -2   4  149.47    3.45
   2  -2  -4  156.32    3.43
   2   2  -4  154.30    3.35
  -2   2   4  151.01    3.80
  -1  -2   4    8.98    0.73
   1  -2  -4    9.98    0.68
  -1  -2   4    9.63    0.85
  -1   2   4   11.20    0.94
   1   2  -4    8.76    0.57
   0  -2   4    5.90    0.59
   0  -2   4    8.19    0.70
   0  -2  -4    6.96    0.66
   0   2  -4    7.16    0.52
   0   2   4    6.36    0.68
  -1  -2  -4    9.38    0.79
   1  -2   4   10.28    0.67
   1  -2   4    9.72    0.57
   1  -2   4    9.30    0.63
   1   2   4    9.63    0.80
   2  -2   4   73.34    1.93
  -2  -2  -4   75.40    2.14
   2  -2   4   73.71    1.84
   2   2   4   77.05    2.11
   3  -2   4    6.24    0.55
   3  -2   4    5.14    0.49
   3   2   4    6.29    0.69
   4  -2   4   17.51    0.77
   4  -2   4   16.55    0.77
   4   2   4   16.49    0.99
   5  -2   4    0.61    0.27
   5  -2   4    0.64    0.27
   5   2   4    0.40    0.38
   6  -2   4    0.01    0.24
   6  -2   4   -0.16    0.24
   7  -2   4    1.37    0.38
   8  -2   4    0.90    0.37
 -11  -3   4   20.34    2.91
  11  -3  -4   23.36    1.39
 -11   3   4   20.99    2.65
  11   3  -4   28.23    1.68
 -10  -3   4    4.63    1.62
  10  -3  -4    8.83    0.97
  10   3  -4   10.94    1.16
 -10   3   4    9.91    1.81
   9  -3  -4   14.35    0.99
  -9  -3   4   14.93    2.34
  -9   3   4   15.43    2.03
   9   3  -4   16.92    1.22
  -8  -3   4    1.70    1.12
   8  -3  -4    0.91    0.39
  -8   3   4    0.46    0.78
   8   3  -4    0.24    0.42
  -7  -3   4   12.68    1.91
   7  -3  -4   13.59    0.89
   7   3  -4   13.93    1.01
  -7   3   4   15.02    1.80
   6  -3  -4   94.21    2.55
  -6  -3   4   89.93    3.88
   6  -3  -4   95.36    3.48
  -6   3   4   99.65    3.61
   6   3  -4   95.19    2.73
   5  -3  -4    2.88    0.84
   5  -3  -4    4.09    0.57
   5  -3  -4    2.77    0.46
  -5  -3   4    2.51    0.89
  -5   3   4    2.94    0.78
   5   3  -4    2.46    0.48
   4  -3  -4   54.71    2.49
   4  -3  -4   48.79    1.62
   4  -3  -4   50.59    1.61
  -4  -3   4   46.96    2.38
  -4   3   4   48.61    2.14
   4   3  -4   50.15    1.67
   3  -3  -4   37.99    1.33
  -3  -3   4   40.27    1.47
   3  -3  -4   38.70    2.00
  -3  -3   4   39.90    1.93
   3  -3  -4   37.15    1.36
   3   3  -4   36.16    1.34
  -3   3   4   34.99    1.68
  -2  -3   4   27.30    1.45
  -2  -3   4   26.11    1.16
   2  -3  -4   24.36    1.07
   2  -3  -4   25.51    1.06
   2   3  -4   24.48    1.01
  -2   3   4   23.75    1.27
   1  -3  -4   23.96    1.06
  -1  -3   4   23.27    1.07
  -1  -3   4   21.20    1.12
  -1   3   4   22.62    1.15
   1   3  -4   22.21    0.93
   0  -3   4   51.22    1.55
   0  -3   4   51.43    1.62
   0  -3  -4   45.79    1.61
   0   3  -4   49.42    1.43
   0   3   4   49.65    1.67
   1  -3   4  139.92    3.05
  -1  -3  -4  142.46    3.48
   1  -3   4  146.88    3.08
   1  -3   4  147.23    3.30
   1   3   4  145.30    3.42
   2  -3   4    8.56    0.54
  -2  -3  -4    7.99    0.82
   2  -3   4    7.28    0.64
   3  -3   4   42.07    1.23
   3  -3   4   39.16    1.33
   3   3   4   47.29    1.70
   4  -3   4    3.83    0.40
   4  -3   4    4.40    0.48
   4   3   4    3.74    0.64
   5  -3   4   22.95    0.91
   5  -3   4   24.43    0.89
   5   3   4   24.33    1.35
   6  -3   4   67.02    1.74
   6  -3   4   70.25    1.75
   7  -3   4    7.23    0.57
   7  -3   4    6.93    0.50
   8  -3   4    1.28    0.33
   9  -3   4    2.50    0.39
  10  -4  -4    6.49    0.84
 -10  -4   4    4.32    1.58
 -10   4   4    3.02    1.25
  10   4  -4    5.41    0.90
  -9  -4   4   -1.14    0.92
   9  -4  -4   -0.03    0.39
  -9   4   4    0.71    0.93
   9   4  -4   -0.09    0.46
   8  -4  -4   10.67    0.96
  -8   4   4    8.57    1.48
   8   4  -4   10.63    1.08
   7  -4  -4   18.63    1.06
  -7   4   4   16.37    1.80
   7   4  -4   19.08    1.20
   6  -4  -4   29.76    1.97
   6  -4  -4   24.22    1.20
  -6   4   4   29.04    1.94
   6   4  -4   26.58    1.33
   5  -4  -4    1.97    0.43
   5  -4  -4    3.27    0.91
   5  -4  -4    2.71    0.49
   5   4  -4    2.50    0.49
  -5   4   4    2.53    0.75
   4  -4  -4   23.57    1.13
   4  -4  -4   26.83    1.15
  -4  -4   4   21.06    1.89
   4  -4  -4   28.05    1.87
   4   4  -4   25.68    1.19
  -4   4   4   23.54    1.48
   3  -4  -4    8.07    0.71
   3  -4  -4    8.27    1.21
   3  -4  -4    7.13    0.71
  -3  -4   4    5.03    0.92
  -3  -4   4    7.45    0.79
   3   4  -4    7.14    0.69
  -3   4   4    8.58    0.95
  -2  -4   4    1.10    0.52
  -2  -4   4    0.15    0.29
   2  -4  -4    0.31    0.52
   2  -4  -4    0.50    0.30
   2  -4  -4    0.79    0.32
   2   4  -4    0.92    0.32
  -2   4   4    0.40    0.38
   1  -4  -4    7.48    0.76
  -1  -4   4    7.88    0.78
  -1  -4   4    8.07    0.81
  -1   4   4    8.65    0.85
   1   4  -4    6.85    0.60
   0  -4  -4  166.39    3.95
   0  -4   4  163.51    3.83
   0  -4   4  165.87    3.56
   0   4   4  160.46    3.81
   0   4  -4  162.42    3.50
   1  -4   4   14.89    0.68
   1  -4   4   15.66    0.73
  -1  -4  -4   16.46    1.02
   1  -4   4   16.66    0.93
   1   4   4   16.91    0.98
   2  -4   4    3.65    0.41
   2  -4   4    3.18    0.50
  -2  -4  -4    3.24    0.59
   3  -4   4    1.17    0.35
   3  -4   4    1.39    0.28
   4  -4   4    5.87    0.57
   4  -4   4    5.95    0.49
   4   4   4    5.67    0.79
   5  -4   4   16.75    0.71
   5  -4   4   17.11    0.81
   6  -4   4   10.07    0.62
   6  -4   4   11.03    0.57
   7  -4   4    0.91    0.29
   7  -4   4    1.24    0.28
   8  -4   4    0.03    0.22
  10  -5  -4    0.14    0.46
 -10  -5   4   -0.59    1.11
  10   5  -4    0.02    0.52
 -10   5   4    0.53    1.03
   9  -5  -4   15.05    1.11
  -9  -5   4   15.45    2.45
  -9   5   4   16.09    2.01
   9   5  -4   16.44    1.41
   8  -5  -4   82.83    2.56
   8   5  -4   82.45    2.83
  -8   5   4   85.73    3.65
   7  -5  -4   15.34    1.00
   7  -5  -4   13.59    1.74
  -7   5   4   15.45    1.76
   7   5  -4   14.88    1.25
   6  -5  -4   21.26    2.14
   6  -5  -4   20.29    1.12
   6   5  -4   18.08    1.16
  -6   5   4   21.73    1.92
   5  -5  -4   -0.06    0.30
   5  -5  -4   -0.22    0.26
   5  -5  -4   -0.22    0.58
   5   5  -4    0.28    0.33
  -5   5   4   -0.25    0.46
   4  -5  -4   96.31    2.51
   4  -5  -4   87.60    2.57
   4  -5  -4   86.89    3.59
   4   5  -4   91.74    2.62
  -4   5   4   93.67    3.00
  -3  -5   4    4.92    0.72
   3  -5  -4    5.74    0.65
   3  -5  -4    4.87    1.06
  -3  -5   4    4.65    0.93
   3  -5  -4    4.60    0.64
  -3   5   4    6.61    0.85
   3   5  -4    5.54    0.65
  -2  -5   4  146.22    3.79
   2  -5  -4  161.03    3.56
  -2  -5   4  148.96    4.01
   2  -5  -4  146.28    3.70
   2  -5  -4  149.69    4.75
  -2   5   4  152.31    3.79
   2   5  -4  150.51    3.52
   1  -5  -4   21.94    1.92
  -1  -5   4   20.12    1.11
   1  -5  -4   19.96    1.15
  -1  -5   4   19.60    1.15
   1   5  -4   19.02    0.93
  -1   5   4   20.95    1.11
   0  -5  -4   11.51    1.03
   0  -5   4   12.58    0.89
   0  -5   4   15.65    0.80
   0   5   4   14.86    0.93
   0   5  -4   14.21    0.75
   1  -5   4    1.20    0.42
   1  -5   4    1.92    0.35
  -1  -5  -4    2.08    0.55
   1  -5   4    2.60    0.33
   1   5   4    1.67    0.46
   2  -5   4    0.16    0.31
   2  -5   4    0.07    0.21
  -2  -5  -4    0.27    0.38
   3  -5   4    6.30    0.53
   3  -5   4    6.11    0.68
  -3  -5  -4    7.22    0.89
   4  -5   4   21.91    0.84
   4  -5   4   20.06    1.02
   5  -5   4    0.13    0.20
   5  -5   4    0.54    0.31
   6  -5   4    2.90    0.36
   6  -5   4    3.80    0.48
   7  -5   4    2.76    0.39
   7  -5   4    2.17    0.32
   8  -5   4   58.87    1.39
 -10  -6   4    3.25    1.61
  10  -6  -4    4.06    0.75
  10   6  -4    3.65    0.88
 -10   6   4    3.91    1.28
   9  -6  -4    6.66    0.89
  -9   6   4    8.58    1.57
   9   6  -4   10.27    1.19
   8  -6  -4    0.85    0.50
  -8   6   4    0.57    0.79
   8   6  -4    0.91    0.56
   7  -6  -4    1.81    0.52
   7  -6  -4    2.48    0.96
  -7   6   4    1.29    0.78
   7   6  -4    1.53    0.56
   6  -6  -4    9.46    0.94
   6  -6  -4    9.31    1.55
  -6   6   4   10.27    1.33
   6   6  -4    8.02    0.94
   5  -6  -4    7.03    0.83
   5  -6  -4    7.76    1.40
   5   6  -4    7.68    0.87
  -5   6   4    7.49    1.06
   4  -6  -4    0.26    0.34
   4  -6  -4   -0.18    0.54
   4   6  -4    1.14    0.40
  -4   6   4    0.23    0.45
   3  -6  -4    0.98    0.69
  -3  -6   4    3.06    0.62
   3  -6  -4    4.44    0.58
   3  -6  -4    3.06    0.58
   3   6  -4    2.11    0.47
  -3   6   4    3.20    0.65
   2  -6  -4   53.76    2.83
   2  -6  -4   62.28    2.18
  -2  -6   4   61.85    2.24
  -2  -6   4   61.88    2.34
   2   6  -4   61.40    1.93
  -2   6   4   61.89    2.08
   1  -6  -4    5.30    0.74
  -1  -6   4    5.04    0.74
   1  -6  -4    4.53    0.99
  -1  -6   4    6.68    0.79
  -1   6   4    5.65    0.73
   1   6  -4    4.91    0.57
   0  -6  -4   11.96    1.13
   0  -6  -4   14.85    1.64
   0  -6   4   12.84    0.75
   0  -6   4   15.26    1.07
   0   6  -4   13.33    0.76
   0   6   4   12.59    0.89
  -1  -6  -4    0.28    0.39
   1  -6   4    0.18    0.33
  -1  -6  -4    0.99    0.58
  -2  -6  -4   16.28    1.18
   2  -6   4   19.03    1.12
   2  -6   4   18.17    0.86
   3  -6   4   48.87    1.77
   3  -6   4   48.01    1.44
   4  -6   4   16.76    1.01
   4  -6   4   16.79    0.77
  -5  -6  -4    0.96    0.60
   5  -6   4    1.63    0.32
   5  -6   4    2.03    0.47
   6  -6   4    1.32    0.31
   6  -6   4    1.60    0.38
   7  -6   4    8.37    0.52
   7  -6   4    7.89    0.64
   8  -6   4    3.61    0.40
  10  -7  -4   12.92    1.24
 -10  -7   4   12.48    2.46
  10   7  -4   15.48    1.55
   9  -7  -4    0.39    0.54
   9   7  -4    0.63    0.57
  -9   7   4    0.23    0.94
   8  -7  -4    1.18    0.56
  -8   7   4    1.05    0.80
   8   7  -4    0.27    0.47
   7  -7  -4    0.69    0.46
   7  -7  -4   -0.07    0.69
   7   7  -4    1.52    0.56
  -7   7   4    0.55    0.70
   6  -7  -4  112.32    3.25
   6  -7  -4  102.35    4.47
  -6   7   4  113.85    3.68
   6   7  -4  105.57    3.30
   5  -7  -4   16.74    1.15
   5  -7  -4   17.93    2.14
   5   7  -4   12.61    1.15
  -5   7   4   17.48    1.53
   4  -7  -4  105.37    4.36
   4  -7  -4  102.31    3.12
   4   7  -4  107.95    3.09
  -4   7   4  104.88    3.20
  -3  -7   4    1.46    0.56
   3  -7  -4    0.74    0.74
   3  -7  -4    1.46    0.52
  -3   7   4    1.17    0.54
   3   7  -4    0.90    0.42
  -2  -7   4   14.91    1.37
   2  -7  -4   14.90    1.81
   2  -7  -4   14.34    1.24
  -2  -7   4   17.22    1.41
  -2   7   4   13.35    0.95
   2   7  -4   13.77    0.92
   1  -7  -4   32.38    2.23
  -1  -7   4   32.28    1.45
  -1  -7   4   30.83    1.62
   1  -7  -4   31.38    1.58
   1   7  -4   29.60    1.28
  -1   7   4   31.56    1.40
   0  -7   4   42.20    1.33
   0  -7  -4   42.03    2.46
   0  -7  -4   44.34    1.96
   0  -7   4   43.74    1.88
   0   7   4   42.65    1.66
   0   7  -4   43.04    1.49
  -1  -7  -4    0.83    0.49
   1  -7   4    1.19    0.49
  -1  -7  -4    0.34    0.56
  -2  -7  -4    0.72    0.52
  -2  -7  -4    1.11    0.67
   2  -7   4    0.57    0.42
  -3  -7  -4   14.89    1.63
   3  -7   4   13.98    1.02
  -4  -7  -4    2.08    0.76
   4  -7   4    1.43    0.45
   5  -7   4    6.52    0.78
   6  -7   4   73.57    2.20
   7  -7   4    0.11    0.32
   8  -7   4    6.28    0.56
   9  -8  -4    1.24    0.64
   9   8  -4    0.51    0.62
   8  -8  -4    7.70    1.04
   8  -8  -4    5.02    1.36
   8   8  -4    7.82    1.10
   7  -8  -4    9.25    1.67
   7  -8  -4    9.87    1.15
   7   8  -4    8.62    1.09
  -7   8   4    8.44    1.28
   6  -8  -4    0.01    0.45
   6  -8  -4   -0.13    0.71
  -6   8   4   -0.14    0.60
   6   8  -4    0.29    0.46
   5  -8  -4    1.28    0.58
   5  -8  -4    0.81    0.80
   5   8  -4    1.57    0.53
  -5   8   4    1.27    0.64
   4  -8  -4   20.83    2.37
   4  -8  -4   18.96    1.30
   4   8  -4   18.42    1.21
  -4   8   4   18.35    1.31
   3  -8  -4    0.23    0.42
   3  -8  -4    1.10    0.90
   3   8  -4    0.71    0.39
  -3   8   4    0.12    0.42
   2  -8  -4    5.31    1.23
  -2  -8   4    4.11    0.83
   2  -8  -4    6.62    0.95
  -2  -8   4    4.82    0.86
   2   8  -4    4.63    0.65
  -2   8   4    4.13    0.69
  -1  -8   4    0.60    0.48
   1  -8  -4    1.05    0.54
  -1  -8   4    0.39    0.45
   1  -8  -4    0.00    0.56
  -1   8   4    0.47    0.40
   0  -8  -4   29.36    2.18
   0  -8  -4   33.90    1.78
   0  -8   4   32.94    1.72
   0   8   4   33.50    1.46
  -1  -8  -4   15.30    1.47
   1  -8   4   15.98    1.37
  -1  -8  -4   13.41    1.70
  -2  -8  -4    8.29    1.13
   2  -8   4    7.16    0.95
  -2  -8  -4    6.40    1.21
  -3  -8  -4    0.53    0.63
   3  -8   4    0.83    0.47
   4  -8   4    1.80    0.54
  -4  -8  -4    1.39    0.74
   5  -8   4   17.60    1.15
   6  -8   4   41.44    1.68
   7  -8   4    2.06    0.51
   8  -8   4    0.54    0.35
   9  -9  -4   -0.21    0.54
   9   9  -4    0.48    0.64
   8  -9  -4   58.04    2.46
   8  -9  -4   51.87    3.47
   8   9  -4   56.92    2.58
   7  -9  -4    1.23    1.01
   7  -9  -4    1.48    0.64
   7   9  -4    1.50    0.65
   6  -9  -4   15.93    1.47
   6  -9  -4   13.91    2.13
   6   9  -4   16.12    1.45
  -6   9   4   18.29    1.63
   5  -9  -4    0.94    0.87
   5  -9  -4   -0.19    0.47
   5   9  -4    0.25    0.43
  -5   9   4    0.08    0.51
   4  -9  -4   25.21    2.62
   4  -9  -4   24.53    1.56
   4   9  -4   26.42    1.50
  -4   9   4   26.79    1.47
   3  -9  -4   35.01    2.64
   3  -9  -4   38.31    1.94
   3   9  -4   37.90    1.72
  -3   9   4   35.92    1.61
   2  -9  -4  133.84    5.21
  -2  -9   4  133.87    4.15
  -2  -9   4  133.67    3.92
   2  -9  -4  131.18    4.04
  -2   9   4  134.99    3.50
   1  -9  -4    2.14    0.69
   1  -9  -4    4.46    1.24
  -1  -9   4    4.40    0.75
  -1  -9   4    4.53    0.88
  -1   9   4    3.91    0.66
   0  -9  -4   -0.04    0.65
   0  -9  -4   -0.45    0.41
   0  -9   4    0.82    0.52
   1  -9   4   56.92    2.43
  -1  -9  -4   58.13    2.60
  -1  -9  -4   66.54    3.23
   2  -9   4    1.75    0.63
  -2  -9  -4    2.89    0.92
  -3  -9  -4   21.60    2.09
   3  -9   4   20.93    1.38
   4  -9   4   27.83    1.58
  -4  -9  -4   24.82    1.92
   5  -9   4    6.46    0.89
   6  -9   4    2.68    0.65
   7  -9   4   23.20    1.28
   8  -9   4   22.99    1.16
   9 -10  -4    6.29    1.11
   9  10  -4    5.15    1.05
   8 -10  -4    2.80    1.32
   8 -10  -4    2.63    0.82
   8  10  -4    2.39    0.84
   7 -10  -4    0.78    0.96
   7 -10  -4    1.75    0.74
   7  10  -4    0.51    0.61
   6 -10  -4    6.54    1.68
   6 -10  -4    6.89    1.06
   5 -10  -4    2.82    0.79
   5 -10  -4    3.94    1.40
   4 -10  -4    6.52    1.06
   4 -10  -4    5.24    1.48
  -4  10   4    5.19    0.83
   3 -10  -4    0.99    0.60
   3 -10  -4    2.33    1.04
  -3  10   4    0.89    0.50
   2 -10  -4   17.64    1.65
   2 -10  -4   18.19    2.24
  -2 -10   4   18.91    1.74
  -2 -10   4   17.29    1.56
  -2  10   4   18.20    1.14
   1 -10  -4    2.30    1.05
   1 -10  -4    2.00    0.71
  -1 -10   4    2.07    0.72
  -1  10   4    3.70    0.65
   0 -10   4    7.41    1.11
   0 -10  -4    5.96    1.39
   0 -10  -4    5.03    1.01
  -1 -10  -4   -0.49    0.63
  -1 -10  -4   -0.36    0.55
   1 -10   4    0.07    0.50
   2 -10   4    1.33    0.61
  -2 -10  -4    0.32    0.71
   3 -10   4    8.91    1.17
  -3 -10  -4    9.44    1.54
   4 -10   4   29.69    1.75
  -4 -10  -4   28.15    2.16
   5 -10   4    0.32    0.51
   6 -10   4    5.66    0.88
   7 -10   4    2.40    0.66
   8 -10   4   17.42    1.10
   8 -11  -4   -0.61    0.87
   8 -11  -4    1.00    0.76
   7 -11  -4    1.18    1.15
   7 -11  -4    1.35    0.77
   6 -11  -4   28.35    3.18
   6 -11  -4   22.09    1.93
   5 -11  -4   15.39    2.28
   5 -11  -4   15.43    1.62
   4 -11  -4   39.23    2.24
   4 -11  -4   46.81    3.36
   3 -11  -4    9.42    1.83
   3 -11  -4    9.42    1.31
   2 -11  -4    3.83    0.95
   2 -11  -4    8.38    1.74
  -2  11   4    4.82    0.76
   1 -11  -4   74.33    3.17
   1 -11  -4   78.12    4.04
  -1 -11   4   75.68    3.14
   0 -11  -4   36.47    2.25
   0 -11   4   41.33    2.23
   0 -11  -4   40.64    2.86
   1 -11   4   48.75    2.43
  -1 -11  -4   48.58    2.57
  -1 -11  -4   49.81    3.07
   2 -11   4    7.68    1.16
  -2 -11  -4    7.99    1.51
  -3 -11  -4   59.97    3.23
   3 -11   4   60.74    2.65
  -4 -11  -4    0.27    0.83
   4 -11   4   -1.01    0.43
   5 -11   4   35.76    1.98
   6 -11   4   15.70    1.46
   7 -11   4    5.83    0.91
   8 -11   4    7.24    0.91
   8 -12  -4    3.03    1.44
   8 -12  -4    5.55    1.14
   7 -12  -4   -0.52    0.97
   7 -12  -4    0.98    0.74
   6 -12  -4    5.75    1.15
   6 -12  -4    3.53    1.37
   5 -12  -4    1.77    0.80
   5 -12  -4    0.88    1.12
   4 -12  -4    6.84    1.70
   4 -12  -4    6.65    1.19
   3 -12  -4   -0.21    0.58
   3 -12  -4    1.39    1.06
   2 -12  -4    7.11    1.70
   2 -12  -4   10.54    1.49
   1 -12  -4   -0.56    0.58
  -1 -12   4    1.00    0.73
   1 -12  -4    0.07    0.74
   0 -12  -4    7.92    1.32
   0 -12  -4    6.50    1.50
   0 -12   4    8.01    1.28
  -1 -12  -4    4.55    1.28
   1 -12   4    4.52    1.03
   2 -12   4    6.97    1.21
  -2 -12  -4    5.82    1.41
   3 -12   4    1.72    0.77
  -3 -12  -4    1.06    0.93
  -4 -12  -4   10.04    1.68
   4 -12   4    7.65    1.19
   5 -12   4    0.69    0.69
   6 -12   4   32.70    1.95
   7 -12   4   -0.18    0.59
   8 -12   4    1.48    0.66
   7 -13  -4    1.16    0.89
   7 -13  -4    0.43    1.20
   6 -13  -4    0.34    0.78
   6 -13  -4    0.23    1.05
   5 -13  -4    0.07    0.73
   5 -13  -4    0.91    1.10
   4 -13  -4    1.80    0.87
   4 -13  -4    1.74    1.21
   3 -13  -4   23.52    2.97
   3 -13  -4   22.24    2.14
   2 -13  -4   37.60    2.46
   2 -13  -4   35.56    3.61
   1 -13  -4   35.75    2.39
  -1 -13   4   37.66    2.40
   1 -13  -4   36.24    3.57
   0 -13   4   16.28    1.81
   0 -13  -4   17.41    1.94
   0 -13  -4   19.58    2.53
   1 -13   4   52.40    2.79
  -1 -13  -4   55.99    3.53
  -2 -13  -4    8.27    1.68
   2 -13   4    9.04    1.37
  -3 -13  -4   38.86    2.89
   3 -13   4   42.53    2.45
  -4 -13  -4    7.20    1.60
   5 -13   4   19.79    1.88
   6 -13   4    0.24    0.69
   7 -13   4   10.65    1.37
   6 -14  -4    6.10    1.81
   6 -14  -4   11.12    1.74
   5 -14  -4    0.29    1.13
   5 -14  -4    0.75    0.93
   4 -14  -4    8.88    1.59
   4 -14  -4   10.31    2.29
   3 -14  -4    0.61    1.14
   3 -14  -4    1.29    0.87
   2 -14  -4   18.64    2.10
   2 -14  -4   13.97    2.51
   1 -14  -4    1.61    1.19
   1 -14  -4    1.12    0.88
   0 -14  -4    1.70    1.15
   0 -14   4    0.30    0.70
   1 -14   4   -0.71    0.61
  -1 -14  -4   -0.27    0.85
  -2 -14  -4    0.20    0.94
   2 -14   4    0.05    0.72
  -3 -14  -4    0.52    0.98
   3 -14   4   -0.12    0.74
   4 -14   4   36.53    2.40
   5 -14   4   -0.66    0.66
   6 -14   4    5.38    1.15
   5 -15  -4    3.00    1.17
   5 -15  -4    5.63    1.90
   4 -15  -4   -0.35    1.10
   4 -15  -4    0.98    0.98
   3 -15  -4   15.10    2.63
   3 -15  -4   13.09    1.88
   2 -15  -4   23.26    3.13
   2 -15  -4   22.45    2.37
   1 -15  -4   25.20    3.30
   0 -15   4   14.55    1.87
   0 -15  -4   14.00    2.37
  -1 -15  -4   44.25    3.44
   1 -15   4   44.80    2.78
  -2 -15  -4    7.66    1.86
   2 -15   4    5.43    1.32
  -3 -15  -4   20.25    2.61
   3 -15   4   21.03    2.21
   4 -15   4    4.41    1.18
   5 -15   4   26.84    2.39
   4 -16  -4    8.10    2.12
   4 -16  -4    8.89    1.66
   3 -16  -4    4.60    1.33
   3 -16  -4    4.58    1.70
   2 -16  -4    5.39    1.41
   2 -16  -4    5.31    1.78
   1 -16  -4   -0.43    1.10
   0 -16  -4    6.59    1.88
  -1 -16  -4   -1.45    0.91
   1 -16   4    0.32    0.86
  -2 -16  -4    7.07    1.85
   2 -16   4    5.98    1.42
   3 -16   4    0.08    0.81
  -3 -16  -4    0.83    1.15
   4 -16   4    1.64    1.01
   2 -17  -4    7.62    2.20
   1 -17  -4   25.04    3.30
   0 -17  -4   18.70    2.86
  -1 -17  -4    4.24    1.67
   2 -17   4    4.33    1.36
  -2 -17  -4    2.87    1.49
  10   0  -5    0.01    0.44
 -10   0   5    0.99    1.15
  -9   0   5    2.87    1.28
   9   0  -5    4.01    0.74
  -8   0   5   -0.04    0.85
   8   0  -5    0.04    0.39
   7   0  -5   63.47    2.16
  -7   0   5   58.07    3.20
   6   0  -5   -0.05    0.31
  -6   0   5    0.86    0.73
  -5   0   5  140.43    4.50
   5   0  -5  132.22    3.90
   5   0  -5  133.04    3.33
  -4   0   5   -0.14    0.47
   4   0  -5    0.18    0.29
   4   0  -5   -0.13    0.27
  -3   0   5    0.42    0.28
  -3   0   5    1.29    0.57
   3   0  -5    1.89    0.39
  -2   0   5    0.18    0.26
  -2   0   5    0.19    0.43
   2   0  -5   -0.40    0.20
  -1   0   5  129.86    3.42
  -1   0   5  134.30    3.09
   1   0  -5  126.52    3.06
   0   0  -5   -0.38    0.23
   0   0   5   -0.06    0.34
   0   0   5    0.03    0.27
   1   0   5  198.05    4.29
  -1   0  -5  200.20    4.32
   1   0   5  204.44    4.45
   2   0   5    0.07    0.24
   2   0   5   -0.04    0.29
   2   0   5   -0.02    0.23
   3   0   5    5.67    0.60
   3   0   5    5.04    0.58
   4   0   5    0.09    0.25
   4   0   5    0.48    0.30
   5   0   5  292.70    6.08
   6   0   5    0.29    0.35
 -10  -1   5    2.23    1.36
  10  -1  -5    1.96    0.66
  10   1  -5    1.85    0.64
 -10   1   5    4.59    1.53
   9  -1  -5    6.90    0.88
  -9  -1   5    5.16    1.52
   9   1  -5    6.00    0.86
  -9   1   5    6.30    1.58
  -8  -1   5    7.54    1.59
   8  -1  -5    5.37    0.74
   8   1  -5    6.36    0.83
  -8   1   5    4.10    1.28
   7  -1  -5   21.86    1.19
  -7  -1   5   20.43    2.30
  -7   1   5   18.79    2.12
   7   1  -5   19.92    1.17
   6  -1  -5   19.39    1.07
  -6  -1   5   15.78    1.90
   6   1  -5   18.72    1.09
  -6   1   5   15.72    1.84
   5  -1  -5   78.41    2.93
   5  -1  -5   71.87    2.20
  -5  -1   5   71.36    3.16
  -5   1   5   76.85    3.11
   5   1  -5   73.52    2.23
   4  -1  -5   15.57    1.01
  -4  -1   5   16.69    1.63
   4  -1  -5   16.15    0.92
   4   1  -5   15.18    0.90
  -4   1   5   14.58    1.47
   4   1  -5   15.92    1.05
  -3  -1   5  166.95    4.50
  -3  -1   5  160.52    3.70
   3  -1  -5  161.30    3.73
   3   1  -5  165.05    3.74
  -3   1   5  165.28    4.43
   2  -1  -5   29.37    1.22
  -2  -1   5   28.70    1.52
  -2  -1   5   32.52    1.26
   2   1  -5   29.67    1.17
  -2   1   5   33.80    1.60
  -2   1   5   32.95    1.22
  -1  -1   5   39.44    1.62
   1  -1  -5   37.73    1.39
  -1  -1   5   38.58    1.39
   1   1  -5   39.86    1.36
  -1   1   5   39.55    1.37
  -1   1   5   40.46    1.65
   0  -1   5   25.02    1.10
   0  -1   5   24.17    1.21
   0  -1  -5   27.18    1.15
   0   1  -5   27.03    1.09
   0   1   5   26.24    1.10
   1  -1   5   10.69    0.80
   1  -1   5   11.14    0.75
  -1  -1  -5   10.59    0.75
   1   1   5   10.86    0.92
  -1   1  -5   10.48    0.69
   1   1   5   10.69    0.72
   2  -1   5    7.47    0.64
   2  -1   5    7.78    0.72
   2  -1   5    5.96    0.61
   2   1   5    7.27    0.67
   2   1   5    6.43    0.66
   2   1   5    7.86    0.77
   3  -1   5  109.67    2.74
   3  -1   5  116.93    2.78
   3   1   5  117.23    2.84
   3   1   5  116.22    2.93
   4  -1   5   25.17    1.07
   4  -1   5   27.33    1.13
   4   1   5   26.94    1.24
   5  -1   5   65.03    1.90
   5  -1   5   68.19    1.97
   5   1   5   67.64    2.16
   6  -1   5    1.09    0.40
 -10  -2   5    4.98    1.65
  10  -2  -5    6.57    0.92
  10   2  -5    5.63    0.92
 -10   2   5    4.07    1.44
   9  -2  -5   66.75    2.38
  -9  -2   5   68.87    3.96
   9   2  -5   70.16    2.56
  -9   2   5   63.55    3.61
  -8  -2   5   -0.09    0.86
   8  -2  -5   -0.08    0.33
  -8   2   5   -0.79    0.71
   8   2  -5    0.60    0.45
   7  -2  -5   11.73    1.00
  -7  -2   5   13.26    1.91
   7   2  -5   13.40    1.13
  -7   2   5   13.58    1.80
  -6  -2   5    0.82    0.80
   6  -2  -5    0.37    0.63
   6  -2  -5    0.68    0.36
  -6   2   5    0.71    0.67
   6   2  -5    0.49    0.37
   5  -2  -5   12.16    0.85
   5  -2  -5   13.46    1.51
  -5  -2   5    9.46    1.44
  -5   2   5   14.79    1.61
   5   2  -5   11.76    0.85
  -4  -2   5    0.56    0.63
   4  -2  -5    0.46    0.35
   4  -2  -5    1.35    0.38
   4  -2  -5    0.85    0.55
   4   2  -5    1.65    0.41
  -4   2   5    0.79    0.59
   3  -2  -5  142.65    3.41
   3  -2  -5  138.97    3.42
  -3  -2   5  145.42    4.15
  -3  -2   5  133.26    3.37
   3   2  -5  142.75    3.36
  -3   2   5  142.49    3.99
  -2  -2   5   51.60    2.07
  -2  -2   5   54.76    1.77
   2  -2  -5   53.55    1.74
   2   2  -5   53.37    1.68
  -2   2   5   49.81    2.01
  -2   2   5   55.28    1.65
   1  -2  -5   37.69    1.44
  -1  -2   5   36.90    1.60
  -1  -2   5   39.82    1.46
   1   2  -5   37.94    1.34
  -1   2   5   38.60    1.62
  -1   2   5   41.34    1.40
   0  -2   5   10.80    0.77
   0  -2  -5   11.69    0.82
   0  -2   5   10.65    0.79
   0   2   5   12.68    0.93
   0   2   5   11.60    0.75
   0   2  -5   11.08    0.70
   1  -2   5   36.50    1.32
  -1  -2  -5   36.57    1.45
   1  -2   5   34.66    1.33
   1  -2   5   38.14    1.26
  -1   2  -5   34.18    1.23
   1   2   5   35.11    1.45
   1   2   5   35.46    1.31
  -2  -2  -5   71.50    2.20
   2  -2   5   71.09    1.95
   2  -2   5   71.96    1.92
   2  -2   5   68.67    1.99
   3  -2   5  344.41    6.60
   3  -2   5  340.30    6.71
   3   2   5  333.80    6.93
   4  -2   5    4.66    0.54
   4  -2   5    5.42    0.57
   4   2   5    4.00    0.62
   5  -2   5    9.59    0.70
   5  -2   5    9.97    0.68
   6  -2   5    4.09    0.53
   6  -2   5    3.51    0.50
   7  -2   5   53.66    1.71
  10  -3  -5    0.67    0.53
 -10  -3   5    1.15    1.13
 -10   3   5    1.09    1.15
  10   3  -5    0.29    0.55
   9  -3  -5    5.78    0.84
  -9  -3   5    5.93    1.67
  -9   3   5    5.51    1.41
   9   3  -5    5.87    0.91
   8  -3  -5   16.35    1.12
  -8  -3   5   13.31    2.10
   8   3  -5   15.42    1.29
  -8   3   5   16.09    2.01
  -7  -3   5   19.57    2.29
   7  -3  -5   18.78    1.14
  -7   3   5   19.66    2.04
   7   3  -5   19.81    1.25
   6  -3  -5    0.04    0.32
  -6  -3   5    0.66    0.78
   6  -3  -5    0.58    0.73
  -6   3   5    1.13    0.77
   6   3  -5    0.36    0.39
  -5  -3   5   82.11    3.43
   5  -3  -5   77.63    2.38
   5  -3  -5   81.27    3.33
   5   3  -5   78.49    2.43
  -5   3   5   78.73    3.10
   4  -3  -5   45.09    2.35
   4  -3  -5   41.52    1.59
  -4  -3   5   42.85    2.25
   4  -3  -5   40.99    1.59
   4   3  -5   46.99    1.67
  -4   3   5   46.40    2.13
  -3  -3   5  107.46    3.51
   3  -3  -5  103.86    2.82
   3  -3  -5  113.35    2.85
  -3  -3   5  108.58    2.90
   3   3  -5  103.22    2.75
  -3   3   5  105.78    3.27
  -2  -3   5    2.72    0.68
   2  -3  -5    3.62    0.56
  -2  -3   5    2.28    0.51
  -2   3   5    3.53    0.68
   2   3  -5    2.20    0.41
  -1  -3   5   67.25    2.23
   1  -3  -5   69.86    2.15
  -1  -3   5   66.30    2.09
   1   3  -5   72.08    1.99
  -1   3   5   69.64    2.28
   0  -3  -5   25.25    1.24
   0  -3   5   29.14    1.26
   0  -3   5   25.89    1.18
   0   3  -5   25.45    1.05
   0   3   5   25.52    1.25
   1  -3   5   15.79    0.79
  -1  -3  -5   15.92    1.02
   1  -3   5   15.82    0.83
   1  -3   5   15.77    0.92
   1   3   5   15.54    0.99
   2  -3   5   30.27    1.12
   2  -3   5   32.60    1.30
  -2  -3  -5   30.80    1.42
   2  -3   5   32.00    1.14
   3  -3   5   37.93    1.40
   3  -3   5   39.56    1.29
   3   3   5   39.07    1.62
   4  -3   5    0.41    0.27
   4  -3   5    0.30    0.28
   5  -3   5   59.06    1.76
   5  -3   5   59.67    1.70
   6  -3   5   23.49    0.99
   6  -3   5   25.21    1.04
   7  -3   5   10.59    0.69
   7  -3   5   10.13    0.70
   8  -3   5    0.58    0.33
  10  -4  -5    0.40    0.53
 -10  -4   5    0.77    1.24
  10   4  -5    1.29    0.65
 -10   4   5    0.92    1.09
   9  -4  -5    6.63    0.89
  -9  -4   5    6.34    1.69
   9   4  -5   10.48    1.18
  -9   4   5    8.69    1.66
   8  -4  -5   10.75    1.04
  -8  -4   5    6.23    1.61
  -8   4   5    9.03    1.59
   8   4  -5   10.56    1.14
   7  -4  -5   23.59    1.30
  -7  -4   5   22.91    2.50
  -7   4   5   28.27    2.41
   7   4  -5   23.52    1.39
   6  -4  -5    0.15    0.36
   6  -4  -5    0.93    0.71
  -6  -4   5    1.61    0.92
  -6   4   5    1.19    0.69
   6   4  -5    0.04    0.38
   5  -4  -5   38.12    1.59
   5  -4  -5   39.03    2.40
  -5  -4   5   36.98    2.36
  -5   4   5   39.59    2.12
   5   4  -5   40.64    1.66
  -4  -4   5   35.31    2.17
   4  -4  -5   33.73    1.46
   4  -4  -5   33.50    2.24
   4   4  -5   36.72    1.51
  -4   4   5   36.66    1.93
  -3  -4   5    1.82    0.72
  -3  -4   5    2.44    0.55
   3  -4  -5    2.78    0.81
   3  -4  -5    3.23    0.53
   3  -4  -5    1.92    0.48
  -3   4   5    2.45    0.63
   3   4  -5    2.77    0.51
   2  -4  -5   19.38    1.10
  -2  -4   5   16.81    1.08
  -2  -4   5   20.05    1.34
  -2   4   5   19.09    1.22
   2   4  -5   19.72    0.99
   1  -4  -5   37.97    1.56
  -1  -4   5   39.42    1.61
  -1  -4   5   39.84    1.59
  -1   4   5   38.97    1.64
   1   4  -5   38.32    1.39
   0  -4   5  233.58    4.94
   0  -4   5  222.88    5.11
   0  -4  -5  232.06    5.28
   0   4  -5  236.87    4.83
   0   4   5  234.12    5.25
   1  -4   5  143.32    3.53
  -1  -4  -5  140.40    3.70
   1  -4   5  141.85    3.15
   1  -4   5  143.58    3.23
   1   4   5  146.19    3.65
   2  -4   5   20.70    0.90
  -2  -4  -5   17.72    1.18
   2  -4   5   19.39    1.03
   3  -4   5   15.45    0.78
   3  -4   5   14.61    0.90
   4  -4   5   68.61    1.87
   4  -4   5   70.76    2.06
   5  -4   5  133.89    3.03
   5  -4   5  136.89    3.20
   6  -4   5    2.47    0.40
   6  -4   5    2.89    0.45
   7  -4   5   33.36    1.22
   7  -4   5   35.59    1.19
   8  -4   5    2.13    0.39
  10  -5  -5    6.81    0.97
 -10  -5   5    4.78    1.78
  10   5  -5    4.55    0.93
 -10   5   5    5.63    1.50
  -9  -5   5    0.47    1.13
   9  -5  -5    3.21    0.69
  -9   5   5    1.78    1.05
   9   5  -5    1.68    0.66
   8  -5  -5    1.70    0.56
  -8  -5   5    2.16    1.28
   8   5  -5    2.56    0.72
  -8   5   5    1.58    0.93
  -7  -5   5   10.00    1.80
   7  -5  -5    8.32    1.42
   7  -5  -5    9.96    0.99
  -7   5   5   10.55    1.50
   7   5  -5    7.98    1.00
  -6  -5   5   29.91    2.78
   6  -5  -5   38.20    2.44
   6  -5  -5   38.09    1.66
   6   5  -5   36.59    1.70
  -6   5   5   38.95    2.22
   5  -5  -5   37.06    1.63
  -5  -5   5   37.24    2.41
   5  -5  -5   33.17    2.37
  -5   5   5   32.57    1.93
   5   5  -5   38.65    1.66
   4  -5  -5    1.88    0.84
   4  -5  -5    1.89    0.50
  -4  -5   5    3.16    0.89
   4   5  -5    2.45    0.55
  -4   5   5    2.78    0.73
   3  -5  -5   87.71    3.62
   3  -5  -5   89.60    2.66
  -3  -5   5   82.83    3.09
  -3  -5   5   91.28    2.75
   3   5  -5   81.76    2.47
  -3   5   5   80.56    2.79
  -2  -5   5   42.80    1.97
   2  -5  -5   41.94    2.37
  -2  -5   5   43.47    1.78
   2  -5  -5   45.77    1.79
  -2   5   5   42.36    1.83
   2   5  -5   41.80    1.55
  -1  -5   5   20.19    1.18
   1  -5  -5   19.17    1.20
  -1  -5   5   19.51    1.16
   1   5  -5   19.47    1.00
  -1   5   5   22.13    1.23
   0  -5   5    7.29    0.84
   0  -5   5    7.37    0.73
   0  -5  -5    6.28    0.84
   0   5   5    4.82    0.74
   0   5  -5    5.02    0.58
   1  -5   5    1.83    0.37
  -1  -5  -5    0.86    0.46
   1  -5   5    1.76    0.38
   1  -5   5    1.83    0.50
   1   5   5    2.49    0.56
   2  -5   5    1.19    0.31
   2  -5   5    0.84    0.41
  -2  -5  -5    0.95    0.49
   3  -5   5   78.91    2.08
   3  -5   5   81.33    2.39
   4  -5   5   31.06    1.14
   4  -5   5   31.28    1.35
   5  -5   5   14.67    0.76
   5  -5   5   14.55    0.90
   6  -5   5    1.72    0.35
   6  -5   5    1.35    0.40
   7  -5   5   18.55    0.81
   7  -5   5   17.06    0.88
   8  -5   5   25.17    1.01
   8  -5   5   25.25    0.93
  10  -6  -5   30.36    1.71
 -10  -6   5   30.57    3.51
 -10   6   5   28.70    2.78
  10   6  -5   29.74    1.88
   9  -6  -5   15.81    1.37
  -9  -6   5   12.20    2.25
   9   6  -5   14.57    1.46
  -9   6   5   13.90    1.92
  -8  -6   5    1.51    1.23
   8  -6  -5    0.28    0.49
   8   6  -5    0.01    0.47
  -8   6   5   -0.19    0.77
  -7  -6   5    1.44    1.03
   7  -6  -5    1.81    0.89
   7  -6  -5    0.61    0.49
   7   6  -5    1.28    0.56
  -7   6   5    0.76    0.83
  -6  -6   5    0.43    0.93
   6  -6  -5    0.52    0.43
   6  -6  -5    0.32    0.68
   6   6  -5    0.26    0.43
  -6   6   5    0.08    0.61
   5  -6  -5    5.79    0.82
  -5  -6   5    8.29    1.47
   5  -6  -5    5.71    1.31
  -5   6   5    5.29    0.99
   5   6  -5    5.72    0.79
   4  -6  -5    8.38    1.45
   4  -6  -5   13.84    1.19
  -4  -6   5   13.23    1.62
   4   6  -5   12.86    1.10
  -4   6   5   14.31    1.43
   3  -6  -5    5.96    0.82
  -3  -6   5    6.73    1.12
  -3  -6   5    6.76    0.90
   3  -6  -5    6.86    1.38
  -3   6   5    6.85    0.95
   3   6  -5    7.92    0.84
   2  -6  -5  189.47    5.89
   2  -6  -5  186.83    4.71
  -2  -6   5  183.86    4.71
  -2  -6   5  196.71    4.91
  -2   6   5  187.25    4.66
   2   6  -5  189.49    4.38
  -1  -6   5   31.42    1.56
  -1  -6   5   27.24    1.37
   1  -6  -5   23.90    1.42
   1  -6  -5   26.58    1.97
  -1   6   5   26.68    1.40
   1   6  -5   26.78    1.21
   0  -6   5   24.58    1.40
   0  -6   5   25.21    1.12
   0  -6  -5   24.74    1.45
   0   6  -5   24.46    1.11
   0   6   5   22.58    1.25
  -1  -6  -5    9.30    1.08
   1  -6   5   10.45    0.73
   1  -6   5    9.31    0.57
   1  -6   5    9.52    0.99
   1   6   5    8.01    0.91
   2  -6   5  268.87    5.45
   2  -6   5  264.58    5.95
  -2  -6  -5  262.99    6.28
   3  -6   5   93.20    2.77
   3  -6   5   95.13    2.41
   4  -6   5    6.37    0.76
   4  -6   5    7.11    0.63
   5  -6   5    1.03    0.32
   5  -6   5    1.23    0.43
   6  -6   5   18.73    0.84
   6  -6   5   16.39    0.97
   7  -6   5   12.68    0.71
   7  -6   5   13.62    0.85
   8  -6   5    1.56    0.38
  10   7  -5    0.46    0.68
   9  -7  -5    2.09    0.70
  -9  -7   5    1.72    1.33
   9   7  -5    0.96    0.69
  -9   7   5   -0.26    0.80
   8  -7  -5   12.93    1.29
  -8  -7   5   11.40    2.17
  -8   7   5   11.95    1.68
   8   7  -5   12.41    1.33
  -7  -7   5    1.55    1.17
   7  -7  -5    1.04    0.92
   7  -7  -5    4.01    0.80
   7   7  -5    1.42    0.64
  -7   7   5    1.79    0.92
  -6  -7   5    8.67    1.69
   6  -7  -5    7.29    0.96
   6  -7  -5    6.59    1.45
  -6   7   5    6.72    1.12
   6   7  -5    8.75    1.04
   5  -7  -5   23.73    1.47
   5  -7  -5   25.49    2.60
  -5  -7   5   25.63    2.45
   5   7  -5   23.81    1.41
  -5   7   5   24.93    1.67
   4  -7  -5   44.68    2.86
  -4  -7   5   48.63    2.62
   4  -7  -5   40.93    1.93
   4   7  -5   42.20    1.82
  -4   7   5   45.90    2.09
   3  -7  -5   42.43    2.73
  -3  -7   5   44.28    2.01
  -3  -7   5   45.85    2.31
   3  -7  -5   42.22    1.94
   3   7  -5   43.30    1.77
  -3   7   5   42.23    1.94
  -2  -7   5    3.38    0.80
  -2  -7   5    3.47    0.73
   2  -7  -5    5.04    1.20
   2  -7  -5    4.12    0.76
   2   7  -5    3.82    0.62
  -2   7   5    2.96    0.66
   1  -7  -5   40.76    1.90
   1  -7  -5   37.55    2.46
  -1  -7   5   33.53    1.73
  -1  -7   5   37.67    1.61
  -1   7   5   37.90    1.67
   1   7  -5   36.64    1.49
   0  -7   5    5.20    0.61
   0  -7  -5    4.28    0.83
   0  -7   5    4.32    0.75
   0  -7  -5    8.32    1.39
   0   7   5    4.93    0.74
  -1  -7  -5   12.74    1.63
  -1  -7  -5    9.99    1.16
   1  -7   5   11.99    1.16
  -2  -7  -5   10.86    1.25
   2  -7   5   12.16    1.14
  -2  -7  -5   13.52    1.63
  -3  -7  -5   15.27    1.74
   3  -7   5   12.58    1.14
   4  -7   5    4.09    0.69
  -4  -7  -5    4.44    1.02
  -5  -7  -5   24.03    1.85
   5  -7   5   21.68    1.23
   6  -7   5   39.32    1.58
   7  -7   5    2.31    0.49
   8  -7   5    1.96    0.43
   9  -8  -5   19.19    1.66
  -9  -8   5   13.55    2.42
   9   8  -5   20.87    1.83
   8  -8  -5   10.62    1.25
  -8  -8   5   11.04    2.12
   8  -8  -5    9.07    1.75
  -8   8   5   10.28    1.55
   8   8  -5   15.18    1.51
   7  -8  -5    7.30    1.51
  -7  -8   5    3.99    1.44
   7  -8  -5    5.91    0.96
   7   8  -5    3.99    0.85
  -7   8   5    5.68    1.17
  -6  -8   5    2.22    1.20
   6  -8  -5    4.25    0.83
   6  -8  -5    3.24    1.16
   6   8  -5    3.16    0.73
  -6   8   5    3.95    0.97
   5  -8  -5    1.91    0.68
   5  -8  -5    1.03    0.88
  -5  -8   5    2.31    1.04
  -5   8   5    1.61    0.70
   5   8  -5    1.71    0.58
   4  -8  -5   44.91    2.10
   4  -8  -5   39.07    2.89
  -4  -8   5   40.43    2.42
  -4   8   5   41.95    1.98
   4   8  -5   40.55    1.85
   3  -8  -5   40.53    1.98
   3  -8  -5   39.73    2.75
  -3  -8   5   35.26    2.10
   3   8  -5   40.79    1.77
  -3   8   5   38.79    1.82
   2  -8  -5   14.88    2.04
  -2  -8   5   14.28    1.39
   2  -8  -5   12.36    1.29
  -2  -8   5   14.10    1.41
  -2   8   5   15.44    1.32
  -1  -8   5    3.53    0.76
  -1  -8   5    1.25    0.57
   1  -8  -5    1.71    0.91
   1  -8  -5    1.96    0.67
  -1   8   5    2.70    0.63
   0  -8   5  226.81    5.70
   0  -8  -5  221.92    6.92
   0  -8  -5  228.26    5.87
   0   8   5  227.94    5.33
  -1  -8  -5   20.51    1.72
  -1  -8  -5   22.39    2.28
   1  -8   5   20.05    1.40
  -2  -8  -5   11.69    1.68
   2  -8   5   13.44    1.30
   3  -8   5    6.46    0.92
  -3  -8  -5    5.95    1.22
  -4  -8  -5   98.63    3.95
   4  -8   5  102.35    3.12
  -5  -8  -5   16.85    1.92
   5  -8   5   16.26    1.16
   6  -8   5    4.57    0.70
   7  -8   5    1.91    0.53
   8  -8   5    0.40    0.39
  -9  -9   5   -0.83    1.11
   9  -9  -5    0.73    0.66
   9   9  -5    0.52    0.65
  -8  -9   5    3.18    1.51
   8  -9  -5    0.50    0.95
   8  -9  -5    3.60    0.86
   8   9  -5    2.04    0.79
   7  -9  -5    0.17    0.55
   7  -9  -5    0.76    0.97
  -7  -9   5    1.06    1.06
   7   9  -5    0.28    0.51
  -7   9   5   -0.51    0.64
  -6  -9   5   30.65    2.97
   6  -9  -5   32.20    3.24
   6  -9  -5   28.21    1.79
   6   9  -5   32.08    1.80
  -6   9   5   28.77    1.88
   5  -9  -5    7.20    1.09
   5  -9  -5    8.19    1.67
  -5  -9   5    6.68    1.49
   5   9  -5    5.39    0.87
  -5   9   5    4.92    0.98
   4  -9  -5   16.32    1.54
   4  -9  -5   18.76    2.40
  -4  -9   5   16.82    1.92
  -4   9   5   17.61    1.49
  -3  -9   5   25.53    1.86
   3  -9  -5   25.90    2.82
   3  -9  -5   25.30    1.66
  -3   9   5   24.53    1.43
  -2  -9   5   30.62    1.87
   2  -9  -5   34.67    3.13
   2  -9  -5   33.24    1.90
  -2  -9   5   30.76    1.79
  -2   9   5   33.88    1.65
  -1  -9   5    2.55    0.73
   1  -9  -5    3.43    0.81
   1  -9  -5    2.78    1.05
  -1   9   5    2.83    0.65
   0  -9   5   -0.19    0.44
   0  -9  -5    0.30    0.51
   0  -9  -5    0.17    0.67
  -1  -9  -5    0.99    0.64
  -1  -9  -5    2.11    1.00
   1  -9   5    0.96    0.59
  -2  -9  -5    0.00    0.69
   2  -9   5    0.00    0.42
   3  -9   5   13.95    1.38
  -3  -9  -5   15.33    1.90
  -4  -9  -5   29.80    2.21
   4  -9   5   28.10    1.65
   5  -9   5    6.16    0.90
   6  -9   5    3.98    0.74
   7  -9   5    1.50    0.56
   8  -9   5   24.56    1.24
   8 -10  -5    1.03    1.09
   8 -10  -5    2.08    0.82
  -8 -10   5    2.13    1.40
   7 -10  -5   18.43    1.72
  -7 -10   5   13.33    2.28
   7 -10  -5   16.33    2.36
  -6 -10   5   -0.37    1.04
   6 -10  -5    0.54    0.92
   6 -10  -5    0.82    0.69
   5 -10  -5   44.65    2.33
   5 -10  -5   45.91    3.34
  -5 -10   5   41.53    2.80
  -5  10   5   45.67    2.15
  -4 -10   5    1.01    0.98
   4 -10  -5    1.42    0.74
   4 -10  -5    0.82    0.99
  -4  10   5    0.49    0.57
  -3 -10   5   15.63    1.69
   3 -10  -5   11.31    1.38
   3 -10  -5   11.67    1.96
  -3  10   5   15.33    1.36
   2 -10  -5   76.64    3.15
   2 -10  -5   76.50    4.12
  -2 -10   5   79.75    3.19
  -2  10   5   80.81    2.63
   1 -10  -5   23.56    2.72
   1 -10  -5   20.95    1.84
  -1 -10   5   18.86    1.80
  -1  10   5   18.67    1.24
   0 -10  -5    2.94    0.84
   0 -10   5    1.31    0.70
   0 -10  -5    3.59    1.19
   1 -10   5    0.34    0.53
  -1 -10  -5    0.85    0.77
  -2 -10  -5  112.82    4.64
   2 -10   5  115.65    3.83
  -3 -10  -5    7.98    1.48
   3 -10   5   12.01    1.36
  -4 -10  -5    3.01    1.08
   4 -10   5    3.26    0.85
   5 -10   5   11.77    1.26
   6 -10   5   11.05    1.20
   7 -10   5    2.22    0.64
   8 -10   5    0.69    0.50
   8 -11  -5   14.66    1.68
  -8 -11   5   14.04    2.50
   8 -11  -5   15.80    2.42
   7 -11  -5   -0.50    0.85
   7 -11  -5   -0.51    0.63
  -7 -11   5    0.24    1.14
   6 -11  -5    6.52    1.68
   6 -11  -5    4.77    1.04
  -6 -11   5    5.86    1.55
   5 -11  -5    1.08    1.10
   5 -11  -5    1.16    0.75
  -5 -11   5    1.25    1.03
   4 -11  -5   20.33    2.66
  -4 -11   5   21.75    2.20
   4 -11  -5   21.74    1.99
   3 -11  -5    3.41    1.28
   3 -11  -5    6.26    1.17
  -3  11   5    6.76    0.94
   2 -11  -5    5.57    1.51
   2 -11  -5    4.52    1.03
  -2  11   5    4.19    0.79
  -1 -11   5    1.03    0.67
   1 -11  -5    0.29    0.65
   1 -11  -5    1.17    0.94
   0 -11  -5    3.01    0.96
   0 -11   5    3.28    0.89
   0 -11  -5    6.04    1.53
   1 -11   5    2.37    0.80
  -1 -11  -5    2.84    1.15
   2 -11   5   10.20    1.36
  -2 -11  -5   11.96    1.90
  -3 -11  -5    8.86    1.70
   3 -11   5    9.50    1.29
   4 -11   5    2.40    0.77
  -4 -11  -5    2.26    1.10
   5 -11   5   -0.28    0.49
   6 -11   5   16.28    1.53
   7 -11   5    0.33    0.56
   8 -11   5    6.87    0.93
  -7 -12   5   32.53    3.37
   7 -12  -5   36.93    2.36
   7 -12  -5   29.40    3.34
   6 -12  -5   -0.21    1.03
   6 -12  -5    1.03    0.78
  -6 -12   5    0.74    1.18
   5 -12  -5   27.28    3.30
   5 -12  -5   23.67    2.17
  -5 -12   5   26.84    2.74
   4 -12  -5   14.66    2.57
   4 -12  -5   10.88    1.55
   3 -12  -5   38.55    2.42
   3 -12  -5   43.52    3.39
   2 -12  -5   -0.19    0.62
   2 -12  -5    0.11    0.78
  -1 -12   5   28.29    2.36
   1 -12  -5   24.12    2.84
   1 -12  -5   28.47    2.42
   0 -12  -5   66.60    3.88
   0 -12  -5   65.60    3.22
   0 -12   5   66.44    3.10
   1 -12   5    5.18    1.09
  -1 -12  -5    3.71    1.28
   2 -12   5    1.06    0.73
  -2 -12  -5    1.23    0.98
  -3 -12  -5    1.28    1.02
   3 -12   5    1.77    0.78
   4 -12   5   22.97    2.01
  -4 -12  -5   26.56    2.71
   5 -12   5    0.06    0.68
   6 -12   5   -0.62    0.60
   7 -12   5    2.75    0.84
  -7 -13   5    0.19    1.36
   7 -13  -5   -0.23    0.75
   7 -13  -5    1.10    1.14
   6 -13  -5   17.58    1.97
   6 -13  -5   11.99    2.41
   5 -13  -5    0.16    0.73
   5 -13  -5    0.31    1.04
   4 -13  -5    3.20    1.01
   4 -13  -5   -0.24    1.01
   3 -13  -5    4.02    1.09
   3 -13  -5    1.56    1.34
   2 -13  -5    8.74    1.91
   2 -13  -5   10.36    1.62
   1 -13  -5    3.94    1.46
   1 -13  -5    1.92    0.95
   0 -13  -5    0.99    1.06
   0 -13   5    1.52    0.84
   1 -13   5    0.69    0.77
  -1 -13  -5    1.52    0.99
  -2 -13  -5   -0.25    0.87
   2 -13   5   -0.70    0.62
   3 -13   5    1.88    0.90
  -3 -13  -5   -0.02    0.85
  -4 -13  -5   11.13    1.88
   4 -13   5   11.33    1.52
   5 -13   5    0.21    0.70
   6 -13   5    3.70    1.01
   6 -14  -5    0.17    1.14
   6 -14  -5   -0.04    0.88
   5 -14  -5   36.74    3.92
   5 -14  -5   51.72    2.99
   4 -14  -5   -0.64    0.85
   4 -14  -5   -1.04    0.86
   3 -14  -5   29.86    2.70
   3 -14  -5   24.48    3.23
   2 -14  -5    9.31    2.12
   2 -14  -5    9.00    1.61
   1 -14  -5    9.78    2.14
   0 -14   5    4.84    1.18
   0 -14  -5    7.43    1.90
   1 -14   5    5.79    1.25
  -1 -14  -5    9.65    2.05
   2 -14   5    8.53    1.48
  -2 -14  -5    9.09    1.81
  -3 -14  -5   -0.11    0.98
   3 -14   5   -0.09    0.75
   4 -14   5    3.20    1.06
   5 -14   5    4.94    1.25
   6 -14   5   -0.04    0.74
   5 -15  -5   -0.64    0.88
   5 -15  -5   -0.68    1.11
   4 -15  -5   19.23    2.27
   4 -15  -5   18.02    3.01
   3 -15  -5    1.35    1.33
   3 -15  -5    2.41    1.16
   2 -15  -5    0.23    1.10
   2 -15  -5    1.08    0.98
   1 -15  -5   -0.84    1.00
   0 -15  -5    5.62    1.67
  -1 -15  -5    0.38    1.15
   1 -15   5    0.80    0.89
   2 -15   5    2.52    1.05
  -2 -15  -5    3.88    1.44
  -3 -15  -5    1.72    1.16
   3 -15   5    0.02    0.78
   4 -15   5    0.26    0.84
   5 -15   5    0.29    0.91
   3 -16  -5   15.06    2.16
   3 -16  -5   13.71    2.64
   2 -16  -5    6.76    2.03
   1 -16  -5   14.68    2.55
   0 -16  -5   -0.72    1.05
  -1 -16  -5   -0.22    1.15
   1 -16   5    0.04    0.93
   2 -16   5   10.76    1.77
  -2 -16  -5    9.11    2.06
  -3 -16  -5    0.17    1.14
   3 -16   5    0.35    1.00
  10   0  -6    2.00    0.73
 -10   0   6    3.58    1.44
   9   0  -6   -0.01    0.46
  -9   0   6    0.60    1.12
   8   0  -6   22.48    1.36
  -8   0   6   22.70    2.61
  -7   0   6    0.58    0.81
   7   0  -6    0.49    0.43
  -6   0   6    3.75    1.01
   6   0  -6    5.23    0.73
   5   0  -6   -0.18    0.30
  -5   0   6   -1.05    0.52
   4   0  -6   30.61    1.37
  -4   0   6   29.60    1.87
  -3   0   6    0.20    0.51
  -3   0   6    0.59    0.31
   3   0  -6    0.31    0.29
   2   0  -6   44.87    1.60
  -2   0   6   44.68    1.58
  -2   0   6   37.79    1.86
  -1   0   6   -0.41    0.32
   1   0  -6   -0.54    0.21
  -1   0   6   -0.25    0.23
   0   0   6   39.76    1.66
   0   0   6   38.91    1.48
   0   0  -6   40.65    1.49
  -1   0  -6    0.01    0.28
   1   0   6    0.03    0.28
   1   0   6    0.03    0.35
   2   0   6    2.15    0.45
   2   0   6    1.48    0.40
   3   0   6    0.09    0.28
   3   0   6   -0.01    0.27
   4   0   6    1.91    0.46
   4   0   6    2.15    0.47
   5   0   6   -0.11    0.29
  10  -1  -6    0.51    0.56
 -10  -1   6    1.08    1.17
 -10   1   6    0.70    1.14
  10   1  -6    0.58    0.59
  -9  -1   6    0.22    1.02
   9  -1  -6    0.25    0.44
   9   1  -6    0.29    0.49
  -9   1   6    0.56    0.96
  -8  -1   6   23.27    2.67
   8  -1  -6   25.05    1.44
  -8   1   6   24.20    2.55
   8   1  -6   27.76    1.55
   7  -1  -6    8.27    0.92
  -7  -1   6    9.00    1.61
  -7   1   6    3.46    1.10
   7   1  -6    6.72    0.87
   6  -1  -6    1.34    0.47
  -6  -1   6    1.89    0.94
  -6   1   6    2.14    0.90
   6   1  -6    2.09    0.54
   5  -1  -6   73.38    2.36
  -5  -1   6   73.15    3.23
   5   1  -6   75.58    2.40
  -5   1   6   76.51    3.22
  -4  -1   6   14.40    1.59
   4  -1  -6   13.49    0.93
  -4   1   6   13.91    1.52
   4   1  -6   12.43    0.90
   3  -1  -6  147.19    3.67
  -3  -1   6  146.30    4.35
  -3  -1   6  154.29    3.67
   3   1  -6  151.46    3.69
  -3   1   6  151.53    4.35
  -3   1   6  155.52    3.63
   2  -1  -6    0.08    0.29
  -2  -1   6    0.67    0.36
  -2  -1   6    1.11    0.55
  -2   1   6    0.90    0.34
  -2   1   6    0.84    0.52
   2   1  -6    0.72    0.36
  -1  -1   6  233.25    4.97
   1  -1  -6  227.35    4.98
  -1  -1   6  228.72    5.35
   1   1  -6  222.35    4.87
  -1   1   6  218.55    4.88
  -1   1   6  227.65    5.34
   0  -1  -6    1.89    0.46
   0  -1   6    2.09    0.54
   0  -1   6    1.79    0.43
   0   1  -6    2.25    0.45
   0   1   6    2.10    0.56
   0   1   6    1.90    0.44
   1  -1   6  233.37    5.08
  -1  -1  -6  224.16    5.02
   1  -1   6  226.38    4.93
   1   1   6  222.01    5.13
   1   1   6  228.72    4.95
  -1   1  -6  229.12    4.90
   2  -1   6    7.49    0.71
   2  -1   6    6.96    0.73
   2  -1   6    7.04    0.77
   2   1   6    7.68    0.76
   2   1   6    5.85    0.78
   3  -1   6   87.06    2.46
   3  -1   6   88.66    2.43
   3   1   6   85.99    2.48
   3   1   6   94.46    2.59
   4  -1   6    5.09    0.64
   4  -1   6    3.95    0.57
   5  -1   6   45.90    1.65
  10  -2  -6    3.85    0.87
 -10  -2   6    5.38    1.64
  10   2  -6    5.72    0.98
 -10   2   6    4.61    1.46
   9  -2  -6   -0.03    0.44
  -9  -2   6   -0.22    0.98
   9   2  -6   -0.26    0.46
  -9   2   6    0.43    0.96
   8  -2  -6    4.97    0.81
  -8  -2   6    5.96    1.51
  -8   2   6    7.63    1.56
   8   2  -6    6.83    0.96
  -7  -2   6    0.58    0.88
   7  -2  -6    0.34    0.41
   7   2  -6    0.08    0.41
  -7   2   6   -0.13    0.76
   6  -2  -6   47.55    2.55
  -6  -2   6   43.92    2.70
   6  -2  -6   45.85    1.84
  -6   2   6   44.98    2.59
   6   2  -6   47.51    1.92
   5  -2  -6   -0.71    0.46
  -5  -2   6    0.80    0.74
   5  -2  -6    0.04    0.30
  -5   2   6    0.34    0.64
   5   2  -6    0.00    0.33
  -4  -2   6   12.95    1.53
   4  -2  -6   15.99    1.02
   4   2  -6   15.08    1.00
  -4   2   6   14.90    1.55
   3  -2  -6   16.66    1.03
  -3  -2   6   15.04    1.52
  -3  -2   6   17.52    1.05
  -3   2   6   16.87    1.50
   3   2  -6   15.10    0.96
  -2  -2   6    1.33    0.59
  -2  -2   6    1.32    0.41
   2  -2  -6    1.19    0.42
  -2   2   6    1.20    0.38
  -2   2   6    2.22    0.65
   2   2  -6    1.48    0.38
  -1  -2   6    3.50    0.71
  -1  -2   6    6.36    0.73
   1  -2  -6    5.81    0.70
   1   2  -6    5.39    0.63
  -1   2   6    4.25    0.76
  -1   2   6    5.45    0.65
   0  -2  -6   83.26    2.46
   0  -2   6   81.39    2.39
   0  -2   6   79.03    2.45
   0   2   6   78.45    2.54
   0   2  -6   82.56    2.29
   0   2   6   82.07    2.34
   1  -2   6    4.75    0.64
   1  -2   6    4.04    0.62
  -1  -2  -6    4.84    0.69
   1   2   6    5.12    0.74
  -1   2  -6    3.68    0.53
   1   2   6    3.86    0.59
   2  -2   6   13.13    0.87
  -2  -2  -6   12.59    1.07
   2  -2   6   11.58    0.84
   2  -2   6   12.68    0.79
   2   2   6   13.56    1.14
   3  -2   6    1.10    0.35
   3  -2   6    0.17    0.32
   4  -2   6    0.38    0.33
   4  -2   6    0.18    0.27
   5  -2   6   -0.19    0.29
   5  -2   6   -0.16    0.29
   6  -2   6    0.40    0.34
 -10  -3   6    8.89    2.10
  10  -3  -6    7.57    1.08
  10   3  -6    8.84    1.19
 -10   3   6    7.89    1.84
  -9  -3   6   -0.44    0.99
   9  -3  -6   -0.14    0.49
  -9   3   6    1.87    1.18
   9   3  -6    0.53    0.55
   8  -3  -6    3.60    0.74
  -8  -3   6    1.07    1.16
   8   3  -6    3.26    0.74
  -8   3   6    3.10    1.18
   7  -3  -6   14.72    1.25
  -7  -3   6   14.71    2.08
  -7   3   6   18.11    2.06
   7   3  -6   13.56    1.25
  -6  -3   6   60.42    3.29
   6  -3  -6   62.82    3.05
   6  -3  -6   60.31    2.23
   6   3  -6   63.91    2.33
  -6   3   6   69.40    3.13
  -5  -3   6   16.16    1.89
   5  -3  -6   15.34    1.80
   5  -3  -6   19.35    1.18
  -5   3   6   16.60    1.75
   5   3  -6   19.01    1.17
   4  -3  -6   14.71    1.66
   4  -3  -6   11.47    1.02
  -4  -3   6   13.47    1.56
  -4   3   6   14.87    1.55
   4   3  -6   14.42    0.98
   3  -3  -6   93.14    2.73
  -3  -3   6   90.42    3.25
  -3  -3   6   95.14    2.77
  -3   3   6   95.36    3.22
   3   3  -6   94.30    2.68
  -2  -3   6    2.28    0.68
  -2  -3   6    3.92    0.64
   2  -3  -6    2.74    0.56
   2   3  -6    2.67    0.50
  -2   3   6    1.99    0.62
  -1  -3   6  150.85    3.74
  -1  -3   6  149.67    3.90
   1  -3  -6  142.25    3.72
   1   3  -6  150.19    3.57
  -1   3   6  147.95    3.97
   0  -3   6    4.11    0.62
   0  -3  -6    4.13    0.67
   0  -3   6    4.99    0.71
   0   3   6    4.10    0.68
   0   3  -6    4.42    0.56
  -1  -3  -6   92.28    2.84
   1  -3   6   95.07    2.69
   1  -3   6   93.80    2.54
   1   3   6   97.51    2.84
  -1   3  -6   93.48    2.49
  -2  -3  -6    0.24    0.38
   2  -3   6    0.04    0.32
   2  -3   6    0.32    0.32
   2  -3   6    0.64    0.31
   2   3   6    0.08    0.35
   3  -3   6  101.79    2.56
   3  -3   6   93.16    2.66
   4  -3   6   19.22    0.97
   4  -3   6   17.09    1.01
   5  -3   6    4.89    0.59
   5  -3   6    4.90    0.63
   6  -3   6   46.97    1.65
   7  -3   6    3.73    0.57
 -10  -4   6    2.51    1.47
  10  -4  -6    4.08    0.85
 -10   4   6    6.08    1.54
  10   4  -6    4.85    0.98
  -9  -4   6    0.92    1.16
   9  -4  -6   -0.10    0.48
   9   4  -6    0.54    0.60
  -9   4   6    0.40    0.94
   8  -4  -6   18.82    1.30
  -8  -4   6   15.89    2.35
  -8   4   6   19.12    2.20
   8   4  -6   19.05    1.39
   7  -4  -6    1.66    0.57
  -7  -4   6    3.72    1.27
  -7   4   6    1.09    0.86
   7   4  -6    1.89    0.62
   6  -4  -6   -0.19    0.35
   6  -4  -6   -0.30    0.64
  -6  -4   6    0.57    0.87
   6   4  -6    0.39    0.40
  -6   4   6    0.43    0.66
   5  -4  -6   16.02    1.94
  -5  -4   6   12.72    1.73
   5  -4  -6   10.81    1.04
   5   4  -6   12.17    1.10
  -5   4   6   11.28    1.46
   4  -4  -6   21.84    1.26
   4  -4  -6   20.01    2.04
  -4  -4   6   23.06    2.09
  -4   4   6   23.00    1.62
   4   4  -6   21.63    1.21
  -3  -4   6    0.86    0.45
   3  -4  -6    0.73    0.43
  -3  -4   6    0.04    0.56
   3   4  -6    0.42    0.33
  -3   4   6    0.79    0.57
   2  -4  -6   31.03    1.50
  -2  -4   6   31.42    1.71
  -2  -4   6   35.36    1.60
   2   4  -6   36.66    1.47
  -2   4   6   35.57    1.76
   1  -4  -6   46.04    1.84
  -1  -4   6   43.41    1.81
  -1  -4   6   43.84    1.77
   1   4  -6   43.35    1.59
  -1   4   6   42.13    1.86
   0  -4   6   12.71    1.06
   0  -4   6   12.78    1.04
   0  -4  -6   11.96    1.10
   0   4  -6   10.50    0.76
   0   4   6   13.20    1.18
  -1  -4  -6    0.95    0.49
   1  -4   6    0.81    0.35
   1  -4   6    0.39    0.37
   1   4   6    0.67    0.44
   2  -4   6   19.81    1.16
   2  -4   6   19.40    0.96
  -2  -4  -6   21.61    1.34
   2  -4   6   21.72    0.98
   3  -4   6    8.08    0.71
   3  -4   6    7.52    0.81
   4  -4   6    0.21    0.34
   4  -4   6    0.37    0.29
   5  -4   6    3.02    0.55
   6  -4   6    1.48    0.44
   7  -4   6    1.59    0.44
  10  -5  -6   13.32    1.37
 -10  -5   6   19.12    2.87
 -10   5   6   12.71    2.05
  10   5  -6   13.04    1.49
  -9  -5   6   10.03    2.08
   9  -5  -6   11.69    1.25
   9   5  -6   10.29    1.24
  -9   5   6   10.08    1.76
  -8  -5   6   39.33    3.56
   8  -5  -6   42.84    2.01
   8   5  -6   40.97    2.05
  -8   5   6   39.81    2.64
   7  -5  -6    0.25    0.45
   7  -5  -6    1.11    0.81
  -7  -5   6   -0.56    0.84
   7   5  -6    0.31    0.49
  -7   5   6    1.27    0.81
   6  -5  -6   16.21    2.03
  -6  -5   6   17.88    2.18
   6  -5  -6   17.49    1.24
  -6   5   6   21.13    2.02
   6   5  -6   17.43    1.25
   5  -5  -6   27.67    1.49
  -5  -5   6   30.14    2.61
   5  -5  -6   31.58    2.33
   5   5  -6   27.68    1.49
  -5   5   6   30.40    1.93
   4  -5  -6   48.27    2.84
   4  -5  -6   46.55    1.94
  -4  -5   6   42.85    2.46
  -4   5   6   44.39    2.22
   4   5  -6   42.95    1.80
   3  -5  -6   41.92    1.85
   3  -5  -6   44.77    2.61
  -3  -5   6   42.75    1.89
  -3  -5   6   42.05    2.19
  -3   5   6   41.13    2.01
   3   5  -6   47.29    1.79
   2  -5  -6   18.13    1.20
  -2  -5   6   17.80    1.31
  -2  -5   6   14.94    1.10
   2   5  -6   18.39    1.06
  -2   5   6   16.64    1.46
  -1  -5   6   35.48    1.63
  -1  -5   6   35.51    1.67
   1  -5  -6   33.55    1.67
   1   5  -6   38.21    1.50
  -1   5   6   34.84    1.69
   0  -5   6    2.16    0.57
   0  -5  -6    0.32    0.40
   0  -5   6    1.90    0.50
   0   5   6    2.35    0.62
   0   5  -6    1.85    0.43
  -1  -5  -6  106.93    3.32
   1  -5   6  109.49    2.67
   1  -5   6  108.46    3.11
   1   5   6  107.50    3.20
   2  -5   6   57.43    2.07
   3  -5   6   12.40    1.09
   4  -5   6   33.06    1.50
   5  -5   6   28.44    1.34
   6  -5   6    6.71    0.75
   7  -5   6   -0.22    0.32
   8  -5   6   52.29    1.73
  -9  -6   6    0.54    1.16
   9  -6  -6    0.69    0.58
   9   6  -6    0.38    0.62
  -9   6   6    0.25    0.91
   8  -6  -6    0.33    0.53
  -8  -6   6   -0.18    1.02
   8   6  -6    0.28    0.58
  -8   6   6   -0.33    0.75
  -7  -6   6    3.30    1.30
   7  -6  -6    2.31    0.68
   7  -6  -6    4.39    1.22
   7   6  -6    3.76    0.81
  -7   6   6    3.08    1.06
  -6  -6   6   33.77    2.98
   6  -6  -6   30.65    2.86
   6  -6  -6   29.89    1.67
  -6   6   6   30.37    2.09
   6   6  -6   32.37    1.72
  -5  -6   6   -0.15    0.74
   5  -6  -6    0.45    0.81
   5  -6  -6    0.65    0.51
  -5   6   6    0.58    0.67
   5   6  -6    0.65    0.47
   4  -6  -6    0.96    0.49
   4  -6  -6    1.97    0.99
  -4  -6   6    2.11    0.91
  -4   6   6    1.18    0.66
   4   6  -6    1.40    0.52
   3  -6  -6   35.28    1.76
  -3  -6   6   32.06    2.00
   3  -6  -6   35.93    2.52
  -3   6   6   38.02    1.91
   3   6  -6   34.86    1.59
  -2  -6   6    0.41    0.44
   2  -6  -6    1.03    0.79
   2  -6  -6    0.60    0.45
  -2  -6   6    2.50    0.71
   2   6  -6    0.12    0.34
  -2   6   6    0.74    0.50
  -1  -6   6    0.51    0.44
   1  -6  -6    1.43    0.55
  -1  -6   6   -0.08    0.41
   1   6  -6   -0.08    0.29
  -1   6   6    0.48    0.45
   0  -6   6   25.71    1.21
   0  -6  -6   27.09    1.58
   0  -6   6   25.59    1.46
   0   6   6   25.44    1.43
  -1  -6  -6   31.63    1.74
   1  -6   6   28.43    1.52
   1  -6   6   30.82    1.14
   1   6   6   32.35    1.63
   2  -6   6    0.30    0.39
   3  -6   6    9.47    1.01
   4  -6   6    2.78    0.60
   5  -6   6    0.19    0.39
   6  -6   6    0.28    0.39
   7  -6   6    5.32    0.67
   8  -6   6    5.22    0.65
   9  -7  -6   -0.09    0.58
  -9  -7   6    0.44    1.15
  -9   7   6    0.02    0.91
   9   7  -6    0.47    0.67
  -8  -7   6   23.02    2.84
   8  -7  -6   24.74    1.65
   8   7  -6   23.96    1.68
  -8   7   6   27.79    2.51
   7  -7  -6   14.76    1.42
   7  -7  -6   15.13    2.08
  -7  -7   6   15.24    2.22
  -7   7   6   12.91    1.68
   7   7  -6   14.52    1.47
   6  -7  -6   56.98    3.37
   6  -7  -6   58.12    2.47
  -6  -7   6   65.09    3.50
   6   7  -6   62.56    2.52
  -6   7   6   62.29    2.89
  -5  -7   6    0.00    0.93
   5  -7  -6    2.52    1.10
   5  -7  -6    1.44    0.60
  -5   7   6    1.66    0.74
   5   7  -6    0.78    0.51
  -4  -7   6   27.19    2.38
   4  -7  -6   33.71    2.54
   4  -7  -6   28.96    1.66
  -4   7   6   27.84    1.72
   4   7  -6   25.75    1.49
   3  -7  -6    2.86    0.71
  -3  -7   6    1.61    0.83
   3  -7  -6    2.58    0.99
  -3   7   6    3.34    0.78
   3   7  -6    1.82    0.52
   2  -7  -6   27.14    1.64
  -2  -7   6   26.77    1.58
   2  -7  -6   29.27    2.78
  -2  -7   6   26.89    1.65
  -2   7   6   26.64    1.55
   1  -7  -6   18.22    1.57
  -1  -7   6   15.36    1.12
   1  -7  -6   14.41    1.88
  -1  -7   6   17.50    1.49
  -1   7   6   17.76    1.25
   0  -7  -6   10.40    1.58
   0  -7   6   10.71    1.16
   0  -7   6   12.77    0.86
   0  -7  -6   11.94    1.27
   0   7   6   14.45    1.29
   1  -7   6    1.06    0.53
  -1  -7  -6    0.25    0.50
   1   7   6    1.78    0.60
   2  -7   6    0.44    0.43
   3  -7   6   32.96    1.67
   4  -7   6   54.69    2.12
   5  -7   6    0.33    0.44
   6  -7   6   58.88    2.13
   7  -7   6   10.19    0.95
   8  -7   6    1.76    0.49
   9  -7   6    0.70    0.38
   9  -8  -6   -0.02    0.68
  -9  -8   6    0.84    1.44
   9   8  -6    0.14    0.64
   8  -8  -6    6.93    1.09
  -8  -8   6    7.17    1.81
   8  -8  -6    6.96    1.59
  -8   8   6    7.62    1.46
   8   8  -6    6.13    1.08
   7  -8  -6   -0.74    0.79
   7  -8  -6    1.18    0.67
  -7  -8   6    0.20    1.11
  -7   8   6    0.70    0.86
   7   8  -6    0.28    0.60
  -6  -8   6    6.24    1.50
   6  -8  -6    5.40    1.41
   6  -8  -6    3.16    0.85
   6   8  -6    5.21    0.93
  -6   8   6    5.77    1.17
   5  -8  -6   20.49    2.54
   5  -8  -6   19.41    1.69
  -5  -8   6   18.90    2.22
   5   8  -6   21.36    1.45
  -5   8   6   19.86    1.82
   4  -8  -6   32.67    3.17
  -4  -8   6   28.98    2.50
   4  -8  -6   27.07    1.76
  -4   8   6   35.18    1.93
  -3  -8   6   -1.00    0.56
   3  -8  -6    2.10    0.98
   3  -8  -6    0.06    0.49
  -3   8   6    0.20    0.51
  -2  -8   6    4.67    0.93
  -2  -8   6    6.80    1.07
   2  -8  -6    3.21    1.16
   2  -8  -6    3.77    0.86
  -2   8   6    4.83    0.85
  -1  -8   6   37.28    1.66
  -1  -8   6   40.50    2.05
   1  -8  -6   38.58    2.06
   1  -8  -6   40.00    2.79
  -1   8   6   36.00    1.81
   0  -8   6    0.00    0.43
   0  -8  -6    0.04    0.46
   0  -8  -6   -0.58    0.62
   0   8   6    0.05    0.44
  -1  -8  -6    2.22    0.75
  -1  -8  -6    2.31    1.02
   1  -8   6    2.69    0.73
  -2  -8  -6   25.65    2.43
   2  -8   6   24.45    1.54
   3  -8   6    4.90    0.85
  -3  -8  -6    4.98    1.24
  -4  -8  -6    2.34    1.01
   4  -8   6    2.91    0.69
   5  -8   6    5.83    0.88
  -5  -8  -6    7.12    1.43
   6  -8   6   24.19    1.42
   7  -8   6    1.02    0.51
   8  -8   6    1.07    0.47
   9  -8   6    3.08    0.54
   8  -9  -6   18.91    1.77
  -8  -9   6   11.32    2.18
   8  -9  -6   14.34    2.21
   7  -9  -6    0.46    0.68
   7  -9  -6    0.03    0.87
  -7  -9   6   -1.11    0.97
  -7   9   6    1.16    0.80
  -6  -9   6   15.08    2.19
   6  -9  -6   13.63    2.16
   6  -9  -6   15.81    1.62
  -6   9   6   14.52    1.66
   5  -9  -6    2.67    0.85
   5  -9  -6    3.52    1.22
  -5  -9   6    1.44    1.08
  -5   9   6    4.20    0.97
   4  -9  -6   23.63    2.76
  -4  -9   6   27.50    2.47
   4  -9  -6   25.47    1.78
  -4   9   6   25.48    1.65
   3  -9  -6   -0.61    0.49
  -3  -9   6    1.18    0.84
   3  -9  -6    0.79    0.88
  -3   9   6    1.08    0.62
  -2  -9   6    0.50    0.58
   2  -9  -6   -0.05    0.52
  -2  -9   6    0.19    0.61
   2  -9  -6    1.14    0.81
  -2   9   6    0.48    0.52
  -1  -9   6    9.02    1.21
   1  -9  -6    5.93    1.48
   1  -9  -6    7.47    1.14
  -1   9   6    5.56    0.89
   0  -9   6   14.06    1.47
   0  -9  -6   14.93    2.10
   0  -9  -6   15.74    1.63
   0   9   6   16.32    1.42
   1  -9   6    0.88    0.59
  -1  -9  -6    0.73    0.87
   2  -9   6   71.43    2.85
  -2  -9  -6   70.57    3.66
  -3  -9  -6   15.12    2.00
   3  -9   6   11.30    1.29
  -4  -9  -6    1.00    0.85
   4  -9   6    2.83    0.75
   5  -9   6    6.52    0.96
  -5  -9  -6    8.48    1.59
   6  -9   6   13.34    1.24
   7  -9   6    0.56    0.49
   8  -9   6   33.45    1.54
   8 -10  -6    5.07    1.13
   8 -10  -6    4.71    1.54
  -8 -10   6    5.77    1.82
   7 -10  -6    0.49    0.69
  -7 -10   6    1.05    1.16
   7 -10  -6    0.35    0.90
   6 -10  -6   24.23    2.91
  -6 -10   6   28.40    2.91
   6 -10  -6   28.51    1.98
  -6  10   6   29.71    1.94
  -5 -10   6    3.24    1.28
   5 -10  -6    0.86    1.04
   5 -10  -6    0.63    0.68
  -5  10   6    1.72    0.76
   4 -10  -6   17.27    1.75
  -4 -10   6   13.43    1.84
   4 -10  -6   16.66    2.42
  -4  10   6   14.77    1.48
  -3 -10   6   18.27    1.90
   3 -10  -6   20.28    1.89
   3 -10  -6   16.09    2.34
  -3  10   6   17.73    1.55
   2 -10  -6    8.60    1.31
   2 -10  -6   10.41    1.99
  -2  10   6   11.45    1.24
  -1 -10   6   -0.08    0.52
   1 -10  -6    0.31    0.83
   1 -10  -6    0.47    0.68
  -1  10   6    0.07    0.47
   0 -10   6   14.18    1.55
   0 -10  -6   15.34    1.70
   0 -10  -6   18.99    2.52
  -1 -10  -6    9.14    1.74
   1 -10   6    9.17    1.25
   2 -10   6    0.64    0.61
  -2 -10  -6    1.56    1.01
   3 -10   6    1.22    0.64
  -3 -10  -6    0.19    0.81
  -4 -10  -6   23.42    2.49
   4 -10   6   16.64    1.59
   5 -10   6    0.73    0.60
   6 -10   6    0.07    0.53
   7 -10   6    3.58    0.79
   8 -10   6   34.56    1.64
   7 -11  -6    4.24    1.44
   7 -11  -6    6.64    1.28
  -7 -11   6    4.43    1.63
  -6 -11   6    8.99    1.88
   6 -11  -6    6.81    1.79
   6 -11  -6   11.84    1.59
   5 -11  -6    2.05    0.93
   5 -11  -6    1.03    1.12
  -5 -11   6    1.88    1.18
   4 -11  -6    1.03    0.75
   4 -11  -6    1.58    1.10
  -4  11   6    3.32    0.84
   3 -11  -6    1.35    0.87
   3 -11  -6    2.83    1.25
  -3  11   6    2.56    0.76
   2 -11  -6    7.62    1.31
   2 -11  -6    2.26    1.22
  -2  11   6    8.94    1.12
  -1 -11   6    5.42    1.13
   1 -11  -6    3.71    0.99
   1 -11  -6    3.00    1.23
  -1  11   6    4.74    0.88
   0 -11  -6   23.82    2.82
   0 -11   6   32.16    2.08
   1 -11   6   13.34    1.55
  -1 -11  -6   14.15    2.17
  -2 -11  -6   15.24    2.16
   2 -11   6   14.64    1.59
   3 -11   6    1.16    0.72
  -3 -11  -6   -1.14    0.69
  -4 -11  -6   41.49    2.87
   4 -11   6   41.36    2.29
   5 -11   6    1.58    0.75
   6 -11   6    8.39    1.16
   7 -11   6    7.95    1.10
  -7 -12   6   -0.09    1.27
   7 -12  -6    0.00    0.81
   7 -12  -6    0.24    1.07
  -6 -12   6   22.57    2.70
   6 -12  -6   22.76    2.20
   6 -12  -6   19.27    2.78
   5 -12  -6    1.45    0.86
   5 -12  -6    1.13    1.24
   4 -12  -6   26.90    3.18
   4 -12  -6   28.60    2.47
   3 -12  -6    1.59    1.10
   3 -12  -6   -0.27    0.71
  -3  12   6   -0.04    0.57
   2 -12  -6    0.22    0.74
   2 -12  -6    0.60    1.02
  -2  12   6    1.71    0.67
   1 -12  -6    6.34    1.71
   1 -12  -6    7.88    1.43
   0 -12  -6    2.97    1.31
   0 -12   6    1.33    0.79
  -1 -12  -6   -0.47    0.80
   1 -12   6    0.72    0.73
  -2 -12  -6   15.13    2.28
   2 -12   6   20.73    2.00
   3 -12   6    1.52    0.77
  -3 -12  -6    2.65    1.18
  -4 -12  -6   -0.06    0.91
   4 -12   6    2.06    0.85
   5 -12   6   -0.06    0.58
   6 -12   6   26.31    1.82
   7 -12   6    0.19    0.59
   6 -13  -6    2.22    1.43
   6 -13  -6    1.65    0.97
   5 -13  -6    0.46    0.83
   5 -13  -6    0.85    1.09
   4 -13  -6    3.32    1.52
   4 -13  -6    2.02    0.97
   3 -13  -6   10.62    1.70
   3 -13  -6   11.19    2.22
   2 -13  -6    2.93    1.41
   2 -13  -6    4.07    1.17
   1 -13  -6    9.47    2.03
   0 -13  -6   12.57    2.22
   0 -13   6   17.87    1.97
  -1 -13  -6   12.09    2.16
   1 -13   6   13.59    1.74
  -2 -13  -6   48.78    3.43
   2 -13   6   40.76    2.57
  -3 -13  -6    5.21    1.52
   3 -13   6    5.27    1.21
  -4 -13  -6    5.29    1.56
   4 -13   6    2.99    0.97
   5 -13   6    0.74    0.82
   6 -13   6    0.73    0.72
   5 -14  -6   -0.58    0.99
   5 -14  -6   -0.07    0.86
   4 -14  -6   12.99    1.94
   4 -14  -6   15.46    2.75
   3 -14  -6    0.26    1.17
   3 -14  -6    1.29    0.98
   2 -14  -6   10.74    1.78
   2 -14  -6    8.69    2.10
   1 -14  -6    0.45    1.06
   0 -14  -6    2.92    1.40
   0 -14   6    2.98    1.06
  -1 -14  -6    3.92    1.42
   1 -14   6    3.94    1.09
   2 -14   6    2.91    1.09
  -2 -14  -6    1.23    1.17
  -3 -14  -6    0.72    1.07
   3 -14   6   -0.52    0.70
   4 -14   6   21.46    2.17
   5 -14   6    1.37    0.88
   4 -15  -6    1.98    1.21
   4 -15  -6   -0.22    1.15
   3 -15  -6    3.30    1.26
   3 -15  -6    2.75    1.48
   2 -15  -6    1.06    1.24
   1 -15  -6   14.16    2.59
   0 -15  -6   16.09    2.66
   1 -15   6    2.60    1.09
  -1 -15  -6    2.06    1.31
  -2 -15  -6   14.49    2.47
   2 -15   6   23.22    2.40
  -3 -15  -6    4.73    1.64
   3 -15   6    3.48    1.18
   4 -15   6    6.94    1.42
   2 -16  -6    2.38    1.49
   1 -16  -6    1.15    1.30
   0 -16  -6   -0.97    0.98
  -1 -16  -6    1.37    1.35
   2 -16   6    5.24    1.42
  -2 -16  -6    3.50    1.69
 -10   0   7   -0.54    0.96
  10   0  -7   -0.76    0.49
  -9   0   7   64.18    3.82
   9   0  -7   68.33    2.70
  -8   0   7   -1.09    0.78
   8   0  -7   -0.15    0.47
   7   0  -7    5.17    0.84
  -7   0   7    7.05    1.52
   6   0  -7   -0.12    0.38
  -6   0   7    0.43    0.74
  -5   0   7   66.76    3.16
   5   0  -7   68.74    2.39
   4   0  -7   -0.27    0.34
  -4   0   7    0.02    0.57
  -3   0   7   74.93    2.97
   3   0  -7   76.31    2.42
   2   0  -7    0.13    0.31
  -2   0   7    0.48    0.50
  -2   0   7   -0.22    0.28
  -1   0   7  109.26    3.00
  -1   0   7  109.24    3.36
   1   0  -7  114.52    3.07
   0   0  -7    0.25    0.33
   0   0   7   -0.17    0.28
   0   0   7   -0.43    0.34
   1   0   7  100.22    2.99
  -1   0  -7  101.76    2.87
   1   0   7  104.12    2.87
   2   0   7    0.52    0.41
   2   0   7    0.76    0.38
   3   0   7   70.98    2.28
   4   0   7    0.48    0.38
   5   0   7    1.80    0.50
  10  -1  -7    3.63    0.87
 -10  -1   7    3.30    1.42
 -10   1   7    4.46    1.59
  10   1  -7    4.03    0.92
   9  -1  -7    7.03    1.02
  -9  -1   7    4.03    1.53
   9   1  -7    6.82    1.07
  -9   1   7    7.82    1.78
  -8  -1   7    0.67    1.00
   8  -1  -7    0.92    0.57
  -8   1   7   -0.31    0.86
   8   1  -7    1.35    0.58
   7  -1  -7   50.96    2.14
  -7  -1   7   55.99    3.24
   7   1  -7   53.01    2.20
  -7   1   7   46.94    2.98
   6  -1  -7    1.12    0.48
  -6  -1   7    1.70    0.92
   6  -1  -7    2.19    0.88
  -6   1   7    1.55    0.88
   6   1  -7    0.91    0.48
   5  -1  -7   27.00    1.45
  -5  -1   7   25.60    2.35
   5   1  -7   25.92    1.43
  -5   1   7   31.37    2.14
  -4  -1   7   17.05    1.78
   4  -1  -7   19.65    1.18
  -4   1   7   14.51    1.62
   4   1  -7   16.24    1.10
  -3  -1   7   28.79    1.83
   3  -1  -7   26.94    1.39
   3   1  -7   25.47    1.32
  -3   1   7   24.95    1.70
  -2  -1   7   21.52    1.18
  -2  -1   7   16.86    1.54
   2  -1  -7   17.03    1.09
  -2   1   7   16.56    1.52
  -2   1   7   15.10    1.01
   2   1  -7   18.43    1.09
  -1  -1   7   10.19    0.94
   1  -1  -7    7.91    0.86
  -1  -1   7    9.91    1.11
  -1   1   7    8.75    0.86
  -1   1   7   10.20    1.14
   1   1  -7    8.04    0.84
   0  -1  -7   17.66    1.11
   0  -1   7   18.22    1.07
   0  -1   7   20.27    1.26
   0   1   7   18.40    1.26
   0   1   7   17.62    1.04
   0   1  -7   18.30    1.07
   1  -1   7    0.71    0.37
  -1  -1  -7    0.80    0.40
   1  -1   7    0.81    0.45
  -1   1  -7    0.69    0.36
   1   1   7    0.37    0.36
   1   1   7    0.86    0.48
   2   1   7    1.29    0.43
   2   1   7    1.25    0.50
   3  -1   7    0.72    0.39
   3   1   7    0.09    0.34
   4  -1   7    2.29    0.52
   4   1   7    1.46    0.44
   5  -1   7   38.80    1.62
   6  -1   7    4.14    0.64
 -10  -2   7    2.20    1.41
  10  -2  -7   -0.20    0.53
 -10   2   7   -0.66    1.09
  10   2  -7    0.47    0.60
  -9  -2   7    6.69    1.72
   9  -2  -7    9.59    1.17
  -9   2   7    8.94    1.82
   9   2  -7    6.39    1.04
  -8  -2   7   -0.47    0.91
   8  -2  -7    0.79    0.58
   8   2  -7    1.44    0.64
  -8   2   7    2.12    1.14
   7  -2  -7   96.30    3.14
  -7  -2   7  101.86    4.49
  -7   2   7   90.93    4.07
   7   2  -7   95.93    3.19
   6  -2  -7    3.13    1.06
   6  -2  -7    5.83    0.87
  -6  -2   7    7.22    1.43
  -6   2   7    6.67    1.36
   6   2  -7    6.47    0.90
   5  -2  -7   21.65    2.05
   5  -2  -7   18.34    1.25
  -5  -2   7   17.52    2.00
  -5   2   7   18.44    1.95
   5   2  -7   19.65    1.25
   4  -2  -7    5.46    0.79
  -4  -2   7    5.05    1.10
   4   2  -7    5.68    0.77
  -4   2   7    6.23    1.12
   3  -2  -7    1.44    0.48
  -3  -2   7    3.72    0.91
  -3   2   7    1.18    0.64
   3   2  -7    0.91    0.43
  -2  -2   7    0.34    0.53
   2  -2  -7    0.71    0.39
  -2  -2   7    0.95    0.42
  -2   2   7    1.73    0.64
  -2   2   7    0.97    0.40
   2   2  -7    0.53    0.34
   1  -2  -7  151.54    3.93
  -1  -2   7  158.92    4.23
  -1  -2   7  149.57    3.88
  -1   2   7  153.86    4.26
   1   2  -7  154.11    3.78
  -1   2   7  157.94    3.83
   0  -2   7   24.53    1.29
   0  -2  -7   22.44    1.28
   0  -2   7   22.98    1.36
   0   2   7   22.91    1.22
   0   2  -7   22.47    1.15
   0   2   7   22.32    1.38
  -1  -2  -7  107.47    3.11
   1  -2   7  100.14    2.93
   1  -2   7  105.95    2.98
   1   2   7  104.93    2.93
   1   2   7  108.74    3.19
   2  -2   7    2.64    0.57
   2  -2   7    3.27    0.60
   2   2   7    4.91    0.69
   2   2   7    3.43    0.70
   3  -2   7    4.02    0.65
   4  -2   7    5.92    0.74
   5  -2   7   14.01    0.97
   6  -2   7    2.15    0.55
  10  -3  -7    2.39    0.80
 -10  -3   7    1.27    1.28
 -10   3   7    1.83    1.31
  10   3  -7    1.15    0.72
  -9  -3   7   24.90    2.96
   9  -3  -7   27.45    1.70
   9   3  -7   26.54    1.74
  -9   3   7   25.92    2.77
   8  -3  -7    0.80    0.58
  -8  -3   7    0.82    1.08
  -8   3   7    1.38    1.04
   8   3  -7    1.00    0.62
   7  -3  -7   13.77    1.32
  -7  -3   7   14.95    2.12
  -7   3   7   18.05    2.11
   7   3  -7   15.29    1.41
   6  -3  -7   10.94    1.64
   6  -3  -7   14.27    1.29
  -6  -3   7   11.95    1.86
  -6   3   7   10.79    1.61
   6   3  -7   10.65    1.15
   5  -3  -7   65.69    3.23
   5  -3  -7   63.97    2.34
  -5  -3   7   60.10    3.06
  -5   3   7   56.74    2.83
   5   3  -7   59.87    2.31
   4  -3  -7    0.32    0.41
  -4  -3   7    0.33    0.64
  -4   3   7    0.11    0.57
   4   3  -7    0.42    0.38
   3  -3  -7   16.89    1.15
  -3  -3   7   20.54    1.85
  -3   3   7   16.12    1.57
   3   3  -7   16.61    1.09
  -2  -3   7   36.88    1.66
  -2  -3   7   37.03    1.92
   2  -3  -7   33.53    1.63
  -2   3   7   38.78    1.97
   2   3  -7   36.69    1.57
  -1  -3   7    0.71    0.54
  -1  -3   7    0.00    0.31
   1  -3  -7   -0.05    0.39
   1   3  -7    0.82    0.37
  -1   3   7   -0.11    0.40
   0  -3  -7    0.29    0.40
   0  -3   7    0.00    0.37
   0  -3   7   -0.01    0.33
   0   3  -7    0.39    0.32
   0   3   7    0.00    0.43
   1  -3   7   28.47    1.36
   1  -3   7   28.56    1.43
  -1  -3  -7   27.89    1.51
   1   3   7   26.04    1.45
   2  -3   7    5.15    0.76
   2  -3   7    4.76    0.67
   2   3   7    4.30    0.79
   3  -3   7   32.29    1.51
   4  -3   7    0.12    0.33
   5  -3   7    5.57    0.74
   6  -3   7   12.89    1.05
   7  -3   7   64.28    2.15
   9  -4  -7   31.72    1.87
  -9  -4   7   29.47    3.26
   9   4  -7   34.04    2.02
  -9   4   7   35.29    3.16
  -8  -4   7    6.76    1.76
   8  -4  -7   10.26    1.22
   8   4  -7    8.69    1.17
  -8   4   7   11.37    1.82
   7  -4  -7    3.17    0.75
  -7  -4   7    3.61    1.32
  -7   4   7    6.36    1.40
   7   4  -7    4.25    0.85
   6  -4  -7    1.60    0.57
  -6  -4   7    3.43    1.20
   6  -4  -7    1.48    0.89
  -6   4   7    0.95    0.72
   6   4  -7    0.97    0.53
   5  -4  -7   39.98    1.85
  -5  -4   7   41.14    2.61
   5  -4  -7   35.03    2.56
  -5   4   7   33.19    2.14
   5   4  -7   38.80    1.82
   4  -4  -7   21.42    1.39
   4  -4  -7   27.85    2.59
  -4  -4   7   25.36    2.23
  -4   4   7   25.18    1.82
   4   4  -7   26.89    1.44
  -3  -4   7   53.27    2.54
   3  -4  -7   54.99    2.17
  -3   4   7   51.31    2.38
   3   4  -7   54.17    2.04
  -2  -4   7   56.93    2.43
   2  -4  -7   56.28    2.19
  -2  -4   7   56.43    2.17
  -2   4   7   54.23    2.38
   2   4  -7   51.81    1.95
   1  -4  -7   42.04    1.86
  -1  -4   7   33.26    1.75
  -1  -4   7   36.77    1.73
  -1   4   7   42.53    1.92
   1   4  -7   39.65    1.61
   0  -4   7   10.32    1.04
   0  -4   7    9.64    1.00
   0  -4  -7    8.61    1.03
   0   4   7   11.93    1.22
   1  -4   7   55.34    1.93
   1  -4   7   60.71    2.18
  -1  -4  -7   59.26    2.33
   1   4   7   54.39    2.21
   2  -4   7   63.90    2.27
   2  -4   7   65.31    2.01
   2   4   7   64.78    2.43
   3  -4   7   24.17    1.32
   4  -4   7    0.15    0.37
   5  -4   7    2.57    0.56
   6  -4   7    4.49    0.67
   7  -4   7    0.83    0.42
   9  -5  -7    0.39    0.59
  -9  -5   7    0.54    1.22
   9   5  -7   -0.41    0.52
  -9   5   7    0.77    1.02
  -8  -5   7   -1.32    0.86
   8  -5  -7    0.10    0.56
   8   5  -7    0.02    0.53
  -8   5   7   -0.56    0.90
  -7  -5   7   57.49    3.53
   7  -5  -7   53.26    2.37
   7  -5  -7   58.07    3.40
   7   5  -7   58.40    2.50
  -7   5   7   55.77    3.00
  -6  -5   7   15.80    2.10
   6  -5  -7   16.43    1.44
   6  -5  -7   15.55    2.06
  -6   5   7   16.99    1.90
   6   5  -7   15.85    1.43
   5  -5  -7    5.61    0.89
   5  -5  -7    4.19    1.27
  -5  -5   7    5.21    1.32
  -5   5   7    3.50    0.99
   5   5  -7    4.87    0.84
   4  -5  -7   12.66    1.27
  -4  -5   7   14.39    1.76
   4  -5  -7   11.89    1.79
   4   5  -7   13.76    1.23
  -4   5   7   14.03    1.57
  -3  -5   7    2.41    0.84
   3  -5  -7    2.28    0.65
   3  -5  -7    2.06    0.92
  -3   5   7    2.10    0.76
   3   5  -7    2.19    0.56
  -2  -5   7   18.92    1.66
   2  -5  -7   19.56    1.34
  -2  -5   7   19.39    1.31
  -2   5   7   19.64    1.44
   2   5  -7   21.45    1.23
  -1  -5   7    8.67    1.02
   1  -5  -7   10.42    1.15
  -1  -5   7    7.74    1.02
  -1   5   7    9.34    1.13
   0  -5   7    8.12    0.92
   0  -5  -7    7.21    1.02
   0  -5   7    5.72    0.86
   0   5   7    6.67    0.98
   1  -5   7   18.03    1.23
  -1  -5  -7   22.95    1.50
   1  -5   7   17.57    1.04
   1   5   7   16.78    1.49
   2  -5   7    0.26    0.35
   2  -5   7   -0.46    0.31
   3  -5   7    8.13    0.95
   4  -5   7    6.30    0.83
   5  -5   7   89.72    2.78
   6  -5   7    1.00    0.45
   7  -5   7    1.54    0.48
   8  -5   7   17.69    1.09
  -9  -6   7    0.03    1.19
   9  -6  -7    0.39    0.64
  -9   6   7    1.36    1.12
   9   6  -7    0.53    0.68
  -8  -6   7    0.68    1.20
   8  -6  -7    1.38    0.66
   8   6  -7    2.64    0.85
  -8   6   7    2.21    1.08
   7  -6  -7   16.78    2.12
   7  -6  -7   20.91    1.72
  -7  -6   7   14.87    2.25
  -7   6   7   21.28    2.21
   7   6  -7   18.20    1.62
   6  -6  -7   24.37    1.61
  -6  -6   7   22.58    2.52
   6  -6  -7   21.96    2.54
  -6   6   7   24.06    2.24
   6   6  -7   18.98    1.60
   5  -6  -7    6.19    1.46
  -5  -6   7    3.71    1.23
   5  -6  -7    3.71    0.82
  -5   6   7    2.14    0.91
   5   6  -7    4.82    0.84
   4  -6  -7   21.01    1.43
  -4  -6   7   17.48    1.94
   4  -6  -7   15.67    2.16
  -4   6   7   22.21    1.93
   4   6  -7   19.08    1.29
  -3  -6   7    1.64    0.81
   3  -6  -7    1.02    0.85
   3  -6  -7   -0.40    0.42
   3   6  -7    0.90    0.47
  -3   6   7    1.96    0.75
  -2  -6   7   23.02    1.59
   2  -6  -7   20.63    2.30
   2  -6  -7   19.45    1.41
  -2  -6   7   21.28    1.46
  -2   6   7   23.02    1.52
  -1  -6   7   84.18    2.93
  -1  -6   7   83.43    2.77
   1  -6  -7   80.20    2.98
  -1   6   7   78.57    2.88
   0  -6   7   98.70    2.77
   0  -6  -7   93.97    3.25
   0  -6   7   93.99    3.12
   0   6   7   93.36    3.11
   1  -6   7   36.30    1.82
   1  -6   7   38.68    1.43
   1   6   7   36.08    1.86
   2  -6   7    0.41    0.48
   3  -6   7    2.36    0.63
   4  -6   7   28.08    1.55
   5  -6   7    2.10    0.60
   6  -6   7   13.58    1.16
   7  -6   7    0.12    0.40
   8  -6   7    1.16    0.46
   9  -7  -7   26.46    1.87
  -9  -7   7   27.93    3.42
   9   7  -7   31.69    2.10
  -9   7   7   29.80    2.76
  -8  -7   7    6.27    1.83
   8  -7  -7    8.89    1.27
   8   7  -7    8.26    1.25
  -8   7   7    6.84    1.50
  -7  -7   7    0.02    1.10
   7  -7  -7   -0.39    0.49
   7  -7  -7    1.16    0.92
  -7   7   7    1.45    0.94
   7   7  -7   -0.56    0.51
   6  -7  -7   -0.31    0.83
  -6  -7   7    0.53    1.07
   6  -7  -7    0.34    0.58
  -6   7   7    0.77    0.78
   6   7  -7    0.41    0.54
  -5  -7   7   30.43    2.77
   5  -7  -7   29.12    2.98
   5  -7  -7   34.01    1.94
  -5   7   7   30.63    2.02
   5   7  -7   30.19    1.74
   4  -7  -7   37.24    2.87
   4  -7  -7   41.87    2.11
  -4  -7   7   38.83    2.42
  -4   7   7   38.52    2.15
   3  -7  -7   -0.29    0.48
  -3  -7   7    1.70    0.84
   3  -7  -7    2.25    1.05
  -3   7   7    1.90    0.69
   2  -7  -7    2.56    0.76
   2  -7  -7    3.02    1.15
  -2  -7   7    2.02    0.73
  -2  -7   7    4.61    0.95
  -2   7   7    3.69    0.82
   1  -7  -7    1.98    0.69
  -1  -7   7    1.84    0.62
   1  -7  -7    2.28    1.06
  -1  -7   7    1.75    0.64
  -1   7   7    2.73    0.76
   0  -7   7   15.11    1.42
   0  -7   7   17.19    1.08
   0  -7  -7   15.55    1.56
   0   7   7   17.78    1.53
   1  -7   7    6.27    0.95
   1   7   7    5.40    0.93
   2  -7   7    2.69    0.70
   3  -7   7   24.46    1.53
   4  -7   7   -0.68    0.42
   5  -7   7    0.75    0.51
   6  -7   7   19.17    1.27
   7  -7   7   47.75    1.92
   8  -7   7    2.42    0.58
   9  -7   7   -0.06    0.41
   8  -8  -7   12.43    1.53
  -8  -8   7   10.73    2.22
  -8   8   7   10.25    1.68
  -7  -8   7   -0.67    1.02
   7  -8  -7    0.18    0.61
   7  -8  -7   -1.03    0.77
  -7   8   7    1.43    0.94
   6  -8  -7   -0.48    0.72
  -6  -8   7    1.53    1.08
   6  -8  -7   -0.03    0.63
  -6   8   7    0.42    0.75
   5  -8  -7    1.94    1.18
   5  -8  -7    2.53    0.79
  -5  -8   7    2.32    1.13
  -5   8   7    1.43    0.86
   4  -8  -7   33.61    2.00
   4  -8  -7   27.99    2.94
  -4  -8   7   25.75    2.36
  -4   8   7   30.51    1.94
   3  -8  -7   19.62    1.79
  -3  -8   7   21.15    1.98
   3  -8  -7   23.08    2.76
  -3   8   7   20.92    1.51
  -2  -8   7   68.45    2.73
   2  -8  -7   75.61    3.02
   2  -8  -7   73.36    3.98
  -2   8   7   69.77    2.77
   1  -8  -7   15.79    2.14
   1  -8  -7   17.14    1.67
  -1  -8   7   18.87    1.26
  -1  -8   7   19.61    1.71
  -1   8   7   18.52    1.61
   0  -8  -7    4.60    1.29
   0  -8  -7    3.45    0.89
   0  -8   7    5.20    0.95
   0   8   7    4.97    0.91
   1  -8   7   40.65    2.06
  -1  -8  -7   37.65    2.71
   2  -8   7   58.39    2.47
  -2  -8  -7   54.38    3.16
   3  -8   7    5.38    0.93
  -3  -8  -7    5.89    1.33
  -4  -8  -7    5.06    1.26
   4  -8   7    2.88    0.73
   5  -8   7   -0.58    0.43
  -5  -8  -7    0.91    0.86
   6  -8   7    0.15    0.48
   7  -8   7   12.91    1.20
   8  -8   7    3.57    0.69
   8  -9  -7    0.75    0.77
   8  -9  -7    0.86    1.02
  -8  -9   7    2.01    1.33
  -8   9   7   -0.05    0.89
  -7  -9   7   32.26    3.34
   7  -9  -7   39.01    2.32
   7  -9  -7   26.59    3.00
  -7   9   7   37.34    2.35
   6  -9  -7   29.01    2.00
  -6  -9   7   29.99    3.02
   6  -9  -7   31.93    3.24
  -6   9   7   29.32    2.09
  -5  -9   7   -0.19    0.87
   5  -9  -7   -0.41    0.91
   5  -9  -7    1.00    0.70
  -5   9   7    0.42    0.70
  -4  -9   7    0.12    0.86
   4  -9  -7    0.38    0.65
   4  -9  -7    0.39    0.94
  -4   9   7   -0.27    0.53
   3  -9  -7    1.13    0.66
  -3  -9   7    0.12    0.74
   3  -9  -7    1.16    1.02
  -3   9   7    1.38    0.69
  -2  -9   7   51.60    2.35
   2  -9  -7   52.18    3.50
   2  -9  -7   56.33    2.70
  -2   9   7   55.39    2.40
   1  -9  -7    2.19    1.16
   1  -9  -7    0.37    0.62
  -1  -9   7    1.00    0.64
  -1   9   7    1.62    0.65
   0  -9   7    0.90    0.61
   0  -9  -7    3.65    1.24
   0   9   7    1.16    0.64
  -1  -9  -7   14.15    2.04
   1  -9   7   12.94    1.44
   2  -9   7   13.83    1.48
  -2  -9  -7   17.41    2.24
  -3  -9  -7    3.77    1.25
   3  -9   7    6.23    1.02
  -4  -9  -7   13.07    1.99
   4  -9   7   13.07    1.40
  -5  -9  -7   43.80    2.91
   5  -9   7   40.53    2.06
   6  -9   7    0.63    0.55
   7  -9   7    0.14    0.52
   8  -9   7   10.08    1.05
  -8 -10   7    1.64    1.47
   8 -10  -7    1.80    0.94
   8 -10  -7    1.41    1.19
  -7 -10   7    2.39    1.49
   7 -10  -7    0.49    1.02
   7 -10  -7    1.28    0.81
  -6 -10   7   18.75    2.45
   6 -10  -7   13.58    2.28
   6 -10  -7   21.00    2.00
  -6  10   7   24.14    2.11
   5 -10  -7    0.64    0.99
  -5 -10   7   -1.24    0.88
   5 -10  -7   -0.41    0.65
  -5  10   7   -0.02    0.66
   4 -10  -7   19.27    1.91
  -4 -10   7   19.75    2.14
   4 -10  -7   18.77    2.76
  -4  10   7   21.73    1.88
   3 -10  -7    6.02    1.64
   3 -10  -7    5.28    1.14
  -3  10   7    5.34    1.00
   2 -10  -7   12.69    2.13
   2 -10  -7    8.85    1.37
  -2  10   7   10.21    1.28
   1 -10  -7   37.41    2.37
   1 -10  -7   42.62    3.20
  -1 -10   7   44.22    2.41
  -1  10   7   42.29    2.10
   0 -10   7   65.23    2.95
   0 -10  -7   68.52    4.00
  -1 -10  -7    0.42    0.87
   1 -10   7    0.27    0.63
  -2 -10  -7    0.11    0.87
   2 -10   7    0.42    0.63
  -3 -10  -7   12.84    2.08
   3 -10   7   11.76    1.40
  -4 -10  -7   12.86    2.02
   4 -10   7   11.72    1.38
   5 -10   7   28.53    1.80
  -5 -10  -7   27.93    2.85
   6 -10   7    1.47    0.65
   7 -10   7    0.61    0.60
   7 -11  -7    1.11    0.85
  -7 -11   7    1.89    1.42
   7 -11  -7    1.52    1.25
   6 -11  -7    0.22    1.04
  -6 -11   7   -0.82    1.11
   6 -11  -7    0.73    0.80
  -5 -11   7    6.21    1.57
   5 -11  -7    6.72    1.76
   5 -11  -7    4.80    1.18
  -5  11   7    6.31    1.16
   4 -11  -7   57.30    2.96
   4 -11  -7   54.87    3.96
  -4  11   7   54.83    2.53
   3 -11  -7    4.25    1.12
   3 -11  -7    6.46    1.71
  -3  11   7    6.66    1.07
   2 -11  -7    6.97    1.34
   2 -11  -7    7.38    1.80
  -2  11   7    6.40    1.08
   1 -11  -7    7.25    1.77
  -1 -11   7    6.26    1.19
   1 -11  -7    5.74    1.23
  -1  11   7    5.28    0.98
   0 -11  -7   39.92    3.15
   0 -11   7   46.47    2.54
  -1 -11  -7    0.48    0.92
   1 -11   7    0.17    0.64
   2 -11   7   18.81    1.85
  -2 -11  -7   22.49    2.71
   3 -11   7   13.11    1.56
  -3 -11  -7   12.17    2.05
  -4 -11  -7    0.06    0.97
   4 -11   7    1.13    0.74
   5 -11   7    0.82    0.67
   6 -11   7   13.83    1.51
   7 -11   7   11.80    1.36
   6 -12  -7    0.20    0.85
   6 -12  -7   -0.02    0.97
   5 -12  -7    6.43    1.37
   5 -12  -7    7.67    1.96
   4 -12  -7    2.40    1.09
   4 -12  -7    1.12    1.19
   3 -12  -7    8.29    2.03
   3 -12  -7    7.20    1.40
  -3  12   7    8.40    1.19
   2 -12  -7   18.36    2.08
   2 -12  -7   14.05    2.47
  -2  12   7   21.08    1.80
   1 -12  -7   -1.17    0.71
   0 -12   7    1.62    0.80
   0 -12  -7    0.47    1.01
   1 -12   7   26.44    2.32
  -1 -12  -7   24.51    2.94
  -2 -12  -7   19.30    2.54
   2 -12   7   18.03    1.92
   3 -12   7   30.54    2.13
  -3 -12  -7   34.62    3.33
  -4 -12  -7    5.28    1.49
   4 -12   7    3.99    1.01
   5 -12   7    0.60    0.70
   6 -12   7    0.69    0.74
   5 -13  -7    1.76    1.36
   5 -13  -7    1.44    0.99
   4 -13  -7   -0.14    1.03
   4 -13  -7    2.80    1.15
   3 -13  -7    1.59    0.99
   3 -13  -7    1.03    1.32
   2 -13  -7   36.54    3.77
   1 -13  -7    8.22    2.02
   0 -13  -7   15.91    2.61
   0 -13   7   15.37    1.92
  -1 -13  -7    0.98    1.08
   1 -13   7    0.87    0.87
  -2 -13  -7   11.33    2.21
   2 -13   7   11.26    1.62
  -3 -13  -7    0.39    1.11
   3 -13   7    0.39    0.74
   4 -13   7   24.90    2.23
  -4 -13  -7   22.88    2.78
   5 -13   7    3.85    1.09
   4 -14  -7    1.33    1.03
   4 -14  -7    0.96    1.34
   3 -14  -7    1.36    1.12
   3 -14  -7    2.20    1.36
   2 -14  -7    2.23    1.48
   1 -14  -7   21.01    3.08
   0 -14  -7    5.87    1.83
   1 -14   7    5.47    1.34
  -1 -14  -7    6.73    1.85
  -2 -14  -7    2.78    1.44
   2 -14   7    3.16    1.14
   3 -14   7    5.60    1.27
  -3 -14  -7    5.77    1.79
   4 -14   7    0.78    0.89
  -4 -14  -7   -0.09    1.10
   3 -15  -7    3.65    1.61
   2 -15  -7    6.59    1.99
   1 -15  -7    6.80    1.94
   0 -15  -7   18.11    2.85
  -1 -15  -7    4.31    1.63
   1 -15   7    0.40    0.94
   2 -15   7   20.36    2.28
  -2 -15  -7   16.83    2.66
  -3 -15  -7    0.50    1.14
   3 -15   7    1.91    1.04
  -9   0   8    0.25    1.06
   9   0  -8   -0.11    0.55
   8   0  -8    3.54    0.83
  -8   0   8    2.42    1.28
  -7   0   8    0.39    0.83
   7   0  -8   -0.04    0.43
   6   0  -8    1.21    0.58
  -6   0   8    2.42    1.10
  -5   0   8    0.91    0.84
   5   0  -8   -0.13    0.42
   4   0  -8    2.99    0.66
  -4   0   8    4.11    1.02
  -3   0   8    0.73    0.68
   3   0  -8   -0.16    0.35
  -2   0   8   52.47    2.42
   2   0  -8   59.48    2.20
  -1   0   8    0.41    0.54
  -1   0   8    0.16    0.36
   1   0  -8    0.06    0.33
   0   0   8    9.25    1.10
   0   0  -8    8.65    0.96
   0   0   8   11.77    1.06
   1   0   8    0.60    0.51
   1   0   8    0.50    0.37
   2   0   8  259.19    6.00
   2   0   8  250.90    5.78
   3   0   8   -0.67    0.33
   4   0   8    5.40    0.80
   5   0   8   -0.31    0.34
  -9  -1   8    2.17    1.27
   9  -1  -8    0.77    0.62
  -9   1   8   -0.70    0.95
   9   1  -8    0.83    0.67
  -8  -1   8    1.46    1.14
   8  -1  -8    0.96    0.63
   8   1  -8    2.20    0.73
  -8   1   8    1.55    1.12
  -7  -1   8    2.72    1.19
   7  -1  -8    1.35    0.61
   7   1  -8    1.79    0.64
  -7   1   8    0.76    0.87
   6  -1  -8   29.37    1.67
  -6  -1   8   34.60    2.51
   6  -1  -8   29.31    2.28
  -6   1   8   32.72    2.83
   6   1  -8   33.17    1.77
  -5  -1   8    1.29    0.89
   5  -1  -8    2.48    0.64
  -5   1   8    3.14    1.01
   5   1  -8    3.43    0.74
  -4  -1   8   42.97    2.49
   4  -1  -8   41.89    1.92
  -4   1   8   43.51    2.39
   4   1  -8   41.86    1.88
   3  -1  -8   12.51    1.18
  -3  -1   8   14.43    1.62
   3   1  -8   11.77    1.12
  -3   1   8   12.13    1.49
   2  -1  -8   58.53    2.18
  -2  -1   8   57.87    2.15
  -2  -1   8   54.36    2.51
   2   1  -8   56.62    2.14
  -2   1   8   53.67    2.47
  -1  -1   8   10.40    1.25
   1  -1  -8   10.58    1.08
  -1  -1   8   15.23    1.24
  -1   1   8   11.75    1.33
  -1   1   8   13.70    1.16
   1   1  -8   12.39    1.12
   0  -1   8    6.13    0.93
   0  -1  -8    6.57    0.86
   0  -1   8    6.55    0.85
   0   1   8    8.15    0.92
   0   1   8    5.15    0.89
   1  -1   8    1.82    0.60
   1  -1   8    3.29    0.65
   1   1   8    4.24    0.79
   1   1   8    3.22    0.64
   2  -1   8   21.22    1.23
   2  -1   8   17.24    1.25
   2   1   8   15.57    1.41
   2   1   8   17.80    1.18
   3  -1   8    0.18    0.40
   3   1   8    0.08    0.38
   4  -1   8   13.32    1.16
   5  -1   8   12.69    1.16
   6  -1   8   31.01    1.53
   9  -2  -8    0.30    0.61
  -9  -2   8   -1.25    0.85
   9   2  -8    0.48    0.65
  -9   2   8    1.14    1.11
  -8  -2   8   36.49    3.41
   8  -2  -8   29.07    1.77
   8   2  -8   30.97    1.87
  -8   2   8   23.45    2.69
   7  -2  -8    5.76    0.95
  -7  -2   8    4.98    1.40
  -7   2   8    3.35    1.19
   7   2  -8    6.05    1.00
   6  -2  -8    2.51    0.72
  -6  -2   8    3.22    1.24
   6  -2  -8    3.28    1.05
   6   2  -8    3.06    0.75
  -6   2   8    2.29    1.01
  -5  -2   8    9.74    1.59
   5  -2  -8    5.75    0.92
   5   2  -8    5.68    0.86
  -5   2   8    7.21    1.35
   4  -2  -8   15.87    1.37
  -4  -2   8   14.36    1.77
  -4   2   8   17.34    1.84
   4   2  -8   15.44    1.31
   3  -2  -8    3.01    0.67
  -3  -2   8    3.87    0.94
  -3   2   8    4.23    1.01
   3   2  -8    3.19    0.64
  -2  -2   8    0.51    0.61
  -2  -2   8    0.54    0.39
   2  -2  -8    1.45    0.50
  -2   2   8    0.81    0.56
   2   2  -8    0.00    0.36
  -1  -2   8   27.03    1.63
   1  -2  -8   22.81    1.40
  -1  -2   8   24.81    1.39
  -1   2   8   25.06    1.58
  -1   2   8   27.82    1.41
   1   2  -8   25.86    1.39
   0  -2   8  112.94    3.40
   0  -2  -8  110.15    3.35
   0  -2   8  114.99    3.28
   0   2   8  118.85    3.59
   0   2   8  110.24    3.20
   1  -2   8    2.30    0.62
   1  -2   8    2.13    0.57
   1   2   8    3.78    0.77
   1   2   8    2.81    0.60
   2  -2   8    1.35    0.54
   2  -2   8    2.03    0.61
   2   2   8    1.65    0.62
   2   2   8    2.06    0.55
   3  -2   8    5.27    0.79
   4  -2   8  228.06    5.35
   5  -2   8   -0.25    0.37
   6  -2   8    8.88    0.98
  -9  -3   8    0.21    0.99
   9  -3  -8    0.20    0.63
  -9   3   8    0.97    1.03
   9   3  -8    1.31    0.75
  -8  -3   8    9.98    1.94
   8  -3  -8   11.29    1.31
  -8   3   8   12.13    1.99
   8   3  -8    9.28    1.21
  -7  -3   8    2.31    1.22
   7  -3  -8    0.82    0.58
   7   3  -8    0.74    0.60
  -7   3   8    1.68    1.02
   6  -3  -8    6.61    1.01
  -6  -3   8    5.98    1.49
   6  -3  -8    7.57    1.53
  -6   3   8    7.77    1.46
   6   3  -8    8.33    1.10
   5  -3  -8    8.86    1.09
   5  -3  -8   12.77    1.78
  -5  -3   8   10.20    1.66
  -5   3   8    7.22    1.36
   5   3  -8    9.83    1.11
   4  -3  -8   67.94    2.61
  -4  -3   8   78.54    3.41
   4   3  -8   75.84    2.65
  -4   3   8   77.61    3.29
   3  -3  -8    0.15    0.43
  -3  -3   8   -0.20    0.60
   3   3  -8    0.54    0.45
  -3   3   8   -0.27    0.50
  -2  -3   8   49.16    2.05
   2  -3  -8   47.25    2.05
  -2  -3   8   45.90    2.28
   2   3  -8   44.09    1.87
  -2   3   8   46.22    2.31
   1  -3  -8    2.05    0.62
  -1  -3   8    1.96    0.58
  -1  -3   8    0.79    0.56
  -1   3   8    2.64    0.75
   0  -3  -8   -0.13    0.38
   0  -3   8   -0.31    0.42
   0  -3   8   -0.37    0.36
   0   3   8    0.33    0.50
   1  -3   8    0.90    0.48
   1  -3   8   -0.17    0.37
   1   3   8    0.86    0.59
   2  -3   8   -0.54    0.35
   2  -3   8    0.21    0.40
   2   3   8    0.09    0.46
   3  -3   8    7.66    0.92
   4  -3   8   49.45    2.01
   5  -3   8    1.41    0.51
   6  -3   8    2.92    0.65
   7  -3   8   22.36    1.32
  -9  -4   8    1.03    1.27
   9  -4  -8    2.26    0.79
  -9   4   8    1.90    1.18
   9   4  -8    2.04    0.84
   8  -4  -8    2.40    0.78
  -8  -4   8    3.41    1.37
   8   4  -8    2.55    0.82
  -8   4   8    4.74    1.39
   7  -4  -8    4.71    0.91
  -7  -4   8    7.16    1.60
   7   4  -8    5.94    1.02
  -7   4   8    6.92    1.42
  -6  -4   8    0.95    0.95
   6  -4  -8   -0.63    0.44
   6  -4  -8    0.11    0.76
   6   4  -8   -0.04    0.47
  -6   4   8    0.70    0.77
   5  -4  -8    9.91    1.21
   5  -4  -8   11.60    1.84
  -5  -4   8   10.07    1.65
   5   4  -8    8.57    1.10
  -5   4   8    8.57    1.46
  -4  -4   8    1.66    0.87
   4  -4  -8    1.92    0.62
   4   4  -8    1.22    0.53
  -4   4   8    3.01    0.91
  -3  -4   8   61.45    2.83
   3  -4  -8   60.17    2.45
   3   4  -8   63.32    2.34
  -3   4   8   57.08    2.68
  -2  -4   8   40.06    1.90
  -2  -4   8   36.72    2.08
   2  -4  -8   41.24    1.95
  -2   4   8   36.73    2.06
   2   4  -8   36.70    1.72
  -1  -4   8    3.50    0.81
   1  -4  -8    4.19    0.82
  -1  -4   8    3.41    0.71
  -1   4   8    3.26    0.80
   0  -4  -8    5.99    0.93
   0  -4   8    9.63    1.10
   0  -4   8    7.20    0.95
   0   4   8   10.48    1.23
   1  -4   8   51.04    2.12
   1  -4   8   49.69    1.91
   1   4   8   49.03    2.20
   2  -4   8  151.01    3.80
   2  -4   8  152.39    4.14
   2   4   8  156.88    4.40
   3  -4   8    0.67    0.50
   4  -4   8    2.63    0.65
   5  -4   8    0.90    0.49
   6  -4   8   62.73    2.29
   7  -4   8    0.51    0.46
  -9  -5   8    5.37    1.74
   9  -5  -8    4.70    1.03
   9   5  -8    5.57    1.10
  -9   5   8    5.18    1.52
  -8  -5   8    1.96    1.26
   8  -5  -8    1.66    0.73
   8   5  -8    0.90    0.70
  -8   5   8    0.46    1.01
   7  -5  -8    8.53    1.18
  -7  -5   8    7.52    1.70
   7  -5  -8    8.16    1.72
  -7   5   8    7.19    1.53
   7   5  -8    8.50    1.22
  -6  -5   8   29.49    2.86
   6  -5  -8   26.28    1.73
   6  -5  -8   25.16    2.66
   6   5  -8   25.88    1.70
  -6   5   8   26.19    2.47
  -5  -5   8   10.60    1.69
   5  -5  -8   10.11    1.24
   5  -5  -8    9.07    1.74
  -5   5   8    9.11    1.46
   5   5  -8    7.32    1.05
   4  -5  -8   27.44    1.69
  -4  -5   8   28.82    2.48
   4  -5  -8   22.43    2.48
  -4   5   8   29.43    1.97
   4   5  -8   25.02    1.54
  -3  -5   8    5.53    1.14
   3  -5  -8    4.31    0.86
  -3   5   8    5.28    1.03
   2  -5  -8   25.91    1.62
  -2  -5   8   28.79    1.67
  -2  -5   8   24.84    1.75
  -2   5   8   28.03    1.73
  -1  -5   8    2.53    0.71
   1  -5  -8    1.59    0.66
  -1  -5   8    2.30    0.68
  -1   5   8    2.53    0.76
   0  -5  -8   13.05    1.40
   0  -5   8   12.90    1.29
   0  -5   8   13.07    1.21
   0   5   8   11.80    1.32
   1  -5   8    9.01    0.94
   1  -5   8    9.05    1.08
   1   5   8    8.44    1.13
   2  -5   8   32.76    1.43
   2  -5   8   31.03    1.70
   3  -5   8    1.58    0.59
   4  -5   8    0.14    0.45
   5  -5   8   23.63    1.43
   6  -5   8   25.07    1.45
   7  -5   8   -0.64    0.38
   8  -5   8    5.66    0.82
   9  -6  -8    0.11    0.71
  -9  -6   8    0.43    1.35
   9   6  -8    0.07    0.70
  -9   6   8    0.28    1.02
  -8  -6   8    3.11    1.44
   8  -6  -8    4.27    0.97
  -8   6   8    2.60    1.21
   8   6  -8    3.42    0.96
   7  -6  -8    9.99    1.86
  -7  -6   8    7.99    1.83
   7  -6  -8   10.56    1.33
   7   6  -8   13.22    1.47
  -7   6   8    9.41    1.63
   6  -6  -8    2.86    0.82
  -6  -6   8    1.56    1.10
   6  -6  -8    1.91    1.05
  -6   6   8    2.95    1.06
   6   6  -8    1.88    0.71
   5  -6  -8   45.30    3.21
  -5  -6   8   42.34    2.79
   5  -6  -8   44.84    2.26
  -5   6   8   42.10    2.47
   5   6  -8   46.23    2.19
  -4  -6   8   10.34    1.61
   4  -6  -8   11.04    1.31
   4  -6  -8   12.84    2.01
  -4   6   8   10.15    1.45
   3  -6  -8   15.58    2.14
  -3  -6   8   17.89    1.89
   3  -6  -8   16.97    1.59
  -3   6   8   15.30    1.64
   2  -6  -8    3.16    0.78
  -2  -6   8    3.27    0.89
  -2   6   8    4.33    0.95
  -1  -6   8  102.99    3.26
  -1  -6   8  100.71    3.39
   1  -6  -8   94.78    3.45
  -1   6   8  104.11    3.53
   0  -6   8   36.25    1.91
   0  -6   8   34.51    1.61
   0   6   8   36.70    1.94
   1  -6   8    0.60    0.45
   1  -6   8    0.16    0.46
   1   6   8    0.27    0.51
   2  -6   8   -0.42    0.42
   3  -6   8   25.64    1.57
   4  -6   8   89.99    3.04
   5  -6   8    2.28    0.65
   6  -6   8   -0.14    0.42
   7  -6   8    3.71    0.73
   8  -6   8    1.77    0.60
   8  -7  -8    5.21    1.08
  -8  -7   8    3.88    1.64
  -8   7   8    6.93    1.57
   7  -7  -8   16.93    2.27
  -7  -7   8   17.83    2.48
   7  -7  -8   17.72    1.78
  -7   7   8   19.59    2.20
  -6  -7   8   -0.39    0.89
   6  -7  -8    1.59    1.10
   6  -7  -8    0.76    0.68
  -6   7   8    0.55    0.82
   5  -7  -8    4.63    1.44
   5  -7  -8    5.88    1.10
  -5  -7   8    1.26    1.04
  -5   7   8    3.55    1.03
  -4  -7   8   32.41    2.28
   4  -7  -8   27.47    1.83
   4  -7  -8   27.70    3.04
  -4   7   8   28.19    1.95
   3  -7  -8   20.47    2.49
  -3  -7   8   15.42    1.78
   3  -7  -8   19.04    1.76
  -3   7   8   16.21    1.69
   2  -7  -8   37.66    3.41
  -2  -7   8   36.09    2.01
   2  -7  -8   34.27    2.06
  -2   7   8   37.57    2.05
   1  -7  -8    1.82    0.73
  -1  -7   8    1.55    0.71
  -1  -7   8    3.12    0.81
  -1   7   8    3.17    0.80
   0  -7   8    1.03    0.49
   0  -7   8    1.02    0.49
   0   7   8    0.66    0.55
   1  -7   8    1.18    0.57
   1   7   8    1.11    0.64
   2  -7   8    6.02    1.00
   3  -7   8   35.09    1.92
   4  -7   8   18.44    1.57
   5  -7   8    1.97    0.68
   6  -7   8   -0.11    0.48
   7  -7   8   22.50    1.41
   8  -7   8    7.76    0.95
   8  -8  -8   20.60    1.99
  -8  -8   8   17.88    2.62
  -8   8   8   18.18    2.15
  -7  -8   8    5.00    1.57
   7  -8  -8    5.82    1.15
   7  -8  -8    3.54    1.30
  -7   8   8    4.92    1.31
   6  -8  -8    5.01    1.60
   6  -8  -8    3.34    0.97
  -6  -8   8    3.05    1.28
  -6   8   8    3.87    1.19
   5  -8  -8   10.75    1.48
   5  -8  -8    9.83    1.98
  -5  -8   8    7.98    1.63
  -5   8   8    9.74    1.47
  -4  -8   8    2.15    1.05
   4  -8  -8    2.55    0.91
   4  -8  -8    2.02    1.15
  -4   8   8    2.70    0.88
  -3  -8   8   84.44    3.46
   3  -8  -8   93.51    4.78
   3  -8  -8   86.45    3.48
  -3   8   8   90.04    3.38
   2  -8  -8    1.32    0.99
   2  -8  -8    1.83    0.79
  -2  -8   8    1.41    0.76
  -2   8   8    1.92    0.76
   1  -8  -8    1.66    0.97
   1  -8  -8    0.18    0.67
  -1  -8   8    0.95    0.63
  -1   8   8    2.51    0.80
   0  -8  -8   -0.41    0.71
   0  -8   8    0.34    0.58
   0   8   8    0.90    0.64
   1  -8   8   74.85    3.02
   2  -8   8   17.29    1.64
   3  -8   8    1.26    0.66
   4  -8   8   16.97    1.57
   5  -8   8   -0.27    0.47
   6  -8   8   12.77    1.33
   7  -8   8    1.29    0.60
   8  -8   8   -0.80    0.45
   7  -9  -8    0.72    1.01
   7  -9  -8    1.48    0.86
  -7  -9   8    1.77    1.30
  -7   9   8   -1.16    0.79
  -6  -9   8    3.67    1.43
   6  -9  -8    4.67    1.50
   6  -9  -8    4.06    1.07
  -6   9   8    2.21    0.99
   5  -9  -8   36.88    3.70
  -5  -9   8   32.41    2.93
   5  -9  -8   37.98    2.35
  -5   9   8   36.60    2.27
   4  -9  -8    6.40    1.73
   4  -9  -8    8.84    1.37
  -4  -9   8   11.90    1.76
  -4   9   8    8.63    1.31
  -3  -9   8    0.77    0.77
   3  -9  -8   -0.02    0.58
   3  -9  -8    0.39    1.03
  -3   9   8    0.45    0.67
   2  -9  -8    8.02    1.81
   2  -9  -8    7.92    1.33
  -2   9   8    8.25    1.24
   1  -9  -8   19.34    2.57
  -1  -9   8   25.03    1.82
   1  -9  -8   19.19    1.94
  -1   9   8   17.96    1.68
   0  -9   8   24.51    1.79
   0  -9  -8   22.17    2.65
   0   9   8   22.61    1.64
   1  -9   8   18.46    1.77
  -1  -9  -8   15.87    2.29
  -2  -9  -8    5.11    1.46
   2  -9   8    5.22    1.03
  -3  -9  -8   -0.22    0.79
   3  -9   8   -0.45    0.52
  -4  -9  -8    3.16    1.25
   4  -9   8    3.64    0.89
  -5  -9  -8   22.65    2.61
   5  -9   8   25.10    1.72
   6  -9   8    1.19    0.67
   7  -9   8    5.26    0.93
  -7 -10   8    5.64    1.62
   7 -10  -8    5.79    1.65
   7 -10  -8    3.55    1.11
  -7  10   8    4.88    1.28
   6 -10  -8   16.48    2.51
  -6 -10   8   19.56    2.44
   6 -10  -8   17.36    1.96
  -6  10   8   15.05    1.82
  -5 -10   8   20.18    2.37
   5 -10  -8   19.85    2.05
   5 -10  -8   17.20    2.72
  -5  10   8   21.62    2.03
  -4 -10   8    1.77    1.11
   4 -10  -8    2.97    1.40
   4 -10  -8    2.36    0.94
  -4  10   8    1.80    0.84
   3 -10  -8    1.80    0.88
   3 -10  -8    1.17    1.08
  -3  10   8    0.62    0.71
   2 -10  -8   10.11    2.00
   2 -10  -8   13.22    1.68
  -2  10   8    9.14    1.28
   1 -10  -8   58.08    3.93
  -1  10   8   63.88    2.74
   0 -10   8    1.55    0.79
   0 -10  -8    2.45    1.22
   1 -10   8    1.63    0.75
  -1 -10  -8    3.63    1.45
   2 -10   8    8.18    1.31
  -2 -10  -8    3.77    1.37
  -3 -10  -8   13.51    2.22
   3 -10   8   15.93    1.67
   4 -10   8    6.89    1.21
  -4 -10  -8    8.84    1.81
  -5 -10  -8    3.07    1.33
   5 -10   8    3.82    0.94
   6 -10   8   13.34    1.49
   7 -10   8    3.90    0.91
   6 -11  -8    0.04    1.07
  -6 -11   8    0.89    1.26
   6 -11  -8    0.05    0.81
   5 -11  -8   -0.07    0.73
   5 -11  -8    0.11    1.00
  -5  11   8    1.09    0.76
   4 -11  -8    3.62    1.50
   4 -11  -8    3.49    1.08
  -4  11   8    4.63    1.05
   3 -11  -8   38.40    4.02
   3 -11  -8   36.47    2.47
  -3  11   8   37.85    2.16
   2 -11  -8   14.67    2.51
   2 -11  -8   17.77    2.07
  -2  11   8   16.27    1.67
   1 -11  -8    4.81    1.57
  -1  11   8    6.47    1.17
   0 -11   8    0.63    0.71
   0 -11  -8    1.88    1.18
   1 -11   8    2.86    0.95
  -1 -11  -8    2.01    1.19
   2 -11   8    5.10    1.14
  -2 -11  -8    6.09    1.64
  -3 -11  -8    8.36    1.84
   3 -11   8   15.03    1.71
   4 -11   8   -0.53    0.59
  -4 -11  -8    0.69    1.12
   5 -11   8    3.55    0.98
   6 -11   8    1.35    0.76
   6 -12  -8    6.74    1.41
   6 -12  -8    6.10    1.88
   5 -12  -8    0.46    0.96
   5 -12  -8    2.23    1.35
   4 -12  -8   16.43    2.05
   4 -12  -8   14.10    2.53
  -4  12   8   14.81    1.68
   3 -12  -8   15.93    2.05
   3 -12  -8   11.20    2.28
  -3  12   8   10.58    1.42
   2 -12  -8    1.61    1.33
  -2  12   8    1.53    0.83
   1 -12  -8   -0.57    0.92
   0 -12   8    0.30    0.79
   0 -12  -8    0.51    1.07
   1 -12   8   18.65    2.01
  -1 -12  -8   16.66    2.61
  -2 -12  -8    1.42    1.19
   2 -12   8    1.18    0.80
   3 -12   8    2.04    0.91
  -3 -12  -8    2.56    1.37
  -4 -12  -8   19.82    2.67
   4 -12   8   21.82    2.04
   5 -12   8    2.59    0.96
   5 -13  -8   28.76    2.76
   5 -13  -8   24.36    3.39
   4 -13  -8    3.83    1.64
   4 -13  -8    2.95    1.23
   3 -13  -8    2.44    1.45
   3 -13  -8    1.30    1.05
   2 -13  -8    5.14    1.84
   1 -13  -8   21.20    3.07
   0 -13  -8    7.96    1.96
   1 -13   8    4.25    1.12
  -1 -13  -8    6.49    1.90
  -2 -13  -8   -0.58    1.01
   2 -13   8    1.33    0.90
   3 -13   8   -0.27    0.70
  -3 -13  -8   -0.62    1.00
  -4 -13  -8    2.36    1.42
   4 -13   8    4.38    1.20
   3 -14  -8   -0.10    1.13
   2 -14  -8    8.58    2.25
   1 -14  -8    1.01    1.27
   0 -14  -8   10.30    2.27
   1 -14   8    3.14    1.17
  -1 -14  -8    3.06    1.56
   2 -14   8    5.13    1.32
  -2 -14  -8    4.81    1.64
  -3 -14  -8    4.41    1.66
   3 -14   8    3.77    1.21
   1 -15  -8    0.72    1.37
   0 -15  -8    2.68    1.57
  -1 -15  -8    9.08    2.16
   9   0  -9    8.24    1.26
  -9   0   9   10.05    1.99
   8   0  -9    0.40    0.60
  -8   0   9    1.44    1.10
  -7   0   9    0.17    0.95
   7   0  -9   -0.39    0.51
  -6   0   9    0.56    0.85
   6   0  -9   -0.19    0.45
   5   0  -9   -0.04    0.46
  -5   0   9    2.32    1.00
   4   0  -9    0.42    0.49
  -4   0   9    0.34    0.72
  -3   0   9    8.69    1.38
   3   0  -9    9.27    1.11
  -2   0   9    0.19    0.59
   2   0  -9    0.05    0.39
  -1   0   9    8.80    1.25
  -1   0   9   10.95    1.13
   0   0   9   -0.03    0.38
   0   0   9    0.01    0.50
   1   0   9   24.20    1.42
   1   0   9   20.79    1.46
   2   0   9   -0.45    0.45
   2   0   9   -0.02    0.37
   3   0   9    0.36    0.46
   4   0   9    0.32    0.46
   9  -1  -9   -0.05    0.62
  -9  -1   9    1.03    1.13
  -9   1   9   -0.11    1.04
   9   1  -9   -0.61    0.63
   8  -1  -9   26.31    1.81
  -8  -1   9   23.14    2.80
   8   1  -9   27.71    1.83
  -8   1   9   24.12    2.74
   7  -1  -9    1.43    0.72
  -7  -1   9   -0.29    0.84
   7   1  -9   -0.07    0.52
  -7   1   9    0.87    0.97
   6  -1  -9   53.26    3.13
  -6  -1   9   54.90    3.28
   6  -1  -9   58.18    2.57
  -6   1   9   53.65    3.14
   6   1  -9   56.34    2.47
   5  -1  -9    9.10    1.17
  -5  -1   9    7.69    1.47
  -5   1   9   10.21    1.63
   5   1  -9    9.49    1.17
  -4  -1   9   79.02    3.49
   4  -1  -9   72.38    2.79
   4   1  -9   79.26    2.84
  -4   1   9   77.19    3.46
  -3  -1   9   24.83    2.21
   3  -1  -9   25.32    1.54
   3   1  -9   26.20    1.57
  -3   1   9   29.61    2.03
  -2  -1   9   88.33    3.42
   2  -1  -9   95.22    3.11
   2   1  -9   95.34    3.08
  -2   1   9   88.27    3.44
  -1  -1   9    0.37    0.62
  -1  -1   9   -0.04    0.40
  -1   1   9   -0.03    0.51
   0  -1   9   49.80    2.27
   0  -1   9   51.73    2.10
   0   1   9   51.87    2.34
   0   1   9   47.82    2.02
   1  -1   9    0.33    0.42
   1  -1   9    0.54    0.54
   1   1   9    0.02    0.49
   1   1   9   -0.24    0.38
   2  -1   9   18.93    1.56
   2  -1   9   18.91    1.29
   2   1   9   19.08    1.31
   2   1   9   19.55    1.67
   3  -1   9   19.72    1.30
   3   1   9   16.86    1.41
   5  -1   9   -0.10    0.47
  -9  -2   9    3.85    1.56
   9  -2  -9    2.15    0.84
  -9   2   9    5.48    1.61
   9   2  -9    5.75    1.11
   8  -2  -9    0.11    0.66
  -8  -2   9    0.59    1.14
  -8   2   9    2.10    1.25
   8   2  -9    0.70    0.66
  -7  -2   9    1.18    1.15
   7  -2  -9    2.70    0.79
   7   2  -9    0.72    0.66
  -7   2   9    3.03    1.21
   6  -2  -9    0.36    0.83
  -6  -2   9   -0.47    0.87
   6  -2  -9   -0.76    0.41
  -6   2   9   -0.09    0.78
   6   2  -9   -0.03    0.49
  -5  -2   9   12.07    1.82
   5  -2  -9   14.17    1.42
  -5   2   9   12.84    1.79
   5   2  -9   14.50    1.43
   4  -2  -9    1.99    0.65
  -4  -2   9    2.90    1.02
  -4   2   9    4.28    1.11
   4   2  -9    4.06    0.83
  -3  -2   9    0.52    0.77
   3  -2  -9    1.22    0.55
   3   2  -9    1.47    0.54
  -3   2   9    0.59    0.63
   2  -2  -9    0.18    0.44
  -2  -2   9    0.66    0.70
  -2   2   9   -0.13    0.59
   1  -2  -9    9.37    1.13
  -1  -2   9   10.34    1.11
  -1  -2   9   11.43    1.38
  -1   2   9    8.04    1.21
   0  -2   9    0.87    0.62
   0  -2   9    0.63    0.44
   0   2   9    0.74    0.64
   0   2   9    1.38    0.53
   1  -2   9    8.42    1.04
   1  -2   9   10.86    1.19
   1   2   9    9.62    1.05
   1   2   9    9.07    1.20
   2  -2   9    1.96    0.59
   2  -2   9    1.28    0.56
   2   2   9    0.36    0.55
   2   2   9    0.68    0.46
   3  -2   9   31.61    1.64
   4  -2   9    5.64    0.88
   5  -2   9    0.16    0.49
   6  -2   9    0.83    0.53
   9  -3  -9    2.80    0.93
  -9  -3   9    5.62    1.76
   9   3  -9    5.00    1.10
  -9   3   9    3.23    1.41
  -8  -3   9   10.89    2.12
   8  -3  -9   14.17    1.56
   8   3  -9   13.51    1.55
  -8   3   9   12.72    2.00
   7  -3  -9    4.76    0.97
  -7  -3   9    6.32    1.56
  -7   3   9    5.46    1.46
   7   3  -9    4.72    0.97
   6  -3  -9   27.25    2.73
  -6  -3   9   28.80    2.86
   6  -3  -9   31.39    1.91
   6   3  -9   29.45    1.83
  -6   3   9   26.24    2.59
  -5  -3   9    5.58    1.35
   5  -3  -9    6.91    1.07
   5  -3  -9    4.69    1.32
   5   3  -9    4.75    0.91
  -5   3   9    5.41    1.27
  -4  -3   9   88.88    3.79
   4  -3  -9   79.67    3.01
   4   3  -9   83.16    2.98
  -4   3   9   81.54    3.53
   3  -3  -9    7.42    1.05
  -3  -3   9    7.71    1.35
  -3   3   9    7.79    1.30
  -2  -3   9   31.11    2.02
   2  -3  -9   31.91    1.78
  -2   3   9   34.24    2.06
  -1  -3   9   23.08    1.90
  -1  -3   9   21.11    1.42
   1  -3  -9   21.85    1.50
  -1   3   9   21.19    1.86
   0  -3   9   56.42    2.35
   0  -3   9   61.02    2.39
   0   3   9   65.14    2.70
   1  -3   9   40.13    1.88
   1  -3   9   41.01    1.92
   1   3   9   38.39    2.00
   2  -3   9    1.30    0.57
   2  -3   9    1.90    0.60
   2   3   9    2.70    0.78
   3  -3   9    4.19    0.79
   4  -3   9    4.08    0.78
   5  -3   9   23.08    1.46
   6  -3   9    0.83    0.54
   7  -3   9    2.81    0.70
   8  -4  -9    2.81    0.87
  -8  -4   9    0.70    1.16
   8   4  -9    0.02    0.67
  -8   4   9    2.63    1.23
   7  -4  -9    1.90    0.80
  -7  -4   9    0.86    1.12
   7   4  -9    2.25    0.80
  -7   4   9   -0.10    0.86
  -6  -4   9    4.54    1.40
   6  -4  -9    6.31    1.53
   6  -4  -9    9.81    1.31
  -6   4   9    8.69    1.62
   6   4  -9    6.93    1.10
   5  -4  -9    0.69    0.62
  -5  -4   9   -0.73    0.71
   5  -4  -9   -0.34    0.72
  -5   4   9   -0.23    0.68
   5   4  -9    1.12    0.57
   4  -4  -9    0.33    0.55
  -4  -4   9    1.21    0.87
  -4   4   9    0.76    0.78
   3  -4  -9   29.89    1.80
  -3  -4   9   28.01    2.36
  -3   4   9   27.86    2.00
  -2  -4   9    3.70    0.96
   2  -4  -9    2.82    0.78
  -2   4   9    3.92    0.98
  -1  -4   9    7.82    1.06
  -1  -4   9    5.31    1.00
   1  -4  -9    6.28    1.03
  -1   4   9    5.97    1.08
   0  -4   9    0.24    0.47
   0  -4   9    0.44    0.49
   0   4   9    0.86    0.64
   1  -4   9   11.72    1.24
   1  -4   9   10.48    1.15
   1   4   9   10.18    1.31
   2  -4   9    2.54    0.63
   2  -4   9    2.13    0.66
   2   4   9    1.68    0.69
   3  -4   9   -0.11    0.40
   4  -4   9    2.16    0.62
   5  -4   9   13.76    1.31
   6  -4   9    5.94    0.89
   7  -4   9    3.86    0.78
   8  -5  -9   12.73    1.57
  -8  -5   9   14.49    2.37
   8   5  -9   12.66    1.58
  -8   5   9    9.20    1.83
   7  -5  -9    3.63    1.37
   7  -5  -9    4.42    1.02
  -7  -5   9    5.21    1.58
  -7   5   9    2.35    1.13
   7   5  -9    3.07    0.89
   6  -5  -9   23.63    1.73
  -6  -5   9   18.94    2.40
   6  -5  -9   23.78    2.78
  -6   5   9   17.85    2.17
  -5  -5   9    5.41    1.41
   5  -5  -9    5.95    1.09
   5  -5  -9    7.65    1.72
  -5   5   9    8.91    1.49
  -4  -5   9   15.16    1.96
   4  -5  -9   17.25    2.39
   4  -5  -9   15.26    1.57
  -4   5   9   14.65    1.77
  -3  -5   9   19.57    1.95
   3  -5  -9   15.93    1.57
  -3   5   9   15.99    1.78
   2  -5  -9   55.61    2.55
  -2  -5   9   58.40    2.74
  -2   5   9   57.02    2.67
  -1  -5   9   22.78    1.60
  -1  -5   9   24.21    1.65
   1  -5  -9   26.47    1.75
  -1   5   9   27.22    1.85
   0  -5   9   -0.01    0.52
   0  -5   9    2.82    0.76
   0   5   9    0.56    0.66
   1  -5   9    8.61    1.12
   1  -5   9    8.34    0.98
   1   5   9    9.83    1.31
   2  -5   9   20.60    1.25
   2  -5   9   23.25    1.54
   3  -5   9   88.49    3.14
   4  -5   9    1.02    0.56
   5  -5   9    7.69    1.03
   6  -5   9   -0.12    0.44
   7  -5   9    7.14    1.00
   8  -5   9    0.10    0.52
   8  -6  -9    8.51    1.35
  -8  -6   9    8.73    2.01
  -8   6   9   10.04    1.84
  -7  -6   9    0.95    1.15
   7  -6  -9   -0.64    0.87
   7  -6  -9   -0.60    0.61
  -7   6   9   -0.74    0.76
   6  -6  -9   -0.24    0.91
  -6  -6   9    0.26    1.00
   6  -6  -9    0.52    0.63
  -6   6   9    0.19    0.82
   5  -6  -9   30.85    3.25
   5  -6  -9   29.02    1.96
  -5  -6   9   30.41    2.78
  -5   6   9   21.06    2.17
  -4  -6   9    9.59    1.59
   4  -6  -9    7.41    1.21
   4  -6  -9    8.94    1.85
  -4   6   9    8.75    1.43
   3  -6  -9    2.47    1.12
  -3  -6   9    1.42    0.83
   3  -6  -9    0.27    0.63
  -3   6   9   -0.16    0.60
  -2  -6   9    1.53    0.78
   2  -6  -9    0.46    0.62
  -2   6   9    0.56    0.61
  -1  -6   9    7.51    1.12
  -1  -6   9    8.94    1.20
  -1   6   9    9.29    1.32
   0  -6   9    1.02    0.56
   0  -6   9    1.06    0.61
   0   6   9    0.26    0.54
   1  -6   9    4.42    0.75
   1  -6   9    4.23    0.87
   1   6   9    3.02    0.88
   2  -6   9    2.40    0.76
   3  -6   9   15.27    1.48
   4  -6   9    7.15    1.05
   5  -6   9    0.99    0.59
   6  -6   9    0.76    0.55
   7  -6   9   -0.03    0.45
   8  -6   9    4.88    0.86
  -8  -7   9    2.13    1.38
   8  -7  -9    2.06    0.94
  -8   7   9    1.66    1.07
   7  -7  -9   15.58    1.75
  -7  -7   9   13.64    2.23
   7  -7  -9   12.35    2.18
  -7   7   9   14.85    2.01
  -6  -7   9    4.81    1.43
   6  -7  -9    0.92    1.13
   6  -7  -9    2.42    0.91
  -6   7   9    1.79    1.02
   5  -7  -9    0.76    1.02
  -5  -7   9    1.68    1.12
   5  -7  -9    1.55    0.84
  -5   7   9    0.33    0.80
   4  -7  -9   13.39    2.32
  -4  -7   9    9.81    1.65
   4  -7  -9    7.75    1.25
  -4   7   9    9.64    1.50
   3  -7  -9   -0.56    0.52
  -3  -7   9   -0.23    0.74
   3  -7  -9   -0.46    0.75
  -3   7   9    0.30    0.64
  -2  -7   9   -0.58    0.63
   2  -7  -9   -0.78    0.75
   2  -7  -9    0.05    0.61
  -2   7   9    0.93    0.69
  -1  -7   9   14.74    1.57
  -1  -7   9   13.35    1.40
  -1   7   9   12.83    1.51
   0  -7   9   13.32    1.49
   0   7   9   14.84    1.60
   1  -7   9  111.66    3.77
   1   7   9   98.85    3.67
   2  -7   9    0.86    0.62
   3  -7   9    3.07    0.88
   4  -7   9    5.19    0.98
   5  -7   9   34.08    1.94
   6  -7   9    3.48    0.79
   7  -7   9   10.33    1.19
   7  -8  -9   11.26    2.04
  -7  -8   9   11.50    2.07
   7  -8  -9   15.21    1.80
  -7   8   9   10.64    1.79
  -6  -8   9   10.53    1.95
   6  -8  -9   11.35    1.58
   6  -8  -9    7.38    1.92
  -6   8   9    8.65    1.52
   5  -8  -9    1.52    1.13
   5  -8  -9    3.20    1.02
  -5  -8   9    4.36    1.35
  -5   8   9    2.45    0.99
  -4  -8   9   -0.01    0.91
   4  -8  -9   -0.90    0.57
   4  -8  -9    1.32    1.11
  -4   8   9    1.39    0.84
   3  -8  -9   26.12    2.29
   3  -8  -9   25.16    3.22
  -3  -8   9   25.80    2.27
  -3   8   9   26.86    1.91
   2  -8  -9    3.78    1.47
   2  -8  -9    2.52    0.91
  -2  -8   9    4.10    0.98
  -2   8   9    2.33    0.84
   1  -8  -9    1.41    1.01
  -1   8   9    1.70    0.76
   0  -8  -9    2.81    1.19
   0  -8   9    0.09    0.62
   0   8   9    1.39    0.77
   1  -8   9    4.20    0.97
   2  -8   9    2.98    0.87
   3  -8   9    1.79    0.75
   4  -8   9    1.89    0.76
   5  -8   9    1.45    0.75
   6  -8   9    6.32    1.06
   7  -8   9   12.34    1.30
  -7  -9   9    0.78    1.24
   7  -9  -9    0.14    1.03
   7  -9  -9    0.44    0.85
  -7   9   9    1.85    1.14
  -6  -9   9   -1.47    1.03
   6  -9  -9    1.03    1.30
   6  -9  -9    0.22    0.74
  -6   9   9    0.60    0.95
   5  -9  -9    4.10    1.63
   5  -9  -9    2.30    1.00
  -5  -9   9    1.44    1.19
  -5   9   9    4.32    1.15
   4  -9  -9    4.81    1.17
   4  -9  -9    6.70    1.80
  -4  -9   9    9.21    1.61
  -4   9   9    9.29    1.45
   3  -9  -9    4.91    1.16
   3  -9  -9    3.60    1.51
  -3   9   9    5.95    1.20
   2  -9  -9    2.17    1.21
  -2   9   9    1.72    0.78
   1  -9  -9   23.03    2.83
  -1   9   9   26.75    1.84
   0  -9   9    2.50    0.89
   0  -9  -9    0.52    1.06
   0   9   9    4.35    1.01
  -1  -9  -9   -0.29    0.91
   1  -9   9    0.77    0.66
  -2  -9  -9    3.87    1.39
   2  -9   9    5.82    1.12
   3  -9   9   69.23    3.02
  -3  -9  -9   62.78    3.87
  -4  -9  -9    1.52    1.13
   4  -9   9    1.53    0.77
   5  -9   9    4.90    1.04
  -5  -9  -9    4.10    1.47
   6  -9   9    2.62    0.87
   7  -9   9    4.96    0.92
  -6 -10   9   -0.39    1.14
   6 -10  -9    0.20    0.97
   6 -10  -9    0.46    0.87
  -6  10   9    0.29    0.83
   5 -10  -9   28.65    3.57
   5 -10  -9   37.50    2.55
  -5 -10   9   36.11    3.13
  -5  10   9   35.20    2.30
   4 -10  -9    1.45    1.22
   4 -10  -9    2.88    1.05
  -4  10   9    4.14    1.15
   3 -10  -9    1.42    1.30
   3 -10  -9    1.69    0.91
  -3  10   9    3.30    1.06
   2 -10  -9    0.29    1.13
  -2  10   9   -0.51    0.59
   1 -10  -9    7.60    1.82
  -1  10   9    8.65    1.35
   0 -10   9    0.09    0.68
   0 -10  -9    1.92    1.23
   0  10   9    0.66    0.70
  -1 -10  -9    3.13    1.31
   1 -10   9    1.74    0.84
  -2 -10  -9    1.34    1.05
   2 -10   9    0.37    0.66
   3 -10   9    1.88    0.86
  -3 -10  -9    0.65    1.00
  -4 -10  -9    4.33    1.50
   4 -10   9    6.57    1.25
   5 -10   9    6.01    1.16
  -5 -10  -9    3.41    1.47
   6 -10   9    0.42    0.65
   6 -11  -9    3.86    1.60
   6 -11  -9    6.25    1.43
  -6  11   9    4.62    1.26
   5 -11  -9    0.18    1.11
   5 -11  -9    0.16    0.89
  -5  11   9    0.41    0.85
   4 -11  -9   -0.65    1.08
   4 -11  -9    0.39    0.89
  -4  11   9   -0.55    0.63
   3 -11  -9    1.66    1.35
  -3  11   9    0.56    0.73
   2 -11  -9    8.94    2.15
  -2  11   9    9.94    1.41
   1 -11  -9   -0.50    0.91
  -1  11   9   -0.06    0.62
   0 -11  -9   -0.01    0.98
   1 -11   9   53.32    2.93
  -1 -11  -9   43.54    4.16
  -2 -11  -9   -0.91    0.88
   2 -11   9    0.15    0.69
   3 -11   9    1.11    0.79
  -3 -11  -9    0.93    1.26
   4 -11   9    3.44    1.04
  -4 -11  -9    4.57    1.60
   5 -11   9   15.97    1.78
   5 -12  -9   14.62    2.76
   5 -12  -9    9.77    1.78
  -5  12   9   10.81    1.57
   4 -12  -9    0.28    1.21
   4 -12  -9    1.35    1.08
  -4  12   9    1.42    0.86
   3 -12  -9   19.24    3.11
  -3  12   9   21.44    2.01
   2 -12  -9    1.70    1.31
  -2  12   9    0.34    0.73
   1 -12  -9   -0.70    0.98
   0 -12  -9   -1.05    0.95
  -1 -12  -9   -0.12    0.98
   1 -12   9    0.20    0.77
   2 -12   9    2.64    1.03
  -2 -12  -9    0.83    1.19
  -3 -12  -9    0.78    1.19
   3 -12   9    1.35    0.93
  -4 -12  -9    0.81    1.19
   4 -12   9    0.02    0.73
   4 -13  -9   13.17    2.65
   3 -13  -9    0.14    1.33
  -3  13   9   -0.29    0.77
   2 -13  -9    2.84    1.58
   1 -13  -9    8.18    2.11
   0 -13  -9    2.94    1.55
  -1 -13  -9    7.01    1.96
   1 -13   9    9.30    1.63
  -2 -13  -9    0.52    1.10
   2 -13   9   -0.82    0.75
  -3 -13  -9   25.93    3.29
   3 -13   9   28.03    2.57
   2 -14  -9    0.90    1.34
   1 -14  -9   -0.29    1.17
   0 -14  -9    0.18    1.24
  -1 -14  -9   -0.23    1.15
   2 -14   9    1.10    1.05
  -2 -14  -9   -1.44    1.03
   8   0 -10   57.32    2.87
  -8   0  10   58.58    3.73
  -7   0  10    0.12    0.94
   7   0 -10    0.19    0.63
   6   0 -10    0.69    0.66
  -6   0  10    1.68    1.04
  -5   0  10    1.16    0.93
   5   0 -10   -0.51    0.49
  -4   0  10    0.09    0.76
   4   0 -10    0.92    0.59
  -3   0  10    0.12    0.72
  -2   0  10    7.71    1.34
  -1   0  10   -0.13    0.60
   0   0  10  180.04    5.23
   0   0  10  191.29    4.96
   1   0  10    0.60    0.46
   1   0  10    0.13    0.57
   2   0  10   14.90    1.53
   2   0  10   14.95    1.41
   3   0  10    0.66    0.56
   4   0  10   43.69    2.10
   8  -1 -10   16.86    1.78
  -8  -1  10   16.83    2.50
  -8   1  10   15.14    2.30
   8   1 -10   15.89    1.72
   7  -1 -10    0.70    0.72
  -7  -1  10    0.57    1.02
  -7   1  10    0.09    0.87
   7   1 -10    1.76    0.81
  -6  -1  10   45.79    3.06
   6  -1 -10   43.07    2.33
   6   1 -10   45.36    2.35
  -6   1  10   46.92    3.05
  -5  -1  10    3.94    1.21
   5  -1 -10    3.73    0.88
   5   1 -10    3.39    0.86
  -5   1  10    2.18    1.09
  -4  -1  10   18.37    2.15
   4  -1 -10   22.63    1.85
   4   1 -10   14.52    1.49
  -4   1  10   17.71    2.05
   3  -1 -10    0.81    0.56
  -3  -1  10   -0.04    0.73
  -3   1  10   -0.26    0.65
  -2  -1  10   16.83    1.85
  -2   1  10   17.13    1.84
  -1  -1  10    0.69    0.69
  -1   1  10    1.70    0.76
   0  -1  10   10.88    1.21
   0  -1  10   10.24    1.33
   0   1  10   13.80    1.35
   0   1  10   14.19    1.58
   1  -1  10    4.06    0.89
   1  -1  10    2.06    0.64
   1   1  10    2.04    0.79
   1   1  10    2.64    0.72
   2  -1  10    0.50    0.63
   2  -1  10    0.86    0.56
   2   1  10    1.60    0.73
   2   1  10    0.48    0.53
   3  -1  10    0.79    0.54
   3   1  10    0.17    0.50
   4  -1  10   14.70    1.42
   5  -1  10    4.68    0.88
   8  -2 -10    0.60    0.70
  -8  -2  10   -0.29    0.95
   8   2 -10    0.47    0.71
  -8   2  10    0.62    1.09
  -7  -2  10    1.37    1.08
   7  -2 -10    2.59    0.92
   7   2 -10    1.86    0.82
  -7   2  10    1.21    1.07
   6  -2 -10   27.63    1.89
  -6  -2  10   23.79    2.65
   6  -2 -10   24.62    2.70
   6   2 -10   26.59    1.82
  -6   2  10   21.58    2.44
   5  -2 -10    9.55    1.30
  -5  -2  10    9.74    1.69
  -5   2  10    9.36    1.66
   5   2 -10   10.51    1.31
  -4  -2  10   -0.37    0.74
   4  -2 -10    0.89    0.60
  -4   2  10    0.88    0.83
   3  -2 -10    7.24    1.14
  -3  -2  10    9.59    1.54
  -3   2  10    9.82    1.53
  -2  -2  10   76.04    3.24
  -2   2  10   71.35    3.19
  -1  -2  10    0.27    0.67
  -1   2  10    0.27    0.63
   0  -2  10   21.54    1.84
   0  -2  10   21.27    1.49
   0   2  10   21.94    1.95
   1  -2  10    3.09    0.82
   1  -2  10    2.89    0.73
   1   2  10    3.58    0.87
   2  -2  10  142.06    4.18
   2  -2  10  144.03    4.17
   2   2  10  145.89    4.47
   3  -2  10    7.68    1.05
   4  -2  10    0.49    0.52
   5  -2  10    0.26    0.49
   6  -2  10    6.52    1.00
   8  -3 -10   17.95    1.88
  -8  -3  10   20.27    2.73
   8   3 -10   20.71    1.98
  -8   3  10   15.47    2.30
   7  -3 -10    8.48    1.30
  -7  -3  10    9.28    1.91
  -7   3  10   11.63    1.96
   7   3 -10   11.04    1.42
   6  -3 -10   24.77    1.81
  -6  -3  10   23.36    2.67
   6  -3 -10   26.73    2.89
   6   3 -10   24.59    1.79
  -6   3  10   24.07    2.58
  -5  -3  10    0.40    0.85
   5  -3 -10   -0.11    0.55
  -5   3  10   -0.41    0.73
   4  -3 -10   23.51    1.69
  -4  -3  10   21.60    2.31
  -4   3  10   24.14    2.33
  -3  -3  10   16.96    1.96
   3  -3 -10   17.57    1.66
  -3   3  10   12.58    1.67
  -2  -3  10   18.31    1.88
  -2   3  10   15.65    1.79
  -1  -3  10    0.95    0.72
  -1   3  10    0.54    0.68
   0  -3  10   11.66    1.36
   0  -3  10   10.30    1.24
   0   3  10   11.37    1.47
   1  -3  10    4.20    0.88
   1  -3  10    2.81    0.78
   1   3  10    4.27    0.95
   2  -3  10    5.14    0.92
   2  -3  10    4.06    0.85
   2   3  10    4.41    0.99
   3  -3  10    9.15    1.16
   4  -3  10   17.07    1.53
   5  -3  10   -0.27    0.46
   6  -3  10   29.19    1.75
   7  -3  10   12.33    1.29
  -8  -4  10   26.99    3.14
   8  -4 -10   26.95    2.28
  -8   4  10   24.06    2.76
   7  -4 -10   26.03    2.20
  -7  -4  10   22.45    2.80
  -7   4  10   25.61    2.72
   6  -4 -10    1.07    1.10
   6  -4 -10    1.46    0.76
  -6  -4  10   -0.40    0.94
  -6   4  10    3.03    1.15
  -5  -4  10   26.90    2.74
   5  -4 -10   26.75    1.89
   5  -4 -10   22.71    2.77
  -5   4  10   28.69    2.62
  -4  -4  10   -1.00    0.73
   4  -4 -10    0.05    0.57
  -4   4  10   -0.36    0.68
  -3  -4  10   14.74    1.84
   3  -4 -10   13.12    1.49
  -3   4  10   13.18    1.72
  -2  -4  10   16.07    1.76
  -2   4  10   15.20    1.71
  -1  -4  10   42.97    2.26
  -1   4  10   44.23    2.44
   0  -4  10  100.30    3.40
   0  -4  10  103.10    3.51
   0   4  10  104.43    3.76
   1  -4  10    3.19    0.78
   1  -4  10    4.21    0.85
   1   4  10    4.19    1.00
   2  -4  10   15.90    1.51
   2  -4  10   16.75    1.45
   2   4  10   17.73    1.78
   3  -4  10    2.95    0.78
   4  -4  10   21.77    1.55
   5  -4  10   14.27    1.40
   6  -4  10    1.31    0.63
   7  -4  10    4.11    0.91
  -8  -5  10   11.13    2.13
   8  -5 -10   12.69    1.65
  -8   5  10   12.35    2.05
   7  -5 -10    1.45    0.81
  -7  -5  10    0.09    1.13
  -7   5  10    2.32    1.20
  -6  -5  10   13.74    2.17
   6  -5 -10   19.53    2.69
   6  -5 -10   19.66    1.92
  -6   5  10   21.35    2.35
   5  -5 -10   16.57    1.79
  -5  -5  10   19.16    2.34
   5  -5 -10   16.34    2.38
  -5   5  10   18.14    2.14
   4  -5 -10   14.24    2.32
   4  -5 -10   12.54    1.56
  -4  -5  10   10.13    1.68
  -4   5  10   11.62    1.72
   3  -5 -10    2.80    0.85
  -3  -5  10    1.54    0.98
  -3   5  10    3.57    1.05
  -2  -5  10    8.62    1.35
  -2   5  10    8.62    1.35
  -1  -5  10   14.28    1.56
  -1   5  10   13.54    1.64
   0  -5  10   11.26    1.36
   0  -5  10   12.73    1.39
   0   5  10   11.41    1.48
   1  -5  10    0.57    0.60
   1  -5  10   -0.02    0.50
   1   5  10   -0.12    0.61
   2  -5  10   -0.10    0.52
   2  -5  10   -0.12    0.48
   3  -5  10    0.39    0.54
   4  -5  10    2.06    0.73
   5  -5  10   15.50    1.53
   6  -5  10   45.85    2.21
   7  -5  10    3.00    0.82
   7  -6 -10    3.77    1.09
  -7  -6  10    6.72    1.76
   7  -6 -10    3.68    1.53
  -7   6  10    5.93    1.47
   6  -6 -10   10.26    2.03
  -6  -6  10   11.66    2.06
   6  -6 -10   14.51    1.73
  -6   6  10   10.88    1.79
   5  -6 -10   28.87    3.34
   5  -6 -10   26.92    2.26
  -5  -6  10   23.77    2.58
  -5   6  10   25.52    2.52
  -4  -6  10   -0.39    0.82
   4  -6 -10    0.02    0.63
   4  -6 -10    1.59    1.08
  -4   6  10    0.73    0.79
   3  -6 -10   46.49    2.55
  -3  -6  10   46.50    2.68
   3  -6 -10   53.81    3.64
  -3   6  10   44.24    2.57
  -2  -6  10    7.58    1.30
  -2   6  10    7.50    1.31
  -1  -6  10   -0.82    0.63
  -1   6  10   -0.89    0.55
   0  -6  10   51.85    2.26
   0  -6  10   53.99    2.54
   0   6  10   51.13    2.59
   1  -6  10   27.00    1.83
   1   6  10   28.79    1.99
   2  -6  10   20.74    1.85
   3  -6  10   21.02    1.83
   4  -6  10   10.41    1.31
   5  -6  10    0.38    0.65
   6  -6  10    0.22    0.62
   7  -6  10   14.07    1.44
   7  -7 -10   17.32    2.73
   7  -7 -10   18.74    2.03
  -7  -7  10   12.03    2.20
  -7   7  10   17.79    2.26
   6  -7 -10    9.42    1.50
  -6  -7  10    7.77    1.79
   6  -7 -10    8.36    1.98
  -6   7  10    7.44    1.57
   5  -7 -10    7.16    1.36
   5  -7 -10    7.18    1.95
  -5  -7  10    7.41    1.57
  -5   7  10    6.13    1.38
   4  -7 -10    9.03    2.03
  -4  -7  10    9.05    1.62
   4  -7 -10    9.75    1.48
  -4   7  10    8.48    1.50
   3  -7 -10   26.40    3.20
  -3  -7  10   21.61    2.20
   3  -7 -10   29.36    2.13
  -3   7  10   28.74    2.08
   2  -7 -10    2.42    1.32
  -2  -7  10    3.77    1.03
  -2   7  10    3.30    0.97
  -1  -7  10    0.51    0.70
  -1   7  10    0.27    0.68
   0  -7  10    5.15    1.04
   0   7  10    3.47    1.00
   1  -7  10    6.74    1.18
   1   7  10    7.30    1.26
   2  -7  10    2.80    0.86
   3  -7  10   11.01    1.41
   4  -7  10    8.47    1.25
   5  -7  10    2.96    0.84
   6  -7  10    6.78    1.10
   7  -7  10   17.03    1.59
   7  -8 -10   32.28    3.72
  -7  -8  10   28.48    3.14
   7  -8 -10   32.20    2.68
  -7   8  10   27.28    2.72
  -6  -8  10    2.06    1.29
   6  -8 -10    1.33    0.93
   6  -8 -10    1.17    1.29
  -6   8  10   -0.03    0.82
   5  -8 -10   21.30    3.05
   5  -8 -10   19.32    2.11
  -5  -8  10   16.51    2.24
  -5   8  10   19.40    2.15
   4  -8 -10    2.01    1.40
  -4  -8  10    1.12    1.05
   4  -8 -10    1.43    0.88
  -4   8  10    1.95    0.96
   3  -8 -10    4.90    1.67
  -3  -8  10    6.20    1.30
  -3   8  10    6.44    1.28
   2  -8 -10   23.25    3.08
  -2   8  10   19.63    2.02
   1  -8 -10   36.40    3.69
  -1   8  10   35.59    2.20
   0  -8  10    5.34    1.13
   0   8  10    4.66    1.09
   1  -8  10   14.87    1.68
   2  -8  10   36.08    2.21
   3  -8  10    8.45    1.28
   4  -8  10    1.00    0.71
   5  -8  10   29.58    1.96
   6  -8  10    4.18    0.97
   6  -9 -10    7.85    2.14
  -6  -9  10    6.96    1.80
   6  -9 -10    4.31    1.28
  -6   9  10    7.47    1.49
   5  -9 -10   26.53    2.54
   5  -9 -10   31.95    3.72
  -5  -9  10   29.63    2.91
  -5   9  10   28.85    2.57
   4  -9 -10    1.07    0.93
   4  -9 -10    1.66    1.34
  -4   9  10    0.68    0.86
   3  -9 -10    5.41    1.76
  -3   9  10    5.36    1.22
   2  -9 -10    1.62    1.32
  -2   9  10    1.04    0.80
   1  -9 -10   17.40    2.67
  -1   9  10   21.08    2.00
   0  -9  10    2.84    0.99
   0  -9 -10    3.88    1.53
   0   9  10    5.29    1.16
   1  -9  10    1.20    0.79
  -1  -9 -10    0.39    1.04
  -2  -9 -10   -0.27    0.93
   2  -9  10    0.10    0.69
   3  -9  10   -0.41    0.59
  -3  -9 -10    0.84    1.11
  -4  -9 -10    0.39    1.05
   4  -9  10    0.83    0.78
  -5  -9 -10   12.35    2.20
   5  -9  10   16.98    1.76
   6  -9  10   15.80    1.67
   5 -10 -10   17.95    2.15
   5 -10 -10   13.08    2.63
  -5  10  10   16.69    2.01
   4 -10 -10    1.91    1.37
   4 -10 -10    1.22    0.97
  -4  10  10    2.24    1.03
   3 -10 -10   18.63    2.90
  -3  10  10   19.72    2.04
   2 -10 -10    3.72    1.64
  -2  10  10    4.14    1.08
   1 -10 -10    2.36    1.41
  -1  10  10    1.16    0.81
   0 -10 -10   40.23    3.98
   1 -10  10   20.85    2.08
  -1 -10 -10   19.04    2.76
   2 -10  10    7.31    1.40
  -2 -10 -10    6.03    1.72
  -3 -10 -10   16.84    2.63
   3 -10  10   22.59    2.12
  -4 -10 -10   12.10    2.31
   4 -10  10   11.13    1.57
  -5 -10 -10    0.54    1.19
   5 -10  10   -0.45    0.70
   5 -11 -10    0.63    1.39
   5 -11 -10   -0.08    0.92
  -5  11  10    0.89    0.94
   4 -11 -10   -0.94    1.09
  -4  11  10   -0.24    0.80
   3 -11 -10   15.36    2.71
  -3  11  10   24.16    2.21
   2 -11 -10    0.51    1.14
  -2  11  10   -0.61    0.72
   1 -11 -10   -0.61    1.06
  -1  11  10    2.00    0.98
   0 -11 -10    0.97    1.31
  -1 -11 -10    2.29    1.39
   1 -11  10    2.45    1.05
   2 -11  10    1.34    0.88
  -2 -11 -10   -0.25    1.14
  -3 -11 -10    4.59    1.72
   3 -11  10    5.60    1.28
  -4 -11 -10    0.69    1.18
   4 -11  10    1.02    0.87
   3 -12 -10   -0.52    1.06
  -3  12  10   -1.27    0.72
   2 -12 -10   19.39    3.14
  -2  12  10   23.79    2.25
   1 -12 -10   11.48    2.46
   0 -12 -10    8.92    2.20
  -1 -12 -10    9.14    2.17
  -2 -12 -10   24.30    3.24
   2 -12  10   25.96    2.50
  -3 -12 -10    0.89    1.36
   3 -12  10    1.91    1.05
   2 -13 -10   -0.94    1.07
   1 -13 -10   10.47    2.44
   0 -13 -10   -0.78    1.08
  -1 -13 -10    2.05    1.43
   7   0 -11    0.54    0.80
  -7   0  11   -0.16    1.01
   6   0 -11   -0.25    0.64
  -6   0  11    0.05    0.96
  -5   0  11   10.13    1.83
  -4   0  11   -0.91    0.65
  -3   0  11    6.21    1.37
  -2   0  11   -0.29    0.66
  -1   0  11   39.56    2.35
   0   0  11    0.96    0.72
   1   0  11   15.97    1.56
   1   0  11   15.01    1.66
   2   0  11   -0.35    0.49
   2   0  11   -0.41    0.54
   3   0  11   62.66    2.69
   4   0  11    0.58    0.58
  -7  -1  11   -0.40    0.91
   7  -1 -11    0.45    0.75
  -7   1  11   -0.33    0.94
   7   1 -11    0.12    0.71
   6  -1 -11   16.36    1.77
  -6  -1  11   15.35    2.24
  -6   1  11   13.56    2.08
  -5  -1  11    1.08    1.19
  -5   1  11    6.62    1.49
  -4  -1  11    4.60    1.30
  -4   1  11    2.83    1.06
  -3  -1  11   29.34    2.61
  -3   1  11   32.78    2.39
  -2  -1  11    0.42    0.79
  -2   1  11    0.62    0.75
  -1  -1  11    0.99    0.72
  -1   1  11    0.78    0.74
   0  -1  11    3.84    1.02
   0   1  11    4.60    1.10
   1  -1  11   -0.11    0.61
   1  -1  11   -0.28    0.48
   1   1  11    0.11    0.51
   1   1  11    0.85    0.67
   2  -1  11   20.57    1.80
   2  -1  11   21.61    1.57
   2   1  11   21.72    1.97
   2   1  11   21.31    1.54
   3  -1  11    8.22    1.17
   4  -1  11   21.48    1.84
   5  -1  11    0.41    0.54
   7  -2 -11    0.62    0.74
  -7  -2  11    1.23    1.09
  -7   2  11    0.71    1.25
   6  -2 -11    0.61    1.05
   6  -2 -11    0.34    0.65
  -6  -2  11    0.92    1.14
  -6   2  11   -0.41    0.92
   5  -2 -11   -0.22    0.61
  -5  -2  11    0.36    0.94
  -5   2  11    1.79    1.06
  -4  -2  11    7.35    1.52
  -4   2  11    3.52    1.17
  -3  -2  11   19.98    2.18
  -3   2  11   18.54    2.11
  -2  -2  11   -0.19    0.71
  -2   2  11   -0.21    0.65
  -1  -2  11   14.68    1.70
  -1   2  11   15.74    1.81
   0  -2  11    0.62    0.72
   0   2  11    2.07    0.88
   1  -2  11   35.93    2.05
   1  -2  11   34.65    1.97
   1   2  11   33.43    2.10
   2  -2  11    2.10    0.76
   2  -2  11    3.58    0.86
   2   2  11    3.70    0.97
   3  -2  11   -0.23    0.50
   4  -2  11    1.53    0.72
   5  -2  11   38.00    2.12
   6  -2  11    0.45    0.62
  -7  -3  11    1.27    1.25
   7  -3 -11    0.63    0.82
  -7   3  11    0.21    1.03
  -6  -3  11   -1.45    0.85
   6  -3 -11   -0.05    0.73
   6  -3 -11    0.78    1.06
  -6   3  11    0.27    0.91
   5  -3 -11   13.02    1.62
  -5  -3  11   14.13    2.07
  -5   3  11   10.47    1.81
  -4  -3  11    4.81    1.36
  -4   3  11    3.23    1.17
  -3  -3  11    0.79    0.83
  -3   3  11    1.36    0.86
  -2  -3  11   -0.81    0.63
  -2   3  11    0.69    0.74
  -1  -3  11   25.66    2.17
  -1   3  11   28.71    2.11
   0  -3  11    9.30    1.34
   0   3  11   11.03    1.51
   1  -3  11   15.65    1.56
   1  -3  11   14.37    1.55
   1   3  11   13.32    1.62
   2  -3  11    4.31    0.90
   2  -3  11    3.78    0.91
   2   3  11    5.28    1.11
   3  -3  11    0.73    0.60
   4  -3  11   35.19    2.02
   5  -3  11    2.08    0.77
   6  -3  11    8.86    1.29
   7  -4 -11    0.71    0.85
  -7  -4  11    0.35    1.19
  -7   4  11    2.29    1.26
  -6  -4  11   10.03    1.89
   6  -4 -11   12.87    1.66
   6  -4 -11   11.31    2.22
  -6   4  11   11.93    1.98
  -5  -4  11    5.14    1.44
   5  -4 -11    5.43    1.58
   5  -4 -11    6.75    1.27
  -5   4  11    3.62    1.26
  -4  -4  11    0.81    0.94
  -4   4  11    0.22    0.80
  -3  -4  11    7.41    1.49
  -3   4  11    4.61    1.20
  -2  -4  11   14.25    1.79
  -2   4  11   13.77    1.76
  -1  -4  11    6.58    1.22
  -1   4  11    3.71    1.03
   0  -4  11    2.70    0.88
   0   4  11    2.54    0.90
   1  -4  11    5.31    1.00
   1  -4  11    5.83    1.05
   1   4  11    8.46    1.36
   2  -4  11    1.74    0.72
   2  -4  11    2.00    0.74
   2   4  11    2.02    0.85
   3  -4  11   30.42    1.93
   4  -4  11    1.74    0.70
   5  -4  11    0.28    0.55
   6  -4  11    3.42    0.90
   7  -4  11   12.74    1.44
  -7  -5  11    1.07    1.23
   7  -5 -11   -0.27    0.73
  -7   5  11   -0.14    0.92
   6  -5 -11    2.86    1.00
  -6  -5  11    2.98    1.35
   6  -5 -11    3.51    1.53
  -6   5  11    4.27    1.32
  -5  -5  11   -0.32    0.98
   5  -5 -11    1.10    1.20
   5  -5 -11    0.02    0.71
  -5   5  11   -0.06    0.81
  -4  -5  11    0.14    0.92
   4  -5 -11   -1.30    0.83
  -4   5  11    0.04    0.87
  -3  -5  11   48.58    2.92
  -3   5  11   54.13    2.94
  -2  -5  11    0.25    0.78
  -2   5  11    0.17    0.73
  -1  -5  11    3.02    0.94
  -1   5  11    2.41    0.95
   0  -5  11    0.87    0.71
   0   5  11   -0.89    0.50
   1  -5  11   17.14    1.56
   1  -5  11   18.17    1.75
   1   5  11   15.57    1.81
   2  -5  11   22.29    1.95
   3  -5  11   17.63    1.73
   4  -5  11    1.25    0.71
   5  -5  11    2.97    0.88
   6  -5  11   23.19    1.69
   7  -5  11    0.26    0.64
   6  -6 -11   -0.11    0.76
   6  -6 -11    0.51    1.13
  -6  -6  11    2.79    1.29
  -6   6  11    0.48    0.96
   5  -6 -11    4.63    1.19
  -5  -6  11    2.94    1.29
   5  -6 -11    5.35    1.82
  -5   6  11    5.69    1.44
  -4  -6  11   19.10    2.30
   4  -6 -11   15.67    2.66
  -4   6  11   14.61    1.91
  -3  -6  11    0.03    0.80
  -3   6  11    0.55    0.78
  -2  -6  11    1.25    0.88
  -2   6  11    0.01    0.80
  -1  -6  11   14.30    1.64
  -1   6  11   10.54    1.55
   0   6  11    5.39    1.18
   1  -6  11    4.90    1.05
   1   6  11    4.67    1.14
   2  -6  11    0.79    0.69
   3  -6  11   -0.35    0.55
   4  -6  11    1.43    0.77
   5  -6  11   23.51    1.98
   6  -6  11    0.07    0.61
  -6  -7  11    3.74    1.41
   6  -7 -11    5.82    1.32
   6  -7 -11    7.07    1.92
  -6   7  11    8.37    1.63
  -5  -7  11   10.26    1.89
   5  -7 -11   11.09    2.36
   5  -7 -11    7.22    1.45
  -5   7  11   11.67    1.79
  -4  -7  11    0.65    1.01
   4  -7 -11   -0.17    1.13
  -4   7  11   -0.92    0.71
  -3  -7  11    0.09    0.85
   3  -7 -11    0.62    1.14
  -3   7  11    0.64    0.83
   2  -7 -11    2.55    1.38
  -2  -7  11    1.84    0.99
  -2   7  11    0.75    0.82
  -1   7  11   49.65    2.71
   0   7  11    9.53    1.50
   1  -7  11   19.26    1.95
   1   7  11   21.84    2.13
   2  -7  11   -0.16    0.59
   3  -7  11   17.35    1.80
   4  -7  11   13.52    1.59
   5  -7  11    0.35    0.64
   6  -7  11    0.95    0.67
   6  -8 -11    2.73    1.59
   6  -8 -11    4.60    1.35
  -6  -8  11    3.31    1.46
  -6   8  11    5.11    1.46
   5  -8 -11   -0.54    1.06
  -5  -8  11    0.22    1.10
  -5   8  11   -0.13    0.81
  -4  -8  11    0.48    1.06
   4  -8 -11    0.13    1.26
  -4   8  11   -0.38    0.74
   3  -8 -11    6.67    1.98
  -3   8  11    5.40    1.27
   2  -8 -11   12.91    2.44
  -2   8  11   12.67    1.72
   1  -8 -11    1.18    1.20
  -1   8  11    1.43    0.89
   0   8  11    1.51    0.88
   1  -8  11    0.79    0.75
   2  -8  11    1.02    0.74
   3  -8  11   13.95    1.69
   4  -8  11    0.68    0.73
   5  -8  11    6.17    1.17
   5  -9 -11   -0.65    1.18
  -5   9  11    1.85    1.05
   4  -9 -11   13.60    2.66
  -4   9  11   14.30    1.95
   3  -9 -11   41.14    4.51
  -3   9  11   35.07    2.43
   2  -9 -11    8.59    2.23
  -2   9  11    7.63    1.36
   1  -9 -11    2.33    1.41
  -1   9  11    2.50    1.01
   0  -9 -11   -0.55    0.90
   0   9  11   -0.14    0.73
   1  -9  11   27.83    2.43
  -1  -9 -11   22.23    3.12
   2  -9  11    6.20    1.30
  -2  -9 -11    8.22    1.99
   3  -9  11    1.47    0.87
  -3  -9 -11    2.43    1.42
  -4  -9 -11    1.41    1.29
   4  -9  11    0.80    0.82
   5  -9  11    6.79    1.25
  -5  -9 -11    4.87    1.68
   4 -10 -11    7.84    2.18
  -4  10  11    7.10    1.43
   3 -10 -11    2.15    1.52
  -3  10  11    3.72    1.18
   2 -10 -11   -0.92    1.10
  -2  10  11    0.22    0.78
   1 -10 -11   11.19    2.45
  -1  10  11    9.28    1.59
   0 -10 -11   11.50    2.44
   1 -10  11   -0.03    0.76
  -1 -10 -11   -0.83    1.00
   2 -10  11    1.05    0.92
  -2 -10 -11   -0.61    1.13
   3 -10  11    3.70    1.12
  -3 -10 -11    3.17    1.52
  -4 -10 -11   -0.58    1.10
   4 -10  11   -0.16    0.74
   3 -11 -11    0.07    1.14
  -3  11  11   -0.55    0.80
   2 -11 -11    9.18    2.33
  -2  11  11    9.18    1.63
   1 -11 -11   41.07    4.54
  -1  11  11   30.61    2.61
   0 -11 -11    3.42    1.61
  -1 -11 -11   -0.65    1.12
   2 -11  11    0.23    0.89
  -2 -11 -11   -1.08    1.11
  -3 -11 -11   10.85    2.46
   3 -11  11   12.54    1.78
   1 -12 -11    6.65    2.16
   0 -12 -11    0.57    1.31
  -1 -12 -11   -0.09    1.16
  -7   0  12    0.23    1.19
  -6   0  12    8.35    1.81
  -5   0  12   -0.67    0.81
  -4   0  12   11.39    1.91
  -3   0  12   -0.74    0.77
  -2   0  12   57.14    3.07
  -1   0  12   -0.53    0.63
   0   0  12    6.02    1.23
   1   0  12    0.79    0.80
   2   0  12   84.81    3.46
   2   0  12   95.36    3.53
   3   0  12   -0.33    0.55
  -7  -1  12   13.60    2.28
  -7   1  12   14.91    2.40
  -6  -1  12   11.76    2.11
  -6   1  12   11.01    2.04
  -5  -1  12   17.69    2.34
  -5   1  12   24.20    2.64
  -4  -1  12   30.09    2.89
  -4   1  12   32.58    2.98
  -3  -1  12    7.26    1.53
  -3   1  12    7.29    1.52
  -2  -1  12   36.72    2.49
  -2   1  12   37.27    2.51
  -1  -1  12    8.25    1.43
  -1   1  12   10.83    1.61
   0  -1  12    0.39    0.73
   0   1  12    1.48    0.86
   1  -1  12    1.50    0.84
   1   1  12    2.33    0.89
   2  -1  12    2.29    0.93
   2  -1  12    1.65    0.79
   2   1  12    1.79    0.85
   2   1  12    2.66    0.85
   3  -1  12   -0.22    0.62
   4  -1  12   14.17    1.60
   5  -1  12    0.55    0.61
  -6  -2  12   17.05    2.50
  -6   2  12   18.22    2.47
  -5  -2  12   -0.93    0.94
  -5   2  12    1.18    1.07
  -4  -2  12   37.27    3.18
  -4   2  12   32.25    2.95
  -3  -2  12    1.32    0.98
  -3   2  12    1.40    0.96
  -2  -2  12    8.91    1.57
  -2   2  12    7.70    1.46
  -1  -2  12    1.49    0.92
  -1   2  12    1.83    0.91
   0  -2  12   73.29    3.21
   0   2  12   75.98    3.39
   1  -2  12    1.63    0.85
   1   2  12    2.29    0.90
   2  -2  12    0.39    0.65
   2  -2  12    1.07    0.77
   2   2  12    1.21    0.83
   3  -2  12    0.60    0.66
   4  -2  12   58.38    2.76
   5  -2  12    6.42    1.16
  -6  -3  12    8.88    1.90
   6  -3 -12    7.19    1.77
  -6   3  12    5.98    1.57
  -5  -3  12    6.53    1.61
  -5   3  12    6.93    1.61
  -4  -3  12   48.86    3.12
  -4   3  12   54.05    3.21
  -3  -3  12   23.63    2.49
  -3   3  12   26.99    2.59
  -2  -3  12   13.01    1.79
  -2   3  12    9.68    1.64
  -1  -3  12    1.40    0.89
  -1   3  12    0.73    0.79
   0  -3  12   11.83    1.59
   0   3  12   12.09    1.71
   1  -3  12    3.09    0.92
   1   3  12    3.74    1.07
   2  -3  12   15.97    1.65
   2  -3  12   16.54    1.74
   2   3  12   16.21    1.88
   3  -3  12   -0.16    0.59
   4  -3  12    1.46    0.77
   5  -3  12    1.22    0.77
   6  -3  12    7.71    1.23
  -6  -4  12    3.62    1.46
   6  -4 -12    8.67    2.06
  -6   4  12    5.17    1.53
   5  -4 -12    9.36    2.14
  -5  -4  12    8.68    1.80
  -5   4  12    8.40    1.77
  -4  -4  12    7.96    1.70
  -4   4  12    7.33    1.54
  -3  -4  12    1.80    1.10
  -3   4  12    0.66    0.90
  -2  -4  12   31.04    2.67
  -2   4  12   35.96    2.47
  -1  -4  12    2.61    0.93
  -1   4  12    1.66    0.97
   0  -4  12    0.90    0.80
   0   4  12    0.52    0.80
   1  -4  12    0.55    0.66
   1  -4  12    2.26    0.88
   1   4  12    2.19    0.93
   2  -4  12   51.20    2.38
   2  -4  12   49.83    2.59
   3  -4  12   16.52    1.76
   4  -4  12    4.62    1.04
   5  -4  12   -0.89    0.55
   6  -4  12    5.09    1.13
  -6  -5  12   10.32    2.03
   6  -5 -12   10.72    2.29
  -6   5  12    9.00    1.84
   5  -5 -12   23.25    3.13
  -5  -5  12   22.54    2.68
  -5   5  12   22.28    2.53
  -4  -5  12    5.24    1.48
   4  -5 -12    7.07    1.91
  -4   5  12    9.17    1.66
  -3  -5  12    4.01    1.26
  -3   5  12   -0.05    0.81
  -2  -5  12   45.87    2.77
  -2   5  12   51.29    2.97
  -1  -5  12   18.94    1.95
  -1   5  12   18.19    2.06
   0  -5  12    7.08    1.24
   0   5  12    7.34    1.40
   1  -5  12    1.09    0.79
   1   5  12    0.21    0.80
   2  -5  12   -1.00    0.58
   3  -5  12    0.41    0.69
   4  -5  12   21.00    1.98
   5  -5  12    1.24    0.77
  -5  -6  12   -0.33    1.13
   5  -6 -12   -0.96    1.15
  -5   6  12    0.37    0.92
  -4  -6  12   14.60    2.10
   4  -6 -12   13.70    2.59
  -4   6  12   13.40    1.95
  -3  -6  12    2.21    1.11
  -3   6  12    1.48    0.97
  -2  -6  12    0.53    0.92
  -2   6  12    2.22    1.01
  -1  -6  12   -0.04    0.80
  -1   6  12    0.46    0.81
   0   6  12   19.22    2.12
   1   6  12   18.40    2.09
   2  -6  12    1.07    0.80
   3  -6  12   -0.16    0.69
   4  -6  12   15.60    1.76
   5  -6  12   24.10    2.12
   5  -7 -12    0.60    1.32
  -5  -7  12    0.37    1.15
  -5   7  12    1.38    1.05
  -4  -7  12   28.07    2.83
   4  -7 -12   34.66    4.02
  -4   7  12   30.77    2.79
  -3  -7  12   22.75    2.44
   3  -7 -12   22.22    3.21
  -3   7  12   21.42    2.34
   2  -7 -12   -0.71    0.94
  -2   7  12   -0.63    0.71
  -1   7  12    0.80    0.86
   0   7  12    7.82    1.49
   1   7  12    9.38    1.57
   2  -7  12   36.77    2.34
   3  -7  12    0.74    0.75
   4  -7  12    0.13    0.75
   5  -7  12    1.05    0.80
   4  -8 -12    0.66    1.35
  -4   8  12    3.40    1.21
   3  -8 -12    2.78    1.58
  -3   8  12    0.16    0.87
   2  -8 -12    8.14    2.16
  -2   8  12    7.07    1.47
   1  -8 -12    3.87    1.61
  -1   8  12    4.11    1.20
   0   8  12   -0.43    0.72
   2  -8  12    8.98    1.48
   3  -8  12   29.96    2.51
   4  -8  12    1.75    0.97
   3  -9 -12   12.02    2.70
  -3   9  12    8.75    1.62
   2  -9 -12   10.44    2.42
  -2   9  12   14.65    1.89
   1  -9 -12   12.61    2.56
  -1   9  12   12.85    1.84
   0  -9 -12   17.01    2.87
   0   9  12   16.60    2.01
  -1  -9 -12   -0.21    1.10
   2  -9  12   -0.06    0.78
  -2  -9 -12    0.09    1.13
  -3  -9 -12    3.35    1.60
   3  -9  12    4.07    1.18
   2 -10 -12    4.63    1.89
  -2  10  12    2.71    1.07
   1 -10 -12    0.55    1.26
  -1  10  12   -0.70    0.77
   0 -10 -12    0.50    1.20
  -1 -10 -12   14.35    2.68
  -2 -10 -12   -0.57    1.15
   2 -10  12    0.82    0.91
  -5   0  13    7.31    1.71
  -4   0  13   -0.21    0.94
  -3   0  13   12.84    1.97
  -2   0  13   -0.64    0.72
  -1   0  13    5.79    1.39
   0   0  13   -0.03    0.72
   1   0  13   45.31    2.68
   2   0  13    0.37    0.74
  -5  -1  13   15.99    2.36
  -5   1  13   18.79    2.52
  -4  -1  13    5.66    1.53
  -4   1  13    3.50    1.34
  -3  -1  13    9.95    1.78
  -3   1  13    9.61    1.72
  -2  -1  13    1.69    0.97
  -2   1  13    1.11    0.92
  -1  -1  13   11.81    1.79
  -1   1  13   13.02    1.88
   0  -1  13    1.01    0.87
   0   1  13    0.22    0.81
   1  -1  13    5.10    1.23
   1   1  13    5.36    1.24
   2  -1  13    0.29    0.73
   2   1  13   -0.35    0.70
   3  -1  13    0.41    0.77
   4  -1  13    1.94    0.88
  -5  -2  13    0.74    1.13
  -5   2  13   -0.77    0.96
  -4  -2  13    1.12    1.09
  -4   2  13   -0.56    0.88
  -3  -2  13    0.86    0.99
  -3   2  13   -0.07    0.89
  -2  -2  13   -0.88    0.70
  -2   2  13    0.12    0.88
  -1  -2  13   51.68    2.94
  -1   2  13   54.91    3.15
   0  -2  13    1.07    0.90
   0   2  13    0.84    0.92
   1  -2  13    7.82    1.36
   1   2  13   11.90    1.74
   2  -2  13    0.98    0.82
   3  -2  13   20.87    2.02
   4  -2  13    1.84    0.88
   5  -2  13    8.97    1.39
  -5  -3  13    3.88    1.46
  -5   3  13    4.34    1.44
  -4  -3  13    0.22    0.98
  -4   3  13   -1.11    0.76
  -3  -3  13   12.05    1.91
  -3   3  13   10.32    1.79
  -2  -3  13    4.50    1.28
  -2   3  13    4.00    1.25
  -1  -3  13    2.00    0.98
  -1   3  13   -0.31    0.80
   0  -3  13    0.31    0.78
   0   3  13   -0.31    0.80
   1  -3  13   13.18    1.63
   1   3  13   12.84    1.84
   3  -3  13   -0.21    0.66
   4  -3  13    2.26    0.95
   5  -3  13   15.97    1.80
   5  -4 -13    4.09    1.76
  -5  -4  13    4.90    1.56
  -5   4  13    3.64    1.38
  -4  -4  13    6.59    1.60
  -4   4  13    4.78    1.40
  -3  -4  13    5.60    1.52
  -3   4  13    5.46    1.35
  -2  -4  13    3.91    1.22
  -2   4  13    3.78    1.27
  -1  -4  13    8.00    1.50
  -1   4  13    6.73    1.46
   0  -4  13   -0.56    0.76
   0   4  13    1.35    0.93
   1  -4  13   27.29    2.24
   1   4  13   27.17    2.54
   3  -4  13   13.32    1.70
   4  -4  13   -0.57    0.70
  -4  -5  13    9.20    1.90
   4  -5 -13    7.92    2.16
  -4   5  13   11.33    1.87
  -3  -5  13   -0.14    0.98
  -3   5  13   -0.99    0.85
  -2  -5  13    1.74    1.04
  -2   5  13    1.25    0.98
  -1  -5  13   14.45    1.84
  -1   5  13   12.72    1.86
   0   5  13   -0.44    0.77
   1   5  13    2.55    1.03
   3  -5  13   -0.28    0.71
   4  -5  13    1.56    0.87
   4  -6 -13   -0.29    1.31
  -4  -6  13    1.24    1.21
  -4   6  13    0.57    0.93
   3  -6 -13   -0.16    1.15
  -3  -6  13    1.68    1.19
  -3   6  13    1.62    1.07
  -2  -6  13    7.87    1.52
  -2   6  13    9.97    1.72
  -1   6  13    5.59    1.37
   0   6  13   17.47    2.16
   1   6  13   16.94    2.06
   3  -6  13    0.39    0.77
   4  -6  13   19.68    2.06
   3  -7 -13    7.63    2.23
  -3   7  13   12.24    1.93
   2  -7 -13    5.10    1.91
  -2   7  13    4.17    1.30
  -1   7  13    0.70    0.87
   0   7  13    2.14    1.07
   3  -7  13    3.93    1.16
   2  -8 -13    5.28    1.97
  -2   8  13    5.91    1.41
   1  -8 -13   15.93    2.84
  -1   8  13   17.92    2.21
   0   8  13    3.53    1.24
  -4   0  14    0.10    1.12
  -3   0  14   -1.07    0.85
  -2   0  14    8.25    1.65
  -1   0  14   -0.05    0.88
   0   0  14    1.66    1.05
   1   0  14   -0.18    0.71
  -4  -1  14    3.63    1.40
  -4   1  14    3.96    1.45
  -3  -1  14    1.70    1.13
  -3   1  14    1.33    1.09
  -2  -1  14    0.86    0.97
  -2   1  14    0.05    0.88
  -1  -1  14   14.13    1.95
  -1   1  14    9.19    1.70
   0  -1  14    3.99    1.20
   0   1  14    6.11    1.39
   1  -1  14   12.68    1.79
   1   1  14   16.18    2.02
  -4  -2  14    0.27    1.07
  -4   2  14    1.07    1.10
  -3  -2  14    0.18    1.02
  -3   2  14    0.73    1.10
  -2  -2  14   -0.27    0.79
  -2   2  14    2.39    1.27
  -1  -2  14   -0.16    0.85
  -1   2  14    0.39    0.89
   0  -2  14   20.86    2.24
   0   2  14   18.65    2.20
   1  -2  14    0.65    0.96
   1   2  14    1.19    0.95
  -3  -3  14    5.05    1.53
  -3   3  14    5.12    1.48
  -2  -3  14    6.26    1.51
  -2   3  14    9.55    1.74
  -1  -3  14    1.77    1.05
  -1   3  14    0.70    0.97
   0  -3  14    0.21    0.93
   0   3  14    2.16    1.10
   1  -3  14   23.59    2.22
   1   3  14   23.00    2.41
  -3  -4  14   -1.09    0.87
  -3   4  14    0.27    0.97
  -2  -4  14    9.12    1.73
  -2   4  14    9.54    1.82
  -1  -4  14    3.30    1.17
  -1   4  14    4.46    1.34
   0  -4  14    0.20    0.98
   0   4  14   -0.66    0.78
   1   4  14    2.55    1.19
  -2  -5  14   13.87    2.00
  -2   5  14   11.70    1.91
  -1   5  14   14.93    2.10
   0   5  14    4.25    1.30
   1   5  14    0.99    0.97
  -1   6  14    0.74    0.98
   0   6  14   16.54    2.17
   0   0   0    0.00    0.00
;
_shelx_hkl_checksum              38206
loop_
_space_group_symop_operation_xyz
'x, y, z'
'-x+1/2, y+1/2, -z+1/2'
'-x, -y, -z'
'x-1/2, -y-1/2, z-1/2'
loop_
_atom_site_label
_atom_site_type_symbol
_atom_site_fract_x
_atom_site_fract_y
_atom_site_fract_z
_atom_site_U_iso_or_equiv
_atom_site_adp_type
_atom_site_occupancy
_atom_site_site_symmetry_order
_atom_site_calc_flag
_atom_site_refinement_flags_posn
_atom_site_refinement_flags_adp
_atom_site_refinement_flags_occupancy
_atom_site_disorder_assembly
_atom_site_disorder_group
Tl1 Tl -0.03196(4) 0.53596(3) -0.24225(4) 0.03056(9) Uani 1 1 d . . . . .
Te1 Te -0.03546(5) 0.03416(4) 0.15381(4) 0.00936(9) Uani 1 1 d . . . . .
Te2 Te -0.21033(5) 0.28045(4) -0.05631(4) 0.00922(9) Uani 1 1 d . . . . .
Te3 Te 0.29141(5) 0.24264(4) 0.04430(4) 0.00923(9) Uani 1 1 d . . . . .
Te4 Te 0.5000 0.5000 0.0000 0.00743(11) Uani 1 2 d S . P . .
Cu1 Cu -0.35076(9) 0.25073(7) 0.24504(7) 0.01037(16) Uani 1 1 d . . . . .
O1 O -0.1483(5) 0.2566(4) 0.1260(4) 0.0124(9) Uani 1 1 d . . . . .
O2 O 0.0115(5) 0.3247(4) -0.1152(4) 0.0107(9) Uani 1 1 d . . . . .
O3 O -0.0735(5) 0.0862(4) -0.0533(4) 0.0093(9) Uani 1 1 d . . . . .
O4 O 0.1785(6) 0.1118(4) 0.1733(4) 0.0132(9) Uani 1 1 d . . . . .
O5 O 0.2722(6) 0.1592(4) -0.1152(4) 0.0104(9) Uani 1 1 d . . . . .
O6 O 0.4090(6) 0.3670(4) -0.0820(4) 0.0133(10) Uani 1 1 d . . . . .
O7 O -0.2631(6) 0.4387(4) -0.0131(5) 0.0128(9) Uani 1 1 d . . . . .
O8 O 0.0281(6) -0.0674(4) 0.3225(4) 0.0126(9) Uani 1 1 d . . . . .
O9 O 0.5143(6) 0.1859(4) 0.0950(4) 0.0150(10) Uani 1 1 d . . . . .
loop_
_atom_site_aniso_label
_atom_site_aniso_U_11
_atom_site_aniso_U_22
_atom_site_aniso_U_33
_atom_site_aniso_U_23
_atom_site_aniso_U_13
_atom_site_aniso_U_12
Tl1 0.02651(16) 0.02714(19) 0.0382(2) 0.00293(15) 0.00629(14) -0.00101(13)
Te1 0.00919(16) 0.0112(2) 0.00772(19) 0.00073(16) 0.00097(14) -0.00059(15)
Te2 0.00842(17) 0.0132(2) 0.00601(18) -0.00032(15) 0.00024(14) 0.00095(14)
Te3 0.00894(17) 0.0123(2) 0.00639(18) -0.00096(16) -0.00102(14) 0.00062(15)
Te4 0.0086(2) 0.0086(3) 0.0051(3) 0.0002(2) 0.00048(19) 0.0004(2)
Cu1 0.0094(3) 0.0151(4) 0.0066(3) -0.0015(3) 0.0006(3) -0.0025(3)
O1 0.0086(19) 0.022(3) 0.006(2) 0.0003(19) 0.0002(16) 0.0006(18)
O2 0.0052(18) 0.014(2) 0.013(2) -0.0012(18) 0.0028(16) 0.0000(16)
O3 0.013(2) 0.014(2) 0.0011(19) -0.0021(17) -0.0028(16) 0.0001(17)
O4 0.012(2) 0.015(3) 0.012(2) 0.0050(19) -0.0057(17) -0.0045(17)
O5 0.014(2) 0.011(2) 0.005(2) -0.0010(17) -0.0018(16) 0.0043(17)
O6 0.021(2) 0.015(3) 0.004(2) -0.0027(18) 0.0017(17) -0.0047(19)
O7 0.010(2) 0.013(2) 0.015(2) -0.0039(19) -0.0008(17) -0.0003(17)
O8 0.016(2) 0.015(3) 0.007(2) 0.0000(18) 0.0024(17) 0.0030(18)
O9 0.013(2) 0.022(3) 0.009(2) -0.0009(19) -0.0017(17) 0.0007(19)
loop_
_atom_type_symbol
_atom_type_description
_atom_type_scat_dispersion_real
_atom_type_scat_dispersion_imag
_atom_type_scat_source
Cu Cu 0.3201 1.2651 'International Tables Vol C Tables 4.2.6.8 and 6.1.1.4'
O O 0.0106 0.0060 'International Tables Vol C Tables 4.2.6.8 and 6.1.1.4'
Te Te -0.5308 1.6751 'International Tables Vol C Tables 4.2.6.8 and 6.1.1.4'
Tl Tl -2.8358 9.6688 'International Tables Vol C Tables 4.2.6.8 and 6.1.1.4'
loop_
_geom_angle_atom_site_label_1
_geom_angle_atom_site_label_2
_geom_angle_atom_site_label_3
_geom_angle
_geom_angle_site_symmetry_1
_geom_angle_site_symmetry_3
O2 Tl1 O5 126.69(12) . 2_554
O2 Tl1 O4 71.18(13) . 4_565
O5 Tl1 O4 133.83(12) 2_554 4_565
O2 Tl1 O1 120.20(13) . 3_565
O5 Tl1 O1 57.13(12) 2_554 3_565
O4 Tl1 O1 158.03(11) 4_565 3_565
O2 Tl1 O9 57.60(12) . 4_565
O5 Tl1 O9 95.30(12) 2_554 4_565
O4 Tl1 O9 55.79(12) 4_565 4_565
O1 Tl1 O9 145.86(11) 3_565 4_565
O2 Tl1 O7 53.92(11) . .
O5 Tl1 O7 162.74(12) 2_554 .
O4 Tl1 O7 63.39(12) 4_565 .
O1 Tl1 O7 106.48(12) 3_565 .
O9 Tl1 O7 97.66(12) 4_565 .
O2 Tl1 Cu1 31.91(8) . 4_665
O5 Tl1 Cu1 101.09(9) 2_554 4_665
O4 Tl1 Cu1 73.67(9) 4_565 4_665
O1 Tl1 Cu1 126.51(9) 3_565 4_665
O9 Tl1 Cu1 32.03(9) 4_565 4_665
O7 Tl1 Cu1 84.27(9) . 4_665
O2 Tl1 Te2 28.12(8) . .
O5 Tl1 Te2 154.52(9) 2_554 .
O4 Tl1 Te2 52.22(9) 4_565 .
O1 Tl1 Te2 128.77(8) 3_565 .
O9 Tl1 Te2 67.68(8) 4_565 .
O7 Tl1 Te2 31.04(8) . .
Cu1 Tl1 Te2 54.37(2) 4_665 .
O2 Tl1 Te3 116.01(8) . 3_565
O5 Tl1 Te3 105.61(9) 2_554 3_565
O4 Tl1 Te3 99.29(8) 4_565 3_565
O1 Tl1 Te3 59.17(8) 3_565 3_565
O9 Tl1 Te3 154.97(8) 4_565 3_565
O7 Tl1 Te3 65.18(9) . 3_565
Cu1 Tl1 Te3 147.912(18) 4_665 3_565
Te2 Tl1 Te3 96.14(2) . 3_565
O2 Tl1 Cu1 120.14(9) . 3_565
O5 Tl1 Cu1 29.51(9) 2_554 3_565
O4 Tl1 Cu1 162.90(9) 4_565 3_565
O1 Tl1 Cu1 30.02(7) 3_565 3_565
O9 Tl1 Cu1 117.28(8) 4_565 3_565
O7 Tl1 Cu1 133.23(9) . 3_565
Cu1 Tl1 Cu1 108.73(2) 4_665 3_565
Te2 Tl1 Cu1 143.225(19) . 3_565
Te3 Tl1 Cu1 87.24(2) 3_565 3_565
O4 Te1 O3 91.97(19) . 3
O4 Te1 O8 90.65(19) . .
O3 Te1 O8 83.60(17) 3 .
O4 Te1 O3 93.40(17) . .
O3 Te1 O3 77.1(2) 3 .
O8 Te1 O3 160.36(17) . .
O4 Te1 Te1 93.48(14) . 3
O3 Te1 Te1 40.96(12) 3 3
O8 Te1 Te1 124.48(12) . 3
O3 Te1 Te1 36.11(12) . 3
O4 Te1 Cu1 129.69(14) . 2_445
O3 Te1 Cu1 64.08(13) 3 2_445
O8 Te1 Cu1 45.80(13) . 2_445
O3 Te1 Cu1 120.02(12) . 2_445
Te1 Te1 Cu1 94.14(2) 3 2_445
O4 Te1 Cu1 101.82(15) . .
O3 Te1 Cu1 159.81(13) 3 .
O8 Te1 Cu1 110.60(12) . .
O3 Te1 Cu1 87.36(11) . .
Te1 Te1 Cu1 122.45(2) 3 .
Cu1 Te1 Cu1 115.119(19) 2_445 .
O2 Te2 O1 97.26(19) . .
O2 Te2 O7 89.38(18) . .
O1 Te2 O7 89.1(2) . .
O2 Te2 O3 83.34(17) . .
O1 Te2 O3 75.78(17) . .
O7 Te2 O3 162.20(17) . .
O2 Te2 Cu1 129.66(14) . .
O1 Te2 Cu1 34.22(12) . .
O7 Te2 Cu1 80.24(13) . .
O3 Te2 Cu1 91.92(9) . .
O2 Te2 Cu1 27.71(14) . 4_665
O1 Te2 Cu1 110.07(13) . 4_665
O7 Te2 Cu1 113.36(12) . 4_665
O3 Te2 Cu1 64.74(9) . 4_665
Cu1 Te2 Cu1 143.74(3) . 4_665
O2 Te2 Tl1 45.18(14) . .
O1 Te2 Tl1 119.79(14) . .
O7 Te2 Tl1 54.65(13) . .
O3 Te2 Tl1 125.44(9) . .
Cu1 Te2 Tl1 131.64(2) . .
Cu1 Te2 Tl1 60.82(2) 4_665 .
O5 Te3 O9 95.31(19) . .
O5 Te3 O6 84.32(18) . .
O9 Te3 O6 90.91(19) . .
O5 Te3 O4 95.13(18) . .
O9 Te3 O4 87.38(18) . .
O6 Te3 O4 178.15(17) . .
O5 Te3 Cu1 36.37(14) . 4_665
O9 Te3 Cu1 123.71(13) . 4_665
O6 Te3 Cu1 64.79(12) . 4_665
O4 Te3 Cu1 115.66(12) . 4_665
O5 Te3 Cu1 124.58(13) . 1_655
O9 Te3 Cu1 29.75(14) . 1_655
O6 Te3 Cu1 88.85(12) . 1_655
O4 Te3 Cu1 90.02(12) . 1_655
Cu1 Te3 Cu1 145.49(3) 4_665 1_655
O5 Te3 Tl1 139.38(13) . 3_565
O9 Te3 Tl1 125.30(14) . 3_565
O6 Te3 Tl1 92.88(12) . 3_565
O4 Te3 Tl1 88.69(12) . 3_565
Cu1 Te3 Tl1 106.86(2) 4_665 3_565
Cu1 Te3 Tl1 95.78(2) 1_655 3_565
O6 Te4 O6 180.00(16) . 3_665
O6 Te4 O8 90.11(19) . 4_665
O6 Te4 O8 89.89(19) 3_665 4_665
O6 Te4 O8 89.89(19) . 2
O6 Te4 O8 90.11(19) 3_665 2
O8 Te4 O8 180.0(3) 4_665 2
O6 Te4 O7 89.68(19) . 1_655
O6 Te4 O7 90.32(19) 3_665 1_655
O8 Te4 O7 88.66(19) 4_665 1_655
O8 Te4 O7 91.34(19) 2 1_655
O6 Te4 O7 90.32(19) . 3_565
O6 Te4 O7 89.68(19) 3_665 3_565
O8 Te4 O7 91.34(19) 4_665 3_565
O8 Te4 O7 88.66(19) 2 3_565
O7 Te4 O7 180.0 1_655 3_565
O9 Cu1 O1 88.22(18) 1_455 .
O9 Cu1 O2 94.17(19) 1_455 4_566
O1 Cu1 O2 151.04(19) . 4_566
O9 Cu1 O5 170.4(2) 1_455 4_566
O1 Cu1 O5 91.75(18) . 4_566
O2 Cu1 O5 90.50(18) 4_566 4_566
O9 Cu1 O8 82.40(18) 1_455 2_455
O1 Cu1 O8 103.08(17) . 2_455
O2 Cu1 O8 105.85(16) 4_566 2_455
O5 Cu1 O8 88.25(17) 4_566 2_455
O9 Cu1 O6 126.53(18) 1_455 4_566
O1 Cu1 O6 80.54(16) . 4_566
O2 Cu1 O6 74.88(15) 4_566 4_566
O5 Cu1 O6 62.85(16) 4_566 4_566
O8 Cu1 O6 151.06(14) 2_455 4_566
O9 Cu1 Te3 153.87(14) 1_455 4_566
O1 Cu1 Te3 107.58(13) . 4_566
O2 Cu1 Te3 61.90(13) 4_566 4_566
O5 Cu1 Te3 34.14(13) 4_566 4_566
O8 Cu1 Te3 112.81(10) 2_455 4_566
O6 Cu1 Te3 41.07(8) 4_566 4_566
O9 Cu1 Te2 61.10(13) 1_455 .
O1 Cu1 Te2 32.60(13) . .
O2 Cu1 Te2 153.54(14) 4_566 .
O5 Cu1 Te2 115.40(12) 4_566 .
O8 Cu1 Te2 81.51(9) 2_455 .
O6 Cu1 Te2 111.04(8) 4_566 .
Te3 Cu1 Te2 139.38(3) 4_566 .
O9 Cu1 Te3 28.75(14) 1_455 1_455
O1 Cu1 Te3 106.78(13) . 1_455
O2 Cu1 Te3 87.86(13) 4_566 1_455
O5 Cu1 Te3 143.51(14) 4_566 1_455
O8 Cu1 Te3 57.44(10) 2_455 1_455
O6 Cu1 Te3 149.70(10) 4_566 1_455
Te3 Cu1 Te3 145.63(3) 4_566 1_455
Te2 Cu1 Te3 74.61(3) . 1_455
O9 Cu1 Te2 88.59(13) 1_455 4_566
O1 Cu1 Te2 175.51(15) . 4_566
O2 Cu1 Te2 26.32(13) 4_566 4_566
O5 Cu1 Te2 91.92(12) 4_566 4_566
O8 Cu1 Te2 79.62(9) 2_455 4_566
O6 Cu1 Te2 98.86(8) 4_566 4_566
Te3 Cu1 Te2 74.29(3) 4_566 4_566
Te2 Cu1 Te2 146.12(3) . 4_566
Te3 Cu1 Te2 71.52(3) 1_455 4_566
O9 Cu1 Te1 116.81(15) 1_455 2_455
O1 Cu1 Te1 109.16(15) . 2_455
O2 Cu1 Te1 95.48(13) 4_566 2_455
O5 Cu1 Te1 54.26(14) 4_566 2_455
O8 Cu1 Te1 35.10(10) 2_455 2_455
O6 Cu1 Te1 116.27(9) 4_566 2_455
Te3 Cu1 Te1 78.27(2) 4_566 2_455
Te2 Cu1 Te1 103.91(3) . 2_455
Te3 Cu1 Te1 89.61(2) 1_455 2_455
Te2 Cu1 Te1 75.13(2) 4_566 2_455
O9 Cu1 Te1 82.87(14) 1_455 .
O1 Cu1 Te1 49.14(14) . .
O2 Cu1 Te1 102.47(13) 4_566 .
O5 Cu1 Te1 104.33(13) 4_566 .
O8 Cu1 Te1 148.85(9) 2_455 .
O6 Cu1 Te1 50.86(8) 4_566 .
Te3 Cu1 Te1 91.82(2) 4_566 .
Te2 Cu1 Te1 67.334(18) . .
Te3 Cu1 Te1 111.61(3) 1_455 .
Te2 Cu1 Te1 127.24(3) 4_566 .
Te1 Cu1 Te1 152.41(2) 2_455 .
Te2 O1 Cu1 113.2(2) . .
Te2 O1 Tl1 110.27(19) . 3_565
Cu1 O1 Tl1 99.13(17) . 3_565
Te2 O2 Cu1 126.0(2) . 4_665
Te2 O2 Tl1 106.70(18) . .
Cu1 O2 Tl1 98.76(16) 4_665 .
Te1 O3 Te1 102.9(2) 3 .
Te1 O3 Te2 147.9(2) 3 .
Te1 O3 Te2 108.75(16) . .
Te1 O4 Te3 129.5(2) . .
Te1 O4 Tl1 112.6(2) . 4_666
Te3 O4 Tl1 106.69(16) . 4_666
Te3 O5 Cu1 109.5(2) . 4_665
Te3 O5 Tl1 130.1(2) . 2_544
Cu1 O5 Tl1 104.98(16) 4_665 2_544
Te4 O6 Te3 118.5(2) . .
Te4 O6 Cu1 151.5(2) . 4_665
Te3 O6 Cu1 74.13(13) . 4_665
Te4 O7 Te2 124.2(2) 1_455 .
Te4 O7 Tl1 116.5(2) 1_455 .
Te2 O7 Tl1 94.31(15) . .
Te4 O8 Te1 116.8(2) 2_545 .
Te4 O8 Cu1 120.20(19) 2_545 2_445
Te1 O8 Cu1 99.10(17) . 2_445
Te3 O9 Cu1 121.5(2) . 1_655
Te3 O9 Tl1 109.23(18) . 4_666
Cu1 O9 Tl1 90.22(16) 1_655 4_666
loop_
_geom_bond_atom_site_label_1
_geom_bond_atom_site_label_2
_geom_bond_distance
_geom_bond_site_symmetry_2
Tl1 O2 2.811(5) .
Tl1 O5 2.844(4) 2_554
Tl1 O4 2.921(5) 4_565
Tl1 O1 3.025(5) 3_565
Tl1 O9 3.097(5) 4_565
Tl1 O7 3.105(4) .
Tl1 Cu1 3.6624(12) 4_665
Tl1 Te2 3.7957(9) .
Tl1 Te3 3.8315(8) 3_565
Tl1 Cu1 3.8520(11) 3_565
Te1 O4 1.875(4) .
Te1 O3 1.929(4) 3
Te1 O8 2.100(5) .
Te1 O3 2.146(4) .
Te1 Te1 3.1904(12) 3
Te1 Cu1 3.6060(12) 2_445
Te1 Cu1 3.6317(11) .
Te2 O2 1.868(4) .
Te2 O1 1.870(4) .
Te2 O7 1.962(5) .
Te2 O3 2.521(5) .
Te2 Cu1 3.1908(12) .
Te2 Cu1 3.4094(10) 4_665
Te3 O5 1.859(4) .
Te3 O9 1.883(5) .
Te3 O6 2.133(4) .
Te3 O4 2.187(4) .
Te3 Cu1 3.1231(12) 4_665
Te3 Cu1 3.3376(11) 1_655
Te3 Tl1 3.8314(8) 3_565
Te4 O6 1.893(5) .
Te4 O6 1.893(5) 3_665
Te4 O8 1.937(4) 4_665
Te4 O8 1.937(4) 2
Te4 O7 1.948(4) 1_655
Te4 O7 1.948(4) 3_565
Cu1 O9 1.942(5) 1_455
Cu1 O1 1.952(4) .
Cu1 O2 1.959(4) 4_566
Cu1 O5 1.964(4) 4_566
Cu1 O8 2.618(5) 2_455
Cu1 O6 2.938(5) 4_566
Cu1 Te3 3.1231(12) 4_566
Cu1 Te3 3.3376(11) 1_455
Cu1 Te2 3.4095(10) 4_566
Cu1 Te1 3.6060(12) 2_455
O1 Tl1 3.025(5) 3_565
O2 Cu1 1.959(4) 4_665
O3 Te1 1.929(4) 3
O4 Tl1 2.921(5) 4_666
O5 Cu1 1.964(4) 4_665
O5 Tl1 2.844(4) 2_544
O6 Cu1 2.938(5) 4_665
O7 Te4 1.948(4) 1_455
O8 Te4 1.937(4) 2_545
O8 Cu1 2.618(5) 2_445
O9 Cu1 1.942(5) 1_655
O9 Tl1 3.097(5) 4_666
loop_
_geom_torsion_atom_site_label_1
_geom_torsion_atom_site_label_2
_geom_torsion_atom_site_label_3
_geom_torsion_atom_site_label_4
_geom_torsion
_geom_torsion_site_symmetry_1
_geom_torsion_site_symmetry_2
_geom_torsion_site_symmetry_3
_geom_torsion_site_symmetry_4
O2 Te2 O1 Cu1 163.1(2) . . . .
O7 Te2 O1 Cu1 73.8(3) . . . .
O3 Te2 O1 Cu1 -115.7(3) . . . .
Cu1 Te2 O1 Cu1 -171.58(16) 4_665 . . .
Tl1 Te2 O1 Cu1 121.31(19) . . . .
O2 Te2 O1 Tl1 53.1(2) . . . 3_565
O7 Te2 O1 Tl1 -36.20(18) . . . 3_565
O3 Te2 O1 Tl1 134.27(18) . . . 3_565
Cu1 Te2 O1 Tl1 -110.0(3) . . . 3_565
Cu1 Te2 O1 Tl1 78.42(15) 4_665 . . 3_565
Tl1 Te2 O1 Tl1 11.3(2) . . . 3_565
O1 Te2 O2 Cu1 120.1(3) . . . 4_665
O7 Te2 O2 Cu1 -150.9(3) . . . 4_665
O3 Te2 O2 Cu1 45.4(3) . . . 4_665
Cu1 Te2 O2 Cu1 132.4(2) . . . 4_665
Tl1 Te2 O2 Cu1 -114.5(3) . . . 4_665
O1 Te2 O2 Tl1 -125.43(19) . . . .
O7 Te2 O2 Tl1 -36.39(19) . . . .
O3 Te2 O2 Tl1 159.89(18) . . . .
Cu1 Te2 O2 Tl1 -113.14(14) . . . .
Cu1 Te2 O2 Tl1 114.5(3) 4_665 . . .
O3 Te1 O4 Te3 91.9(3) 3 . . .
O8 Te1 O4 Te3 175.6(3) . . . .
O3 Te1 O4 Te3 14.8(3) . . . .
Te1 Te1 O4 Te3 51.0(3) 3 . . .
Cu1 Te1 O4 Te3 149.26(19) 2_445 . . .
Cu1 Te1 O4 Te3 -73.2(3) . . . .
O3 Te1 O4 Tl1 -46.33(19) 3 . . 4_666
O8 Te1 O4 Tl1 37.29(19) . . . 4_666
O3 Te1 O4 Tl1 -123.48(18) . . . 4_666
Te1 Te1 O4 Tl1 -87.31(15) 3 . . 4_666
Cu1 Te1 O4 Tl1 11.0(3) 2_445 . . 4_666
Cu1 Te1 O4 Tl1 148.50(13) . . . 4_666
O9 Te3 O5 Cu1 -144.5(2) . . . 4_665
O6 Te3 O5 Cu1 -54.1(2) . . . 4_665
O4 Te3 O5 Cu1 127.7(2) . . . 4_665
Cu1 Te3 O5 Cu1 -138.74(13) 1_655 . . 4_665
Tl1 Te3 O5 Cu1 33.7(3) 3_565 . . 4_665
O9 Te3 O5 Tl1 -13.5(3) . . . 2_544
O6 Te3 O5 Tl1 76.9(3) . . . 2_544
O4 Te3 O5 Tl1 -101.3(3) . . . 2_544
Cu1 Te3 O5 Tl1 131.0(4) 4_665 . . 2_544
Cu1 Te3 O5 Tl1 -7.8(3) 1_655 . . 2_544
Tl1 Te3 O5 Tl1 164.70(9) 3_565 . . 2_544
O8 Te4 O6 Te3 -169.4(3) 4_665 . . .
O8 Te4 O6 Te3 10.6(3) 2 . . .
O7 Te4 O6 Te3 102.0(3) 1_655 . . .
O7 Te4 O6 Te3 -78.0(3) 3_565 . . .
O8 Te4 O6 Cu1 -59.0(4) 4_665 . . 4_665
O8 Te4 O6 Cu1 121.0(4) 2 . . 4_665
O7 Te4 O6 Cu1 -147.6(4) 1_655 . . 4_665
O7 Te4 O6 Cu1 32.4(4) 3_565 . . 4_665
O5 Te3 O9 Cu1 170.5(3) . . . 1_655
O6 Te3 O9 Cu1 86.1(3) . . . 1_655
O4 Te3 O9 Cu1 -94.6(3) . . . 1_655
Cu1 Te3 O9 Cu1 145.99(17) 4_665 . . 1_655
Tl1 Te3 O9 Cu1 -8.1(3) 3_565 . . 1_655
O5 Te3 O9 Tl1 -86.91(19) . . . 4_666
O6 Te3 O9 Tl1 -171.28(18) . . . 4_666
O4 Te3 O9 Tl1 8.00(18) . . . 4_666
Cu1 Te3 O9 Tl1 -111.37(13) 4_665 . . 4_666
Cu1 Te3 O9 Tl1 102.6(3) 1_655 . . 4_666
Tl1 Te3 O9 Tl1 94.54(18) 3_565 . . 4_666
