#------------------------------------------------------------------------------
#$Date: 2021-04-01 10:58:19 +0300 (Thu, 01 Apr 2021) $
#$Revision: 263516 $
#$URL: file:///home/coder/svn-repositories/cod/cif/1/56/14/1561401.cif $
#------------------------------------------------------------------------------
#
# This file is available in the Crystallography Open Database (COD),
# http://www.crystallography.net/
#
# All data on this site have been placed in the public domain by the
# contributors.
#
data_1561401
loop_
_publ_author_name
'Sanjeewa, Liurukara D.'
'McGuire, Michael A.'
'Smith Pellizzeri, Tiffany M.'
'McMillen, Colin D.'
'Ovidiu Garlea, V.'
'Willett, Daniel'
'Chumanov, George'
'Kolis, Joseph W.'
_publ_section_title
;
 Synthesis and characterization of new fluoride-containing manganese
 vanadates A2Mn2V2O7F2 (A=Rb, Cs) and Mn2VO4F
;
_journal_name_full               'Journal of Solid State Chemistry'
_journal_page_first              30
_journal_page_last               37
_journal_paper_doi               10.1016/j.jssc.2016.05.008
_journal_volume                  241
_journal_year                    2016
_chemical_formula_sum            'Cs2 F2 Mn2 O7 V2'
_chemical_formula_weight         627.58
_space_group_crystal_system      orthorhombic
_space_group_IT_number           60
_space_group_name_Hall           '-P 2n 2ab'
_space_group_name_H-M_alt        'P b c n'
_atom_sites_solution_hydrogens   .
_atom_sites_solution_primary     direct
_atom_sites_solution_secondary   difmap
_audit_creation_method           SHELXL-2014/7
_cell_angle_alpha                90
_cell_angle_beta                 90
_cell_angle_gamma                90
_cell_formula_units_Z            4
_cell_length_a                   7.5615(15)
_cell_length_b                   11.745(2)
_cell_length_c                   11.127(2)
_cell_measurement_reflns_used    8802
_cell_measurement_temperature    293(2)
_cell_measurement_theta_max      26.12
_cell_measurement_theta_min      3.26
_cell_volume                     988.2(3)
_computing_cell_refinement       'CrystalClear (Rigaku, 2008)'
_computing_data_collection       'CrystalClear (Rigaku, 2008)'
_computing_data_reduction        'CrystalClear (Rigaku, 2008)'
_computing_molecular_graphics    'DIAMOND (Brandenburg, 1999)'
_computing_publication_material  'SHELXL-2014/7 (Sheldrick, 2014)'
_computing_structure_refinement  'SHELXL-2014/7 (Sheldrick, 2014)'
_computing_structure_solution    'SHELXS-2014 (Sheldrick, 2014)'
_diffrn_ambient_temperature      293(2)
_diffrn_measured_fraction_theta_full 0.996
_diffrn_measured_fraction_theta_max 0.996
_diffrn_measurement_device_type  'Rigaku AFC8-S, Mercury CCD'
_diffrn_measurement_method       '\w scans'
_diffrn_radiation_type           MoK\a
_diffrn_radiation_wavelength     0.71073
_diffrn_reflns_av_R_equivalents  0.0554
_diffrn_reflns_av_unetI/netI     0.0252
_diffrn_reflns_Laue_measured_fraction_full 0.996
_diffrn_reflns_Laue_measured_fraction_max 0.996
_diffrn_reflns_limit_h_max       9
_diffrn_reflns_limit_h_min       -9
_diffrn_reflns_limit_k_max       13
_diffrn_reflns_limit_k_min       -14
_diffrn_reflns_limit_l_max       12
_diffrn_reflns_limit_l_min       -13
_diffrn_reflns_number            7560
_diffrn_reflns_point_group_measured_fraction_full 0.996
_diffrn_reflns_point_group_measured_fraction_max 0.996
_diffrn_reflns_theta_full        25.238
_diffrn_reflns_theta_max         25.238
_diffrn_reflns_theta_min         3.204
_diffrn_source                   'fine-focus sealed tube'
_exptl_absorpt_coefficient_mu    11.629
_exptl_absorpt_correction_T_max  1.0000
_exptl_absorpt_correction_T_min  0.4122
_exptl_absorpt_correction_type   multi-scan
_exptl_absorpt_process_details   'REQAB, CrystalClear'
_exptl_crystal_colour            orange
_exptl_crystal_density_diffrn    4.218
_exptl_crystal_density_meas      .
_exptl_crystal_density_method    .
_exptl_crystal_description       column
_exptl_crystal_F_000             1120
_exptl_crystal_size_max          0.240
_exptl_crystal_size_mid          0.040
_exptl_crystal_size_min          0.040
_exptl_transmission_factor_max   .
_exptl_transmission_factor_min   .
_refine_diff_density_max         1.964
_refine_diff_density_min         -1.531
_refine_diff_density_rms         0.270
_refine_ls_extinction_coef       0.0014(2)
_refine_ls_extinction_expression Fc^*^=kFc[1+0.001xFc^2^\l^3^/sin(2\q)]^-1/4^
_refine_ls_extinction_method     'SHELXL-2014/7 (Sheldrick 2014'
_refine_ls_goodness_of_fit_ref   1.157
_refine_ls_hydrogen_treatment    undef
_refine_ls_matrix_type           full
_refine_ls_number_parameters     72
_refine_ls_number_reflns         891
_refine_ls_number_restraints     0
_refine_ls_restrained_S_all      1.157
_refine_ls_R_factor_all          0.0330
_refine_ls_R_factor_gt           0.0322
_refine_ls_shift/su_max          0.000
_refine_ls_shift/su_mean         0.000
_refine_ls_structure_factor_coef Fsqd
_refine_ls_weighting_details
'w=1/[\s^2^(Fo^2^)+(0.0469P)^2^+2.7194P] where P=(Fo^2^+2Fc^2^)/3'
_refine_ls_weighting_scheme      calc
_refine_ls_wR_factor_gt          0.0802
_refine_ls_wR_factor_ref         0.0812
_reflns_Friedel_coverage         0.000
_reflns_Friedel_fraction_full    .
_reflns_Friedel_fraction_max     .
_reflns_number_gt                859
_reflns_number_total             891
_reflns_threshold_expression     'I > 2\s(I)'
_cod_data_source_file            mmc6.cif
_cod_data_source_block           cd1262a
_cod_database_code               1561401
_shelx_shelxl_version_number     2014/7
_shelx_space_group_comment
;
The symmetry employed for this shelxl refinement is uniquely defined
by the following loop, which should always be used as a source of
symmetry information in preference to the above space-group names.
They are only intended as comments.
;
_shelx_estimated_absorpt_t_min   0.167
_shelx_estimated_absorpt_t_max   0.653
_shelx_res_file
;

    cd1262a.res created by SHELXL-2014/7


TITL cd1262a in Pbcn
CELL 0.71073   7.5615  11.7454  11.1272  90.000  90.000  90.000
ZERR    4.00   0.0015   0.0023   0.0022   0.000   0.000   0.000
LATT  1
SYMM 0.5-X, 0.5-Y, 0.5+Z
SYMM -X, Y, 0.5-Z
SYMM 0.5+X, 0.5-Y, -Z
SFAC O F V MN CS
UNIT 28 8 8 8 8

L.S. 16
BOND
FMAP 2
PLAN 20
ACTA
SIZE 0.24 0.04 0.04
omit -3 50.5
WGHT    0.046900    2.719400
EXTI    0.001384
FVAR       0.19023
CS1   5    0.015658    0.334353    0.934674    11.00000    0.02264    0.02137 =
         0.02508    0.00340    0.00078   -0.00151
MN1   4    0.000000    0.147384    1.250000    10.50000    0.01899    0.01587 =
         0.01586    0.00000   -0.00149    0.00000
MN2   4    0.000000    0.000000    1.000000    10.50000    0.01524    0.01422 =
         0.01629   -0.00037   -0.00010    0.00069
V1    3    0.221003    0.410608    1.254241    11.00000    0.01254    0.01236 =
         0.01485   -0.00003    0.00077   -0.00112
F1    2   -0.098627    0.147306    1.077596    11.00000    0.02134    0.01990 =
         0.02329   -0.00061   -0.00154    0.00413
O1    1    0.344337    0.498588    1.165795    11.00000    0.01654    0.02349 =
         0.02431    0.00291    0.00186   -0.00261
O2    1    0.294762    0.411367    1.396527    11.00000    0.02734    0.02603 =
         0.02079    0.00164   -0.00169   -0.00686
O3    1    0.207569    0.276279    1.204004    11.00000    0.02235    0.02066 =
         0.03082   -0.00493    0.00508   -0.00315
O4    1    0.000000    0.469577    1.250000    10.50000    0.01581    0.01951 =
         0.03944    0.00000    0.00130    0.00000

HKLF 4

REM  cd1262a in Pbcn
REM R1 =  0.0322 for     859 Fo > 4sig(Fo)  and  0.0330 for all     891 data
REM     72 parameters refined using      0 restraints

END

WGHT      0.0470      2.7165

REM Highest difference peak  1.964,  deepest hole -1.531,  1-sigma level  0.270
Q1    1  -0.2635  0.0935  1.1211  11.00000  0.05    0.97
Q2    1   0.1466  0.3310  0.8828  11.00000  0.05    0.89
Q3    1   0.2270  0.5947  1.1162  11.00000  0.05    0.81
Q4    1   0.0207  0.3362  1.2002  11.00000  0.05    0.78
Q5    1   0.0061  0.3373  1.0283  11.00000  0.05    0.77
Q6    1  -0.1320  0.3248  0.8807  11.00000  0.05    0.75
Q7    1   0.0027  0.0012  0.8856  11.00000  0.05    0.73
Q8    1   0.3652  0.5151  1.3426  11.00000  0.05    0.70
Q9    1   0.1561  0.3076  0.9952  11.00000  0.05    0.69
Q10   1   0.2854  0.4025  1.4279  11.00000  0.05    0.68
Q11   1   0.0000  0.2817  0.7500  10.50000  0.05    0.65
Q12   1   0.1361  0.3298  1.4170  11.00000  0.05    0.64
Q13   1   0.3301  0.3984  1.1014  11.00000  0.05    0.63
Q14   1   0.2186  0.2600  1.2731  11.00000  0.05    0.62
Q15   1   0.1259  0.1502  1.0823  11.00000  0.05    0.60
Q16   1   0.1628  0.3477  0.9861  11.00000  0.05    0.60
Q17   1   0.5010  0.3452  1.3863  11.00000  0.05    0.59
Q18   1   0.0795  0.4412  1.2974  11.00000  0.05    0.59
Q19   1  -0.1280  0.0100  0.9546  11.00000  0.05    0.58
Q20   1   0.3747  0.3887  1.3040  11.00000  0.05    0.54
;
_shelx_res_checksum              44629
_shelx_hkl_file
;
   0   2   0   16.42    1.20
   0  -2   0   17.48    1.27
   0   3   0    7.64    1.42
   0  -3   0    8.72    1.63
   0   5   0   -1.41    0.85
   0  -5   0   -0.66    0.93
   0   7   0   -1.28    0.97
   0  -7   0    3.10    1.69
   0   8   0   10.05    1.35
   0  -8   0    8.76    1.64
   0   9   0   -0.65    1.05
   0  -9   0    0.88    1.19
   0  10   0   48.52    3.79
   0 -10   0   64.90    5.04
   0  11   0   -0.19    1.09
   0 -11   0   -0.54    1.36
   0  13   0    1.75    1.27
   0 -13   0    0.37    1.42
   0 -14   0    9.77    2.04
   0 -14  -1    7.51    2.91
   0  13   1    0.35    0.69
   0 -13  -1    1.57    1.85
   0  12   1  165.74    9.46
   0 -12  -1  205.23   11.59
   0  11   1   -0.72    1.27
   0 -11  -1   -0.71    1.08
   0  10   1   38.52    8.33
   0 -10  -1   25.83    2.67
   0   9   1    1.14    1.21
   0  -9  -1    1.34    1.14
   0   8   1 2490.99   64.49
   0  -8  -1 2204.25   57.00
   0   7   1   -0.06    1.27
   0  -7  -1   -1.21    1.21
   0   6   1  212.54    5.80
   0  -6  -1  226.59    6.12
   0   5   1   -1.51    0.93
   0  -5  -1   -0.54    0.96
   0   4   1 2967.33   35.36
   0  -4  -1 3045.98   36.13
   0   3   1    2.65    0.75
   0  -3  -1    7.27    1.47
   0   2   1   75.66    3.31
   0  -2  -1   71.42    3.13
   0  -1  -1    1.01    0.33
   0  -1   1   -0.73    0.39
   0  -2   1   70.65    3.02
   0   3  -1    6.38    1.16
   0  -3   1    8.33    1.78
   0   4  -1 3315.34   39.00
   0  -4   1 3607.57   42.53
   0   5  -1   -1.27    0.78
   0  -5   1   -2.15    1.30
   0   6  -1  204.41    5.55
   0  -6   1  244.26    6.63
   0   7  -1   -0.32    1.26
   0  -7   1   -1.57    1.78
   0   8  -1 2828.07   73.02
   0  -8   1 2865.87   74.07
   0   9  -1    0.05    1.13
   0  -9   1    1.51    1.67
   0  10  -1   25.08    2.61
   0 -10   1   31.57    3.34
   0  11  -1    0.36    0.98
   0 -11   1    1.33    1.27
   0  12  -1  170.63    9.69
   0 -12   1  147.90    8.30
   0  13  -1   -0.92    1.32
   0 -13   1    2.85    1.96
   0 -14   1    2.27    1.38
   0 -14  -2   24.42    3.34
   0  13   2    0.24    0.74
   0 -13  -2    1.29    1.56
   0  12   2  244.84   14.62
   0 -12  -2  225.71   13.33
   0  11   2    0.80    0.54
   0 -11  -2    0.94    1.09
   0  10   2  136.55   11.85
   0 -10  -2  130.44    9.16
   0   9   2    0.59    1.44
   0  -9  -2   -0.28    1.12
   0   8   2   31.71    3.01
   0  -8  -2   33.94    2.80
   0   7   2   -1.83    1.03
   0  -7  -2    2.44    1.57
   0   6   2 3628.11   61.39
   0  -6  -2 3589.06   60.66
   0   5   2   -0.82    0.86
   0  -5  -2   -1.00    1.12
   0   4   2    1.12    0.59
   0  -4  -2    0.90    0.86
   0   3   2   -0.73    0.69
   0  -3  -2   -0.33    0.78
   0   2   2  338.95    5.56
   0  -2  -2  311.83    5.08
   0   1   2    1.38    0.58
   0  -1  -2    0.05    0.42
   0   0  -2   95.66    3.73
   0   0   2   91.61    3.56
   0   1  -2    0.78    0.52
   0  -1   2    1.75    0.59
   0   2  -2  303.94    4.65
   0  -2   2  317.87    4.96
   0   3  -2    0.65    0.92
   0  -3   2   -0.18    0.72
   0   4  -2    0.99    1.04
   0  -4   2   -0.85    0.78
   0   5  -2   -0.35    0.64
   0  -5   2   -0.19    0.89
   0   7  -2    0.47    0.92
   0  -7   2   -1.89    1.07
   0   8  -2   33.28    2.93
   0  -8   2   26.24    2.28
   0   9  -2    0.77    1.18
   0  -9   2    0.33    1.04
   0  10  -2  168.34   11.81
   0 -10   2  138.06    9.68
   0  11  -2    1.54    1.13
   0 -11   2   -0.17    0.97
   0  12  -2  207.60   12.16
   0 -12   2  219.02   12.86
   0  13  -2    1.95    1.89
   0 -13   2    0.56    1.42
   0 -14   2   18.91    2.83
   0  13   3    0.99    0.96
   0 -13  -3    0.61    1.32
   0  12   3   25.71    6.40
   0 -12  -3   23.70    2.57
   0  11   3    0.80    0.82
   0 -11  -3   -0.36    0.96
   0  10   3 1005.05   63.71
   0 -10  -3 1076.01   67.84
   0   9   3    1.12    0.60
   0  -9  -3    1.30    1.13
   0   8   3  327.34   10.38
   0  -8  -3  312.96    9.81
   0   7   3    0.31    0.37
   0  -7  -3   -0.56    1.23
   0   6   3   11.18    3.05
   0  -6  -3    9.61    1.64
   0   5   3    0.26    0.63
   0  -5  -3   -0.37    0.83
   0   4   3 1150.56   15.95
   0  -4  -3 1117.48   15.23
   0   3   3   -0.03    0.70
   0  -3  -3   -0.21    0.84
   0   2   3 4195.63   48.55
   0  -2  -3 4393.49   15.11
   0   1   3   -0.33    0.58
   0  -1  -3    1.17    0.37
   0   0  -3    9.25    0.89
   0   0   3    6.24    0.76
   0   1  -3    2.01    0.84
   0  -1   3    2.59    0.98
   0   2  -3 4691.59    5.14
   0   3  -3   -0.55    0.74
   0  -3   3   -0.71    0.68
   0   4  -3 1274.81   16.70
   0  -4   3 1133.84   15.15
   0   5  -3    0.69    0.72
   0  -5   3    0.91    0.80
   0  -5   3    1.47    0.40
   0   6  -3    9.04    1.21
   0  -6   3    8.29    1.22
   0   7  -3    1.16    0.94
   0  -7   3   -0.44    1.09
   0   8  -3  315.33    9.57
   0  -8   3  386.82   11.99
   0   9  -3    1.08    0.99
   0  -9   3   -0.84    1.23
   0  10  -3 1179.97   74.28
   0 -10   3 1213.65   76.54
   0  11  -3   -0.59    1.12
   0 -11   3   -0.07    1.09
   0  12  -3   27.79    2.89
   0 -12   3   23.61    2.73
   0  13  -3    0.78    1.14
   0 -13   3    2.16    1.81
   0  13   4    0.44    1.12
   0 -13  -4    1.17    1.32
   0  12   4  109.33   18.58
   0 -12  -4   93.31    5.88
   0  11   4    0.51    0.67
   0 -11  -4    0.37    1.30
   0  10   4   72.76    7.74
   0 -10  -4   77.41    4.85
   0   9   4    0.17    0.52
   0  -9  -4    1.23    1.48
   0   8   4  102.63    7.28
   0  -8  -4  118.21    8.16
   0   7   4    0.94    0.53
   0  -7  -4    2.44    2.21
   0   6   4   13.27    3.49
   0  -6  -4   10.14    1.50
   0   5   4    1.17    0.90
   0  -5  -4    0.58    1.00
   0   4   4   13.42    3.29
   0  -4  -4   19.16    4.72
   0   3   4    1.97    0.96
   0  -3  -4    1.43    0.57
   0   2   4  292.54    5.54
   0  -2  -4  289.90    5.43
   0  -1  -4    0.76    0.63
   0  -1  -4    0.11    0.63
   0   0  -4 1480.73   17.78
   0   1  -4    1.03    0.64
   0  -1   4    1.53    0.84
   0   2  -4  266.37    4.48
   0  -2   4  266.67    4.53
   0   3  -4    0.46    0.64
   0  -3   4   -0.09    0.68
   0   4  -4    9.36    0.99
   0  -4   4   11.49    1.29
   0   5  -4    3.25    1.45
   0  -5   4    0.99    1.15
   0   6  -4   10.85    1.21
   0  -6   4   12.10    1.61
   0  -6   4   16.17    2.14
   0   7  -4   -0.48    0.79
   0  -7   4    0.42    0.94
   0  -7   4    0.65    0.26
   0   8  -4  115.82    7.79
   0  -8   4   97.02    6.68
   0  -8   4  102.46    6.36
   0   9  -4    1.16    1.01
   0  -9   4    1.49    1.07
   0  -9   4    0.03    0.43
   0  10  -4   54.00    3.79
   0 -10   4   66.85    3.40
   0  11  -4   -0.55    1.05
   0 -11   4    0.31    0.95
   0 -11   4   -0.57    0.48
   0  12  -4  130.33    9.59
   0 -12   4   95.08    5.98
   0 -12   4   86.35    4.43
   0  13  -4   -1.08    1.34
   0 -13   4    1.04    1.22
   0 -13  -5   -1.03    1.26
   0  12   5  200.70   15.84
   0 -12  -5  211.81   16.41
   0  11   5    1.37    1.44
   0 -11  -5    2.58    1.54
   0  10   5  230.97   12.53
   0 -10  -5  208.53    8.19
   0   9   5    0.18    0.57
   0  -9  -5   -0.55    1.15
   0   8   5 3102.87  123.54
   0  -8  -5 3383.68  500.80
   0   7   5    1.23    0.59
   0  -7  -5   -0.27    1.09
   0   6   5   83.09    7.33
   0  -6  -5   89.91    4.71
   0   5   5    0.53    0.59
   0  -5  -5   -0.61    1.24
   0   3   5    0.32    0.44
   0  -3  -5    0.42    0.72
   0   2   5 1558.27   27.30
   0  -2  -5 1474.23   25.84
   0  -1  -5   -0.56    0.70
   0  -1  -5   -0.01    0.61
   0   0  -5    1.05    0.63
   0   0  -5    1.99    0.92
   0   1  -5   -0.97    0.58
   0  -1   5    0.02    0.55
   0   2  -5 1460.38   24.88
   0  -2   5 1407.86   24.06
   0   3  -5   -0.83    0.62
   0  -3   5    0.16    0.71
   0   5  -5    0.28    0.34
   0  -5   5    0.11    0.72
   0   6  -5  104.40    5.14
   0  -6   5   77.60    4.02
   0   7  -5    0.95    1.23
   0  -7   5   -0.51    0.88
   0   8  -5 2446.84   96.80
   0  -8   5 2938.69  116.61
   0  -8   5 2520.76   99.05
   0   9  -5   -0.45    0.98
   0  -9   5    0.55    0.58
   0  -9   5    1.08    0.57
   0  10  -5  209.66    7.89
   0 -10   5  167.99    5.43
   0  11  -5   -0.31    1.00
   0 -11   5    1.32    1.38
   0 -11   5    0.60    0.40
   0  12  -5  250.41   19.18
   0 -12   5  199.83   15.66
   0  13  -5    1.52    1.47
   0 -13   5    3.32    2.44
   0 -13  -6    2.93    1.79
   0  12   6  458.18   14.89
   0 -12  -6  491.54   15.26
   0  11   6   -0.57    1.41
   0 -11  -6    1.45    1.29
   0  10   6  370.36   18.81
   0 -10  -6  389.52   19.03
   0   9   6    0.45    0.79
   0  -9  -6    0.26    1.38
   0   8   6  516.10   33.33
   0  -8  -6  591.69   37.90
   0   7   6   -0.28    1.08
   0  -7  -6    0.51    0.97
   0   6   6  135.34    7.15
   0  -6  -6  124.82    6.37
   0   5   6   -2.13    0.93
   0  -5  -6    1.47    0.71
   0   4   6 3394.48   86.93
   0  -4  -6 3577.04   18.82
   0   3   6    0.07    0.45
   0  -3  -6    0.75    0.54
   0  -2  -6  717.49    7.76
   0  -2  -6  752.40    7.14
   0  -1  -6    1.17    0.80
   0  -1  -6   -0.40    0.61
   0   0  -6 4231.46   70.33
   0   0  -6 3874.46   63.79
   0   1  -6    0.80    0.60
   0  -1   6    0.16    0.59
   0   2  -6  687.34    6.11
   0  -2   6  751.58    6.79
   0   3  -6    0.33    0.66
   0  -3   6    0.66    0.67
   0   4  -6 3687.44   16.36
   0  -4   6 3397.05   86.10
   0   5  -6   -0.12    0.64
   0  -5   6   -0.36    0.77
   0   6  -6  145.94    7.10
   0  -6   6  116.15    5.86
   0   7  -6    0.14    0.99
   0  -7   6    0.39    0.88
   0   8  -6  485.86   30.92
   0  -8   6  497.34   31.88
   0   9  -6   -0.53    0.96
   0  -9   6    2.19    1.48
   0  10  -6  398.39   19.16
   0 -10   6  366.07   18.01
   0  11  -6    0.77    1.00
   0 -11   6    1.71    1.54
   0 -11   6    1.07    0.42
   0  12  -6  458.30   13.70
   0 -12   6  411.28   13.21
   0  13  -6   -0.79    1.36
   0 -13   6   -0.85    1.39
   0 -12  -7   66.75    5.63
   0  11   7    1.81    1.38
   0 -11  -7    0.03    1.21
   0  10   7  209.13   13.05
   0 -10  -7  223.05   13.32
   0   9   7    1.88    1.33
   0  -9  -7    2.14    1.81
   0  -8  -7  131.79    7.42
   0   7   7    0.49    0.53
   0  -7  -7    1.64    1.16
   0   6   7    1.98    1.05
   0  -6  -7   -0.37    1.20
   0   5   7   -0.57    0.97
   0  -5  -7    0.91    0.68
   0   4   7  243.34    8.16
   0  -4  -7  231.25    7.98
   0  -3  -7    0.64    0.57
   0  -2  -7  341.33   12.77
   0  -2  -7  400.83   11.45
   0  -1  -7    0.89    0.55
   0  -1  -7   -1.17    0.69
   0   0  -7    0.73    0.52
   0   0  -7   -0.83    0.62
   0   1  -7    0.57    0.28
   0  -1   7    1.21    1.08
   0   2  -7  335.40   10.65
   0  -2   7  375.55   10.68
   0   3  -7   -0.05    0.73
   0  -3   7    0.60    0.73
   0   4  -7  215.95    6.54
   0  -4   7  220.64    6.77
   0   5  -7    1.50    1.29
   0  -5   7    0.08    0.78
   0   6  -7    1.29    0.91
   0  -6   7    0.28    0.97
   0   7  -7    4.17    2.18
   0  -7   7    0.27    0.83
   0   8  -7  128.84    6.48
   0  -8   7  115.75    7.19
   0   9  -7    2.25    1.22
   0  -9   7    0.04    0.95
   0  10  -7  203.74   11.91
   0 -10   7  181.86   11.14
   0  11  -7   -0.16    1.02
   0 -11   7    3.30    2.32
   0  12  -7   78.38    6.11
   0 -12   7   70.29    6.00
   0 -11  -8    0.07    1.59
   0  10   8  504.30   36.99
   0 -10  -8  652.11   76.92
   0   9   8    0.72    0.88
   0  -9  -8   -0.19    1.18
   0  -7  -8   -0.10    0.97
   0   5   8    0.76    0.67
   0  -5  -8    0.70    0.64
   0   4   8  114.28    6.01
   0  -4  -8  111.69    7.38
   0  -3  -8   -0.71    0.88
   0  -3  -8   -0.97    0.77
   0  -2  -8 1240.37   31.22
   0  -2  -8 1385.46   34.06
   0  -1  -8    0.51    0.41
   0  -1  -8   -0.62    0.69
   0   0  -8  105.44    5.42
   0   0  -8  102.70    4.98
   0   1  -8    0.16    0.85
   0   1  -8    0.64    0.65
   0   2  -8 1246.92   30.66
   0  -2   8 1318.89   32.33
   0   3  -8    0.93    0.78
   0  -3   8    0.38    0.66
   0   3  -8    0.24    0.15
   0   4  -8  110.85    5.44
   0  -4   8  107.41    5.30
   0   5  -8    0.25    1.11
   0  -5   8   -0.37    0.66
   0   6  -8 1257.56   11.03
   0  -6   8 1256.18   78.54
   0   7  -8    0.32    1.17
   0  -7   8   -0.44    0.86
   0   8  -8  309.48   13.19
   0  -8   8  293.51   13.04
   0   9  -8    3.94    1.61
   0  -9   8    3.61    1.59
   0  10  -8  530.03   38.10
   0 -10   8  501.02   43.34
   0  11  -8    2.95    1.69
   0 -11   8    1.18    1.46
   0  10   9  259.00   18.94
   0 -10  -9  343.25   19.89
   0   9   9    3.44    1.91
   0  -9  -9   -0.10    1.15
   0   8   9    2.59    0.90
   0  -8  -9    3.34    1.49
   0   7   9    0.91    1.12
   0   6   9    2.14    1.60
   0  -6  -9    3.39    1.05
   0   5   9    1.01    1.03
   0  -5  -9    1.40    0.79
   0  -4  -9    3.05    1.29
   0  -4  -9    4.21    1.37
   0  -3  -9    0.87    0.67
   0  -3  -9    0.73    0.85
   0  -2  -9  489.54   21.45
   0  -2  -9  554.77   22.93
   0  -1  -9    1.71    0.75
   0  -1  -9   -0.07    0.68
   0   0  -9    1.64    0.62
   0   0  -9   -0.32    0.65
   0   1  -9    2.02    0.90
   0   1  -9    0.75    0.69
   0   2  -9  474.15   19.92
   0  -2   9  544.44   22.40
   0   3  -9    1.42    1.15
   0  -3   9    0.03    0.60
   0   3  -9   -0.09    0.19
   0   4  -9    2.94    1.63
   0  -4   9    3.76    1.25
   0   5  -9   -0.18    0.81
   0  -5   9    1.30    0.81
   0   6  -9    2.68    1.51
   0  -6   9    1.17    0.85
   0   7  -9    1.52    1.12
   0  -7   9   -0.57    0.76
   0  -8   9    4.36    1.57
   0   9  -9   -0.26    0.97
   0  -9   9    1.22    1.04
   0  10  -9  249.49   14.18
   0 -10   9  257.38   16.26
   0  -9 -10   -1.67    1.17
   0   8  10   62.94   13.84
   0  -8 -10   67.55    6.01
   0   7  10    0.37    0.70
   0  -7 -10    0.92    0.99
   0  -6 -10   49.03   11.75
   0  -5 -10    0.63    0.69
   0  -5 -10    0.81    0.83
   0  -4 -10  754.89   22.32
   0  -4 -10  714.01   21.58
   0  -3 -10    0.50    0.61
   0  -3 -10    0.59    0.75
   0  -2 -10   57.39    4.32
   0  -2 -10   66.04    3.88
   0  -1 -10   -0.36    0.83
   0  -1 -10   -0.17    0.74
   0   0 -10  786.25   49.90
   0   0 -10  804.64   50.49
   0   1 -10   -0.70    0.83
   0   1 -10   -0.04    0.69
   0   2 -10   62.78    4.06
   0   2 -10   58.54    3.44
   0   3 -10    1.43    0.89
   0  -3  10   -0.50    0.62
   0   3 -10    0.81    0.34
   0   4 -10  777.39   22.36
   0  -4  10  727.91   21.08
   0   5 -10    1.03    0.58
   0  -5  10    1.16    0.99
   0   6 -10   46.85    2.48
   0  -6  10   48.14    4.33
   0   7 -10    0.85    0.99
   0  -7  10   -0.24    0.83
   0   8 -10   93.95    7.94
   0  -8  10   66.86    6.08
   0  -9  10    1.97    1.81
   0   8  11  698.45   41.10
   0  -8 -11  829.03   47.77
   0  -7 -11    0.30    0.97
   0  -7 -11    0.03    0.85
   0  -6 -11    5.93    2.13
   0  -6 -11    3.97    1.87
   0  -5 -11   -1.29    0.90
   0  -5 -11   -0.29    0.93
   0  -4 -11 1203.56   62.68
   0  -4 -11 1179.44   61.24
   0  -3 -11   -0.44    0.96
   0  -3 -11    0.63    0.79
   0  -2 -11  556.75   22.46
   0  -2 -11  573.16   22.67
   0  -1 -11   -1.23    0.82
   0  -1 -11   -0.03    0.70
   0   0 -11    0.50    1.02
   0   0 -11    2.92    1.29
   0   1 -11    0.99    0.68
   0   1 -11    0.36    0.73
   0   2 -11  644.21   26.00
   0   2 -11  619.19   24.34
   0   3 -11    0.24    0.75
   0   3 -11   -0.20    0.20
   0   4 -11 1310.52   67.77
   0  -4  11 1173.74   60.82
   0   5 -11    0.30    0.49
   0  -5  11   -0.42    0.77
   0   6 -11    4.48    1.72
   0  -6  11    8.32    1.48
   0   7 -11    3.10    1.59
   0  -7  11   -0.24    1.07
   0  -8  11  731.33   42.32
   0  -7 -12   -0.13    1.00
   0  -6 -12   55.77    7.77
   0  -6 -12   58.90    4.61
   0  -5 -12   -0.08    1.00
   0  -5 -12   -0.30    0.87
   0  -4 -12   32.20    8.25
   0  -4 -12   47.36    3.43
   0  -3 -12   -0.03    0.93
   0  -3 -12   -0.10    0.85
   0  -2 -12   66.54    5.54
   0  -2 -12   84.08    4.70
   0  -1 -12   -0.56    0.72
   0  -1 -12    0.18    0.82
   0   0 -12  934.90   57.97
   0   0 -12  711.52   44.08
   0   1 -12    1.23    0.88
   0   1 -12    0.28    0.46
   0   2 -12   75.60    6.77
   0   2 -12   81.40    4.51
   0   3 -12   -0.12    0.85
   0   3 -12    0.60    0.90
   0   3 -12    0.65    0.40
   0   4 -12   46.88    3.31
   0   5 -12    0.04    0.51
   0  -5  12    0.29    0.88
   0   6 -12   64.58    4.79
   0  -7  12    0.58    1.19
   0  -4 -13    4.47    1.60
   0  -4 -13    3.58    1.02
   0  -3 -13    1.52    0.74
   0  -3 -13   -0.18    0.82
   0  -2 -13  354.66   19.82
   0  -2 -13  375.98   20.62
   0  -1 -13    1.13    0.61
   0  -1 -13   -1.05    0.88
   0   0 -13    0.50    0.86
   0   0 -13   -0.27    0.84
   0   1 -13    0.06    0.37
   0   1 -13    0.60    0.85
   0   2 -13  366.49   20.56
   0   2 -13  390.22   21.29
   0   3 -13   -0.11    0.87
   0   3 -13    0.68    0.91
   0   4 -13    3.35    1.70
   1   4 -13    5.03    1.81
   1   3 -13    9.99    2.92
   1   3 -13   17.06    1.82
   1   3 -13    9.84    2.29
   1   2 -13   -0.02    0.68
   1   2 -13    2.78    1.69
   1   1 -13  344.48   19.05
   1   1 -13  393.01   21.29
   1   0 -13   -0.18    0.81
   1  -1 -13  331.66   18.25
   1  -1 -13  394.76   21.46
   1  -2 -13    0.20    0.60
   1  -2 -13   -0.25    0.76
   1  -3 -13    8.71    3.39
   1  -3 -13   11.71    1.57
   1  -4 -13    3.31    1.30
   1  -4 -13    2.89    1.19
   1   6 -12    0.72    0.89
  -1  -6  12    0.27    0.35
   1   5 -12    9.73    1.30
  -1  -5  12   11.32    1.85
   1   4 -12    2.38    0.93
   1   4 -12    3.96    1.48
   1   3 -12    8.84    2.76
   1   3 -12   17.70    1.89
   1   3 -12   12.33    2.69
   1   2 -12    0.77    0.57
   1   2 -12    1.56    0.76
   1   1 -12   43.00    7.37
   1   1 -12   48.87    3.11
   1   0 -12   13.89    4.36
   1   0 -12   17.67    2.75
   1  -1 -12   36.46    5.69
   1  -1 -12   49.17    6.46
   1  -2 -12    0.36    0.47
   1  -2 -12    2.21    1.13
   1  -3 -12    4.70    2.87
   1  -3 -12   11.36    3.31
   1  -4 -12    3.01    1.27
   1  -4 -12    2.09    1.20
   1  -5 -12    9.70    2.22
   1  -5 -12    9.22    1.54
   1  -6 -12    0.95    0.84
   1   8 -11    2.34    0.92
  -1  -8  11    1.39    1.46
  -1  -7  11  286.26   16.11
   1   6 -11   -0.98    0.87
  -1  -6  11   -0.32    0.70
   1   5 -11  212.32    9.13
  -1  -5  11  197.60   13.76
   1   4 -11    1.81    0.97
  -1  -4  11    1.02    0.68
   1   4 -11    0.41    0.22
   1   3 -11   22.18    5.12
   1   3 -11   34.83    2.19
   1   3 -11   28.56    4.04
   1   2 -11    3.97    1.01
   1   2 -11    3.25    0.78
   1   1 -11  241.85   10.54
   1   1 -11  250.60   10.43
   1   0 -11    0.06    0.63
   1   0 -11    0.56    0.68
   1  -1 -11  237.75   10.24
   1  -1 -11  260.96   10.91
   1  -2 -11    4.01    1.14
   1  -2 -11    2.58    0.93
   1  -3 -11   26.39    7.24
   1  -3 -11   29.44    2.23
   1  -4 -11    0.74    0.41
   1  -4 -11    0.68    1.15
   1  -5 -11  252.86   11.41
   1  -6 -11    0.24    0.85
   1  -6 -11    0.31    0.88
   1  -7 -11  280.98   15.78
  -1   8  11    1.71    1.62
   1  -8 -11    0.06    1.04
   1   9 -10   20.46    1.95
  -1  -9  10   23.50    2.82
   1   8 -10    1.77    1.15
  -1  -8  10   -0.48    0.90
   1   7 -10   67.80    4.14
  -1  -7  10   45.90    3.14
   1   6 -10   21.84    2.05
  -1  -6  10   21.48    1.94
   1   5 -10   92.10    3.02
  -1  -5  10   92.55    3.23
   1   4 -10    1.83    0.83
  -1  -4  10    1.56    0.67
   1   4 -10    2.17    0.33
   1   3 -10   16.49    3.11
   1   3 -10   15.92    2.94
   1   2 -10   34.17    7.14
   1   2 -10   34.87    2.33
   1   1 -10  213.41   10.45
   1   1 -10  232.61   10.99
   1   0 -10    1.59    0.58
   1   0 -10    0.41    0.61
   1  -1 -10  217.82   10.51
   1  -1 -10  233.83   10.91
   1  -2 -10   30.94    7.23
   1  -2 -10   37.34    5.29
   1  -3 -10   20.41    5.01
   1  -3 -10   13.89    1.50
   1  -4 -10    1.21    0.65
   1  -4 -10    0.76    0.77
   1  -5 -10  110.65    6.43
   1  -5 -10   82.49    3.35
  -1   6  10   20.45    4.46
   1  -6 -10   18.98    1.95
  -1   7  10   52.40   13.33
   1  -7 -10   52.56    3.59
  -1   8  10    1.73    1.07
   1  -8 -10    0.58    0.95
   1  -9 -10   25.82    3.01
   1  10  -9   16.75    1.96
  -1 -10   9   15.91    2.80
   1   9  -9   -0.61    0.86
  -1  -9   9    4.80    2.49
   1   8  -9    1.95    1.08
  -1  -8   9    1.36    0.95
   1   7  -9  179.93    9.12
  -1  -7   9  156.68    8.28
   1   6  -9    6.99    1.48
  -1  -6   9    4.48    1.09
   1   5  -9  268.46   12.36
  -1  -5   9  268.44   12.52
   1   4  -9    4.73    1.63
  -1  -4   9    5.91    1.05
   1   4  -9    6.33    1.03
   1   3  -9   23.75    2.02
  -1  -3   9   28.46    3.27
   1   3  -9   29.61    4.85
   1   2  -9   69.84    4.33
   1   2  -9   74.20    4.29
   1   1  -9  439.08   18.34
   1   1  -9  443.21   18.21
   1   0  -9   -0.20    0.66
   1   0  -9    0.12    0.52
   1  -1  -9  406.84   17.06
   1  -1  -9  444.04   18.26
   1  -2  -9   65.23    5.57
   1  -2  -9   71.11    4.62
   1  -3  -9   32.30    4.53
   1  -3  -9   26.70    3.48
   1  -4  -9    6.28    1.31
   1  -4  -9    3.62    1.13
  -1   5   9  275.12   13.47
   1  -5  -9  306.16   14.50
  -1   6   9    7.20    1.03
   1  -6  -9    4.34    1.12
  -1   7   9  151.15    8.83
   1  -7  -9  157.20    8.37
  -1   8   9    0.86    1.25
   1  -8  -9    2.46    1.41
   1  -9  -9    0.22    1.31
  -1  10   9   19.00    5.54
   1 -10  -9   17.75    2.19
   1  11  -8   78.92    5.54
  -1 -11   8   61.51    4.39
   1  10  -8   10.72    1.87
  -1 -10   8    5.02    2.24
  -1  -9   8  438.66   24.05
   1   8  -8    0.17    0.69
  -1  -8   8    0.29    0.86
   1   7  -8  804.87   35.36
  -1  -7   8  810.03   36.03
   1   6  -8    0.99    0.92
  -1  -6   8   -0.61    0.66
   1   5  -8  548.35   22.01
  -1  -5   8  575.40   23.29
   1   4  -8   23.69    1.80
  -1  -4   8   19.94    2.17
   1   4  -8   19.96    2.16
   1   3  -8 1483.44   35.43
  -1  -3   8 1346.23   32.26
   1   3  -8 1393.99   32.81
   1   2  -8   50.81    3.53
  -1  -2   8   51.87    3.67
   1   1  -8  837.67   21.27
   1   1  -8  751.46   18.73
   1   0  -8   85.01    4.43
   1   0  -8   91.01    4.34
   1  -1  -8  734.72   18.75
   1  -1  -8  797.77   19.91
   1  -2  -8   51.91    4.46
   1  -2  -8   53.78    3.80
   1  -3  -8 1393.96   33.85
   1  -3  -8 1326.54   32.04
  -1   4   8   20.44    4.56
   1  -4  -8   21.03    5.32
  -1   5   8  593.02   24.67
   1  -5  -8  644.22   26.25
  -1   6   8    0.45    0.85
   1  -6  -8    1.62    1.33
  -1   7   8  806.73   36.56
   1  -7  -8  926.13   41.08
  -1   8   8    1.07    0.89
   1  -8  -8    1.63    1.19
  -1   9   8  524.32   29.20
   1  -9  -8  528.43   28.47
  -1  10   8    9.41    2.36
   1 -10  -8    8.31    1.89
  -1  11   8   94.59   23.33
   1 -11  -8   79.68    6.16
   1  12  -7   11.17    2.17
  -1 -12   7    4.78    1.86
   1  11  -7   87.58    4.36
  -1 -11   7   73.30    4.85
   1  10  -7    1.60    0.95
  -1 -10   7    1.03    1.27
   1   9  -7   68.20    3.21
  -1  -9   7   54.45    3.50
   1   8  -7   17.15    1.64
  -1  -8   7   16.84    1.87
   1   7  -7   65.57    2.63
  -1  -7   7   64.33    3.02
   1   6  -7    2.56    1.17
  -1  -6   7    0.80    0.75
   1   5  -7  334.98    9.27
  -1  -5   7  294.38    8.48
   1   4  -7   98.94    4.74
  -1  -4   7   91.47    4.51
   1   4  -7   94.36    4.10
   1   3  -7   67.76    3.48
  -1  -3   7   66.56    3.42
   1   3  -7   63.05    3.26
   1   2  -7   16.09    1.20
  -1  -2   7   15.96    1.23
   1   1  -7  401.59   11.49
   1   1  -7  354.31   10.03
   1   0  -7    0.46    0.47
   1   0  -7    0.21    0.46
   1  -1  -7  364.09   10.45
   1  -1  -7  418.97   11.57
   1  -2  -7   16.88    3.96
   1  -2  -7   16.06    1.50
  -1   3   7   65.45    5.11
   1  -3  -7   64.68    4.30
  -1   4   7   92.69    5.04
   1  -4  -7  103.74    5.90
  -1   5   7  306.56    9.79
   1  -5  -7  316.57    9.29
  -1   6   7    2.69    1.07
   1  -6  -7    4.03    1.08
  -1   7   7   78.15    4.46
   1  -7  -7   83.65    3.79
  -1   8   7   24.54    5.85
   1  -8  -7   21.73    2.32
  -1   9   7   68.54   15.25
   1  -9  -7   60.62    3.36
  -1  10   7    2.78    1.65
   1 -10  -7    1.41    1.14
  -1  11   7   86.45   18.56
   1 -11  -7   99.19    5.31
   1  12  -6    4.99    1.58
  -1 -12   6    4.94    2.45
   1  11  -6  647.55  193.62
  -1 -11   6  545.47   23.01
   1  10  -6    1.96    1.17
  -1 -10   6    4.08    1.97
  -1 -10   6    0.57    0.56
   1   9  -6  111.83    4.73
  -1  -9   6  107.12    5.13
   1   8  -6    2.44    1.48
  -1  -8   6    2.28    1.28
   1   7  -6  130.51    6.08
  -1  -7   6  139.68    6.95
   1   6  -6   21.68    1.97
  -1  -6   6   21.51    2.82
   1   5  -6  956.60   23.94
  -1  -5   6  756.20   19.27
   1   4  -6   26.67    1.68
  -1  -4   6   25.07    2.03
   1   4  -6   28.49    2.70
   1   3  -6   41.99    2.20
  -1  -3   6   37.51    2.02
   1   3  -6   34.89    2.28
   1   2  -6    9.84    2.02
  -1  -2   6   10.71    1.24
   1   1  -6  751.85    8.92
   1   0  -6    4.31    1.01
   1   0  -6    2.68    0.63
   1  -1  -6  773.64    6.81
   1  -1  -6  791.50    6.21
  -1   2   6    8.03    1.02
   1  -2  -6    9.36    2.25
  -1   3   6   36.74    3.02
   1  -3  -6   37.45    3.08
  -1   4   6   28.73    6.85
   1  -4  -6   30.35    3.98
  -1   5   6  900.59   23.87
   1  -5  -6  840.25   21.51
  -1   6   6   24.13    5.76
   1  -6  -6   26.60    2.64
  -1   7   6  153.63    7.96
   1  -7  -6  184.75    8.96
  -1   8   6    2.30    0.92
   1  -8  -6    1.89    1.17
  -1  10   6    1.33    1.36
   1 -10  -6    1.59    1.28
  -1  11   6  607.48  181.80
   1 -11  -6  579.57   23.71
  -1  12   6    4.15    2.14
   1 -12  -6    2.14    1.40
   1  13  -5  217.93   13.60
  -1 -13   5  235.80   15.27
   1  12  -5   -0.04    1.02
  -1 -12   5    2.73    2.15
  -1 -12   5    1.27    0.68
   1  11  -5  333.29   18.54
  -1 -11   5  284.24   16.41
   1  10  -5   10.45    1.99
  -1 -10   5    6.76    1.54
  -1 -10   5    6.26    1.29
   1   9  -5   22.29    1.88
  -1  -9   5   14.69    1.73
  -1  -9   5   20.58    4.25
   1   8  -5   48.06    3.08
  -1  -8   5   54.35    6.11
  -1  -8   5   42.24    5.74
   1   7  -5  809.63   20.51
  -1  -7   5  823.17   21.60
  -1  -7   5  689.01   17.31
   1   6  -5   18.73    1.52
  -1  -6   5   20.77    2.17
   1   5  -5  674.50    6.59
  -1  -5   5  630.38    7.09
   1   4  -5    4.97    0.89
  -1  -4   5    5.52    1.32
   1   4  -5    4.44    0.52
   1   3  -5   98.57    2.80
  -1  -3   5   90.47    2.72
   1   3  -5   98.07    2.83
   1   2  -5    1.55    0.63
  -1  -2   5    1.19    0.42
   1   2  -5   -0.02    0.22
   1   1  -5  581.01   10.27
  -1  -1   5  601.25   10.66
   1   0  -5   -0.57    0.52
   1   0  -5    0.47    0.38
   1  -1  -5  640.75   11.75
   1  -1  -5  648.14   11.59
  -1   2   5    0.86    0.36
   1  -2  -5   -0.27    0.70
  -1   3   5   94.65    3.30
   1  -3  -5  101.89    4.34
  -1   4   5    4.69    1.30
   1  -4  -5    3.64    0.91
  -1   5   5  686.07    8.96
   1  -5  -5  676.79    7.58
  -1   6   5   22.39    5.30
   1  -6  -5   22.79    2.25
  -1   7   5  802.40   21.42
   1  -7  -5  810.90   21.06
  -1   8   5   50.22    8.94
   1  -8  -5   49.99    3.43
  -1   9   5   21.17    6.10
   1  -9  -5   22.03    2.54
  -1  10   5    7.14    1.57
   1 -10  -5    9.31    1.58
  -1  11   5  295.30   17.13
   1 -11  -5  283.76   16.03
  -1  12   5   -1.60    1.37
   1 -12  -5    1.57    1.34
   1  13  -4   49.82    3.36
  -1 -13   4   50.64    4.13
   1  12  -4    9.54    1.70
  -1 -12   4    8.82    1.88
  -1 -12   4    6.23    1.25
   1  11  -4    3.45    1.49
  -1 -11   4    4.65    1.34
  -1 -11   4    3.28    0.79
   1  10  -4    2.53    1.61
  -1 -10   4    1.79    0.77
  -1 -10   4    1.45    0.58
   1   9  -4    2.07    1.80
  -1  -9   4    0.21    1.00
  -1  -9   4    8.07    2.06
   1   8  -4    6.27    1.34
  -1  -8   4    4.41    1.01
  -1  -8   4    7.23    1.36
   1   7  -4  375.10   10.48
  -1  -7   4  352.70   10.34
  -1  -7   4  355.32    9.97
   1   6  -4   64.59    3.34
  -1  -6   4   60.04    3.43
  -1  -6   4   50.95    3.60
   1   5  -4  186.56    3.35
  -1  -5   4  190.21    3.94
  -1  -5   4  199.21    3.32
   1   4  -4    6.03    0.90
  -1  -4   4    8.07    1.71
  -1  -4   4    5.80    1.06
   1   3  -4   18.89    1.05
  -1  -3   4   22.41    3.08
   1   3  -4   21.69    2.78
   1   2  -4   20.41    1.24
  -1  -2   4   20.64    1.33
   1   2  -4   20.68    2.30
   1   1  -4   98.72    3.87
  -1  -1   4  100.66    3.95
   1   0  -4  677.66    8.83
   1   0  -4  649.27    8.14
  -1   1   4  108.26    4.44
   1  -1  -4  119.88    2.96
  -1   2   4   21.13    3.19
   1  -2  -4   23.06    1.64
  -1   3   4   23.80    1.47
   1  -3  -4   21.89    1.35
  -1   4   4    7.16    1.86
   1  -4  -4    5.43    1.03
  -1   5   4  214.21    5.16
   1  -5  -4  233.70    4.87
  -1   6   4   60.16    3.55
   1  -6  -4   68.36    3.87
  -1   7   4  388.72   11.68
   1  -7  -4  383.52   11.07
   1  -8  -4    5.94    1.39
  -1   9   4    2.07    1.32
   1  -9  -4    1.62    1.24
  -1  10   4    5.66    1.35
   1 -10  -4    1.60    1.07
  -1  11   4    4.79    1.64
   1 -11  -4    3.21    1.66
  -1  12   4    9.20    2.55
   1 -12  -4   10.47    1.98
  -1  13   4   52.12   13.56
   1 -13  -4   51.52    3.63
   1  13  -3  351.94   11.34
  -1 -13   3  348.57   11.78
   1  12  -3    2.51    1.18
  -1 -12   3    2.80    1.35
  -1 -12   3    1.68    0.54
   1  11  -3  679.29   26.91
  -1 -11   3  686.64   26.58
   1  10  -3   19.64    2.09
  -1 -10   3   14.96    1.70
  -1 -10   3   17.94    3.09
   1   9  -3   25.08    4.37
  -1  -9   3   13.61    1.67
  -1  -9   3   18.45    3.66
   1   8  -3    1.26    1.12
  -1  -8   3   -1.06    0.99
  -1  -8   3    2.42    0.71
   1   7  -3 1358.17   35.65
  -1  -7   3 1106.94   29.38
  -1  -7   3 1318.98   34.10
   1   6  -3   19.03    1.46
  -1  -6   3   17.98    1.63
  -1  -6   3   21.41    3.84
  -1  -5   3 1861.46   31.97
  -1  -5   3 2023.41   34.30
   1   4  -3   24.47    3.41
  -1  -4   3   23.61    1.62
  -1  -4   3   20.96    2.71
   1   3  -3  115.43    2.52
  -1  -3   3  104.53    4.35
  -1  -3   3  110.47    4.61
   1   3  -3  117.54    2.47
   1   2  -3   22.18    1.25
  -1  -2   3   23.68    1.30
   1   2  -3   21.96    1.30
  -1  -1   3 3388.72   37.89
   1   0  -3    1.61    0.48
   1   0  -3   -0.31    0.36
  -1   1   3 3804.12   43.18
   1  -1  -3 4130.28   46.60
  -1   2   3   25.29    1.98
   1  -2  -3   25.39    1.48
  -1   3   3  119.11    3.08
   1  -3  -3  121.61    2.93
  -1   4   3   22.34    3.25
   1  -4  -3   27.93    1.81
  -1   5   3 2012.16   35.10
   1  -5  -3 2044.88   35.18
  -1   6   3   21.07    6.26
   1  -6  -3   20.45    1.91
  -1   7   3 1366.70   36.60
   1  -7  -3 1429.40   37.84
  -1   8   3    1.14    1.23
   1  -8  -3    3.54    1.26
  -1   9   3   18.61    5.00
   1  -9  -3   16.31    1.80
  -1  10   3   18.99    5.73
   1 -10  -3   17.50    2.09
  -1  11   3  800.07   32.28
   1 -11  -3  769.49   30.65
  -1  12   3    1.59    0.99
   1 -12  -3    2.22    1.36
  -1  13   3  374.20   12.83
   1 -13  -3  492.28   16.12
   1  14  -2    1.66    1.22
  -1 -14   2    2.07    1.77
  -1 -14   2    1.10    0.90
   1  13  -2   56.12   14.58
  -1 -13   2   44.87    3.71
   1  12  -2    8.06    1.68
  -1 -12   2    9.28    2.39
  -1 -12   2    5.71    1.11
   1  11  -2   12.07    1.76
  -1 -11   2    5.84    1.57
  -1 -11   2   11.26    1.42
   1  10  -2    6.90    1.33
  -1 -10   2    6.50    1.36
  -1 -10   2    3.96    1.27
   1   9  -2 1358.68   54.48
  -1  -9   2 1847.67   74.36
  -1  -9   2 1558.80   61.92
   1   8  -2   28.52    2.49
  -1  -8   2   25.18    2.80
  -1  -8   2   22.45    3.24
   1   7  -2  419.77   12.46
  -1  -7   2  426.87   12.95
  -1  -7   2  390.18   11.01
   1   6  -2    8.06    1.20
  -1  -6   2    5.37    1.54
  -1  -6   2    7.47    0.92
   1   5  -2   57.95    2.50
  -1  -5   2   57.24    2.60
  -1  -5   2   52.79    1.96
   1   4  -2  450.27    6.95
  -1  -4   2  504.46    8.19
  -1  -4   2  452.67    7.06
   1   2  -2    2.65    0.63
  -1  -2   2    2.94    0.79
  -1  -2   2    2.78    0.71
   1   2  -2    2.58    0.60
   1   1  -2   57.09    2.23
  -1  -1   2   46.03    1.83
   1   1  -2   47.60    2.20
   1   0  -2   91.45    3.43
   1   0  -2   84.31    3.12
  -1   1   2   52.55    2.25
   1  -1  -2   49.86    2.09
  -1   2   2    2.68    0.93
   1  -2  -2    5.15    1.29
   1  -3  -2 4626.92   14.89
  -1   4   2  441.79    7.37
   1  -4  -2  446.75    7.24
  -1   5   2   49.52    4.00
   1  -5  -2   53.97    2.63
  -1   6   2    8.71    1.59
   1  -6  -2    7.78    1.50
  -1   7   2  372.51   11.45
   1  -7  -2  332.85   10.09
  -1   8   2   25.27    2.69
   1  -8  -2   24.15    2.11
  -1   9   2 1492.48   60.20
   1  -9  -2 1530.57   61.46
  -1  10   2    7.97    2.03
   1 -10  -2    6.89    1.45
  -1  11   2    6.11    1.52
   1 -11  -2    6.58    1.88
  -1  12   2   11.16    2.08
   1 -12  -2   12.64    2.63
  -1  13   2   68.67    8.67
   1 -13  -2   66.57    6.59
   1 -14  -2    1.36    1.82
  -1 -14   1    3.83    1.86
   1  13  -1   99.98   10.10
  -1 -13   1   93.41    8.28
  -1 -13   1  102.34    8.18
   1  12  -1    7.01    2.19
  -1 -12   1    7.80    2.01
   1  11  -1   42.64    5.89
  -1 -11   1   51.67    3.77
   1  10  -1    1.23    1.03
  -1 -10   1    1.52    1.45
   1   9  -1   69.57    5.19
  -1  -9   1   63.41    4.86
   1   8  -1   71.05    4.20
  -1  -8   1   70.70    4.22
   1   7  -1  185.77    4.35
  -1  -7   1  171.32    4.29
   1   6  -1    1.81    0.86
  -1  -6   1    1.45    0.96
   1   5  -1   77.14    2.72
  -1  -5   1   72.11    2.76
   1   4  -1  231.70    4.44
  -1  -4   1  225.77    4.59
  -1  -4   1  235.30    4.19
   1   3  -1  111.82    2.22
  -1  -3   1  114.26    2.85
  -1  -3   1  107.64    4.56
   1   2  -1   22.49    1.23
  -1  -2   1   22.93    1.28
  -1  -2   1   27.88    3.32
   1   2  -1   27.27    1.61
   1   1  -1   14.41    1.16
  -1  -1   1   10.52    0.76
   1   1  -1    9.37    1.65
  -1   1   1   17.98    1.13
   1  -1  -1    8.70    0.78
  -1   2   1   25.34    1.66
   1  -2  -1   27.66    1.69
  -1   3   1  105.14    4.44
   1  -3  -1   98.79    4.14
  -1   4   1  244.43    5.09
   1  -4  -1  219.20    4.39
  -1   5   1   94.08    3.52
   1  -5  -1   82.57    2.93
  -1   6   1    0.20    0.98
   1  -6  -1    1.60    1.07
  -1   7   1  210.92    5.31
   1  -7  -1  190.64    4.68
  -1   8   1   66.83    4.11
   1  -8  -1   79.48    4.72
  -1   9   1   61.49    4.76
   1  -9  -1   90.53    6.84
  -1  10   1   -0.24    1.05
   1 -10  -1    0.75    1.32
  -1  11   1   41.06    3.17
   1 -11  -1   44.62    3.37
  -1  12   1    8.70    2.15
   1 -12  -1    7.10    1.54
  -1  13   1  120.99   21.83
   1 -13  -1   86.14    7.45
  -1 -14   0    5.89    2.14
   1  13   0    2.00    1.21
  -1 -13   0    1.95    1.78
   1  12   0    1.05    0.76
  -1 -12   0    1.15    1.48
   1  11   0  155.65    8.74
  -1 -11   0  149.91    6.58
   1  10   0   -2.34    1.07
  -1 -10   0    0.50    1.07
   1   8   0    0.45    0.56
  -1  -8   0   -0.50    1.08
   1   7   0   42.61    3.06
  -1  -7   0   34.97    2.81
   1   6   0    0.80    1.67
  -1  -6   0   -0.25    1.00
   1   5   0  202.74    5.29
  -1  -5   0  174.47    4.78
   1   4   0   -0.16    0.81
  -1  -4   0   -0.39    1.02
   1   2   0    2.53    0.68
  -1  -2   0    0.97    0.59
  -1  -2   0    3.44    1.13
  -1  -1   0   39.92    2.48
  -1  -1   0   45.99    2.90
   1   1   0   39.77    2.47
  -1   0   0    1.79    0.25
   1   0   0    4.68    0.35
   1   0   0    5.21    0.81
  -1   1   0   38.74    1.73
   1  -1   0   40.14    1.81
  -1   2   0    3.09    1.18
   1  -2   0    3.06    0.82
  -1   3   0 3521.96   40.55
   1  -3   0 3931.01   45.13
  -1   4   0   -0.63    0.80
   1  -4   0   -0.39    1.21
  -1   5   0  167.12    4.64
   1  -5   0  217.46    5.85
  -1   6   0    0.57    1.01
   1  -6   0    2.10    1.88
  -1   7   0   37.80    2.65
   1  -7   0   48.54    3.32
  -1   8   0    0.23    1.26
   1  -8   0   -0.54    1.70
  -1   9   0 2161.54   52.66
   1  -9   0 2304.60   18.90
  -1  10   0    1.13    1.63
   1 -10   0   -0.65    1.28
  -1  11   0  145.95    6.39
   1 -11   0  151.22    6.47
  -1  12   0   -1.43    1.29
   1 -12   0    1.02    1.17
  -1  13   0    3.13    2.02
   1 -13   0    2.09    1.48
  -1 -14  -1   -0.82    1.93
   1  13   1  100.78   10.67
  -1 -13  -1   85.49    7.54
   1  12   1    8.45    2.34
  -1 -12  -1    7.26    1.91
   1  11   1   45.74    8.45
  -1 -11  -1   33.77    2.78
   1  10   1    0.44    0.43
  -1 -10  -1    3.22    1.63
   1   9   1   66.67    6.34
  -1  -9  -1   72.87    5.67
   1   8   1   74.06    4.75
  -1  -8  -1   68.47    4.21
   1   7   1  194.49    9.10
  -1  -7  -1  184.12    4.74
   1   6   1    0.83    0.53
  -1  -6  -1    1.57    1.51
   1   5   1   90.46    3.29
  -1  -5  -1   90.91    3.53
   1   4   1  232.64    4.79
  -1  -4  -1  223.34    4.68
   1   3   1  112.93    4.89
  -1  -3  -1  108.34    5.49
   1   2   1   22.45    1.66
  -1  -2  -1   27.90    4.38
   1   1   1    7.59    1.70
  -1  -1  -1   11.57    1.81
  -1  -1  -1    8.75    0.86
  -1   0  -1    4.65    0.64
   1   0   1    5.14    0.67
  -1   0  -1    8.16    1.70
   1   0   1    7.61    1.59
  -1   1  -1    6.64    0.78
   1  -1   1    9.79    1.61
  -1   1  -1    6.84    0.85
  -1   2  -1   23.96    1.50
   1  -2   1   27.57    1.79
  -1   3  -1  102.63    4.36
   1  -3   1   98.86    4.20
  -1   4  -1  247.25    5.01
   1  -4   1  226.70    4.59
  -1   5  -1   73.60    2.73
   1  -5   1   71.31    2.74
  -1   6  -1    0.78    1.04
   1  -6   1    0.62    1.62
  -1   7  -1  190.27    4.74
   1  -7   1  167.83    4.15
  -1   8  -1   64.51    3.92
   1  -8   1   61.77    3.72
  -1   9  -1   73.23    5.58
   1  -9   1   59.72    4.56
  -1  10  -1   -0.06    1.24
   1 -10   1    1.20    1.13
  -1  11  -1   40.71    3.31
   1 -11   1   33.45    2.54
  -1  12  -1    7.58    1.82
   1 -12   1    4.32    1.41
  -1  13  -1   87.36    7.63
   1 -13   1   85.52    7.45
  -1 -14  -2    1.28    1.67
   1  13   2   57.05    8.77
  -1 -13  -2   49.66    4.19
   1  12   2    8.70    2.06
  -1 -12  -2   10.21    1.77
   1  11   2    4.65    1.80
  -1 -11  -2    2.97    1.34
   1  10   2    9.34    1.85
  -1 -10  -2    6.28    1.55
   1   9   2 1613.54   65.39
  -1  -9  -2 1397.68   56.36
   1   8   2   28.99    8.26
  -1  -8  -2   23.88    2.38
   1   7   2  395.71   12.17
  -1  -7  -2  431.60   13.30
   1   6   2   10.78    2.97
  -1  -6  -2    6.55    1.37
   1   5   2   51.17    2.89
  -1  -5  -2   49.75    2.49
   1   4   2  470.93    8.09
  -1  -4  -2  445.84    7.78
   1   3   2 3965.19   46.27
  -1  -3  -2 4048.04   47.23
   1   2   2    2.71    0.77
  -1  -2  -2    1.64    0.49
   1   1   2   45.54    2.29
  -1  -1  -2   46.56    2.38
  -1   0  -2   87.67    3.62
   1   0   2   78.53    3.27
  -1   0  -2   86.99    3.52
  -1   1  -2   43.27    2.15
   1  -1   2   47.22    2.27
  -1   1  -2   48.23    2.52
   1  -1   2   49.66    2.62
  -1   2  -2    3.06    0.88
   1  -2   2    1.99    0.71
   1  -2   2    1.66    0.70
  -1   3  -2 4288.03   49.28
   1  -3   2 3994.77   45.97
  -1   4  -2  394.81    6.50
   1  -4   2  446.60    7.46
  -1   5  -2   65.45    3.11
   1  -5   2   51.24    2.35
  -1   6  -2    6.16    1.39
   1  -6   2    7.65    1.51
  -1   7  -2  347.40   10.57
   1  -7   2  408.22   12.47
  -1   8  -2   27.38    2.40
   1  -8   2   24.91    3.68
  -1   9  -2 1461.76   58.76
   1  -9   2 1677.19   67.46
  -1  10  -2    4.12    1.42
   1 -10   2    4.44    1.73
  -1  11  -2    6.74    1.81
   1 -11   2    8.47    2.02
  -1  12  -2    7.92    1.84
   1 -12   2    9.57    2.26
  -1  13  -2   55.96    4.63
   1 -13   2   53.52    5.99
   1 -14   2    0.53    1.55
  -1 -14  -3    0.68    1.69
   1  13   3  390.09   13.30
  -1 -13  -3  305.96   10.42
   1  12   3    3.71    1.54
  -1 -12  -3    1.42    1.45
   1  11   3  811.45   32.63
  -1 -11  -3  832.81   33.43
   1  10   3   23.92    5.64
  -1 -10  -3   15.35    1.93
   1   9   3   18.15    3.26
  -1  -9  -3   14.79    1.93
   1   8   3    1.79    0.81
  -1  -8  -3    2.17    1.36
   1   7   3 1383.46   37.01
  -1  -7  -3 1291.59   34.57
   1   6   3   27.31    5.24
  -1  -6  -3   19.62    1.94
   1   5   3 2052.62   36.01
  -1  -5  -3 2327.15   40.84
   1   4   3   25.63    2.78
  -1  -4  -3   22.54    1.86
   1   3   3  121.44    4.12
  -1  -3  -3  114.09    3.35
   1   2   3   24.99    2.87
  -1  -2  -3   34.40    6.62
  -1  -1  -3 3421.04   40.06
  -1  -1  -3 3496.84   40.20
  -1   0  -3    0.76    0.69
   1   0   3   -0.60    0.65
  -1   1  -3 3803.42   43.69
   1  -1   3 3430.08   39.26
  -1   1  -3 3606.31   40.60
  -1   2  -3   23.62    1.49
   1  -2   3   25.57    1.60
   1  -2   3   25.84    1.18
  -1   3  -3  109.50    4.66
   1  -3   3  103.19    4.78
   1  -3   3  101.25    4.03
  -1   4  -3   21.37    1.42
   1  -4   3   20.28    1.51
  -1   5  -3 1993.13   34.36
   1  -5   3 2041.54   35.39
  -1   6  -3   28.73    2.56
   1  -6   3   28.48    5.41
  -1   7  -3 1254.21   33.21
   1  -7   3 1258.62   33.40
  -1   8  -3    0.38    0.88
   1  -8   3    2.39    1.40
  -1   9  -3   19.12    2.07
   1  -9   3   16.72    1.78
  -1  10  -3   17.22    2.10
   1 -10   3   14.44    1.85
  -1  11  -3  735.47   29.99
   1 -11   3  757.67   30.31
  -1  12  -3    3.03    1.74
   1 -12   3    4.01    1.67
  -1  13  -3  399.28   13.17
   1 -13   3  318.36   10.72
  -1 -13  -4   51.52    4.07
   1  12   4    9.57    2.34
  -1 -12  -4   10.53    2.45
   1  11   4    4.36    2.32
  -1 -11  -4    6.79    1.57
   1  10   4    1.77    0.77
  -1 -10  -4    0.76    1.17
   1   9   4   -0.65    1.21
  -1  -9  -4    0.96    1.32
   1   8   4    8.75    2.34
  -1  -8  -4    5.16    1.80
   1   7   4  412.69   12.41
  -1  -7  -4  374.98   11.19
   1   6   4   60.42    4.88
  -1  -6  -4   65.46    3.88
   1   5   4  232.21    5.61
  -1  -5  -4  202.89    4.86
   1   4   4    7.83    1.69
  -1  -4  -4    5.97    1.18
   1   3   4   27.55    6.00
  -1  -3  -4   28.70    5.55
   1   2   4   25.01    4.75
  -1  -2  -4   26.20    4.43
  -1  -1  -4   98.01    4.45
  -1  -1  -4   99.62    4.28
  -1   0  -4  635.59    8.83
   1   0   4  638.32    8.94
  -1   1  -4   99.09    4.21
   1  -1   4  108.03    4.56
  -1   1  -4  111.24    4.71
  -1   2  -4   19.84    1.45
   1  -2   4   20.16    2.49
  -1   2  -4   19.17    1.62
  -1   3  -4   18.61    1.27
   1  -3   4   18.86    1.50
  -1   4  -4    6.98    1.10
   1  -4   4    6.33    1.39
  -1   5  -4  181.05    3.80
   1  -5   4  195.95    4.25
  -1   6  -4   66.70    3.88
   1  -6   4   53.95    3.18
  -1   7  -4  422.83   12.21
   1  -7   4  403.88   11.80
  -1   8  -4    4.33    1.20
   1  -8   4    8.04    1.22
  -1   9  -4    0.43    0.98
   1  -9   4    3.44    1.75
  -1  10  -4    2.48    1.60
   1 -10   4    1.80    1.20
  -1  11  -4    6.53    1.52
   1 -11   4    3.65    1.25
  -1  12  -4    9.04    1.90
   1 -12   4    8.59    1.79
  -1  13  -4   62.72    4.53
   1 -13   4   46.18    3.70
  -1 -13  -5  278.05   17.85
   1  12   5   -0.60    1.26
  -1 -12  -5    3.87    2.72
   1  11   5  299.64   19.72
  -1 -11  -5  303.40   17.40
   1  10   5    7.17    1.53
  -1 -10  -5    9.82    2.28
   1   9   5   23.39    5.73
  -1  -9  -5   23.84    2.64
   1   8   5   50.63    4.98
  -1  -8  -5   42.37    3.07
   1   7   5  834.50   22.42
  -1  -7  -5  795.00   21.02
   1   6   5   27.70    5.52
  -1  -6  -5   26.00    4.52
   1   5   5  708.27    9.55
  -1  -5  -5  688.27    9.00
   1   4   5    6.07    1.51
  -1  -4  -5    3.93    0.67
   1   3   5   96.17    5.32
  -1  -3  -5   92.03    3.64
  -1  -2  -5    0.63    0.63
  -1  -2  -5    0.74    0.76
  -1  -1  -5  631.10   12.49
  -1  -1  -5  627.36   11.85
  -1   0  -5    1.07    0.69
   1   0   5    0.31    0.70
  -1   1  -5  585.33   11.47
   1  -1   5  608.77   11.47
  -1   2  -5   -0.54    0.65
   1  -2   5   -0.39    0.64
  -1   2  -5   -0.03    0.20
  -1   3  -5   86.47    2.86
   1  -3   5   88.44    3.01
  -1   4  -5    5.25    0.96
   1  -4   5    6.06    1.23
  -1   5  -5  725.62    8.30
   1  -5   5  646.95    7.77
  -1   6  -5   24.43    3.50
   1  -6   5   19.22    2.08
  -1   7  -5  878.67   22.79
   1  -7   5  739.14   19.36
  -1   8  -5   47.56    3.28
   1  -8   5   41.25    3.08
   1  -8   5   47.21    2.84
  -1   9  -5   18.82    1.97
   1  -9   5   21.71    2.10
   1  -9   5   19.34    2.16
  -1  10  -5    6.69    1.69
   1 -10   5    4.46    1.01
   1 -10   5    5.62    0.63
  -1  11  -5  313.60   17.69
   1 -11   5  287.69   16.40
   1 -11   5  236.45   12.47
  -1  12  -5    0.99    1.21
   1 -12   5    1.76    1.43
  -1  13  -5  265.92   16.77
   1 -13   5  239.19   15.25
   1  12   6    4.29    1.57
  -1 -12  -6    8.74    2.20
   1  11   6  591.24   24.94
  -1 -11  -6  589.19   24.47
   1  10   6   -0.22    1.45
  -1 -10  -6    2.32    1.51
   1   9   6  134.17   12.28
  -1  -9  -6  142.95    6.51
   1   8   6    1.90    1.04
  -1  -8  -6    2.75    1.34
   1   7   6  155.44    8.07
  -1  -7  -6  156.70    7.99
   1   6   6   30.23    7.58
  -1  -6  -6   28.31    6.03
   1   5   6  811.80   21.66
  -1  -5  -6  811.53   21.44
   1   4   6   24.83    4.89
  -1  -4  -6   28.69    4.15
   1   3   6   35.24    2.58
  -1  -3  -6   35.83    5.59
  -1  -2  -6   10.97    2.20
  -1  -2  -6    9.43    1.16
  -1  -1  -6  809.22    9.19
  -1  -1  -6  813.53    7.69
  -1   0  -6    1.30    0.94
  -1   0  -6    2.15    0.81
  -1   1  -6  759.90    7.76
   1  -1   6  787.32    7.37
  -1   2  -6    8.56    0.98
   1  -2   6    7.55    1.17
  -1   2  -6    8.48    1.19
  -1   3  -6   32.45    2.11
   1  -3   6   31.68    2.09
  -1   4  -6   29.57    3.22
   1  -4   6   26.66    2.07
  -1   5  -6  785.67   20.14
   1  -5   6  813.27   21.04
  -1   6  -6   21.36    2.17
   1  -6   6   28.04    5.86
  -1   7  -6  163.09    7.99
   1  -7   6  150.55    7.44
  -1   8  -6    0.74    1.18
   1  -8   6    3.75    1.64
  -1   9  -6  132.67    5.74
  -1  10  -6    0.27    0.87
   1 -10   6    0.68    1.09
  -1  11  -6  590.70   24.10
   1 -11   6  535.89   22.24
  -1  12  -6    2.91    1.38
   1 -12   6    1.40    1.26
   1  11   7   83.95   15.38
  -1 -11  -7  102.11    6.13
   1  10   7    2.12    0.86
  -1 -10  -7    1.08    2.00
   1   9   7   60.23   11.55
  -1  -9  -7   54.20    3.34
   1   8   7   23.42    5.63
  -1  -8  -7   20.48    2.21
   1   7   7   72.05    3.84
  -1  -7  -7   81.85    5.41
   1   6   7    3.22    1.35
  -1  -6  -7    1.30    1.09
   1   5   7  325.62   10.47
  -1  -5  -7  303.45   13.81
   1   4   7   98.69    5.72
  -1  -4  -7   93.63    5.24
  -1  -3  -7   64.44    7.51
  -1  -3  -7   65.53    3.78
  -1  -2  -7   21.19    4.80
  -1  -2  -7   16.39    1.56
  -1  -1  -7  415.20   12.51
  -1  -1  -7  412.86   11.94
  -1   0  -7    2.66    0.79
  -1   0  -7    0.02    0.83
  -1   1  -7  389.59   11.38
   1  -1   7  384.00   11.51
  -1   2  -7   14.52    1.42
   1  -2   7   15.23    1.47
  -1   2  -7   18.44    1.06
  -1   3  -7   49.44    3.06
   1  -3   7   63.62    4.44
  -1   3  -7   58.88    2.57
  -1   4  -7  108.46    5.59
   1  -4   7   93.98    4.88
  -1   5  -7  297.56    8.86
   1  -5   7  286.72    8.64
  -1   6  -7    1.40    0.99
   1  -6   7    4.89    1.30
  -1   7  -7   65.51    2.99
   1  -7   7   73.00    6.89
  -1   8  -7   19.08    2.12
   1  -8   7   19.52    2.03
  -1   9  -7   59.82    3.25
   1  -9   7   55.91    3.36
  -1  10  -7   -0.62    0.90
   1 -10   7    3.06    1.72
  -1  11  -7   85.41    4.65
   1 -11   7   84.15    8.81
   1 -12   7    9.64    2.13
   1  11   8   80.36   14.20
   1  10   8    9.63    2.15
  -1 -10  -8   11.89    2.46
   1   9   8  502.95   27.75
  -1  -9  -8  457.22   24.93
   1   8   8   -0.62    1.16
  -1  -8  -8   -0.12    1.07
  -1  -7  -8  866.81   39.50
   1   6   8    1.42    0.55
  -1  -6  -8   -0.50    1.14
   1   5   8  582.83   24.41
  -1  -5  -8  592.85   25.60
  -1  -4  -8   19.09    3.40
  -1  -4  -8   18.00    1.89
  -1  -3  -8 1362.74   33.89
  -1  -3  -8 1366.44   33.42
  -1  -2  -8   57.39    4.84
  -1  -2  -8   54.52    4.97
  -1  -1  -8  828.01   21.83
  -1  -1  -8  798.82   20.51
  -1   0  -8   97.70    6.15
  -1   0  -8   90.71    4.69
  -1   1  -8  826.98   21.22
   1  -1   8  764.07   19.60
  -1   2  -8   53.33    3.91
   1  -2   8   60.67    7.10
  -1   2  -8   60.74    3.92
  -1   3  -8 1331.69   32.37
   1  -3   8 1300.88   31.73
  -1   3  -8 1262.10   29.24
  -1   4  -8   22.89    3.40
   1  -4   8   21.20    4.18
  -1   5  -8  554.08   22.63
   1  -5   8  573.29   23.51
  -1   6  -8    0.86    1.03
   1  -6   8    0.68    0.86
  -1   7  -8  749.20   33.21
   1  -7   8  793.82   35.46
  -1   8  -8    1.29    1.31
   1  -8   8    0.62    1.06
  -1   9  -8  570.94   30.68
   1  -9   8  510.27   27.85
  -1  10  -8    8.66    1.82
   1 -10   8    5.92    2.46
  -1  11  -8   78.47    5.65
   1 -11   8   78.21    4.59
  -1 -10  -9   15.70    2.46
   1   9   9    7.38    2.76
  -1  -9  -9    0.23    1.16
   1   8   9    2.64    1.79
  -1  -8  -9    0.84    1.15
   1   7   9  151.33   14.24
  -1  -7  -9  160.98    9.00
   1   6   9    5.74    1.70
  -1  -6  -9    5.43    0.86
  -1  -5  -9  283.37   13.86
  -1  -5  -9  245.77   11.96
  -1  -4  -9    3.56    1.21
  -1  -4  -9    7.71    1.21
  -1  -3  -9   23.03    5.15
  -1  -3  -9   22.26    2.13
  -1  -2  -9   73.95    5.04
  -1  -2  -9   76.23    4.82
  -1  -1  -9  460.63   19.98
  -1  -1  -9  452.21   18.96
  -1   0  -9    0.51    0.73
  -1   0  -9    0.64    0.81
  -1   1  -9  454.25   19.49
  -1   1  -9  465.96   19.52
  -1   2  -9   66.33    4.63
   1  -2   9   75.59    4.70
  -1   2  -9   79.99    4.42
  -1   3  -9   19.74    2.07
   1  -3   9   25.75    2.33
  -1   4  -9    7.46    1.21
   1  -4   9    4.30    1.37
  -1   5  -9  263.06   12.51
   1  -5   9  260.22   12.48
  -1   6  -9    6.87    1.63
   1  -6   9    3.60    1.23
  -1   7  -9  150.03    7.93
   1  -7   9  160.26    8.68
  -1   8  -9    2.37    1.28
   1  -8   9    2.37    1.21
  -1   9  -9    0.39    1.47
   1  -9   9    5.66    2.88
  -1  10  -9   18.66    2.27
   1 -10   9   21.90    4.03
   1   9  10   15.15    5.00
  -1  -9 -10   18.98    2.62
   1   8  10   -0.07    1.33
  -1  -8 -10    0.04    1.17
  -1  -7 -10   62.26   11.59
  -1  -6 -10   20.02    3.46
  -1  -6 -10   15.51    1.78
  -1  -5 -10   85.04    4.16
  -1  -5 -10   83.40    3.87
  -1  -4 -10    1.59    1.05
  -1  -3 -10   16.93    3.87
  -1  -3 -10   21.28    2.67
  -1  -2 -10   39.23    8.22
  -1  -2 -10   34.34    2.67
  -1  -1 -10  233.46   11.90
  -1  -1 -10  246.60   11.88
  -1   0 -10    1.54    0.84
  -1   0 -10    0.39    0.76
  -1   1 -10  257.98   12.99
  -1   1 -10  227.29   10.95
  -1   2 -10   32.31    5.79
  -1   2 -10   33.29    2.02
  -1   3 -10   17.23    1.68
   1  -3  10   17.06    1.73
  -1   3 -10   17.69    2.00
  -1   4 -10    0.94    0.55
   1  -4  10    0.64    0.82
  -1   5 -10   82.89    3.39
   1  -5  10   95.33    4.18
  -1   6 -10   23.00    2.41
   1  -6  10   21.93    2.47
  -1   7 -10   46.87    3.27
   1  -7  10   49.89    3.62
  -1   8 -10   -0.23    1.03
   1  -8  10   -0.29    1.12
  -1   9 -10   25.26    2.91
   1  -9  10   19.96    2.43
  -1  -8 -11    0.93    1.13
  -1  -7 -11  295.01   17.08
  -1  -7 -11  252.92   14.57
  -1  -6 -11    0.78    0.88
  -1  -6 -11    0.78    1.12
  -1  -5 -11  196.61    9.46
  -1  -5 -11  197.03    9.19
  -1  -4 -11   -0.14    1.07
  -1  -4 -11    0.17    1.13
  -1  -3 -11   27.89    6.11
  -1  -3 -11   28.96    2.37
  -1  -2 -11    3.55    1.05
  -1  -2 -11    2.32    1.00
  -1  -1 -11  257.81   11.83
  -1  -1 -11  240.74   10.60
  -1   0 -11    1.11    0.78
  -1   0 -11    1.71    0.79
  -1   1 -11  259.03   12.87
  -1   1 -11  235.20   10.27
  -1   2 -11    6.34    1.47
  -1   2 -11    2.30    0.94
  -1   2 -11    3.33    0.73
  -1   3 -11   30.04    2.22
   1  -3  11   28.28    2.21
  -1   3 -11   31.73    2.69
  -1   4 -11    2.95    1.51
   1  -4  11   -0.04    0.82
  -1   5 -11  218.24    9.77
   1  -5  11  198.62    9.16
  -1   6 -11    0.26    1.08
   1  -6  11    0.64    0.99
  -1   7 -11  275.73   15.50
   1  -7  11  288.95   16.65
  -1   8 -11    2.35    1.22
   1  -8  11    0.81    1.27
  -1  -6 -12    1.15    0.65
  -1  -6 -12    0.04    1.10
  -1  -5 -12    9.22    2.24
  -1  -5 -12    9.81    1.68
  -1  -4 -12    2.38    1.45
  -1  -4 -12    6.10    1.88
  -1  -3 -12    8.68    3.24
  -1  -3 -12   13.94    1.95
  -1  -2 -12    1.18    0.75
  -1  -2 -12    1.05    0.94
  -1  -1 -12   42.41    8.37
  -1  -1 -12   46.86    3.39
  -1   0 -12   16.65    4.55
  -1   0 -12   18.75    2.74
  -1   1 -12   37.35   15.83
  -1   1 -12   48.91    3.36
  -1   1 -12   48.55    2.87
  -1   2 -12    1.96    1.41
  -1   2 -12    4.67    2.17
  -1   2 -12    0.63    0.33
  -1   3 -12    7.97    2.91
  -1   3 -12   12.30    3.18
  -1   4 -12    5.05    1.95
   1  -4  12    3.57    1.59
  -1   5 -12   14.26    1.90
  -1   6 -12    1.43    1.56
   1  -6  12    0.80    1.18
  -1  -4 -13    4.89    1.46
  -1  -3 -13   10.97    2.73
  -1  -3 -13   13.05    1.91
  -1  -2 -13    0.65    0.52
  -1  -2 -13   -0.54    1.00
  -1  -1 -13  383.88   21.82
  -1  -1 -13  361.79   20.04
  -1   0 -13    0.56    0.56
  -1   1 -13  368.10   20.91
  -1   1 -13  349.55   19.32
  -1   2 -13    1.40    0.73
  -1   2 -13    0.90    1.07
  -1   2 -13    1.31    0.45
  -1   3 -13   12.13    3.40
  -1   3 -13   14.32    4.01
  -1   4 -13    4.40    1.62
  -1   4 -13    5.64    1.40
   2   3 -13    1.67    0.48
   2   3 -13    2.64    1.04
   2   2 -13    1.79    0.64
   2   2 -13    3.96    0.95
   2   0 -13   -0.64    0.58
   2  -1 -13    1.33    0.73
   2  -1 -13    0.05    0.58
   2  -3 -13    2.77    0.92
  -2  -6  12  359.14   20.96
   2   5 -12   -0.22    0.59
   2   5 -12    0.46    0.76
   2   4 -12   18.16    5.35
   2   4 -12   19.11    3.28
   2   4 -12   17.50    3.29
   2   3 -12   15.04    2.20
   2   3 -12   11.28    2.67
   2   2 -12    8.01    2.20
   2   2 -12   15.88    1.62
   2   1 -12    5.22    2.42
   2   1 -12   14.21    2.54
   2   0 -12   59.93    7.84
   2   0 -12   73.26    5.76
   2  -1 -12    4.64    2.19
   2  -1 -12   13.75    1.55
   2  -2 -12    8.11    3.00
   2  -2 -12   14.31    1.48
   2  -3 -12   10.35    2.55
   2  -3 -12   12.25    1.86
   2  -4 -12   16.80    1.56
   2  -4 -12   23.78    1.89
   2  -5 -12    1.00    0.84
   2  -5 -12    0.09    0.71
   2  -6 -12  381.05   22.47
   2  -6 -12  294.74   17.50
   2   8 -11  256.14   15.43
   2   7 -11    3.29    0.97
  -2  -7  11    2.66    1.34
   2   6 -11   59.19    2.55
  -2  -6  11   60.46    2.70
   2   5 -11   10.71    1.47
  -2  -5  11   10.85    1.33
   2   5 -11    6.85    1.13
   2   4 -11  270.29   17.24
   2   4 -11  276.25   17.33
   2   4 -11  286.75   17.88
   2   3 -11    1.10    0.46
   2   3 -11    1.13    1.11
   2   3 -11    1.32    0.48
   2   2 -11 1160.34   59.81
   2   2 -11 1368.60   70.30
   2   2 -11 1279.08   66.04
   2   1 -11    0.23    0.46
   2   1 -11    0.28    0.62
   2   0 -11    0.95    0.66
   2   0 -11    0.12    0.58
   2  -1 -11    0.67    0.50
   2  -1 -11    2.00    0.80
   2  -2 -11 1260.65   64.95
   2  -2 -11 1335.09   68.69
   2  -3 -11    0.66    0.66
   2  -3 -11   -0.24    0.56
   2  -4 -11  286.91   18.24
   2  -4 -11  274.43   17.47
   2  -5 -11    9.36    1.27
   2  -5 -11    8.27    1.62
   2  -6 -11   58.91    3.19
   2  -6 -11   40.87    2.37
  -2   7  11    1.10    1.14
   2  -7 -11    3.72    1.67
  -2   8  11  219.04   14.54
   2  -8 -11  231.47   14.24
   2   9 -10    3.89    1.41
  -2  -9  10    0.45    0.97
   2   8 -10   34.62    2.45
  -2  -8  10   32.80    2.54
   2   7 -10    1.01    0.94
  -2  -7  10    1.43    1.01
   2   6 -10  363.35   22.70
  -2  -6  10  369.99   23.21
   2   5 -10   29.95    1.94
  -2  -5  10   21.91    1.58
   2   5 -10   21.85    2.95
   2   4 -10  168.56    7.10
  -2  -4  10  184.23    7.81
   2   4 -10  174.02    7.23
   2   3 -10    0.41    0.39
   2   3 -10    2.08    1.30
   2   3 -10    2.11    0.66
   2   2 -10  442.54   12.98
   2   2 -10  536.46   15.34
   2   2 -10  486.41   14.42
   2   1 -10    2.56    1.00
   2   1 -10    2.61    1.15
   2   0 -10  101.69    4.94
   2   0 -10  106.42    4.97
   2  -1 -10    2.84    0.54
   2  -1 -10    2.14    0.68
   2  -2 -10  479.33   14.13
   2  -2 -10  458.43   13.31
   2  -3 -10   -0.22    0.70
   2  -3 -10   -0.07    0.50
   2  -4 -10  185.19    8.13
   2  -4 -10  172.22    7.55
   2  -5 -10   20.90    1.62
   2  -5 -10   19.68    1.62
  -2   6  10  357.73   23.14
   2  -6 -10  402.58   25.45
  -2   7  10    1.45    1.19
   2  -7 -10    3.18    1.66
   2  -8 -10   26.99    2.26
   2  -9 -10    1.22    1.00
   2  10  -9   16.87    2.37
   2   9  -9    0.64    1.16
  -2  -9   9    0.19    0.52
   2   8  -9  208.37    9.02
  -2  -8   9  185.17    8.64
   2   7  -9   16.17    1.50
  -2  -7   9   12.91    1.98
   2   6  -9   78.27    2.50
  -2  -6   9   72.03    2.74
   2   5  -9   16.49    1.40
  -2  -5   9   15.79    1.46
   2   5  -9   16.27    2.46
   2   4  -9  409.15   18.17
  -2  -4   9  386.05   17.23
   2   4  -9  384.77   17.05
   2   3  -9    0.24    0.59
   2   3  -9    0.19    0.24
   2   2  -9    0.20    0.27
   2   2  -9   -0.42    0.72
   2   2  -9   -0.02    0.55
   2   1  -9    9.33    2.75
   2   1  -9    7.77    1.48
   2   0  -9   -0.95    0.61
   2   0  -9    0.13    0.55
   2  -1  -9    8.93    2.86
   2  -1  -9   10.51    1.17
   2  -2  -9    0.19    0.34
   2  -2  -9    5.21    1.38
   2  -3  -9    0.85    0.85
   2  -3  -9    0.05    0.50
   2  -4  -9  410.44   18.52
  -2   5   9   17.60    3.81
   2  -5  -9   16.72    1.66
  -2   6   9   77.36    4.13
   2  -6  -9   96.32    3.75
  -2   7   9   13.57    3.75
   2  -7  -9   17.97    1.97
  -2   8   9  172.88   12.42
   2  -8  -9  216.14    9.73
   2  -9  -9    1.13    0.95
   2 -10  -9   14.41    1.91
   2  10  -8   33.65    2.52
  -2 -10   8   25.26    5.14
   2   9  -8    4.93    1.42
  -2  -9   8    4.06    1.91
   2   8  -8  531.04   24.26
  -2  -8   8  479.63   22.53
   2   7  -8    7.04    1.03
  -2  -7   8    8.10    1.82
   2   6  -8   31.34    1.96
  -2  -6   8   33.90    2.35
   2   5  -8    2.45    0.84
  -2  -5   8    4.23    1.21
   2   5  -8    3.03    0.84
   2   4  -8 1342.14   52.50
  -2  -4   8 1084.55   42.50
   2   4  -8 1120.98   43.86
   2   3  -8    0.37    0.47
  -2  -3   8    0.17    0.38
   2   3  -8    0.07    0.44
   2   2  -8  320.24    8.97
   2   2  -8  324.16    8.43
   2   2  -8  333.46    9.19
   2   1  -8   22.48    2.66
   2   1  -8   25.68    2.00
   2   0  -8 1080.31   25.90
   2   0  -8 1182.83   28.11
   2  -1  -8   24.39    3.15
   2  -1  -8   21.49    2.68
   2  -2  -8  332.96    9.03
   2  -2  -8  314.45    8.44
   2  -3  -8    0.35    0.66
   2  -3  -8   -0.15    0.66
  -2   4   8 1133.14   45.10
   2  -4  -8  979.59   38.61
  -2   5   8    3.13    1.15
   2  -5  -8    4.70    1.44
  -2   6   8   42.22    9.51
   2  -6  -8   44.31    3.21
  -2   7   8   11.17    2.79
   2  -7  -8    4.46    0.98
  -2   8   8  599.06   28.95
   2  -8  -8  535.53   24.78
  -2   9   8    4.53    1.72
   2  -9  -8    3.52    1.23
  -2  10   8   35.79    7.47
   2 -10  -8   31.16    2.55
  -2  11   8    0.45    1.17
   2 -11  -8    0.15    1.03
   2  11  -7    3.19    1.54
  -2 -11   7    2.02    1.68
   2  10  -7    7.63    1.45
  -2 -10   7    6.02    1.82
   2   9  -7    0.33    1.11
  -2  -9   7    0.23    0.99
   2   8  -7  202.86    6.98
  -2  -8   7  184.30    7.23
   2   7  -7   19.77    2.11
  -2  -7   7   24.33    3.26
   2   6  -7   81.51    4.63
  -2  -6   7   69.52    5.16
   2   5  -7   -0.06    0.49
  -2  -5   7    1.13    0.41
   2   5  -7    0.76    0.53
  -2  -4   7  267.95    7.29
   2   4  -7  281.79    7.85
   2   3  -7   13.36    0.96
  -2  -3   7   14.52    1.10
   2   3  -7   16.78    3.28
   2   2  -7  242.04    6.43
   2   2  -7  249.34    7.28
   2   1  -7   18.51    2.81
   2   1  -7   20.70    1.11
   2   0  -7   -0.07    0.86
   2  -1  -7   26.66    1.93
   2  -1  -7   19.90    1.23
   2  -2  -7  264.82    7.42
   2  -2  -7  238.56    6.64
  -2   3   7   17.27    3.76
   2  -3  -7   14.31    1.31
  -2   4   7  272.07    8.31
   2  -4  -7  282.69    8.02
  -2   5   7    3.19    1.12
   2  -5  -7    1.98    0.99
  -2   6   7   79.29    6.06
   2  -6  -7   84.44    5.11
  -2   7   7   21.90    4.84
   2  -7  -7   20.18    1.77
  -2   8   7  202.23    8.52
   2  -8  -7  206.16    7.50
  -2   9   7    1.25    1.25
   2  -9  -7    2.61    1.58
  -2  10   7   11.56    2.60
   2 -10  -7    7.74    1.39
  -2  11   7    1.87    1.23
   2 -11  -7    4.46    1.67
   2 -12  -7    0.26    1.27
   2  12  -6    9.03    1.45
  -2 -12   6   11.22    2.79
   2  11  -6    9.63    1.49
  -2 -11   6    8.02    2.68
   2  10  -6 1169.52   60.77
  -2 -10   6 1015.45   53.76
   2   9  -6   18.06    1.82
  -2  -9   6   15.81    2.12
  -2  -9   6   15.99    2.57
   2   8  -6  153.92    7.86
  -2  -8   6  117.07   10.40
  -2  -8   6  110.92    6.13
   2   7  -6    3.74    1.04
  -2  -7   6    2.53    1.08
   2   6  -6 2130.38   50.16
  -2  -6   6 2037.58   48.63
   2   5  -6    0.80    0.79
  -2  -5   6    0.45    0.64
   2   5  -6    1.06    0.70
   2   4  -6  407.11   11.03
  -2  -4   6  433.14   11.89
   2   4  -6  445.40   12.25
   2   3  -6   18.66    1.19
  -2  -3   6   15.68    0.99
   2   3  -6   16.27    3.42
   2   1  -6   17.35    2.66
   2   1  -6   16.79    0.87
   2  -1  -6   17.84    1.40
   2  -1  -6   17.56    0.98
  -2   2   6 1448.61    9.46
   2  -2  -6 1438.59    8.39
  -2   3   6   15.60    3.25
   2  -3  -6   10.92    0.98
  -2   4   6  462.31   13.75
   2  -4  -6  485.34   13.57
  -2   5   6    1.91    0.70
   2  -5  -6    2.58    1.57
  -2   6   6 2310.68   19.21
   2  -6  -6 2144.49   50.99
  -2   7   6    2.97    1.27
   2  -7  -6    2.39    1.27
  -2   8   6  130.19    8.20
   2  -8  -6  147.26    7.79
  -2   9   6   19.24    4.37
   2  -9  -6   18.26    2.17
  -2  10   6 1136.26   60.11
   2 -10  -6  950.46   49.60
  -2  11   6   20.26    4.48
   2 -11  -6   11.01    1.84
   2 -12  -6   11.70    1.89
   2  13  -5   10.49    1.77
  -2 -13   5   10.99    2.40
   2  12  -5   20.05    2.20
  -2 -12   5   15.32    3.04
   2  11  -5    0.86    0.95
  -2 -11   5   -0.42    1.37
   2  10  -5  671.97   26.32
  -2 -10   5  674.69   27.43
  -2 -10   5  623.84   24.50
   2   9  -5   21.20    2.07
  -2  -9   5   18.35    2.34
  -2  -9   5   20.19    3.77
   2   8  -5  483.07   19.92
  -2  -8   5  381.67   16.39
  -2  -8   5  378.07   15.97
   2   7  -5    0.93    0.89
  -2  -7   5    1.67    1.23
  -2  -7   5    1.77    0.95
   2   6  -5  192.50    3.78
  -2  -6   5  184.27    9.43
  -2  -6   5  188.32    9.14
   2   5  -5    0.18    0.58
  -2  -5   5    1.67    0.88
   2   5  -5    1.21    0.85
   2   4  -5  840.04    6.97
   2   3  -5   17.58    0.96
  -2  -3   5   19.86    2.91
   2   3  -5   18.58    3.65
   2   2  -5 4441.88   72.06
  -2  -2   5 4090.38   66.44
   2   2  -5 4301.27   70.89
   2   1  -5    0.60    0.30
   2   1  -5    2.29    0.55
   2   0  -5    0.32    0.37
   2   0  -5    1.53    0.65
   2  -1  -5    1.25    0.60
   2  -1  -5    1.45    0.59
  -2   2   5 4272.19   70.27
   2  -2  -5 4007.98   65.46
  -2   3   5   17.57    4.44
   2  -3  -5   16.30    1.34
  -2   4   5  892.49    9.34
   2  -4  -5  905.51    7.76
  -2   5   5    1.44    0.66
   2  -5  -5    2.08    1.20
  -2   6   5  193.07    5.29
   2  -6  -5  188.68    4.31
  -2   7   5    1.40    1.09
   2  -7  -5    1.19    1.01
  -2   8   5  448.32   19.44
   2  -8  -5  423.12   17.72
  -2   9   5   19.06    5.59
   2  -9  -5   15.33    1.54
  -2  11   5   -0.34    1.34
   2 -11  -5    0.82    0.97
  -2  12   5   19.88    4.50
   2 -12  -5   20.94    2.35
   2 -13  -5   13.81    2.54
   2  13  -4    0.16    0.76
  -2 -13   4    0.76    1.60
   2  12  -4    8.60    1.76
  -2 -12   4   19.65    2.79
  -2 -12   4    7.06    2.49
   2  11  -4   -0.17    0.87
  -2 -11   4    3.67    1.98
   2  10  -4   52.07    2.81
  -2 -10   4   40.86    3.02
  -2 -10   4   40.35    5.87
   2   9  -4   36.99    2.15
  -2  -9   4   35.06    2.62
  -2  -9   4   45.00    4.74
   2   8  -4  257.82   11.26
  -2  -8   4  248.08   11.32
  -2  -8   4  234.99   10.40
   2   7  -4   20.96    2.23
  -2  -7   4   11.34    1.58
  -2  -7   4   17.79    3.46
   2   6  -4 1007.02   26.63
  -2  -6   4  892.67   24.22
  -2  -6   4  789.10   21.38
   2   5  -4   26.33    1.84
  -2  -5   4   26.30    3.62
  -2  -5   4   21.75    3.17
   2   5  -4   21.85    1.51
   2   4  -4  224.17    3.26
  -2  -4   4  197.21    3.42
  -2  -4   4  220.31    4.74
   2   4  -4  220.06    4.39
   2   3  -4  110.01    2.64
  -2  -3   4  101.46    2.71
   2   3  -4  103.09    3.03
   2   2  -4  136.10    2.74
  -2  -2   4  138.82    2.83
   2   2  -4  140.31    3.72
   2   1  -4   41.18    1.00
   2   1  -4   36.97    0.67
   2   1  -4   42.62    1.81
   2   0  -4   51.19    1.17
  -2   1   4   43.80    1.68
   2  -1  -4   48.88    1.49
  -2   2   4  143.27    3.62
   2  -2  -4  157.24    3.59
  -2   3   4  109.95    4.09
   2  -3  -4  111.06    3.00
  -2   4   4  220.48    4.40
   2  -4  -4  229.13    3.88
  -2   5   4   22.56    2.96
   2  -5  -4   26.34    2.02
  -2   6   4  911.10   25.48
   2  -6  -4  893.30   24.01
  -2   7   4   16.61    4.58
   2  -7  -4   12.75    1.44
  -2   8   4  274.87   13.74
   2  -8  -4  254.58   11.30
  -2   9   4   41.92    9.83
   2  -9  -4   45.44    2.76
  -2  10   4   56.15   11.67
   2 -10  -4   47.34    2.84
  -2  11   4    0.65    0.91
   2 -11  -4    0.00    1.23
  -2  12   4   12.27    4.17
   2 -12  -4   13.91    2.48
  -2  13   4    2.04    1.45
   2 -13  -4   -1.82    1.85
  -2 -13   3    0.79    1.29
  -2 -13   3    1.40    0.56
   2  12  -3    0.55    0.58
  -2 -12   3    2.19    1.41
  -2 -12   3   -0.15    0.68
   2  11  -3    2.28    0.60
  -2 -11   3    0.58    0.40
  -2 -11   3    1.06    0.43
   2  10  -3  430.08   19.83
  -2 -10   3  392.07   18.57
  -2 -10   3  375.12   17.77
   2   9  -3   -0.61    1.02
  -2  -9   3   -0.96    1.51
  -2  -9   3    0.71    0.38
   2   8  -3 1837.79   44.15
  -2  -8   3 2004.11   48.88
  -2  -8   3 1801.48   43.29
   2   7  -3    9.48    1.16
  -2  -7   3   11.22    2.57
  -2  -7   3   12.73    2.69
   2   6  -3   52.04    2.72
  -2  -6   3   63.65    3.70
  -2  -6   3   56.64    3.71
   2   5  -3   10.65    1.41
  -2  -5   3   13.75    1.56
  -2  -5   3   16.86    3.15
   2   4  -3 2091.42   34.95
  -2  -4   3 1990.03   33.66
  -2  -4   3 2012.88   34.64
   2   4  -3 1961.63   33.24
   2   3  -3    0.60    1.56
  -2  -3   3    1.18    0.69
  -2  -3   3    3.40    0.70
   2   3  -3    1.93    0.46
   2   2  -3  514.14    6.33
  -2  -2   3  532.73    6.72
   2   2  -3  526.92    7.87
   2   1  -3    0.54    0.61
  -2   1   3    0.76    0.29
   2  -1  -3    1.01    0.37
  -2   2   3  596.95    8.35
   2  -2  -3  561.00    7.43
  -2   3   3    2.04    0.91
   2  -3  -3    0.30    0.84
  -2   4   3 2005.00   34.46
   2  -4  -3 1817.80   30.73
  -2   5   3   11.20    1.48
   2  -5  -3   12.40    1.29
  -2   6   3   59.43    3.51
   2  -6  -3   53.41    3.06
  -2   7   3   10.71    1.54
   2  -7  -3   12.83    1.67
  -2   8   3 1756.50   43.16
   2  -8  -3 1801.45   43.56
  -2   9   3   -0.93    1.17
   2  -9  -3   -0.82    1.17
  -2  10   3  440.06   20.96
   2 -10  -3  554.03   25.81
  -2  11   3    4.40    1.89
   2 -11  -3    2.36    1.55
  -2  12   3    3.32    1.24
   2 -12  -3    2.45    1.71
  -2  13   3    2.06    1.38
   2 -13  -3    6.11    2.31
   2  13  -2   -0.21    0.67
  -2 -13   2   -0.03    1.41
   2  12  -2 1138.90   15.77
  -2 -12   2 1209.04   16.72
  -2 -12   2 1061.17   65.32
   2  11  -2   30.53    5.42
  -2 -11   2   35.59    3.35
  -2 -11   2   29.54    5.52
   2  10  -2  151.75    8.81
  -2 -10   2  163.05    9.15
  -2 -10   2  126.20    7.46
   2   9  -2   10.38    2.28
  -2  -9   2    6.09    1.66
  -2  -9   2    7.96    1.61
   2   8  -2   65.30    4.86
  -2  -8   2   52.07    4.10
  -2  -8   2   58.84    7.43
   2   7  -2   22.63    1.90
  -2  -7   2   21.51    2.02
  -2  -7   2   28.76    5.59
   2   6  -2  316.62    5.03
  -2  -6   2  277.47    5.02
  -2  -6   2  304.57    5.91
   2   5  -2  118.33    3.39
  -2  -5   2   99.16    3.11
  -2  -5   2  121.91    3.93
   2   4  -2   61.65    2.23
  -2  -4   2   52.06    2.10
  -2  -4   2   59.73    2.64
   2   4  -2   52.79    2.50
   2   3  -2   39.72    2.01
  -2  -3   2   37.64    2.01
  -2  -3   2   34.71    2.12
   2   3  -2   40.83    2.56
   2   2  -2    3.90    0.83
  -2  -2   2    1.92    0.77
  -2  -2   2    5.19    1.52
   2   2  -2    3.42    0.83
  -2  -1   2    8.09    0.47
   2   1  -2   11.19    2.68
   2   0  -2 4430.33   14.85
  -2   1   2    8.81    0.68
   2  -1  -2    9.11    0.66
  -2   2   2    1.16    0.54
   2  -2  -2    2.58    0.68
  -2   3   2   40.35    2.20
   2  -3  -2   47.95    2.55
  -2   4   2   73.18    3.05
   2  -4  -2   71.44    2.88
  -2   5   2  139.15    4.59
   2  -5  -2  143.64    4.41
  -2   6   2  354.51    6.77
   2  -6  -2  400.10    6.85
  -2   7   2   28.26    2.59
   2  -7  -2   28.32    2.65
  -2   8   2   53.59    4.35
   2  -8  -2   71.33    5.42
  -2   9   2    9.35    1.61
   2  -9  -2    7.31    1.38
  -2  10   2  136.07    7.75
   2 -10  -2  172.10    9.46
  -2  11   2   32.95    3.04
   2 -11  -2   34.00    2.95
  -2  12   2 1084.62   67.44
   2 -12  -2 1102.92   68.24
  -2  13   2    1.83    1.47
   2 -13  -2   -0.88    1.19
  -2 -14   1  427.04   26.37
  -2 -14   1  373.57   22.26
   2  13  -1   11.65    4.03
  -2 -13   1   27.78    3.15
   2  12  -1   17.51    3.24
  -2 -12   1   21.56    2.93
  -2 -12   1   18.15    2.14
   2  11  -1    9.75    2.63
  -2 -11   1    6.30    1.51
  -2 -11   1    8.13    1.55
   2  10  -1  330.57   21.64
  -2 -10   1  298.99   19.74
  -2 -10   1  356.73   23.10
   2   9  -1   21.56    3.60
  -2  -9   1   17.50    1.83
  -2  -9   1   20.57    1.82
   2   8  -1    2.63    0.97
  -2  -8   1    1.46    0.98
  -2  -8   1    0.89    0.91
   2   7  -1   24.73    2.51
  -2  -7   1   18.75    1.89
  -2  -7   1   23.84    3.81
   2   6  -1  163.48    9.59
  -2  -6   1  141.13    6.05
  -2  -6   1  149.48    3.64
   2   5  -1    0.00    0.72
  -2  -5   1   -0.27    0.97
  -2  -5   1    2.96    0.77
   2   4  -1  191.67    3.95
  -2  -4   1  217.67    4.84
  -2  -4   1  184.76    4.22
   2   3  -1    1.75    0.53
  -2  -3   1    0.06    0.59
  -2  -3   1    1.95    0.52
   2   3  -1    1.29    0.87
   2   2  -1 3746.67   42.48
  -2  -2   1 4013.23   45.56
  -2  -2   1 3638.25   42.48
   2   2  -1 3752.71   43.82
  -2  -1   1   44.90    2.22
  -2  -1   1   42.36    1.75
  -2  -1   1   45.16    3.97
   2   1  -1   44.72    4.00
  -2   0   1    0.95    0.39
   2   0  -1   -0.18   12.11
   2   0  -1    1.12    0.77
  -2   1   1   42.95    1.94
   2  -1  -1   47.30    2.08
  -2   3   1    1.82    0.88
   2  -3  -1    1.65    0.84
  -2   4   1  208.83    4.63
   2  -4  -1  174.09    3.73
  -2   5   1    0.41    0.86
   2  -5  -1    2.02    0.95
  -2   6   1  146.91    4.05
   2  -6  -1  164.26    4.20
  -2   7   1   19.59    1.84
   2  -7  -1   21.99    2.02
  -2   8   1    6.58    1.76
   2  -8  -1    7.28    1.17
  -2   9   1   21.57    2.49
   2  -9  -1   16.40    1.92
  -2  10   1  301.16   19.99
   2 -10  -1  304.17   19.90
  -2  11   1    5.99    1.43
   2 -11  -1    6.33    1.41
  -2  12   1   15.33    2.27
   2 -12  -1   11.98    1.93
  -2  13   1   25.84    2.85
   2 -13  -1   21.29    2.40
  -2 -14   0    2.93    2.40
   2  13   0   -0.08    1.29
  -2 -13   0    3.42    1.93
   2  12   0  509.91   27.85
  -2 -12   0  442.48   24.42
  -2 -12   0  579.75   31.09
   2  11   0    0.57    0.81
  -2 -11   0   -0.19    0.91
  -2 -11   0   -1.51    1.08
   2  10   0 1234.77   77.55
  -2 -10   0 1085.60   68.33
  -2 -10   0 1357.06   13.43
   2   9   0    0.12    0.50
  -2  -9   0   -0.21    1.16
  -2  -9   0   -1.39    0.96
   2   8   0    8.71    2.23
  -2  -8   0    7.00    1.28
  -2  -8   0    5.97    1.22
   2   7   0    0.18    0.68
  -2  -7   0   -0.05    1.11
  -2  -7   0    0.12    0.97
   2   5   0   -0.13    0.95
  -2  -5   0    0.03    0.94
  -2  -5   0    0.47    0.87
   2   4   0  351.06    7.27
  -2  -4   0  331.09    6.16
  -2  -4   0  340.32    6.06
   2   3   0    0.59    0.42
  -2  -3   0    1.71    0.65
  -2  -3   0    1.00    0.67
   2   3   0    1.08    0.81
   2   2   0  774.80   10.26
  -2  -2   0  774.46   10.38
  -2  -2   0  751.38   10.79
   2   2   0  714.39   10.04
  -2  -1   0    1.46    0.53
  -2  -1   0    2.07    0.70
  -2  -1   0    2.23    1.02
   2   1   0    0.08    0.78
  -2   0   0 2988.35   33.80
   2   0   0 2944.09   33.23
  -2   0   0 2945.66   34.42
   2   0   0 2846.65   33.29
  -2   1   0    1.76    0.81
   2  -1   0    1.36    0.88
   2  -1   0    0.36    0.42
  -2   2   0  808.32   10.72
   2  -2   0  735.58    9.60
  -2   3   0    0.20    0.83
   2  -3   0   -0.91    0.85
  -2   4   0  341.10    6.19
   2  -4   0  354.64    6.18
  -2   5   0    0.07    0.77
   2  -5   0   -0.23    1.23
  -2   6   0 8411.14   28.71
   2  -6   0 8431.36   26.54
  -2   7   0   -0.30    1.00
   2  -7   0   -1.10    1.22
  -2   8   0    8.20    1.73
   2  -8   0    7.18    1.35
  -2   9   0    0.58    1.14
   2  -9   0   -0.42    1.29
  -2  10   0 1329.97   16.09
   2 -10   0 1134.93   71.25
  -2  11   0    0.40    1.24
   2 -11   0   -1.12    1.11
  -2  12   0  471.72   25.96
   2 -12   0  504.24   27.47
   2 -13   0    1.89    1.49
   2 -14   0   -0.26    1.69
  -2 -14  -1  341.21   21.10
  -2 -14  -1  485.72   29.05
   2  13   1   21.69    4.68
  -2 -13  -1   14.35    2.47
  -2 -13  -1   29.30    2.99
   2  12   1   17.40    3.65
  -2 -12  -1   12.73    1.80
  -2 -12  -1   17.57    2.21
   2  11   1    8.25    1.96
  -2 -11  -1    5.81    1.52
   2  10   1  335.96   22.97
  -2 -10  -1  331.81   21.99
   2   9   1   22.94    5.70
  -2  -9  -1   17.67    2.05
   2   8   1    1.41    0.62
  -2  -8  -1    5.27    1.74
   2   7   1   20.77    1.80
  -2  -7  -1   23.58    2.53
   2   6   1  158.85    4.31
  -2  -6  -1  132.04    5.74
   2   5   1    0.78    0.86
  -2  -5  -1    0.71    0.86
  -2  -5  -1    1.03    0.78
   2   4   1  193.76    7.68
  -2  -4  -1  187.82    4.53
  -2  -4  -1  193.98    4.31
   2   3   1    1.02    0.59
  -2  -3  -1    2.18    0.68
  -2  -3  -1    2.81    0.48
   2   2   1 3705.66   42.95
  -2  -2  -1 3812.85   44.34
  -2  -2  -1 3772.09   44.17
   2   2   1 3575.90   41.60
  -2  -1  -1   45.30    2.34
  -2  -1  -1   48.68    2.26
  -2  -1  -1   43.25    3.19
   2   1   1   43.46    2.52
  -2   0  -1    0.67    0.60
   2   0   1    0.41    0.69
  -2   0  -1    1.27    0.75
   2   0   1    1.15    0.81
  -2   1  -1   45.26    2.27
   2  -1   1   42.73    2.04
  -2   1  -1   49.92    3.10
   2  -1   1   45.84    3.06
  -2   2  -1 3992.25   45.87
   2  -2   1 3819.66   43.76
   2  -2   1 3845.37   44.28
  -2   3  -1    1.62    1.05
   2  -3   1    0.00    0.87
  -2   4  -1  167.62    3.85
   2  -4   1  208.24    4.61
  -2   5  -1    0.83    1.33
   2  -5   1   -0.01    0.96
  -2   6  -1  135.58    5.93
   2  -6   1  148.12    3.94
  -2   7  -1   17.10    1.64
   2  -7   1   22.71    4.63
  -2   8  -1    3.26    1.70
   2  -8   1    5.93    1.38
  -2   9  -1   15.21    2.02
   2  -9   1   18.60    2.05
  -2  10  -1  298.06   19.72
   2 -10   1  357.25   23.47
  -2  11  -1    9.46    1.89
   2 -11   1    7.58    1.44
  -2  12  -1   16.99    2.60
   2 -12   1   16.93    3.07
  -2  13  -1   27.15    3.05
   2 -13   1   22.70    2.76
  -2 -14  -2   10.15    2.16
   2  13   2    1.13    0.95
  -2 -13  -2    1.20    1.31
   2  12   2 1135.27   70.83
  -2 -12  -2 1128.74   70.17
   2  11   2   32.99    7.55
  -2 -11  -2   31.65    2.97
   2  10   2  142.22    8.67
  -2 -10  -2  120.39    6.72
   2   9   2    9.91    1.55
  -2  -9  -2    4.60    1.49
   2   8   2   66.64    6.46
  -2  -8  -2   63.28    5.19
   2   7   2   27.26    5.80
  -2  -7  -2   18.90    1.77
   2   6   2  321.99   10.13
  -2  -6  -2  290.88    5.96
   2   5   2  115.82    5.82
  -2  -5  -2  113.80    6.33
   2   4   2   57.75    3.17
  -2  -4  -2   56.42    7.55
   2   3   2   46.58    7.61
  -2  -3  -2   41.05    2.80
  -2  -3  -2   38.95    2.18
   2   2   2    5.17    1.05
  -2  -2  -2    3.62    1.47
  -2  -2  -2    2.16    0.68
  -2  -1  -2   10.57    2.40
  -2  -1  -2    9.90    0.97
  -2  -1  -2   10.81    1.95
   2   1   2    5.25    1.44
  -2   0  -2 4147.02   47.19
   2   0   2 4208.05   47.87
  -2   0  -2 4150.36   47.86
   2   0   2 4242.98   48.83
  -2   1  -2    9.71    1.06
   2  -1   2    7.95    0.92
  -2   1  -2   11.22    2.39
   2  -1   2   11.12    2.47
  -2   2  -2    3.40    0.83
   2  -2   2    1.95    0.87
   2  -2   2    5.09    1.03
  -2   3  -2   33.36    1.95
   2  -3   2   26.65    1.79
   2  -3   2   37.92    2.70
  -2   4  -2   53.46    2.49
   2  -4   2   51.95    2.40
  -2   5  -2  110.38    3.76
   2  -5   2  125.93    4.10
  -2   6  -2  369.38    6.94
   2  -6   2  330.33    6.04
  -2   7  -2   21.00    2.16
   2  -7   2   22.92    2.27
  -2   8  -2   49.47    4.04
   2  -8   2   59.20    4.58
  -2   9  -2    5.57    1.49
   2  -9   2    4.35    1.00
  -2  10  -2  137.49    7.69
   2 -10   2  134.58    7.39
  -2  11  -2   29.65    2.64
   2 -11   2   29.57    2.55
  -2  12  -2 1155.52   16.38
   2 -12   2 1054.22   65.32
  -2  13  -2   -0.46    1.32
   2 -13   2    0.04    1.16
   2  13   3    5.65    1.68
  -2 -13  -3    1.09    1.71
   2  12   3    1.32    1.15
  -2 -12  -3    3.26    2.04
   2  11   3    1.16    1.01
  -2 -11  -3    4.15    1.98
   2  10   3  464.60   22.05
  -2 -10  -3  444.75   21.12
   2   9   3    1.13    0.68
  -2  -9  -3    2.62    1.51
   2   8   3 1912.66   46.97
  -2  -8  -3 1650.28   40.64
   2   7   3   12.32    2.48
  -2  -7  -3   10.27    1.78
   2   6   3   67.11   10.58
  -2  -6  -3   62.01    5.11
   2   5   3   14.66    3.47
  -2  -5  -3   14.58    2.95
   2   4   3 1954.70   34.68
  -2  -4  -3 1989.85   34.85
   2   3   3    1.66    0.71
  -2  -3  -3    3.52    0.86
  -2  -2  -3  560.84    9.13
  -2  -2  -3  550.85    8.23
  -2  -1  -3    0.72    0.73
  -2  -1  -3   -0.56    0.68
  -2  -1  -3   -0.25    0.64
  -2   0  -3    2.52   39.30
   2   0   3    1.18    1.08
  -2   0  -3    2.61    0.76
  -2   1  -3   -0.51    0.81
   2  -1   3    1.37    0.83
  -2   1  -3    1.09    0.37
   2  -1   3    5.94    1.31
  -2   2  -3  482.69    7.32
   2  -2   3  525.77    8.00
  -2   2  -3  506.80    7.34
   2  -2   3  548.20    8.09
  -2   3  -3    2.65    0.86
   2  -3   3    2.21    0.91
   2  -3   3    3.01    0.51
  -2   4  -3 1903.06   32.79
   2  -4   3 1888.75   32.52
   2  -4   3 1881.67   31.66
  -2   5  -3   11.44    1.28
   2  -5   3   12.58    1.56
  -2   6  -3   56.99    3.48
   2  -6   3   52.24    3.04
  -2   7  -3   12.95    1.93
   2  -7   3   10.41    1.58
  -2   8  -3 1684.33   41.15
   2  -8   3 1975.95   48.13
  -2   9  -3    0.55    0.90
   2  -9   3    0.25    1.29
  -2  10  -3  429.24   20.30
   2 -10   3  461.46   21.60
  -2  11  -3    1.28    1.06
   2 -11   3    0.88    1.16
  -2  12  -3    1.78    1.27
   2 -12   3    2.92    1.89
  -2  13  -3    1.64    1.51
   2 -13   3    5.92    2.43
  -2 -13  -4   -0.26    1.72
   2  12   4    9.97    2.84
  -2 -12  -4    8.79    1.87
   2  11   4    0.69    1.04
  -2 -11  -4    1.59    1.54
   2  10   4   48.05    9.36
  -2 -10  -4   48.46    3.59
   2   9   4   43.69    9.81
  -2  -9  -4   40.73    3.17
   2   8   4  291.82   15.29
  -2  -8  -4  273.47   12.59
   2   7   4   17.83    4.74
  -2  -7  -4   17.89    2.54
   2   6   4  922.54   25.59
  -2  -6  -4  893.35   25.20
   2   5   4   26.37    4.71
  -2  -5  -4   26.41    4.99
   2   4   4  226.55    5.40
  -2  -4  -4  228.47    5.20
   2   3   4  110.03    4.02
  -2  -3  -4  106.77    4.55
  -2  -2  -4  125.12    7.01
  -2  -2  -4  136.50    3.88
  -2  -1  -4   40.71    4.05
  -2  -1  -4   42.58    1.93
  -2  -1  -4   44.78    1.95
  -2   0  -4   68.34    2.38
   2   0   4   49.78    2.98
  -2   0  -4   55.23    2.98
  -2   1  -4   38.50    1.78
   2  -1   4   39.57    1.85
  -2   1  -4   40.66    2.24
  -2   2  -4  131.40    3.69
   2  -2   4  135.69    3.81
  -2   2  -4  142.33    3.41
   2  -2   4  143.03    3.46
  -2   3  -4  104.33    3.32
   2  -3   4  108.82    3.45
   2  -3   4  106.59    5.18
  -2   4  -4  201.71    4.15
   2  -4   4  205.10    4.23
   2  -4   4  195.71    3.08
  -2   5  -4   24.61    2.31
   2  -5   4   23.08    2.85
   2  -5   4   22.71    2.31
  -2   6  -4  759.22   20.69
   2  -6   4  840.96   22.94
  -2   7  -4   18.43    2.63
   2  -7   4   15.20    1.84
  -2   8  -4  294.21   13.32
   2  -8   4  273.98   12.36
  -2   9  -4   33.03    2.41
   2  -9   4   44.51    3.68
  -2  10  -4   49.10    3.18
   2 -10   4   50.23    3.18
  -2  11  -4    4.50    1.94
   2 -11   4    1.04    1.65
  -2  12  -4   17.91    2.52
   2 -12   4    7.95    1.83
   2 -13   4    0.51    0.93
   2  12   5   17.84    5.11
  -2 -12  -5   14.70    2.81
   2  11   5    3.19    1.68
  -2 -11  -5   -1.52    1.58
   2  10   5  932.62   37.71
  -2 -10  -5  867.64   35.01
   2   9   5   23.25    4.18
  -2  -9  -5   14.07    2.10
   2   8   5  464.38   21.14
  -2  -8  -5  450.77   19.43
   2   7   5    2.43    1.00
  -2  -7  -5    0.90    1.17
   2   6   5  191.96    5.46
  -2  -6  -5  208.59    7.98
   2   5   5    0.12    0.38
  -2  -5  -5    1.84    1.25
   2   4   5  944.57   11.09
  -2  -4  -5  979.83   11.34
  -2  -3  -5   17.58    4.21
  -2  -2  -5 3913.27   65.79
  -2  -2  -5 3959.71   66.16
  -2  -1  -5    2.02    0.84
  -2  -1  -5    1.65    0.83
  -2  -1  -5    1.56    0.49
  -2   0  -5    0.42    0.73
   2   0   5    0.37    0.84
  -2   0  -5    0.87    0.53
  -2   1  -5    2.43    1.59
   2  -1   5    0.62    0.83
  -2   1  -5    2.09    0.56
  -2   2  -5 4026.95   66.87
   2  -2   5 3942.74   65.57
  -2   2  -5 4090.04   66.98
  -2   3  -5   16.38    1.56
   2  -3   5   16.14    1.37
  -2   4  -5  968.15   10.12
   2  -4   5  871.69    8.92
  -2   5  -5    1.07    0.96
   2  -5   5    1.04    0.97
   2  -5   5    0.54    0.26
  -2   6  -5  181.71    8.45
   2  -6   5  188.20    8.79
   2  -6   5  155.49    6.62
  -2   7  -5    2.47    1.49
   2  -7   5    2.01    1.08
   2  -7   5    2.11    0.63
  -2   8  -5  514.95   21.88
   2  -8   5  421.73   17.94
   2  -8   5  398.85   16.04
  -2   9  -5   15.14    1.79
   2  -9   5   19.81    2.13
   2  -9   5    9.49    2.50
  -2  10  -5  648.94   25.93
   2 -10   5  756.01   30.22
  -2  11  -5    0.90    1.33
   2 -11   5    1.32    1.07
   2 -12   5   19.23    2.42
   2 -13   5   12.98    2.12
   2  12   6   12.69    3.64
  -2 -12  -6   12.18    2.50
   2  11   6   18.11    4.23
  -2 -11  -6    9.73    2.14
   2  10   6 1164.11   61.41
  -2 -10  -6 1095.53   57.70
   2   9   6   19.30    5.83
  -2  -9  -6   13.94    1.99
   2   8   6  154.71    8.74
  -2  -8  -6  142.35    8.12
   2   7   6    2.61    1.01
  -2  -7  -6    2.48    0.74
   2   6   6 2212.22   54.36
  -2  -6  -6 2217.19   53.83
   2   5   6    1.03    0.82
  -2  -5  -6    1.23    0.58
   2   4   6  418.74   12.85
  -2  -4  -6  433.05   13.46
  -2  -3  -6   18.36    3.33
  -2  -3  -6   15.46    1.69
  -2  -2  -6 1251.11   12.02
  -2  -2  -6 1354.90   11.03
  -2  -1  -6   19.23    5.78
  -2  -1  -6   18.49    1.72
  -2   0  -6  495.21    6.41
  -2   1  -6   17.45    1.61
   2  -1   6   14.73    1.37
  -2   1  -6   18.31    3.51
  -2   2  -6 1212.98   42.16
  -2   2  -6 1239.07    7.41
  -2   3  -6   16.38    1.63
   2  -3   6   13.05    1.28
  -2   3  -6   14.94    1.86
  -2   4  -6  429.43   12.55
   2  -4   6  417.56   12.21
  -2   5  -6    1.05    0.93
   2  -5   6    0.61    0.93
  -2   6  -6 2370.67   17.45
   2  -6   6 2181.61   52.54
  -2   7  -6    2.08    1.02
   2  -7   6    3.22    0.90
  -2   8  -6  155.40    8.53
   2  -8   6  126.08    6.68
  -2   9  -6   21.66    3.99
   2  -9   6   19.78    4.58
  -2  10  -6  983.65   51.57
   2 -10   6 1010.75   53.02
  -2  11  -6   10.20    1.88
   2 -11   6    9.27    1.70
  -2  12  -6    9.91    2.02
   2 -12   6   10.01    1.83
   2  11   7    4.30    1.59
  -2 -11  -7    2.20    2.36
   2  10   7    8.26    1.57
  -2 -10  -7    2.92    1.39
   2   9   7    0.87    1.43
  -2  -9  -7    0.97    1.28
   2   8   7  216.83   10.01
  -2  -8  -7  254.76   10.46
   2   7   7   26.12    4.57
  -2  -7  -7   25.36    3.44
   2   6   7   80.36    7.37
  -2  -6  -7   72.51    9.01
   2   5   7    3.12    0.80
  -2  -5  -7    1.56    1.39
  -2  -4  -7  255.32    9.10
  -2  -4  -7  273.12    8.49
  -2  -3  -7   19.09    3.47
  -2  -3  -7   17.16    2.61
  -2  -2  -7  237.82    9.91
  -2  -2  -7  240.41    7.58
  -2  -1  -7   33.67    3.64
  -2  -1  -7   22.63    2.76
  -2   0  -7   -0.25    0.86
  -2   0  -7    1.54    0.96
  -2   0  -7   -1.13    0.72
  -2   1  -7   22.82    3.05
   2  -1   7   17.28    1.59
  -2   1  -7   19.74    3.81
  -2   2  -7  200.72    6.38
   2  -2   7  240.13    7.40
  -2   2  -7  232.68    6.78
  -2   3  -7   13.28    1.57
   2  -3   7   15.96    2.06
  -2   3  -7   14.18    2.20
  -2   4  -7  261.14    8.04
   2  -4   7  263.96    8.06
  -2   5  -7    3.21    1.38
   2  -5   7    2.16    1.17
  -2   6  -7   79.35    5.20
   2  -6   7   71.87    4.74
  -2   7  -7   14.98    1.81
   2  -7   7   16.90    2.26
  -2   8  -7  214.97    8.17
   2  -8   7  206.48    8.11
  -2   9  -7    2.31    1.42
   2  -9   7    2.12    1.29
  -2  10  -7    6.80    1.64
   2 -10   7   13.07    2.09
  -2  11  -7    1.77    1.19
   2 -11   7    1.47    1.34
  -2 -11  -8    1.02    1.98
   2  10   8   28.84    6.48
  -2 -10  -8   21.80    2.35
   2   9   8    6.09    1.39
  -2  -9  -8    3.29    1.49
   2   8   8  597.82   28.61
  -2  -8  -8  641.52   30.58
   2   7   8   11.33    2.11
  -2  -7  -8    6.46    1.19
   2   6   8   37.15    3.37
  -2  -6  -8   37.25    8.30
  -2  -5  -8    2.44    0.98
  -2  -5  -8    1.84    1.21
  -2  -4  -8 1069.75   43.46
  -2  -4  -8 1022.45   40.87
  -2  -3  -8    1.95    1.23
  -2  -3  -8    1.29    1.11
  -2  -2  -8  330.28   11.54
  -2  -2  -8  320.34    9.64
  -2  -1  -8   25.32    6.31
  -2  -1  -8   24.67    2.44
  -2   0  -8 1135.74   28.91
  -2   0  -8 1089.66   27.03
  -2   0  -8 1186.53   28.64
  -2   1  -8   24.89    2.45
   2  -1   8   23.71    2.21
  -2   1  -8   26.07    4.47
  -2   2  -8  297.20    8.76
   2  -2   8  308.68    9.12
  -2   2  -8  311.50    8.35
  -2   3  -8    0.80    1.29
   2  -3   8    0.26    0.58
  -2   3  -8    0.72    0.20
  -2   4  -8  965.86   38.54
   2  -4   8 1033.21   41.20
  -2   5  -8    2.18    1.17
   2  -5   8    1.31    1.21
  -2   6  -8   30.46    2.63
  -2   7  -8    8.01    1.57
   2  -7   8   10.40    1.65
  -2   8  -8  528.38   24.72
   2  -8   8  549.85   25.98
  -2   9  -8    5.75    2.02
   2  -9   8    3.58    1.50
  -2  10  -8   32.56    2.93
   2 -10   8   33.41    3.08
  -2  11  -8    0.36    1.16
   2 -11   8    1.14    1.30
  -2 -10  -9   12.57    2.31
   2   9   9    1.55    1.45
  -2  -9  -9    1.71    1.53
   2   8   9  205.39   25.66
  -2  -8  -9  206.36   10.22
   2   7   9   11.12    2.13
  -2  -7  -9   13.03    2.56
  -2  -6  -9   73.22    9.41
  -2  -6  -9   67.68    3.47
  -2  -5  -9   14.36    2.91
  -2  -5  -9   16.76    1.91
  -2  -4  -9  363.49   19.31
  -2  -3  -9   -0.84    1.01
  -2  -3  -9    0.91    1.05
  -2  -2  -9   -0.20    1.03
  -2  -2  -9    0.98    1.45
  -2  -1  -9   11.86    2.71
  -2  -1  -9    8.75    1.86
  -2   0  -9    0.96    0.77
  -2   0  -9    3.18    1.23
  -2   0  -9   -1.12    0.90
  -2   1  -9    7.68    1.96
  -2   1  -9    9.23    2.32
  -2   1  -9    9.70    1.51
  -2   2  -9    0.50    1.09
   2  -2   9    0.20    0.48
  -2   2  -9    0.95    0.44
  -2   3  -9    0.68    1.31
   2  -3   9    3.58    1.65
  -2   3  -9    0.43    0.26
  -2   4  -9  344.33   16.00
  -2   5  -9   16.41    3.44
  -2   6  -9   73.52    3.41
   2  -6   9   83.99    3.70
  -2   7  -9   12.22    1.68
   2  -7   9   13.51    1.81
  -2   8  -9  182.05    8.59
   2  -8   9  191.30    9.23
   2  -9   9    1.63    1.60
   2 -10   9   14.57    2.87
  -2  -8 -10   28.23    4.54
  -2  -7 -10    1.17    0.90
  -2  -7 -10    1.56    1.81
  -2  -6 -10  357.08   23.25
  -2  -6 -10  325.20   21.04
  -2  -5 -10   23.49    5.20
  -2  -5 -10   18.07    2.24
  -2  -4 -10  194.13    9.70
  -2  -4 -10  181.21    8.67
  -2  -3 -10    0.05    1.08
  -2  -3 -10    0.46    1.16
  -2  -2 -10  472.80   14.78
  -2  -1 -10    1.84    0.89
  -2  -1 -10    2.11    0.71
  -2   0 -10   93.36    5.19
  -2   0 -10  110.60    5.40
  -2   1 -10    3.00    1.33
  -2   1 -10    2.47    0.83
  -2   3 -10    0.30    1.10
   2  -3  10    1.40    1.15
  -2   3 -10   -0.01    0.16
  -2   4 -10  175.12    8.14
   2  -4  10  186.74    8.68
  -2   5 -10   25.54    6.34
   2  -5  10   22.81    2.19
  -2   6 -10  350.96   22.48
   2  -6  10  337.55   21.78
  -2   7 -10    1.32    1.23
   2  -7  10    1.49    1.08
  -2   8 -10   28.62    2.60
   2  -8  10   26.62    2.80
   2  -9  10    2.15    1.44
  -2  -8 -11  209.01   19.11
  -2  -7 -11    3.13    1.09
  -2  -7 -11    2.08    1.32
  -2  -6 -11   43.47    8.62
  -2  -6 -11   48.79    3.33
  -2  -5 -11    7.90    2.25
  -2  -5 -11    8.74    1.87
  -2  -4 -11  324.98   21.81
  -2  -4 -11  285.85   18.70
  -2  -3 -11    2.74    1.08
  -2  -3 -11   -1.25    1.06
  -2  -2 -11 1472.06   18.22
  -2  -2 -11 1331.71   69.15
  -2  -1 -11    2.09    0.91
  -2  -1 -11    1.53    1.06
  -2  -1 -11    1.72    1.02
  -2   0 -11    1.22    1.21
  -2   0 -11    1.60    0.88
  -2   0 -11   -0.36    0.70
  -2   1 -11    0.47    0.99
  -2   1 -11    0.61    0.99
  -2   1 -11    1.76    0.69
  -2   2 -11 1243.76   65.04
  -2   2 -11 1234.30   63.38
  -2   3 -11    1.35    1.11
   2  -3  11    0.66    0.83
  -2   3 -11    1.31    0.33
  -2   4 -11  278.60   18.08
   2  -4  11  269.90   17.57
  -2   5 -11    5.38    1.47
   2  -5  11    8.47    1.74
  -2   6 -11   53.70    3.45
   2  -6  11   57.64    9.16
  -2   7 -11    4.56    1.93
   2  -8  11  213.49   23.42
  -2  -6 -12  349.33   24.40
  -2  -5 -12    0.46    0.96
  -2  -5 -12    0.47    1.32
  -2  -4 -12   17.65    4.36
  -2  -4 -12   18.13    2.18
  -2  -3 -12   10.21    3.09
  -2  -3 -12   10.04    2.04
  -2  -2 -12   12.93    3.69
  -2  -2 -12   14.34    1.97
  -2  -2 -12   12.94    1.61
  -2  -1 -12   11.38    2.31
  -2  -1 -12   11.88    2.01
  -2  -1 -12   14.19    1.77
  -2   0 -12   60.29   13.11
  -2   0 -12   70.87    6.88
  -2   0 -12   70.91    9.92
  -2   1 -12   10.28    2.76
  -2   1 -12   13.51    2.10
  -2   1 -12   14.31    2.09
  -2   2 -12   29.70    7.12
  -2   2 -12   13.65    1.80
  -2   2 -12   13.04    1.94
  -2   3 -12   11.81    2.40
  -2   3 -12   12.16    2.25
  -2   4 -12   26.14    2.50
   2  -4  12   22.54    2.35
  -2   5 -12   -0.26    1.10
   2  -5  12    1.67    1.29
  -2   6 -12  373.75   22.35
  -2  -3 -13    3.72    0.98
  -2  -2 -13    2.40    0.90
  -2  -2 -13    1.94    1.18
  -2  -1 -13    0.88    1.08
  -2   0 -13    1.07    1.15
  -2   0 -13    2.40    0.76
  -2   1 -13    1.17    1.07
  -2   1 -13    0.24    1.13
  -2   2 -13    1.28    1.48
  -2   2 -13    2.39    1.68
  -2   2 -13    3.73    0.58
  -2   3 -13    1.37    0.82
   3   5 -12   21.75    3.98
   3   4 -12    7.94    1.08
   3   4 -12    5.73    1.39
   3   3 -12    4.57    1.43
   3   3 -12    8.08    1.04
   3   3 -12    6.01    1.31
   3   2 -12    5.94    1.77
   3   2 -12    8.87    1.72
   3   2 -12    9.08    1.80
   3   1 -12   41.73    1.60
   3   1 -12   49.63    1.78
   3   1 -12   44.61    3.07
   3   0 -12   28.46    2.91
   3   0 -12   28.67    3.45
   3  -1 -12   43.09    1.81
   3  -1 -12   46.15    1.93
   3  -2 -12    7.83    1.23
   3  -2 -12    8.89    2.86
   3  -3 -12    8.20    1.16
   3  -3 -12    7.85    1.33
   3  -4 -12    5.09    1.21
   3  -5 -12   21.49    1.75
   3  -5 -12   17.19    2.37
  -3  -7  11  107.26    6.79
  -3  -6  11   -0.34    0.43
   3   5 -11  165.22    5.17
   3   5 -11  170.59    5.24
   3   4 -11    0.69    0.40
   3   4 -11    0.37    0.40
   3   4 -11    0.51    0.35
   3   3 -11   25.06    2.64
   3   3 -11   38.09   11.50
   3   3 -11   26.81    5.91
   3   2 -11    1.20    0.48
   3   2 -11    2.63    0.50
   3   2 -11    2.34    0.91
   3   1 -11  308.77   19.08
   3   1 -11  358.44   22.09
   3   1 -11  354.48   22.52
   3   0 -11   -0.11    0.39
   3   0 -11    0.62    0.36
   3  -1 -11  338.37   20.97
   3  -1 -11  370.84   22.95
   3  -2 -11    1.83    0.75
   3  -2 -11    0.85    0.75
   3  -3 -11   31.26    1.79
   3  -3 -11   23.96    4.95
   3  -4 -11    0.41    0.70
   3  -4 -11   -0.14    0.54
   3  -5 -11  170.70    5.65
   3  -5 -11  144.08    4.90
   3  -6 -11    0.24    0.67
   3  -6 -11    1.08    0.72
   3  -7 -11  117.69    7.73
   3   8 -10    8.09    1.32
  -3  -8  10    5.76    1.03
  -3  -7  10  134.85    4.65
   3   6 -10   22.72    1.70
  -3  -6  10   16.17    1.32
   3   6 -10   19.76    3.13
   3   5 -10  540.50   33.29
  -3  -5  10  451.02   27.79
   3   5 -10  451.27   28.04
   3   4 -10   50.37    1.85
   3   4 -10   61.14    1.88
   3   4 -10   50.61    5.82
   3   3 -10    3.07    0.98
   3   3 -10    0.92    0.59
   3   3 -10    1.36    0.50
   3   2 -10    5.46    1.21
   3   2 -10    6.77    1.37
   3   2 -10    7.81    1.67
   3   1 -10   31.80    1.35
   3   1 -10   39.77    1.38
   3   1 -10   40.88    6.44
   3   0 -10  151.81    6.28
   3   0 -10  157.89    6.43
   3  -1 -10   39.13    1.56
   3  -1 -10   42.43    1.68
   3  -2 -10    8.37    0.92
   3  -2 -10    9.62    1.10
   3  -3 -10    0.36    0.55
   3  -3 -10   12.76    2.87
   3  -4 -10   65.16    2.52
   3  -4 -10   49.64    2.38
   3  -5 -10  457.55   28.45
   3  -5 -10  371.45   23.20
  -3   6  10   11.15    2.94
   3  -6 -10   19.52    1.61
  -3   7  10  135.87    6.27
   3  -7 -10  154.96    5.72
  -3   8  10    5.96    1.27
   3  -8 -10    4.71    1.10
  -3  -9   9   87.57    8.71
   3   8  -9   90.46    7.19
  -3  -8   9   61.07    7.66
   3   7  -9  397.13   24.91
  -3  -7   9  262.72   16.66
   3   6  -9    0.39    0.32
  -3  -6   9    0.62    0.66
   3   6  -9    0.09    0.45
   3   5  -9  427.07   16.55
  -3  -5   9  378.96   14.76
   3   5  -9  372.64   15.04
   3   4  -9   93.47    2.72
   3   4  -9  100.24    3.96
   3   3  -9   22.44    1.14
   3   3  -9   27.37    1.53
   3   3  -9   29.58    5.48
   3   2  -9   15.71    2.18
   3   2  -9   22.28    1.08
   3   2  -9   21.14    4.59
   3   1  -9  329.13   20.61
   3   1  -9  335.42   20.96
   3   1  -9  343.67   22.16
   3   0  -9   -0.01    0.40
   3   0  -9   -0.23    0.30
   3  -1  -9  321.38   20.19
   3  -1  -9  374.61   23.50
   3  -2  -9   19.84    1.34
   3  -2  -9   20.80    2.73
   3  -3  -9   34.21    2.27
   3  -3  -9   31.29    4.78
   3  -4  -9  113.06    4.23
  -3   5   9  421.72   17.44
   3  -5  -9  384.03   15.27
  -3   6   9    0.71    0.74
   3  -6  -9   -1.01    0.64
  -3   7   9  268.47   17.93
   3  -7  -9  312.48   19.89
   3  -8  -9   69.68    5.74
   3  -9  -9   81.96    5.36
   3  10  -8    4.66    1.20
  -3 -10   8    4.41    1.96
   3   9  -8  330.09   23.76
  -3  -9   8  254.38   18.88
   3   8  -8    2.23    1.02
  -3  -8   8    1.11    0.98
   3   7  -8  823.75   37.02
  -3  -7   8  645.72   29.33
   3   6  -8   38.19    2.07
   3   6  -8   34.56    1.82
   3   5  -8  235.59   10.69
  -3  -5   8  192.76    8.85
   3   5  -8  205.85    9.70
   3   4  -8    3.13    0.89
  -3  -4   8    5.23    1.43
   3   4  -8    5.23    1.38
   3   3  -8 1128.78   43.80
   3   3  -8 1067.06   42.38
   3   2  -8   11.75    1.80
   3   2  -8   18.77    1.22
   3   2  -8   18.61    4.19
   3   1  -8 1283.76   50.45
   3   1  -8 1430.45   56.17
   3   1  -8 1315.64   52.69
   3   0  -8    1.08    0.49
   3   0  -8    2.13    0.59
   3  -1  -8 1349.88   53.19
   3  -1  -8 1322.40   52.08
   3  -2  -8   20.37    1.61
   3  -2  -8   18.38    1.45
   3  -3  -8 1071.49   41.94
  -3   4   8    3.38    1.23
   3  -4  -8    2.74    0.92
  -3   5   8  213.75   10.60
   3  -5  -8  211.92    9.95
  -3   6   8   33.16    8.59
   3  -6  -8   32.77    2.05
  -3   7   8  685.56   32.53
   3  -7  -8  661.96   30.10
  -3   8   8    1.00    0.99
   3  -8  -8    0.04    0.59
  -3   9   8  278.14   22.93
   3  -9  -8  309.25   22.46
  -3  10   8    5.36    1.80
   3 -10  -8    7.41    1.59
   3  11  -7   45.02    2.94
   3  10  -7   66.46    5.63
  -3 -10   7   35.53    3.54
   3   9  -7  143.23    9.62
  -3  -9   7   97.92    5.90
   3   8  -7   62.71    2.46
  -3  -8   7   52.38    2.97
   3   7  -7  122.05    4.58
  -3  -7   7  102.98    4.73
   3   6  -7   16.75    1.44
  -3  -6   7   13.38    2.31
   3   6  -7   14.46    1.25
   3   5  -7  288.16   11.87
  -3  -5   7  227.71    9.49
   3   5  -7  231.27    9.94
   3   4  -7   61.26    2.96
  -3  -4   7   52.38    3.10
   3   4  -7   54.67    4.53
   3   3  -7    1.69    0.55
   3   2  -7  237.52    2.12
   3   2  -7  246.09    7.44
   3   1  -7  218.30    1.90
   3   1  -7  209.90    1.75
   3   1  -7  184.12   11.48
   3   0  -7    0.40    0.30
   3   0  -7    1.30    0.45
   3  -1  -7  229.20    2.91
   3  -1  -7  187.09   11.05
   3  -2  -7  248.53    6.57
   3  -2  -7  235.10    3.29
  -3   3   7    4.13    1.08
   3  -3  -7    3.81    0.78
  -3   4   7   51.43    4.40
   3  -4  -7   56.66    3.11
  -3   5   7  262.28   11.97
   3  -5  -7  244.39   10.44
  -3   6   7   11.10    2.79
   3  -6  -7   13.23    1.38
  -3   7   7  105.34    5.57
   3  -7  -7   95.65    3.03
  -3   8   7   66.56   10.15
   3  -8  -7   61.60    2.76
  -3   9   7  133.87   12.59
   3  -9  -7  126.05    8.69
  -3  10   7   59.38   15.05
   3 -10  -7   52.84    3.72
  -3  11   7   38.20    8.05
   3 -11  -7   43.07    3.10
   3  12  -6    6.59    1.76
  -3 -12   6   10.21    2.27
   3  11  -6  118.77    5.49
  -3 -11   6   74.39    8.35
   3  10  -6   14.05    1.80
  -3 -10   6    8.91    1.96
   3   9  -6  255.55   12.39
  -3  -9   6  194.92   10.70
  -3  -9   6  202.69   10.61
   3   8  -6    2.72    0.82
  -3  -8   6    1.57    0.52
  -3  -8   6    1.11    0.64
   3   7  -6  232.71   14.99
  -3  -7   6  191.89   12.82
   3   6  -6   37.68    2.39
  -3  -6   6   38.50    2.80
   3   6  -6   38.95    2.99
   3   5  -6  683.20   16.62
  -3  -5   6  657.25   16.28
   3   5  -6  726.82   18.34
   3   4  -6    1.59    0.84
  -3  -4   6    4.51    0.71
   3   4  -6    6.04    1.00
   3   3  -6  266.99    6.68
  -3  -3   6  263.48    6.61
   3   3  -6  256.68    7.60
   3   2  -6   52.19    1.95
   3   2  -6   47.00    4.23
   3   1  -6  183.84    6.29
   3   0  -6  161.02    1.17
   3  -1  -6  190.60    5.24
   3  -1  -6  174.04    2.09
  -3   2   6   49.30    2.62
   3  -2  -6   48.17    2.38
  -3   3   6  283.96    8.13
   3  -3  -6  280.26    7.55
  -3   4   6    4.46    1.18
   3  -4  -6    1.85    1.06
  -3   5   6  720.01   19.24
   3  -5  -6  607.12   15.19
  -3   6   6   40.54    6.62
   3  -6  -6   37.14    2.61
  -3   7   6  214.79   14.70
   3  -7  -6  208.72   13.68
  -3   8   6    3.50    1.40
   3  -8  -6    1.86    0.87
  -3   9   6  257.62   13.90
   3  -9  -6  234.67   11.64
  -3  10   6   14.63    3.51
   3 -10  -6   19.06    2.69
  -3  11   6   90.25   11.19
   3 -11  -6  103.18    5.36
   3 -12  -6    9.11    2.17
   3  12  -5    7.06    1.48
  -3 -12   5    2.54    1.78
   3  11  -5  266.31   19.61
  -3 -11   5  235.21   19.05
  -3 -11   5  239.40   17.71
   3  10  -5    0.65    1.01
  -3 -10   5    1.89    1.27
  -3 -10   5   -0.30    0.85
   3   9  -5  109.23    5.61
  -3  -9   5   83.30    6.82
  -3  -9   5   78.53    6.01
   3   8  -5   11.77    1.29
  -3  -8   5   11.47    1.67
  -3  -8   5   12.07    2.40
   3   7  -5  287.94   12.06
  -3  -7   5  227.24   10.34
  -3  -7   5  249.42   11.25
   3   6  -5    0.10    0.69
  -3  -6   5    0.02    0.66
  -3  -6   5   -0.45    0.91
   3   6  -5    0.33    0.67
   3   5  -5  439.98   11.27
  -3  -5   5  460.23   12.74
   3   5  -5  442.21   11.97
   3   4  -5   63.72    2.76
  -3  -4   5   62.98    2.89
   3   4  -5   68.79    3.63
   3   3  -5   39.99    1.91
  -3  -3   5   39.78    1.73
   3   3  -5   35.10    3.21
   3   2  -5  133.90    5.83
   3   1  -5 1081.91    9.56
   3  -1  -5 1333.75    5.20
  -3   2   5  152.05    2.95
   3  -2  -5  138.74    5.05
  -3   3   5   35.33    3.53
   3  -3  -5   37.38    1.96
  -3   4   5   62.47    3.81
   3  -4  -5   63.51    3.03
  -3   5   5  433.03   12.42
   3  -5  -5  437.83   11.63
  -3   6   5   -0.04    0.94
   3  -6  -5    0.19    0.88
  -3   7   5  297.11   13.93
   3  -7  -5  278.07   11.93
  -3   8   5   16.86    4.14
   3  -8  -5   16.22    1.80
  -3   9   5  112.10    6.14
   3  -9  -5  130.29    6.00
  -3  10   5    2.73    0.92
   3 -10  -5    1.89    1.61
  -3  11   5  277.45   23.90
   3 -11  -5  353.27   26.09
  -3  12   5    5.58    1.78
   3 -12  -5    5.09    1.71
   3  12  -4   45.83   11.92
  -3 -12   4   55.28    3.98
   3  11  -4  116.88    8.26
  -3 -11   4   94.57    6.08
  -3 -11   4   99.53    8.50
   3  10  -4   31.19    7.96
  -3 -10   4   26.22    4.39
  -3 -10   4   29.41    5.46
   3   9  -4   34.70    7.28
  -3  -9   4   32.54    2.77
  -3  -9   4   34.89    4.02
   3   8  -4   10.47    2.96
  -3  -8   4   11.81    2.16
  -3  -8   4   11.01    2.48
   3   7  -4  126.82    6.02
  -3  -7   4   98.11    5.20
  -3  -7   4  114.61    6.47
   3   6  -4  320.84    9.01
  -3  -6   4  249.69    7.57
  -3  -6   4  274.36    8.85
   3   5  -4    3.33    0.66
  -3  -5   4    1.23    0.97
  -3  -5   4    2.85    0.75
   3   5  -4    2.41    0.78
   3   4  -4  175.72    2.68
  -3  -4   4  197.37    4.75
  -3  -4   4  180.42    4.68
   3   4  -4  159.36    3.65
   3   3  -4   20.05    2.11
  -3  -3   4   26.59    2.47
   3   3  -4   27.39    3.01
   3   2  -4   24.71    3.35
   3   1  -4 1152.25   20.89
   3   0  -4  350.73    7.81
   3  -1  -4 1069.59   17.59
  -3   2   4   21.72    2.22
   3  -2  -4   19.84    1.16
  -3   3   4   29.01    2.15
   3  -3  -4   25.95    1.66
  -3   4   4  222.53    5.10
   3  -4  -4  228.04    4.19
  -3   5   4    2.55    1.40
   3  -5  -4    4.62    1.60
  -3   6   4  323.06   10.07
   3  -6  -4  389.09   11.18
  -3   7   4  125.96    8.07
   3  -7  -4  142.75    7.09
  -3   8   4   17.11    3.83
   3  -8  -4    8.56    1.89
  -3   9   4   53.50    4.62
   3  -9  -4   52.68    3.93
  -3  10   4   40.12    4.21
  -3  11   4  111.22    5.56
   3 -11  -4  119.37    8.59
  -3  12   4   45.84   13.77
   3 -12  -4   55.08    3.33
   3 -13  -4  158.49   10.48
   3  13  -3   63.21    7.38
  -3 -13   3   64.40    6.41
   3  12  -3    1.56    0.82
  -3 -12   3    0.91    1.57
  -3 -12   3    3.61    1.69
   3  11  -3  632.50   33.57
  -3 -11   3  644.08   34.90
  -3 -11   3  557.94   29.63
   3  10  -3    0.45    0.57
  -3 -10   3    0.59    1.47
  -3 -10   3    0.46    0.49
   3   9  -3  375.20   24.15
  -3  -9   3  405.78   26.65
  -3  -9   3  342.32   22.77
   3   8  -3    1.58    0.70
  -3  -8   3   16.37    2.39
  -3  -8   3   12.22    2.78
   3   7  -3 1903.21   45.32
  -3  -7   3 1971.58   47.78
  -3  -7   3 1719.72   41.67
   3   6  -3    1.32    0.47
  -3  -6   3    0.70    2.63
  -3  -6   3    2.53    0.91
   3   5  -3 2708.43   68.52
  -3  -5   3 2638.95   67.20
  -3  -5   3 2688.43   69.10
   3   5  -3 2804.75   71.47
   3   4  -3   70.62    3.30
  -3  -4   3   57.30    2.95
  -3  -4   3   71.45    5.17
   3   4  -3   73.01    3.88
   3   3  -3   22.40    2.31
  -3  -3   3   21.40    1.12
  -3  -3   3   29.53    6.04
   3   3  -3   26.07    4.98
  -3  -2   3   17.98    0.82
   3   2  -3   15.11    4.04
   3   1  -3 1760.71   30.51
   3   0  -3    0.70    0.57
  -3   1   3 1902.46   31.39
   3  -1  -3 1759.54   28.77
  -3   2   3   17.62    1.13
   3  -2  -3   11.24    0.75
  -3   3   3   27.24    1.58
   3  -3  -3   22.77    1.14
  -3   4   3   88.24    4.33
   3  -4  -3   67.23    3.00
  -3   5   3 3081.56   78.94
   3  -5  -3 2899.76   73.63
  -3   6   3    2.40    1.84
   3  -6  -3   -1.83    2.53
  -3   7   3 1703.81   41.65
   3  -7  -3 1960.51   47.02
  -3   8   3   11.09    1.68
   3  -8  -3    7.66    1.74
  -3   9   3  371.55   24.40
   3  -9  -3  355.49   22.97
  -3  10   3    1.16    1.35
  -3  11   3  635.07   34.39
   3 -11  -3  559.91   29.84
  -3  12   3    4.16    2.43
   3 -12  -3    5.58    2.48
  -3  13   3   76.99   11.06
   3 -13  -3   61.86    4.96
   3  13  -2  102.79   17.88
  -3 -13   2  162.12   11.66
  -3 -13   2  113.90    8.45
   3  12  -2    8.88    2.28
  -3 -12   2   10.00    2.35
  -3 -12   2    9.78    2.20
   3  11  -2    1.92    0.83
  -3 -11   2    3.28    2.15
  -3 -11   2    2.14    1.10
   3  10  -2   54.23    4.26
  -3 -10   2   48.98    3.16
  -3 -10   2   50.69    7.03
   3   9  -2  957.65   60.12
  -3  -9   2  873.33   55.12
  -3  -9   2  991.82   62.38
   3   8  -2    3.66    0.91
  -3  -8   2    4.17    1.46
  -3  -8   2    5.92    1.20
   3   7  -2   15.71    3.63
  -3  -7   2   13.40    1.55
  -3  -7   2   18.16    3.12
   3   6  -2  231.41    7.23
  -3  -6   2  236.58    7.89
  -3  -6   2  227.73    7.79
   3   5  -2   92.97    3.97
  -3  -5   2   89.10    4.15
  -3  -5   2   91.05    4.83
   3   5  -2   92.54    4.23
   3   4  -2   45.69    2.85
  -3  -4   2   40.27    1.93
  -3  -4   2   41.80    4.56
   3   4  -2   41.38    3.51
   3   3  -2 4510.07   73.70
  -3  -3   2 4246.31   70.97
   3   3  -2 4110.49   68.44
   3   2  -2  182.71    3.68
  -3  -2   2  188.11    3.93
  -3  -2   2  191.13    5.22
   3   2  -2  185.53    6.23
  -3  -1   2  375.17    6.71
  -3  -1   2  364.23    6.32
   3   1  -2  357.01    7.83
  -3   0   2  209.21    3.08
   3   0  -2  215.14    3.00
   3   0  -2  224.66    4.92
  -3   1   2  429.62    8.02
   3  -1  -2  371.85    6.67
   3  -1  -2  361.21    7.87
  -3   2   2  189.91    4.28
   3  -2  -2  209.57    4.34
  -3   3   2 4635.35   76.38
   3  -3  -2 4322.64   70.72
  -3   4   2   43.59    2.58
   3  -4  -2   55.00    2.90
  -3   5   2   89.84    4.32
   3  -5  -2   95.95    4.29
  -3   6   2  236.99    8.10
   3  -6  -2  206.73    6.67
  -3   7   2   18.59    2.44
   3  -7  -2   13.48    1.54
  -3   8   2    2.83    1.32
   3  -8  -2    3.77    1.18
   3  -9  -2  883.07   55.47
  -3  10   2   49.88    3.23
   3 -10  -2   48.42    2.74
  -3  11   2    0.35    1.23
   3 -11  -2    0.84    1.36
  -3  12   2    8.57    1.99
   3 -12  -2    8.54    1.66
  -3  13   2  124.24    9.18
   3  13  -1  117.87   12.91
  -3 -13   1  147.37   10.10
   3  12  -1    1.80    0.99
  -3 -12   1    2.19    1.81
  -3 -12   1    3.09    1.28
   3  11  -1   49.58    3.45
  -3 -11   1   38.12    2.97
  -3 -11   1   46.95   10.10
   3  10  -1   75.84   12.49
  -3 -10   1   59.70    3.94
  -3 -10   1   77.56    5.20
   3   9  -1  165.48    9.28
  -3  -9   1  160.44    8.07
  -3  -9   1  167.51    8.14
   3   8  -1  112.11   10.06
  -3  -8   1  126.34    8.63
  -3  -8   1  133.29    9.17
   3   7  -1   12.31    2.92
  -3  -7   1   10.69    1.38
  -3  -7   1   12.87    2.56
   3   6  -1   23.02    3.57
  -3  -6   1   22.09    2.05
  -3  -6   1   26.53    4.25
   3   5  -1   16.74    2.90
  -3  -5   1   15.91    1.70
  -3  -5   1   15.86    3.14
   3   4  -1  145.17    3.86
  -3  -4   1  134.94    3.86
  -3  -4   1  145.19    5.87
   3   4  -1  153.88    4.56
   3   3  -1    6.82    1.18
  -3  -3   1    3.69    1.05
  -3  -3   1    2.94    0.96
   3   3  -1    3.00    1.31
  -3  -2   1  619.38    8.74
  -3  -2   1  590.61   10.12
   3   2  -1  651.82   10.53
  -3  -1   1  359.46    5.31
  -3  -1   1  341.12    4.76
  -3  -1   1  352.15    7.01
   3   1  -1  350.15    6.55
  -3   0   1    0.39    0.36
   3   0  -1   -0.06    0.35
   3   0  -1    0.86    0.77
  -3   1   1  339.13    5.07
   3  -1  -1  358.38    5.15
   3  -1  -1  352.77    6.57
  -3   2   1  508.29    7.24
   3  -2  -1  573.78    7.82
  -3   3   1    1.50    0.84
   3  -3  -1    3.79    0.81
  -3   4   1  134.41    3.99
   3  -4  -1  141.96    3.92
  -3   5   1   11.45    1.27
   3  -5  -1   14.85    1.49
  -3   6   1   20.15    1.83
   3  -6  -1   22.79    2.30
  -3   7   1   12.17    1.50
   3  -7  -1   15.61    1.95
  -3   8   1  119.08    8.17
   3  -8  -1  138.17    9.20
  -3   9   1  195.26   13.70
   3  -9  -1  177.45   12.09
  -3  10   1   88.19    4.78
   3 -10  -1   80.94    3.87
  -3  11   1   54.91    3.87
   3 -11  -1   53.21    3.57
  -3  12   1   -0.58    1.17
   3 -12  -1    2.26    1.34
  -3  13   1  109.04    7.63
   3 -13  -1  138.77    9.09
   3  13   0    1.30    0.84
  -3 -13   0    0.71    1.30
  -3 -13   0    2.17    0.77
   3  12   0    0.98    0.88
  -3 -12   0    0.47    1.07
  -3 -12   0    1.03    0.97
   3  11   0   61.60    9.23
  -3 -11   0   56.46    3.63
  -3 -11   0   61.95   12.78
   3  10   0   -0.76    1.25
  -3 -10   0   -0.06    1.01
  -3 -10   0    1.03    0.71
   3   9   0 1632.60  329.61
  -3  -9   0 1435.51   57.02
  -3  -9   0 1758.66  355.03
   3   8   0   -0.71    0.79
  -3  -8   0    4.38    1.65
  -3  -8   0    1.49    0.45
   3   7   0  308.41    9.48
  -3  -7   0  302.73    9.74
  -3  -7   0  302.00    9.38
   3   6   0    0.23    0.46
  -3  -6   0   -0.46    0.88
  -3  -6   0    3.18    1.02
   3   5   0  465.25    6.37
  -3  -5   0  460.25    6.57
  -3  -5   0  481.08    7.12
   3   4   0   -0.48    0.61
  -3  -4   0   -0.01    0.90
  -3  -4   0    1.84    0.87
   3   3   0 1900.12   32.33
  -3  -3   0 1864.94   31.90
  -3  -3   0 1889.65   33.03
   3   3   0 1799.67   31.28
  -3  -2   0    2.48    0.84
  -3  -2   0   -0.05    0.45
  -3  -2   0    0.49    0.49
   3   2   0   -0.31    1.11
  -3  -1   0  197.22    3.75
  -3  -1   0  201.20    3.56
  -3  -1   0  204.28    4.95
   3   1   0  196.24    4.64
  -3   0   0    1.26    0.67
   3   0   0    1.06    0.55
  -3   0   0    0.46    0.59
   3   0   0    3.41    1.25
  -3   1   0  197.36    3.66
   3  -1   0  196.70    3.51
   3  -1   0  201.60    4.55
  -3   2   0    0.79    0.62
   3  -2   0   -0.02    0.58
   3  -2   0   -0.56    0.88
  -3   3   0 1621.76   27.75
   3  -3   0 1907.51   32.28
  -3   4   0    1.34    0.97
   3  -4   0    0.76    0.94
  -3   5   0  502.06    7.16
   3  -5   0  519.73    6.70
  -3   6   0    0.34    0.91
   3  -6   0   -0.08    0.94
  -3   7   0  265.90    8.56
   3  -7   0  297.80    9.10
  -3   8   0   -0.29    1.11
   3  -8   0   -1.85    1.04
  -3   9   0 1478.09   58.71
   3  -9   0 1658.63  334.76
  -3  10   0    1.69    1.44
   3 -10   0   -1.99    1.05
  -3  11   0   68.33    4.43
   3 -11   0   57.17    3.40
  -3  12   0    3.04    2.11
   3 -12   0   -0.33    1.08
  -3  13   0    1.70    1.35
   3 -13   0   -0.03    1.35
   3  13   1  137.25   16.42
  -3 -13  -1  107.12    7.29
  -3 -13  -1  157.10   10.81
   3  12   1    5.17    2.39
  -3 -12  -1    0.37    1.26
   3  11   1   51.50    3.79
  -3 -11  -1   46.26    3.45
  -3 -11  -1   57.07    3.66
   3  10   1   80.49   11.88
   3   9   1  163.50    9.52
  -3  -9  -1  166.50    8.51
  -3  -9  -1  193.77    9.33
   3   8   1  129.22    9.62
  -3  -8  -1  126.00    8.63
  -3  -8  -1  125.95    8.48
   3   7   1   14.46    3.49
  -3  -7  -1   10.92    1.52
  -3  -7  -1   14.38    2.92
   3   6   1   19.79    3.89
  -3  -6  -1   17.26    1.68
  -3  -6  -1   20.26    2.81
   3   5   1   45.25    3.06
  -3  -5  -1   17.71    2.86
  -3  -5  -1   21.26    4.17
   3   4   1  150.13    4.44
  -3  -4  -1  140.04    5.52
  -3  -4  -1  139.49    5.04
   3   3   1    3.00    0.76
  -3  -3  -1    2.29    0.69
  -3  -3  -1    2.83    0.84
   3   3   1    2.89    1.24
  -3  -2  -1  597.23    9.11
  -3  -2  -1  552.39    7.95
  -3  -2  -1  600.83    9.76
   3   2   1  551.27    8.99
  -3  -1  -1  347.67    6.19
  -3  -1  -1  339.45    5.60
  -3  -1  -1  348.30    6.58
   3   1   1  334.47    6.49
  -3   0  -1   -0.22    0.56
   3   0   1   -0.28    0.63
  -3   0  -1   -0.13    0.41
   3   0   1   -0.71    1.11
  -3   1  -1  349.94    5.67
   3  -1   1  342.91    5.44
  -3   1  -1  353.11    6.40
   3  -1   1  349.70    7.40
  -3   2  -1  544.39    8.03
   3  -2   1  620.29    9.01
   3  -2   1  581.49   11.36
  -3   3  -1    3.01    1.09
   3  -3   1    2.54    0.94
   3  -3   1    2.98    1.11
  -3   4  -1  125.33    3.71
   3  -4   1  146.12    4.15
  -3   5  -1   12.64    1.54
   3  -5   1   14.53    1.54
  -3   6  -1   25.81    2.64
   3  -6   1   31.64    5.88
  -3   7  -1   13.65    1.81
   3  -7   1   20.33    2.12
  -3   8  -1  111.41    7.70
   3  -8   1  126.81    8.44
  -3   9  -1  171.87   11.99
   3  -9   1  176.47   12.07
  -3  10  -1   66.35    3.59
   3 -10   1   80.81    3.85
  -3  11  -1   45.77    3.46
   3 -11   1   43.70    2.92
  -3  12  -1    1.96    1.58
   3 -12   1    1.56    1.21
  -3  13  -1  142.46    9.80
   3 -13   1  131.84    8.72
   3  13   2  118.97   11.77
  -3 -13  -2  131.02    9.42
  -3 -13  -2  181.32   12.35
  -3 -12  -2    6.66    2.65
  -3 -12  -2   10.58    2.20
   3  11   2    2.07    1.05
  -3 -11  -2    2.24    1.33
  -3 -11  -2    0.84    1.35
   3  10   2   60.47    9.57
  -3 -10  -2   53.90    3.72
  -3 -10  -2   58.09    3.82
   3   9   2  987.39   62.53
  -3  -9  -2 1018.12   64.33
  -3  -9  -2 1124.79   70.77
   3   8   2    5.05    1.10
  -3  -8  -2    3.81    1.17
  -3  -8  -2    4.03    1.35
   3   7   2   19.00    2.98
  -3  -7  -2   13.42    1.90
  -3  -7  -2   15.45    1.78
   3   6   2  235.20    8.27
  -3  -6  -2  240.36    8.33
  -3  -6  -2  232.99    7.83
   3   5   2   95.20    5.91
  -3  -5  -2   95.47    6.37
  -3  -5  -2   89.50    4.31
   3   4   2   45.66    2.87
  -3  -4  -2   52.46    3.77
  -3  -4  -2   46.23    4.13
   3   3   2 4349.99   72.37
  -3  -3  -2 4210.99   70.36
  -3  -3  -2 4144.41   69.07
  -3  -2  -2  195.85    5.09
  -3  -2  -2  192.00    4.65
  -3  -2  -2  220.76    6.03
   3   2   2  191.89    5.18
  -3  -1  -2  323.27    7.01
  -3  -1  -2  340.33   10.69
  -3  -1  -2  362.02    8.12
   3   1   2  349.70    7.74
  -3   0  -2  218.84    4.21
   3   0   2  211.11    4.10
  -3   0  -2  213.41    4.68
   3   0   2  210.73    4.96
  -3   1  -2  349.33    7.18
   3  -1   2  346.11    7.41
  -3   1  -2  365.61    7.78
   3  -1   2  347.65    7.66
  -3   2  -2  195.62    4.81
   3  -2   2  192.04    4.70
   3  -2   2  190.04    4.93
  -3   3  -2 4817.39   79.73
   3  -3   2 4686.26   77.42
   3  -3   2 4272.99   70.88
  -3   4  -2   40.42    2.51
   3  -4   2   40.14    2.37
   3  -4   2   43.57    3.80
  -3   5  -2   76.02    3.75
   3  -5   2   95.40    4.52
  -3   6  -2  239.89    8.19
   3  -6   2  226.27    8.28
  -3   7  -2   19.47    2.39
   3  -7   2   17.18    1.81
  -3   8  -2    6.29    1.41
   3  -8   2    4.84    1.36
   3  -9   2 1102.27   69.38
  -3  10  -2   59.23    3.82
   3 -10   2   68.28    6.23
  -3  11  -2    3.87    1.54
   3 -11   2    3.87    1.98
  -3  12  -2   13.11    2.64
   3 -12   2   15.42    2.77
   3 -13   2  157.47   16.07
  -3 -13  -3   78.05    6.69
   3  12   3    5.06    2.30
  -3 -12  -3    2.80    1.71
  -3 -12  -3    3.13    2.16
   3  11   3  659.08   35.94
  -3 -11  -3  658.83   35.60
  -3 -11  -3  842.13   44.81
   3  10   3    1.95    1.01
  -3 -10  -3   -0.45    1.23
  -3 -10  -3   -2.41    1.48
   3   9   3  391.77   25.79
  -3  -9  -3  356.81   23.45
  -3  -9  -3  398.95   25.97
   3   8   3   14.34    3.57
  -3  -8  -3   10.92    1.77
  -3  -8  -3   10.00    6.00
   3   7   3 1939.00   47.48
  -3  -7  -3 2291.06   20.22
  -3  -7  -3 1966.20   48.01
   3   6   3    1.93    0.62
  -3  -6  -3    2.68    0.96
  -3  -6  -3    1.68    1.29
   3   5   3 2777.45   71.45
  -3  -5  -3 2914.13   74.99
  -3  -5  -3 2849.34   72.88
   3   4   3   80.39    6.17
  -3  -4  -3   81.15    5.36
  -3  -4  -3   67.30    3.48
  -3  -3  -3   25.93    2.16
  -3  -3  -3   28.41    5.29
  -3  -2  -3   14.77    3.43
  -3  -2  -3   13.69    1.37
  -3  -2  -3   15.09    2.82
  -3  -1  -3 1646.49   28.73
  -3  -1  -3 1746.41   30.13
   3   1   3 1767.60   30.69
  -3   0  -3    0.57    0.78
   3   0   3    2.01    0.89
  -3   0  -3    2.12    0.73
   3   0   3    1.62    0.64
  -3   1  -3 1828.13   31.32
   3  -1   3 1756.20   30.08
  -3   1  -3 1856.93   31.97
   3  -1   3 1691.40   29.68
  -3   2  -3   11.91    1.17
   3  -2   3   13.97    1.41
  -3   2  -3   14.96    2.68
   3  -2   3   16.23    2.56
  -3   3  -3   28.53    3.66
   3  -3   3   20.83    1.53
   3  -3   3   26.73    3.25
  -3   4  -3   67.74    3.46
   3  -4   3   75.84    3.72
   3  -4   3   76.36    5.83
  -3   5  -3 3342.74   85.60
   3  -5   3 2800.55   71.60
   3  -5   3 2722.08   69.25
  -3   6  -3    1.46    0.88
   3  -6   3    2.16    1.06
   3  -6   3    0.99    0.82
  -3   7  -3 2227.78   54.17
   3  -7   3 1913.50   46.30
  -3   8  -3   12.05    1.88
   3  -8   3   12.41    1.84
  -3   9  -3  331.16   21.66
   3  -9   3  356.02   23.16
  -3  10  -3    0.20    1.00
   3 -10   3    0.05    0.94
  -3  11  -3  642.91   34.64
   3 -11   3  651.83   34.87
  -3  12  -3    3.61    1.76
   3 -12   3    2.73    1.54
   3 -13   3   72.03    6.01
  -3 -13  -4  174.16   11.91
   3  12   4   64.98    6.33
  -3 -12  -4   58.60    4.10
  -3 -12  -4   80.94    5.37
   3  11   4  139.92   17.74
  -3 -11  -4  131.39   10.05
  -3 -11  -4  154.90   11.22
   3  10   4   40.73   10.19
  -3 -10  -4   36.94    3.34
  -3 -10  -4   41.89    3.35
   3   9   4   47.36    6.94
  -3  -9  -4   36.08    3.11
  -3  -9  -4   41.67    3.34
   3   8   4   11.77    2.76
  -3  -8  -4   16.19    2.25
  -3  -8  -4   10.34    1.82
   3   7   4  117.26    7.78
  -3  -7  -4  116.68    8.23
  -3  -7  -4  125.61    6.45
   3   6   4  315.88   10.02
  -3  -6  -4  319.78   10.21
  -3  -6  -4  310.31    9.41
   3   5   4    2.76    0.70
  -3  -5  -4    1.89    0.66
  -3  -5  -4    2.24    1.09
   3   4   4  177.57    4.69
  -3  -4  -4  177.41    6.97
  -3  -4  -4  183.93    4.33
  -3  -3  -4   22.50    4.96
  -3  -3  -4   21.10    1.87
  -3  -3  -4   21.05    3.86
  -3  -2  -4   24.96    3.97
  -3  -2  -4   21.01    1.68
  -3  -2  -4   25.73    4.58
  -3  -1  -4 1036.19   21.49
  -3  -1  -4 1096.32   19.83
  -3  -1  -4 1059.79   19.31
  -3   0  -4  370.34    7.96
   3   0   4  347.51    7.49
  -3   0  -4  385.63    9.48
  -3   1  -4 1106.93   20.02
   3  -1   4 1076.33   19.36
  -3   1  -4 1081.70   19.39
   3  -1   4 1118.65   20.27
  -3   2  -4   20.56    1.83
   3  -2   4   27.48    5.18
  -3   2  -4   20.89    1.87
   3  -2   4   22.76    4.54
  -3   3  -4   18.74    1.52
   3  -3   4   22.21    2.35
   3  -3   4   29.46    4.92
  -3   4  -4  190.24    4.62
   3  -4   4  179.57    4.36
   3  -4   4  187.03    4.49
  -3   5  -4    2.55    0.96
   3  -5   4    4.54    1.03
   3  -5   4    6.21    1.30
  -3   6  -4  297.51    9.13
   3  -6   4  308.26    9.42
   3  -6   4  293.41    8.50
  -3   7  -4  104.20    5.53
   3  -7   4  116.92    8.60
   3  -7   4  124.53    5.90
  -3   8  -4   12.54    2.35
   3  -8   4   11.63    1.65
   3  -8   4    9.35    2.82
  -3   9  -4   38.08    3.09
   3  -9   4   46.33    3.53
   3  -9   4   39.15    3.49
  -3  10  -4   30.50    2.70
   3 -10   4   35.21    2.69
  -3  11  -4  124.68    9.18
   3 -11   4  117.03    8.58
  -3  12  -4   58.74    3.98
   3 -12   4   55.08    3.68
   3  12   5    3.82    1.75
  -3 -12  -5    7.71    3.03
  -3 -12  -5    4.58    1.98
   3  11   5  296.22   22.40
  -3 -11  -5  313.22   23.65
  -3 -11  -5  363.34   27.23
   3  10   5    2.39    0.86
  -3 -10  -5    3.61    1.82
   3   9   5  106.27   16.57
  -3  -9  -5  100.01    5.38
   3   8   5   17.59    2.69
  -3  -8  -5   14.64    2.41
   3   7   5  294.54   13.70
  -3  -7  -5  271.12   14.97
   3   6   5   -0.17    0.90
  -3  -6  -5    0.92    0.68
  -3  -6  -5   -0.16    0.95
   3   5   5  447.85   13.23
  -3  -5  -5  484.92   14.06
  -3  -5  -5  427.84   11.98
  -3  -4  -5   65.18    5.66
  -3  -4  -5   64.06    4.77
  -3  -3  -5   47.41    8.73
  -3  -3  -5   35.78    2.53
  -3  -3  -5   38.06    2.60
  -3  -2  -5  125.99    7.96
  -3  -2  -5  132.97    5.68
  -3  -2  -5  134.51    5.98
  -3  -1  -5 1038.12   11.50
  -3  -1  -5 1046.75    9.50
  -3  -1  -5 1037.54   11.05
  -3   0  -5   -0.01    1.00
   3   0   5    0.19    0.82
  -3   0  -5   -0.54    0.75
  -3   1  -5 1014.27   19.21
   3  -1   5  975.74    8.81
  -3   1  -5  988.59    8.50
  -3   2  -5  122.10    5.30
   3  -2   5  133.62    5.69
  -3   2  -5  133.06    5.49
  -3   3  -5   39.11    2.57
   3  -3   5   34.75    2.31
   3  -3   5   35.13    2.26
  -3   4  -5   62.64    3.50
   3  -4   5   63.60    3.54
   3  -4   5   61.58    4.80
  -3   5  -5  381.03   10.87
   3  -5   5  425.51   13.03
   3  -5   5  371.72   10.29
  -3   6  -5    1.68    1.24
   3  -6   5    0.42    1.06
   3  -6   5    1.43    0.87
  -3   7  -5  234.21   10.50
   3  -7   5  257.08   11.49
   3  -7   5  260.18   11.14
  -3   8  -5   15.09    2.35
   3  -8   5   14.12    1.78
   3  -8   5   19.71    3.67
  -3   9  -5  129.90   19.17
   3  -9   5   96.91    4.06
   3  -9   5   95.43    4.16
  -3  10  -5    1.01    1.06
   3 -10   5    1.07    1.04
   3 -10   5    1.90    0.76
  -3  11  -5  242.21   18.14
   3 -11   5  271.07   20.24
   3 -11   5  283.61   20.49
  -3  12  -5    3.65    1.39
   3 -12   5   10.30    2.34
   3 -12   5    7.27    1.32
  -3 -12  -6    8.95    2.72
   3  11   6   89.49    8.53
  -3 -11  -6   99.89    5.79
   3  10   6   11.51    2.62
  -3 -10  -6   13.04    2.16
   3   9   6  251.50   13.32
  -3  -9  -6  254.99   13.35
   3   8   6    1.30    1.21
  -3  -8  -6    6.02    1.00
   3   7   6  223.79   15.32
  -3  -7  -6  232.57   20.40
   3   6   6   46.50    8.64
  -3  -6  -6   43.94    7.54
   3   5   6  685.95   18.72
  -3  -5  -6  712.16   19.64
  -3  -5  -6  675.37   17.64
  -3  -4  -6    3.16    1.35
  -3  -4  -6    5.98    1.27
  -3  -4  -6    2.71    0.95
  -3  -3  -6  279.46    9.13
  -3  -3  -6  263.85    8.20
  -3  -3  -6  276.44    8.31
  -3  -2  -6   48.40    4.34
  -3  -2  -6   47.08    3.08
  -3  -2  -6   53.18    3.65
  -3  -1  -6  172.93    6.84
  -3  -1  -6  163.59    4.05
  -3  -1  -6  186.99    9.39
  -3   0  -6  138.37    6.14
   3   0   6  137.89    6.07
  -3   0  -6  147.26    9.47
  -3   1  -6  136.67    8.21
   3  -1   6  165.10    4.03
  -3   1  -6  190.12    7.01
  -3   2  -6   39.89    2.92
   3  -2   6   45.69    4.77
  -3   2  -6   47.06    3.04
  -3   3  -6  254.59    7.91
   3  -3   6  250.56    7.90
  -3   3  -6  249.12    6.95
  -3   4  -6    4.52    1.11
   3  -4   6    3.03    0.83
  -3   5  -6  636.62   16.85
   3  -5   6  677.97   17.88
  -3   6  -6   38.37    3.79
   3  -6   6   43.30    3.35
   3  -6   6   34.23    2.19
  -3   7  -6  203.71   13.64
   3  -7   6  235.33   15.74
   3  -7   6  169.60   10.90
  -3   8  -6    3.44    1.37
   3  -8   6    2.86    1.12
   3  -8   6    1.23    0.51
   3  -9   6  221.69   11.44
   3  -9   6  161.00    7.87
  -3  10  -6   11.92    2.11
   3 -10   6   10.20    1.80
   3 -10   6   12.21    1.98
  -3  11  -6   88.03    4.91
   3 -11   6   92.70    5.14
   3 -12   6    4.14    1.66
  -3 -11  -7   38.03    3.40
   3  10   7   63.51    7.56
  -3 -10  -7   58.03    7.91
   3   9   7  147.91   16.96
  -3  -9  -7  128.14    9.63
   3   8   7   76.43    7.81
  -3  -8  -7   68.04    9.33
   3   7   7  125.99   11.63
  -3  -7  -7  126.56   12.43
   3   6   7   15.44    1.96
  -3  -6  -7   15.17    2.22
  -3  -5  -7  225.25   10.73
  -3  -5  -7  231.05   10.62
  -3  -5  -7  205.25    9.31
  -3  -4  -7   54.73   10.94
  -3  -4  -7   50.61    4.91
  -3  -4  -7   51.97    3.28
  -3  -3  -7    2.86    0.75
  -3  -3  -7    4.60    1.56
  -3  -3  -7    2.63    1.37
  -3  -2  -7  243.58    9.26
  -3  -2  -7  254.98    8.11
  -3  -2  -7  250.81    8.36
  -3  -1  -7  182.52   13.16
  -3  -1  -7  185.14   11.65
  -3  -1  -7  201.52   14.65
  -3   0  -7   -0.18    0.91
  -3   0  -7    0.32    0.90
  -3   0  -7    1.07    0.77
  -3   1  -7  182.43   11.55
   3  -1   7  171.93   10.82
  -3   1  -7  193.14   13.35
  -3   2  -7  222.26    4.86
   3  -2   7  239.78    5.22
  -3   2  -7  231.10    4.18
  -3   3  -7    1.18    1.38
   3  -3   7    3.83    1.40
  -3   3  -7    2.04    0.68
  -3   4  -7   48.47    6.02
   3  -4   7   57.15    7.61
  -3   5  -7  221.67   10.16
   3  -5   7  232.26   10.55
  -3   6  -7   14.18    1.81
   3  -6   7   12.85    1.66
  -3   7  -7  107.00    5.04
   3  -7   7  110.20    5.25
  -3   8  -7   56.19    3.98
   3  -8   7   69.88    3.67
  -3   9  -7  142.82   10.37
   3  -9   7  128.77   10.00
  -3  10  -7   68.97    6.70
   3 -10   7   61.92    8.95
  -3  11  -7   44.97    3.63
   3 -11   7   39.16    3.09
  -3 -10  -8    9.43    2.50
   3   9   8  355.19   26.60
  -3  -9  -8  409.77   30.63
   3   8   8    1.18    0.64
  -3  -8  -8    0.83    0.57
   3   7   8  627.40   29.64
  -3  -7  -8  667.46   31.38
  -3  -6  -8   29.07    7.52
  -3  -6  -8   31.07    2.69
  -3  -5  -8  204.11   10.74
  -3  -5  -8  194.09    9.89
  -3  -4  -8    1.21    1.48
  -3  -4  -8    1.75    1.21
  -3  -4  -8    4.19    1.67
  -3  -3  -8 1112.62   45.27
  -3  -3  -8 1025.81   41.08
  -3  -3  -8 1036.06   41.32
  -3  -2  -8   17.64    4.61
  -3  -2  -8   18.58    2.30
  -3  -2  -8   17.08    1.93
  -3  -1  -8 1332.38   54.39
  -3  -1  -8 1327.41   53.36
  -3  -1  -8 1346.23   53.82
  -3   0  -8    1.33    0.93
  -3   0  -8    3.15    1.57
  -3   0  -8    1.14    0.62
  -3   1  -8 1372.66   55.18
   3  -1   8 1270.61   51.05
  -3   1  -8 1281.01   51.07
  -3   2  -8   12.98    1.69
   3  -2   8   17.94    1.93
  -3   2  -8   18.81    2.93
  -3   3  -8 1000.00   39.91
   3  -3   8 1041.73   41.62
  -3   3  -8 1006.97   39.40
  -3   4  -8    2.33    1.24
   3  -4   8    4.74    1.49
  -3   5  -8  202.04   10.23
   3  -5   8  195.79    9.83
  -3   6  -8   34.81    2.63
   3  -6   8   28.24    2.27
  -3   7  -8  677.14   31.42
   3  -7   8  642.53   29.83
  -3   8  -8    1.57    1.42
   3  -8   8    2.21    1.15
  -3   9  -8  352.63   26.03
   3  -9   8  323.40   23.97
  -3  10  -8    6.93    2.06
   3 -10   8    7.68    1.79
   3   9   9   98.50    7.43
  -3  -9  -9  105.01    8.05
  -3  -8  -9   62.83   14.96
  -3  -7  -9  268.31   17.95
  -3  -7  -9  285.93   18.81
  -3  -6  -9    1.11    0.94
  -3  -6  -9    1.78    1.26
  -3  -5  -9  395.81   17.16
  -3  -5  -9  380.13   16.17
  -3  -5  -9  343.58   14.20
  -3  -4  -9  122.79   16.51
  -3  -4  -9  119.31    5.54
  -3  -4  -9  109.07    4.66
  -3  -3  -9   29.42    6.03
  -3  -3  -9   30.60    2.75
  -3  -3  -9   20.19    4.49
  -3  -2  -9   20.12    4.12
  -3  -2  -9   17.57    2.72
  -3  -2  -9   21.50    1.96
  -3  -1  -9  346.82   22.88
  -3  -1  -9  353.60   22.99
  -3  -1  -9  337.14   25.84
  -3   0  -9    0.30    0.51
  -3   0  -9   -0.19    1.05
  -3   0  -9    0.50    0.80
  -3   1  -9  293.77   19.42
  -3   1  -9  340.70   22.18
  -3   1  -9  343.03   22.34
  -3   2  -9   17.98    1.80
   3  -2   9   21.18    2.05
  -3   2  -9   20.60    3.27
  -3   3  -9   24.21    2.46
   3  -3   9   32.24    2.70
  -3   3  -9   24.65    4.39
  -3   4  -9  112.39    4.98
   3  -4   9  113.89    5.08
  -3   5  -9  410.22   17.30
   3  -5   9  384.48   16.17
  -3   6  -9    0.98    1.11
   3  -6   9    0.54    0.96
  -3   7  -9  366.33   23.91
   3  -7   9  281.94   18.48
  -3   8  -9   61.05    7.89
   3  -8   9   69.78    6.22
  -3   9  -9   92.59    6.59
   3  -9   9   89.70    6.40
  -3  -8 -10    4.46    1.68
  -3  -8 -10    6.27    1.66
  -3  -7 -10  131.60    6.47
  -3  -7 -10  142.21    6.27
  -3  -6 -10   15.87    3.81
  -3  -6 -10   20.70    2.53
  -3  -5 -10  439.33   28.48
  -3  -5 -10  433.14   27.64
  -3  -5 -10  404.62   25.52
  -3  -4 -10   48.73    9.54
  -3  -4 -10   57.43    3.50
  -3  -4 -10   54.36    2.91
  -3  -3 -10    0.71    0.82
  -3  -3 -10   -0.68    1.22
  -3  -3 -10    3.41    1.38
  -3  -2 -10   10.29    1.87
  -3  -2 -10    9.18    1.72
  -3  -2 -10    8.20    1.33
  -3  -1 -10   42.81    8.17
  -3  -1 -10   38.48    2.65
  -3  -1 -10   42.79    6.39
  -3   0 -10  127.90   20.71
  -3   0 -10  153.28    7.61
  -3   0 -10  138.12    9.62
  -3   1 -10   35.93    8.36
  -3   1 -10   40.32    5.75
  -3   1 -10   40.16    6.15
  -3   2 -10    8.50    1.61
   3  -2  10    5.68    1.19
  -3   2 -10    8.90    1.11
  -3   3 -10   -0.54    0.95
   3  -3  10    1.64    1.34
  -3   3 -10    0.71    0.38
  -3   4 -10   49.10    3.81
   3  -4  10   52.42    3.03
  -3   5 -10  475.85   30.23
   3  -5  10  429.96   27.35
  -3   6 -10   21.10    2.16
   3  -6  10   17.46    2.20
  -3   7 -10  151.81    6.61
   3  -7  10  146.19   17.26
  -3   8 -10    2.94    1.16
   3  -8  10    4.49    1.55
  -3  -7 -11   96.98   17.50
  -3  -7 -11  101.96    7.10
  -3  -6 -11   -1.73    1.59
  -3  -6 -11   -0.45    1.19
  -3  -6 -11   -0.04    0.89
  -3  -5 -11  163.51    7.31
  -3  -5 -11  152.66    6.44
  -3  -5 -11  153.34    5.83
  -3  -4 -11    1.15    0.94
  -3  -4 -11   -0.13    1.16
  -3  -4 -11   -0.39    0.84
  -3  -3 -11   20.80    5.55
  -3  -3 -11   28.50    2.53
  -3  -3 -11   29.83    2.45
  -3  -2 -11    2.07    0.95
  -3  -2 -11    2.06    1.31
  -3  -2 -11    1.36    0.81
  -3  -1 -11  359.49   23.57
  -3  -1 -11  352.94   22.78
  -3  -1 -11  362.13   24.72
  -3   0 -11    0.89    0.70
  -3   0 -11    1.25    1.30
  -3   0 -11    1.38    0.60
  -3   1 -11  347.77   22.92
  -3   1 -11  320.82   21.56
  -3   1 -11  324.79   20.72
  -3   2 -11    2.81    1.64
  -3   2 -11    4.93    1.75
  -3   2 -11    0.72    0.69
  -3   3 -11   27.46    2.54
   3  -3  11   25.88    2.45
  -3   4 -11    1.25    1.30
   3  -4  11    2.25    1.27
  -3   5 -11  185.31    7.26
   3  -5  11  163.28    6.69
  -3   6 -11   -0.10    1.16
   3  -6  11    0.18    1.05
  -3  -5 -12   18.12    3.70
  -3  -4 -12    1.92    1.06
  -3  -4 -12    6.46    1.77
  -3  -3 -12   16.21    2.79
  -3  -3 -12    4.62    1.51
  -3  -2 -12   13.72    3.15
  -3  -2 -12    9.30    1.72
  -3  -2 -12   10.79    1.59
  -3  -1 -12   36.19    7.85
  -3  -1 -12   49.27    4.25
  -3  -1 -12   49.55    7.51
  -3   0 -12   19.18    4.30
  -3   0 -12   28.47    2.87
  -3   0 -12   26.34    3.19
  -3   1 -12   38.54   10.28
  -3   1 -12   40.55    8.11
  -3   1 -12   38.63    6.89
  -3   2 -12    8.71    2.26
  -3   2 -12   10.32    1.80
  -3   3 -12    9.52    2.42
  -3   3 -12    6.17    1.95
  -3   3 -12    4.34    1.16
  -3   4 -12    6.86    1.59
   3  -4  12    3.73    1.18
  -3   0 -13    1.03    0.80
   4   2 -12   10.76    2.57
   4   0 -12  325.10   19.64
   4  -2 -12   21.44    1.19
   4   6 -11    1.52    0.80
   4   5 -11    1.44    0.47
   4   4 -11  640.92   34.09
   4   3 -11    8.16    1.81
   4   2 -11  252.93   18.66
   4   1 -11   15.16    3.93
   4   0 -11   -0.62    0.83
   4  -2 -11  268.64   19.00
   4  -3 -11    9.08    1.41
   4  -3 -11    8.60    2.53
   4  -4 -11  694.50    7.19
   4  -5 -11    2.67    1.13
   4  -5 -11    1.44    0.79
   4  -6 -11    0.65    0.72
   4  -6 -11    1.94    0.65
  -4  -7  10    1.15    0.44
   4   6 -10   13.72    2.76
   4   5 -10    1.56    0.83
   4   4 -10  576.66   22.71
   4   3 -10   44.10    8.13
   4   2 -10   97.53    6.20
   4   1 -10    6.59    1.53
   4   0 -10  431.90   23.42
   4  -2 -10  124.35    6.72
   4  -2 -10  119.11    6.42
   4  -3 -10   61.70    3.26
   4  -3 -10   49.94    2.75
   4  -4 -10  639.95  191.17
   4  -4 -10  511.56   19.60
   4  -5 -10    1.91    1.04
   4  -5 -10    2.22    1.14
   4  -6 -10   17.87    1.58
  -4   7  10    0.32    0.60
  -4  -8   9    0.72    0.47
   4   7  -9   32.56    4.03
  -4  -7   9   31.76    1.55
   4   6  -9    4.20    1.20
  -4  -6   9   13.43    0.95
   4   6  -9   11.53    1.88
   4   5  -9   36.14    1.46
   4   5  -9   34.34    6.25
   4   4  -9    3.87    1.00
   4   3  -9   -0.12    0.72
   4   2  -9  116.70    3.97
   4   1  -9   73.22    3.32
   4   0  -9   -0.03    0.69
   4  -2  -9  178.40    7.16
   4  -2  -9  131.42   18.63
   4  -3  -9    0.58    0.44
   4  -3  -9    0.59    0.34
   4  -4  -9    0.08    0.43
   4  -4  -9    0.10    0.48
  -4   5   9   38.58    6.01
   4  -5  -9   41.75    1.97
  -4   6   9    9.93    2.41
   4  -6  -9   13.19    1.37
  -4   7   9   20.19    6.35
   4  -7  -9   38.93    2.39
   4  -8  -9    6.28    1.80
   4  -9  -9   -0.54    0.89
  -4 -10   8  156.44   10.17
   4   9  -8    1.11    0.35
  -4  -9   8    0.08    0.67
   4   8  -8  352.20   25.27
  -4  -8   8  252.75   18.36
   4   7  -8   -0.04    0.55
  -4  -7   8    3.01    0.88
   4   7  -8    0.36    0.56
   4   6  -8  428.46   19.27
  -4  -6   8  360.11   16.23
   4   6  -8  388.93   18.06
   4   5  -8    9.32    1.50
  -4  -5   8    8.88    1.24
   4   5  -8   13.59    2.73
   4   4  -8   95.72    5.63
   4   3  -8    0.29    0.63
   4   2  -8  721.70   32.09
   4   1  -8    4.67    1.72
   4   0  -8    1.45    0.70
   4  -2  -8  731.20   31.39
   4  -2  -8  680.32   29.21
   4  -3  -8    0.19    0.49
   4  -3  -8    1.18    0.53
  -4   4   8   78.84    4.02
  -4   5   8   13.85    2.36
   4  -5  -8   13.58    1.44
   4  -6  -8  560.98   25.81
  -4   7   8    0.48    0.61
   4  -7  -8   -0.05    0.89
  -4   8   8  236.48   18.25
   4  -8  -8  342.53   24.88
  -4   9   8   -0.19    1.38
   4  -9  -8    1.12    0.98
   4 -10  -8  262.05   16.09
   4  10  -7   78.29    3.50
   4   9  -7    3.17    1.21
  -4  -9   7    5.47    2.12
   4   8  -7   29.74    4.62
  -4  -8   7   21.15    1.98
   4   7  -7   70.67    3.66
  -4  -7   7   62.11    2.45
   4   7  -7   69.62    2.69
   4   6  -7    1.62    0.55
  -4  -6   7    0.12    0.40
   4   6  -7    0.46    0.52
   4   5  -7   80.02    3.51
  -4  -5   7   76.89    3.56
   4   5  -7   74.43    5.21
   4   4  -7   49.81    9.03
   4   3  -7    5.55    1.46
   4   2  -7  146.81    7.08
   4   1  -7   63.40    5.03
   4   0  -7    1.19    0.61
   4  -2  -7  153.57    6.23
   4  -2  -7  142.64    5.80
  -4   3   7    7.01    1.81
   4  -3  -7    4.35    0.94
  -4   4   7   44.18    2.75
   4  -4  -7   67.13    2.45
  -4   5   7   75.66    6.33
   4  -5  -7  106.37    5.21
  -4   6   7    0.45    0.70
   4  -6  -7    1.30    0.79
  -4   7   7   58.43    4.82
   4  -7  -7   83.27    4.91
  -4   8   7   26.64    6.82
   4  -8  -7   33.35    2.76
  -4   9   7    6.28    2.91
   4  -9  -7    5.20    2.04
  -4  10   7   56.43   15.44
   4 -10  -7   63.31    3.24
   4  11  -6    1.18    0.80
  -4 -11   6   -0.79    1.42
  -4 -10   6   50.85    3.75
   4   9  -6   27.88    3.22
  -4  -9   6   16.20    2.17
  -4  -9   6   18.31    3.88
   4   8  -6  223.32   10.78
  -4  -8   6  155.09   10.39
  -4  -8   6  172.61    9.52
   4   7  -6   13.09    3.08
  -4  -7   6    9.42    1.38
   4   6  -6  135.53    6.40
  -4  -6   6  122.82    5.71
   4   6  -6  133.57    6.82
   4   5  -6   81.44    4.26
  -4  -5   6   74.14    4.28
   4   5  -6   79.95    5.70
   4   4  -6  858.97   34.87
   4   3  -6   87.29    6.00
   4   2  -6  195.45   12.31
   4   1  -6    5.73    1.12
   4   0  -6 1862.58   45.09
   4  -2  -6  178.86   10.52
  -4   3   6   95.39    4.59
   4  -3  -6   88.99    3.98
  -4   4   6  919.78   37.32
   4  -4  -6  810.67   32.28
  -4   5   6   68.92    4.68
   4  -5  -6   79.07    4.49
  -4   6   6  127.01    7.93
   4  -6  -6  150.38    7.43
  -4   7   6   15.75    4.22
   4  -7  -6   13.17    1.38
  -4   8   6  207.21   13.78
   4  -8  -6  220.68   10.87
  -4   9   6   26.31    7.14
   4  -9  -6   21.05    2.02
  -4  10   6   87.35    6.26
   4 -10  -6   89.23    3.99
   4 -11  -6   -0.25    0.78
   4  11  -5    1.66    0.54
  -4 -11   5    2.22    1.46
  -4 -11   5    2.52    0.67
   4  10  -5  157.11    7.40
  -4 -10   5  128.05    9.52
  -4 -10   5  128.22    9.42
   4   9  -5    1.61    0.78
  -4  -9   5    0.21    1.25
  -4  -9   5    2.26    1.02
   4   8  -5 1308.80   36.00
  -4  -8   5 1072.12   31.51
  -4  -8   5 1156.85   33.36
   4   7  -5   33.18    4.90
  -4  -7   5   27.32    5.29
  -4  -7   5   36.64    8.44
   4   6  -5   19.01    3.15
  -4  -6   5   14.26    1.78
  -4  -6   5   19.41    4.41
   4   6  -5   20.90    2.13
   4   5  -5    7.09    1.23
  -4  -5   5    7.46    1.19
   4   5  -5    6.52    1.69
   4   4  -5 1517.40   35.21
  -4  -4   5 1564.99   36.37
   4   4  -5 1751.54   42.62
   4   3  -5   70.50    5.53
   4   2  -5  596.14   16.08
   4   1  -5   25.21    5.56
   4   0  -5   13.61    3.09
  -4   2   5  591.39   14.66
   4  -2  -5  575.70   13.91
  -4   3   5   72.80    4.21
   4  -3  -5   71.73    3.33
  -4   4   5 1643.94   39.82
   4  -4  -5 1628.89   38.35
  -4   5   5    7.52    1.93
   4  -5  -5    6.14    0.95
  -4   6   5   22.20    5.56
   4  -6  -5   17.68    1.65
  -4   7   5   40.65   10.33
   4  -7  -5   28.46    2.16
  -4   8   5 1279.51   37.37
   4  -8  -5 1066.78   29.69
  -4   9   5    0.44    0.91
   4  -9  -5   -0.17    0.73
  -4  10   5  148.02    9.97
   4 -10  -5  132.57    6.37
  -4  11   5    2.99    2.08
   4 -11  -5    1.45    0.98
   4  12  -4   69.47    8.55
  -4 -12   4   57.59    8.45
   4  11  -4   89.77    7.91
  -4 -11   4   63.80    5.95
   4  10  -4   28.80    5.93
  -4 -10   4   29.67    5.29
  -4 -10   4   32.74    7.79
   4   9  -4  100.86    3.42
  -4  -9   4   90.20    4.19
  -4  -9   4   96.33    8.03
   4   8  -4  142.99    7.15
  -4  -8   4  130.60    7.01
  -4  -8   4  132.84    9.82
   4   7  -4   41.18    3.81
  -4  -7   4   43.16    2.84
  -4  -7   4   41.69    4.30
   4   6  -4   20.60    4.49
  -4  -6   4   17.41    1.86
  -4  -6   4   19.10    4.29
   4   6  -4   20.36    1.78
   4   5  -4   21.63    3.37
  -4  -5   4   23.23    2.24
  -4  -5   4   29.04    6.27
   4   5  -4   23.77    5.99
   4   4  -4    4.08    0.96
  -4  -4   4    0.93    0.65
  -4  -4   4    3.67    0.88
   4   4  -4    0.55    1.29
  -4  -3   4   89.26    3.48
   4   3  -4  103.50    5.22
   4   2  -4  261.32    8.44
   4   1  -4  142.48    7.39
   4   0  -4 1360.30   35.94
   4  -1  -4  137.42    5.02
   4  -1  -4  143.13    6.45
  -4   2   4  270.22    7.76
   4  -2  -4  265.79    7.18
  -4   3   4   91.53    4.28
   4  -3  -4   91.48    3.85
  -4   4   4    4.39    0.96
   4  -4  -4    3.77    0.77
  -4   5   4   27.07    2.60
   4  -5  -4   30.01    2.49
  -4   6   4   17.07    1.96
   4  -6  -4   18.93    1.52
  -4   7   4   45.13    3.11
   4  -7  -4   40.66    2.22
  -4   8   4  153.61    8.68
   4  -8  -4  128.31    6.25
  -4   9   4  101.27    5.06
   4  -9  -4   98.15    3.53
  -4  10   4   36.71    3.65
   4 -10  -4   30.43    2.65
   4 -11  -4   88.52    4.33
   4 -12  -4   70.07    5.44
  -4 -12   3   69.70    4.91
   4  11  -3    4.39    1.80
  -4 -11   3    4.79    2.89
  -4 -11   3    3.52    1.30
   4  10  -3  597.67   31.65
  -4 -10   3  667.98   36.27
  -4 -10   3  533.70   28.59
   4   9  -3   -0.19    0.85
  -4  -9   3    3.66    1.96
  -4  -9   3    1.77    0.84
   4   8  -3   64.80    7.04
  -4  -8   3   92.19    6.87
  -4  -8   3   64.97    7.13
   4   7  -3    8.13    2.29
  -4  -7   3    4.98    1.44
  -4  -7   3    8.74    2.32
   4   6  -3   34.45    4.63
  -4  -6   3   36.40    3.08
  -4  -6   3   50.07    8.48
   4   6  -3   44.76    3.58
   4   5  -3    7.68    1.36
  -4  -5   3    8.21    1.28
  -4  -5   3    7.88    1.95
   4   5  -3    6.59    1.91
   4   4  -3  232.59    6.69
  -4  -4   3  244.16    7.44
  -4  -4   3  234.99    8.16
   4   4  -3  233.69    7.78
  -4  -3   3    5.05    0.85
  -4  -3   3    3.90    0.47
  -4  -3   3    3.90    0.83
   4   3  -3    6.24    1.22
  -4  -2   3 1067.58    5.34
   4   2  -3 1086.89   10.44
  -4  -1   3   68.86    2.50
   4   1  -3   78.94    4.10
  -4   0   3    0.66    0.22
  -4   0   3   -0.07    0.20
   4   0  -3    1.39    0.68
  -4   1   3   84.54    3.46
   4  -1  -3   76.63    2.87
   4  -1  -3   88.02    4.43
  -4   2   3 1159.47    8.22
   4  -2  -3 1140.87    6.15
  -4   3   3    5.19    0.97
   4  -3  -3    3.83    0.97
  -4   4   3  256.98    8.31
   4  -4  -3  248.32    7.34
  -4   5   3    9.38    1.75
   4  -5  -3    5.86    1.09
  -4   6   3   47.05    4.20
   4  -6  -3   36.16    4.71
  -4   7   3    8.85    2.28
   4  -7  -3    7.37    1.74
  -4   8   3   74.33    4.12
   4  -8  -3   93.48    7.04
  -4   9   3   -1.72    1.25
   4  -9  -3    0.33    1.09
  -4  10   3  549.49   29.90
   4 -10  -3  668.97   35.54
  -4  11   3    6.13    2.61
   4 -11  -3    7.79    3.13
  -4  12   3   68.35    4.64
   4 -12  -3   67.39    3.99
   4  12  -2  177.89   23.53
  -4 -12   2  207.66   13.20
   4  11  -2    9.81    2.51
  -4 -11   2    8.86    2.07
  -4 -11   2    8.07    2.19
   4  10  -2    2.64    1.18
  -4 -10   2    4.69    1.51
  -4 -10   2    7.49    1.79
   4   9  -2   58.31    5.28
  -4  -9   2   41.93    2.59
  -4  -9   2   63.96   12.42
   4   8  -2    7.71    1.62
  -4  -8   2    9.75    1.65
  -4  -8   2   11.77    2.31
   4   7  -2    4.31    0.96
  -4  -7   2    3.51    1.57
  -4  -7   2    1.24    1.55
   4   6  -2 1455.62   34.93
  -4  -6   2 1402.51   34.24
  -4  -6   2 1573.60   38.86
   4   5  -2    5.12    1.20
  -4  -5   2    5.72    1.23
  -4  -5   2    6.76    1.09
   4   5  -2    5.05    1.21
   4   4  -2  150.08    6.07
  -4  -4   2  156.15    6.60
  -4  -4   2  146.21    8.64
   4   4  -2  163.72    6.09
  -4  -3   2  223.20    3.61
  -4  -3   2  227.65    5.42
   4   3  -2  256.03    5.77
  -4  -2   2   23.14    3.24
  -4  -2   2   18.15    0.87
  -4  -2   2   20.95    4.54
   4   2  -2   20.12    2.46
  -4  -1   2   30.20    2.96
  -4  -1   2   25.76    1.25
   4   1  -2   30.60    7.14
  -4   0   2  120.68    4.54
   4   0  -2  120.23    5.90
  -4   1   2   23.70    1.36
   4  -1  -2   26.08    1.35
   4  -1  -2   32.35    4.20
  -4   2   2   22.04    1.76
   4  -2  -2   17.48    1.25
   4  -2  -2   19.87    4.74
  -4   3   2  226.84    4.25
   4  -3  -2  235.79    3.49
  -4   4   2  139.00    6.07
   4  -4  -2  147.94    6.05
  -4   5   2    5.83    1.38
   4  -5  -2    9.07    1.39
  -4   6   2 1491.82   36.64
   4  -6  -2 1489.01   35.78
  -4   7   2    4.77    1.41
   4  -7  -2    5.18    1.12
  -4   8   2    8.62    1.68
   4  -8  -2    6.64    1.36
  -4   9   2   68.06    4.28
  -4  10   2    4.17    1.80
   4 -10  -2    4.04    1.27
  -4  11   2   12.76    2.43
   4 -11  -2   12.23    1.96
   4 -12  -2  184.25   11.13
   4  13  -1   28.30    7.88
   4  12  -1   44.87    9.18
  -4 -12   1   53.77    3.75
  -4 -12   1   52.31   12.11
   4  11  -1   41.99    7.07
  -4 -11   1   37.31    3.21
  -4 -11   1   42.92   11.08
   4  10  -1   14.41    3.29
  -4 -10   1   18.41    2.28
  -4 -10   1   17.74    4.32
   4   9  -1   -0.01    0.33
  -4  -9   1    2.05    1.64
  -4  -9   1    0.33    0.74
   4   8  -1  754.35   30.41
  -4  -8   1  722.50   29.53
  -4  -8   1  852.82   34.76
   4   7  -1  159.56    7.46
  -4  -7   1  177.18    8.70
  -4  -7   1  179.54   10.75
   4   6  -1   31.33    6.20
  -4  -6   1   30.46    2.56
  -4  -6   1   36.89    6.95
   4   5  -1  155.63    8.87
  -4  -5   1  142.22    6.27
  -4  -5   1  147.25    9.35
   4   5  -1  166.20    4.44
   4   4  -1  971.26   25.59
  -4  -4   1 1084.19   28.72
  -4  -4   1  982.66   26.85
   4   4  -1  949.73   25.68
  -4  -3   1   12.13    1.97
  -4  -3   1   10.46    1.03
  -4  -3   1   12.02    2.68
   4   3  -1   10.49    2.28
  -4  -2   1   52.21    2.94
  -4  -2   1   55.51    2.41
  -4  -2   1   51.36    3.15
   4   2  -1   52.08    3.11
  -4  -1   1   77.48    3.50
  -4  -1   1   82.54    2.26
  -4  -1   1   84.97    3.67
   4   1  -1   78.54    3.95
  -4   0   1    0.96    0.45
   4   0  -1    0.58    0.49
   4   0  -1    0.86    0.92
  -4   1   1   89.73    2.71
   4  -1  -1   81.81    2.31
   4  -1  -1   81.01    4.12
  -4   2   1   58.72    2.92
   4  -2  -1   53.36    2.47
   4  -2  -1   51.35    2.99
  -4   3   1    8.76    1.17
   4  -3  -1    8.93    0.97
   4  -3  -1   11.24    1.64
  -4   4   1 1243.00   33.17
   4  -4  -1  986.74   25.85
  -4   5   1  147.44    6.60
   4  -5  -1  143.72    6.16
  -4   6   1   26.52    2.27
   4  -6  -1   31.39    3.23
  -4   7   1  186.18    9.12
   4  -7  -1  189.59    8.79
  -4   8   1  766.47   31.42
   4  -8  -1  805.57   32.45
   4  -9  -1    1.24    0.85
  -4  10   1   23.88    2.98
   4 -10  -1   16.89    1.76
  -4  11   1   48.31    4.49
   4 -11  -1   44.26    3.35
  -4  12   1   59.37    4.50
   4 -12  -1   55.06    3.47
   4 -13  -1   39.46    3.37
  -4 -13   0    1.28    1.29
   4  12   0 1042.78   26.87
  -4 -12   0 1042.08   27.35
   4  11   0   -0.34    0.96
  -4 -11   0    4.77    2.59
  -4 -11   0    0.56    0.82
   4  10   0   41.44    3.16
  -4 -10   0   45.79    3.32
  -4 -10   0   47.09   10.11
   4   9   0    0.51    0.76
  -4  -9   0    0.53    1.01
  -4  -9   0    0.78    0.69
   4   8   0   90.08   10.08
  -4  -8   0   96.35   19.93
  -4  -8   0   85.22    5.69
   4   7   0    0.41    0.50
  -4  -7   0    0.58    1.03
  -4  -7   0   -0.21    1.12
   4   6   0 1178.54   29.50
  -4  -6   0 1185.86   29.95
  -4  -6   0 1303.59   33.45
   4   5   0   -0.52    0.56
  -4  -5   0    1.16    0.41
  -4  -5   0    0.35    0.74
   4   4   0  764.24    8.08
  -4  -4   0  732.63    8.33
  -4  -4   0  689.73    9.05
   4   4   0  756.96    9.33
  -4  -3   0    0.65    0.41
  -4  -3   0    0.21    0.56
  -4  -3   0    0.92    0.54
   4   3   0   -0.94    1.04
  -4  -2   0   85.30    6.90
  -4  -2   0   77.17    3.26
  -4  -2   0   87.60    4.59
   4   2   0   77.53    6.25
  -4  -1   0    0.32    0.39
  -4  -1   0    0.65    0.52
  -4  -1   0    1.23    0.79
   4   1   0   -1.93    1.00
  -4   0   0 6199.43  102.57
   4   0   0 5836.31   96.67
  -4   1   0   -0.32    0.57
   4  -1   0    1.26    0.86
   4  -1   0    1.26    0.68
  -4   2   0   79.61    3.59
   4  -2   0   81.27    3.50
   4  -2   0   78.29    4.60
  -4   3   0   -1.03    1.06
   4  -3   0   -0.52    0.70
   4  -3   0    0.95    0.39
   4  -4   0  681.04    6.87
  -4   5   0    1.18    1.06
   4  -5   0   -0.63    0.89
  -4   6   0 1089.97   27.67
   4  -6   0 1164.85   29.00
  -4   7   0    0.92    0.86
   4  -7   0    0.11    1.03
  -4   8   0   84.85    5.60
   4  -8   0   95.99   19.89
   4  -9   0    0.44    1.06
  -4  10   0   44.14    3.09
   4 -10   0   51.87    3.82
  -4  11   0   -0.22    1.21
   4 -11   0   -0.40    1.30
  -4  12   0 1137.55   30.31
   4 -12   0 1172.48  123.18
   4 -13   0   -0.63    1.51
  -4 -13  -1   36.81    3.69
   4  12   1   47.47   12.71
  -4 -12  -1   59.14    4.35
  -4 -12  -1   51.53   10.79
   4  11   1   38.19    7.32
  -4 -11  -1   37.82    3.43
  -4 -11  -1   42.85   10.17
   4  10   1   17.73    4.55
  -4 -10  -1   19.31    2.20
  -4 -10  -1   21.88    5.25
   4   9   1    0.46    0.52
  -4  -9  -1    2.26    1.38
   4   8   1  807.64   32.82
  -4  -8  -1  777.71   31.78
  -4  -8  -1  852.08   34.74
   4   7   1  167.44    9.92
  -4  -7  -1  168.02    8.26
  -4  -7  -1  169.05    8.60
   4   6   1   30.29    6.04
  -4  -6  -1   34.03    4.18
  -4  -6  -1   27.74    5.28
   4   5   1  149.32    6.81
  -4  -5  -1  145.21    6.83
  -4  -5  -1  158.75    5.63
   4   4   1  971.38   25.93
  -4  -4  -1  973.81   26.15
  -4  -4  -1  974.50   26.51
   4   4   1  921.72   24.95
  -4  -3  -1   11.50    2.24
  -4  -3  -1   10.06    1.13
  -4  -3  -1   10.82    2.35
   4   3   1   10.73    1.61
  -4  -2  -1   56.22    3.78
  -4  -2  -1   50.11    2.53
  -4  -2  -1   61.08    3.55
   4   2   1   54.77    6.97
  -4  -1  -1   80.21    3.24
  -4  -1  -1   80.81    2.57
  -4  -1  -1   93.44    7.38
   4   1   1   80.04    6.51
  -4   0  -1    0.90    0.98
   4   0   1   -4.12    1.67
  -4   0  -1    1.37    0.78
   4   0   1    2.94    0.99
  -4   1  -1   81.26    2.82
   4  -1   1   81.64    2.65
  -4   1  -1   76.57    3.11
   4  -1   1   82.53    3.36
  -4   2  -1   44.88    2.42
   4  -2   1   52.10    2.64
   4  -2   1   58.27    4.78
  -4   3  -1   10.10    1.19
   4  -3   1   11.52    1.21
   4  -3   1   13.05    3.15
  -4   4  -1  998.64   26.70
   4  -4   1  942.44   24.94
   4  -4   1  978.97   26.37
  -4   5  -1  125.02    5.61
   4  -5   1  145.92    6.32
   4  -5   1  159.43    7.34
  -4   6  -1   31.46    2.99
   4  -6   1   30.16    2.44
  -4   7  -1  176.05    8.58
   4  -7   1  172.99    8.16
  -4   8  -1  700.57   28.62
   4  -8   1  801.15   32.37
  -4   9  -1    3.37    1.70
   4  -9   1    1.95    1.23
  -4  10  -1   20.30    2.70
   4 -10   1   16.59    1.94
  -4  11  -1   36.84    3.37
   4 -11   1   48.08    3.78
  -4  12  -1   51.02    3.68
   4 -12   1   61.16    4.18
   4 -13   1   38.53    3.44
   4  12   2  195.73   24.12
  -4 -12  -2  170.66   10.76
  -4 -12  -2  205.16   18.94
   4  11   2   12.00    3.72
  -4 -11  -2   10.97    2.07
  -4 -11  -2   10.79    2.25
   4  10   2    8.25    1.41
  -4 -10  -2   12.59    2.34
  -4 -10  -2    5.81    1.25
   4   9   2   58.62   11.68
  -4  -9  -2   64.10    9.41
   4   8   2   10.64    1.68
  -4  -8  -2   10.69    1.65
  -4  -8  -2   12.31    2.08
   4   7   2    4.58    0.99
  -4  -7  -2    6.34    1.35
  -4  -7  -2    6.39    1.35
   4   6   2 1533.99   37.63
  -4  -6  -2 1568.10   38.63
  -4  -6  -2 1560.89   38.43
   4   5   2    7.00    1.66
  -4  -5  -2    7.91    1.36
  -4  -5  -2    5.30    0.88
   4   4   2  152.95    6.72
  -4  -4  -2  162.02    9.34
  -4  -4  -2  160.56    8.62
  -4  -3  -2  245.27    5.28
  -4  -3  -2  223.16    4.17
  -4  -3  -2  222.03    7.72
   4   3   2  227.03    5.13
  -4  -2  -2   18.38    3.47
  -4  -2  -2   15.40    1.55
  -4  -2  -2   20.95    2.34
   4   2   2   17.68    1.75
  -4  -1  -2   24.80    4.46
  -4  -1  -2   28.96    4.40
  -4  -1  -2   28.27    2.78
   4   1   2   29.28    2.75
  -4   0  -2  117.18    4.90
   4   0   2  106.84    4.58
  -4   0  -2  113.40    5.13
   4   0   2  110.68    8.61
  -4   1  -2   27.28    1.93
   4  -1   2   25.76    2.89
  -4   1  -2   29.20    4.73
   4  -1   2   28.25    3.56
  -4   2  -2   19.69    1.66
   4  -2   2   16.47    1.50
   4  -2   2   25.12    2.56
  -4   3  -2  236.47    4.75
   4  -3   2  234.78    4.46
   4  -3   2  234.16    5.03
  -4   4  -2  141.48    6.28
   4  -4   2  153.98    6.71
   4  -4   2  146.83    6.54
  -4   5  -2    5.03    1.55
   4  -5   2    6.56    1.12
   4  -5   2    5.28    1.54
  -4   6  -2 1329.69   32.60
   4  -6   2 1522.49   36.98
   4  -6   2 1632.36   40.01
  -4   7  -2    6.31    1.88
   4  -7   2    4.04    1.15
  -4   8  -2    7.89    1.53
   4  -8   2    7.47    1.46
  -4   9  -2   51.56    3.22
   4  -9   2   57.28    3.06
  -4  10  -2    5.57    2.02
   4 -10   2    7.63    1.58
  -4  11  -2   10.01    2.36
   4 -11   2    9.93    1.71
  -4  12  -2  165.93   10.45
   4 -12   2  192.94   11.83
   4  12   3   69.04    6.34
  -4 -12  -3   62.18    4.21
  -4 -12  -3   66.19   13.64
   4  11   3    1.92    1.26
  -4 -11  -3    9.55    2.43
  -4 -11  -3    0.60    0.81
   4  10   3  571.21   30.88
  -4 -10  -3  655.31   35.46
  -4 -10  -3  659.10   35.36
   4   9   3    2.20    0.82
  -4  -9  -3    1.04    0.95
  -4  -9  -3   -0.84    1.15
   4   8   3   76.80   12.87
  -4  -8  -3   65.30    3.59
  -4  -8  -3   83.16   13.81
   4   7   3    8.27    1.97
  -4  -7  -3    5.59    1.63
  -4  -7  -3    8.15    1.84
   4   6   3   39.79    3.56
  -4  -6  -3   43.71    7.93
  -4  -6  -3   41.77    8.17
   4   5   3    6.70    1.69
  -4  -5  -3    6.58    1.09
  -4  -5  -3    4.23    2.42
  -4  -4  -3  250.64   13.13
  -4  -4  -3  238.03    7.56
  -4  -4  -3  236.46    7.95
  -4  -3  -3    4.03    0.94
  -4  -3  -3    6.29    1.10
  -4  -3  -3    7.07    1.14
  -4  -2  -3 1040.92   11.27
  -4  -2  -3 1050.99    8.96
  -4  -2  -3 1122.36   11.17
   4   2   3 1070.72   10.55
  -4  -1  -3   67.18    5.12
  -4  -1  -3   64.67    4.77
  -4  -1  -3   74.86    3.94
   4   1   3   79.84    4.65
  -4   0  -3   -0.85    0.91
   4   0   3   -0.66    0.90
  -4   0  -3    1.61    0.75
   4   0   3    0.77    0.66
  -4   1  -3   75.65    3.63
   4  -1   3   75.12    3.57
  -4   1  -3   84.41    8.25
   4  -1   3   72.49    5.03
  -4   2  -3 1014.34    8.88
   4  -2   3 1059.94    9.07
  -4   2  -3 1082.53    9.57
   4  -2   3 1100.99   11.51
  -4   3  -3    4.82    1.05
   4  -3   3    3.51    0.95
   4  -3   3    5.38    0.90
  -4   4  -3  238.88    7.85
   4  -4   3  247.42    7.93
   4  -4   3  234.75    8.42
  -4   5  -3    5.54    1.32
   4  -5   3    7.06    1.49
   4  -5   3    9.23    1.85
  -4   6  -3   32.68    2.88
   4  -6   3   47.47    5.83
   4  -6   3   45.68    4.64
  -4   7  -3    6.97    1.88
   4  -7   3   11.41    1.64
   4  -7   3    7.96    2.03
  -4   8  -3   83.51    4.37
   4  -8   3   66.04    3.11
   4  -8   3   69.41    5.98
  -4   9  -3    0.42    1.06
   4  -9   3    0.70    1.00
   4  -9   3   -0.23    0.64
  -4  10  -3  507.50   27.35
   4 -10   3  641.97   34.35
  -4  11  -3    4.14    1.91
   4 -11   3    4.03    1.89
   4 -12   3   68.52    4.24
   4  12   4   78.87   15.22
  -4 -12  -4   89.21    7.50
   4  11   4   89.85   11.67
  -4 -11  -4   94.07    8.32
  -4 -11  -4  102.83   20.37
   4  10   4   32.91    8.21
  -4 -10  -4   26.76    2.90
  -4 -10  -4   40.71    6.64
   4   9   4  107.17   13.87
  -4  -9  -4  107.16    4.78
  -4  -9  -4  110.36   11.56
   4   8   4  154.51   14.57
  -4  -8  -4  166.45   11.72
  -4  -8  -4  144.63    8.03
   4   7   4   49.33    5.82
  -4  -7  -4   52.93    6.06
  -4  -7  -4   39.67    6.21
   4   6   4   17.99    3.64
  -4  -6  -4   20.96    3.33
   4   5   4   26.20    2.56
  -4  -5  -4   27.42    4.07
  -4  -5  -4   25.54    4.61
  -4  -4  -4    5.49    1.27
  -4  -4  -4    4.26    0.90
  -4  -4  -4    3.89    1.05
  -4  -3  -4   88.25    6.41
  -4  -3  -4   87.85    4.36
  -4  -3  -4   86.21    4.45
  -4  -2  -4  241.66   15.19
  -4  -2  -4  250.40    7.89
  -4  -2  -4  297.60   10.96
  -4  -1  -4  133.50    6.11
  -4  -1  -4  127.83    5.64
  -4  -1  -4  151.21   10.97
  -4   0  -4 1255.68   32.87
   4   0   4 1248.80   32.66
  -4   0  -4 1267.33   33.49
   4   0   4 1342.19   35.54
  -4   1  -4  141.94    6.24
   4  -1   4  133.60    5.85
  -4   1  -4  134.15    6.18
   4  -1   4  134.07    8.71
  -4   2  -4  252.26    7.95
   4  -2   4  283.37    8.82
  -4   2  -4  266.98    9.15
   4  -2   4  255.56    8.43
  -4   3  -4   89.24    4.48
   4  -3   4   95.21    4.61
   4  -3   4   97.27    7.26
  -4   4  -4    5.00    1.34
   4  -4   4    4.10    1.14
   4  -4   4    8.17    1.33
  -4   5  -4   24.37    2.60
   4  -5   4   28.85    2.62
   4  -5   4   28.87    5.55
  -4   6  -4   19.42    2.03
   4  -6   4   19.69    2.01
   4  -6   4   20.06    3.82
  -4   7  -4   35.13    2.61
   4  -7   4   46.19    4.02
   4  -7   4   49.13    5.28
  -4   8  -4  169.82    9.35
   4  -8   4  150.86   10.80
   4  -8   4  134.20    8.41
  -4   9  -4  132.81   19.58
   4  -9   4  106.41    5.76
   4  -9   4  100.24    4.57
  -4  10  -4   32.41    3.05
   4 -10   4   38.05    3.22
   4 -10   4   41.63    7.60
  -4  11  -4   77.48    4.45
   4 -11   4   85.86    4.61
   4 -11   4   82.33    4.69
   4 -12   4   77.78    6.25
   4 -12   4   82.96    9.14
  -4 -12  -5   93.63    7.88
  -4 -11  -5    4.33    1.73
   4  10   5  168.38   21.07
  -4 -10  -5  142.98    7.86
  -4 -10  -5  191.23    9.93
   4   9   5    1.70    1.38
  -4  -9  -5    1.53    1.26
  -4  -9  -5   -1.66    3.74
   4   8   5 1253.71   36.27
  -4  -8  -5 1280.08   37.17
  -4  -8  -5 1311.34   37.36
   4   7   5   37.44    7.72
  -4  -7  -5   32.13    3.94
  -4  -7  -5   35.67    5.77
   4   6   5   24.20    2.65
  -4  -6  -5   23.84    3.77
  -4  -6  -5   19.26    3.20
  -4  -5  -5    8.31    1.44
  -4  -5  -5    9.67    1.65
  -4  -5  -5    7.65    1.21
  -4  -4  -5 1535.63   38.25
  -4  -4  -5 1565.06   38.06
  -4  -4  -5 1618.52   39.87
  -4  -3  -5   73.53    6.32
  -4  -3  -5   69.02    3.97
  -4  -3  -5   73.76    6.56
  -4  -2  -5  539.73   15.02
  -4  -2  -5  580.94   15.62
  -4  -2  -5  677.29   18.39
  -4  -1  -5   22.51    4.72
  -4  -1  -5   23.51    2.00
  -4  -1  -5   31.51    5.20
  -4   0  -5   -7.69   14.97
   4   0   5    0.53    0.93
  -4   0  -5   -0.48    0.89
  -4   1  -5   26.02    2.25
   4  -1   5   24.67    2.97
  -4   1  -5   25.72    4.54
   4  -1   5   27.55    2.34
  -4   2  -5  546.76   14.74
   4  -2   5  553.63   14.83
  -4   2  -5  598.05   15.76
   4  -2   5  553.97   15.07
  -4   3  -5   76.18    4.35
   4  -3   5   75.85    4.21
   4  -3   5   67.63    4.73
  -4   4  -5 1660.68   40.46
   4  -4   5 1640.06   39.88
   4  -4   5 1484.19   36.29
  -4   5  -5    7.10    1.39
   4  -5   5    4.45    1.11
   4  -5   5    9.52    1.63
  -4   6  -5   18.82    2.76
   4  -6   5   19.32    2.06
   4  -6   5   27.34    4.37
  -4   7  -5   28.40    2.59
   4  -7   5   41.42    3.29
   4  -7   5   37.73    6.83
  -4   8  -5 1090.63   31.28
   4  -8   5 1262.24   35.90
   4  -8   5 1156.73   32.45
  -4   9  -5    0.81    1.24
   4  -9   5    1.42    1.05
   4  -9   5    1.51    0.67
  -4  10  -5  141.28    7.61
   4 -10   5  154.76    7.92
   4 -10   5  154.92    8.77
   4 -11   5    1.78    1.27
  -4 -11  -6    0.45    1.37
   4  10   6   98.09   14.55
  -4 -10  -6  100.07    5.64
  -4 -10  -6  115.92    6.55
   4   9   6   26.00    7.80
  -4  -9  -6   26.11    6.73
  -4  -9  -6   30.60    3.49
   4   8   6  221.34   11.97
  -4  -8  -6  206.53   14.93
  -4  -8  -6  235.79   12.33
   4   7   6   14.04    3.52
  -4  -7  -6   19.86    2.58
  -4  -7  -6   14.93    2.03
  -4  -6  -6  129.30   12.73
  -4  -6  -6  137.58    7.47
  -4  -6  -6  127.44    6.69
  -4  -5  -6   89.54   13.67
  -4  -5  -6   76.72    5.12
  -4  -5  -6   81.83   12.40
  -4  -4  -6  823.65   34.09
  -4  -4  -6  842.89   34.48
  -4  -4  -6  851.35   34.79
  -4  -3  -6   91.51    9.34
  -4  -3  -6   89.12    4.94
  -4  -3  -6   93.34    7.48
  -4  -2  -6  161.94   10.54
  -4  -2  -6  191.84   12.12
  -4  -2  -6  188.49   14.67
  -4  -1  -6    1.67    0.87
  -4  -1  -6    2.30    1.06
  -4  -1  -6    2.15    1.00
  -4   0  -6 1714.13   41.39
  -4   0  -6 1677.12   40.47
  -4   1  -6    3.36    1.19
   4  -1   6    5.73    1.26
  -4   1  -6    2.89    0.95
  -4   2  -6  179.60   11.70
   4  -2   6  186.94   11.75
  -4   2  -6  184.22   11.49
  -4   3  -6   90.14    4.93
   4  -3   6   88.47    4.89
  -4   3  -6   85.57    4.34
   4  -3   6   80.93    4.30
  -4   4  -6  776.85   31.80
   4  -4   6  811.61   33.14
   4  -4   6  752.46   30.61
  -4   5  -6   82.86   12.08
   4  -5   6   85.51    5.45
   4  -5   6   58.45    4.39
  -4   6  -6  126.22    6.60
   4  -6   6  131.36    4.43
   4  -6   6  104.83    6.55
  -4   7  -6   14.04    2.08
   4  -7   6   15.33    1.99
   4  -7   6   12.04    1.86
  -4   8  -6  174.91    9.35
   4  -8   6  228.22   11.86
   4  -8   6  154.38    8.86
  -4   9  -6   27.74    3.34
   4  -9   6   26.05    3.48
   4  -9   6   16.68    2.98
  -4  10  -6  127.82    6.82
   4 -10   6   97.57    5.07
   4 -10   6   71.53    8.01
   4 -11   6    0.22    1.29
  -4 -10  -7   55.75    4.07
   4   9   7    3.97    1.62
  -4  -9  -7    4.86    1.90
   4   8   7   32.91    3.36
  -4  -8  -7   27.60    5.73
  -4  -8  -7   28.00    2.93
  -4  -7  -7   73.35   13.98
  -4  -7  -7   76.04    5.14
  -4  -7  -7   74.41    4.97
  -4  -6  -7    0.93    1.10
  -4  -6  -7    1.63    1.19
  -4  -6  -7    1.16    1.27
  -4  -5  -7   78.14    6.16
  -4  -5  -7   82.28    4.87
  -4  -5  -7   83.52   12.20
  -4  -4  -7   38.25    8.69
  -4  -4  -7   45.65    2.69
  -4  -4  -7   47.57    7.33
  -4  -3  -7    3.99    0.98
  -4  -3  -7    2.98    1.26
  -4  -3  -7    7.50    1.61
  -4  -2  -7  120.83   25.84
  -4  -2  -7  142.70    7.05
  -4  -2  -7  142.41   10.77
  -4  -1  -7   51.70    4.63
  -4  -1  -7   59.79    3.83
  -4  -1  -7   77.78   11.85
  -4   0  -7    0.06    0.90
  -4   0  -7    0.11    1.12
  -4   0  -7    2.78    0.85
  -4   1  -7   62.96    4.32
   4  -1   7   62.18    3.77
  -4   1  -7   58.41    4.36
  -4   2  -7  127.14   25.95
   4  -2   7  141.56    6.93
  -4   2  -7  144.25    9.92
  -4   3  -7    3.82    1.14
   4  -3   7    5.83    1.65
  -4   3  -7    5.23    1.21
  -4   4  -7   34.99    2.34
   4  -4   7   47.45    2.77
  -4   5  -7   88.23    5.20
   4  -5   7   81.74    4.70
  -4   6  -7    0.01    1.12
   4  -6   7    1.03    0.93
  -4   7  -7   72.71    5.03
   4  -7   7   64.45    3.45
  -4   8  -7   26.97    2.72
   4  -8   7   31.44    2.88
  -4   9  -7    4.75    2.23
   4  -9   7    3.27    1.91
  -4  10  -7   72.62    4.55
   4 -10   7   70.10    4.41
   4   9   8    2.49    1.88
  -4  -9  -8    1.28    0.97
  -4  -9  -8    3.65    2.11
  -4  -8  -8  273.52   22.53
  -4  -8  -8  300.60   22.39
  -4  -8  -8  299.64   22.28
  -4  -7  -8    1.63    1.23
  -4  -7  -8   -0.05    1.16
  -4  -7  -8    0.25    1.25
  -4  -6  -8  391.15   21.17
  -4  -6  -8  384.91   18.67
  -4  -6  -8  405.77   19.42
  -4  -5  -8   11.92    1.76
  -4  -5  -8   13.18    1.87
  -4  -5  -8   11.32    2.10
  -4  -4  -8   82.65   12.83
  -4  -4  -8   83.53    3.87
  -4  -4  -8   77.19   10.63
  -4  -3  -8    0.15    0.75
  -4  -3  -8    1.93    1.19
  -4  -3  -8    0.48    0.85
  -4  -2  -8  680.55   30.92
  -4  -2  -8  670.31   30.05
  -4  -2  -8  714.66   31.90
  -4  -1  -8    3.98    1.43
  -4  -1  -8    2.78    1.62
  -4  -1  -8    4.85    1.50
  -4   0  -8    2.80    0.91
  -4   0  -8    1.82    1.16
  -4   0  -8    7.17    1.30
  -4   1  -8    3.51    1.41
   4  -1   8    3.46    1.51
  -4   1  -8    4.77    1.29
  -4   2  -8  667.28   29.89
   4  -2   8  671.63   30.02
  -4   2  -8  691.48   30.47
  -4   3  -8    0.21    1.02
   4  -3   8    0.34    0.83
  -4   3  -8    1.32    0.50
  -4   4  -8   78.26    3.60
   4  -4   8   80.65    5.63
  -4   5  -8    9.13    1.83
   4  -5   8   10.27    1.54
  -4   6  -8  349.42   16.88
   4  -6   8  370.60   17.92
  -4   7  -8    1.10    1.28
   4  -7   8    1.79    1.15
  -4   8  -8  228.84   17.13
   4  -8   8  283.35   21.08
  -4   9  -8    4.21    1.80
  -4  -8  -9    4.56    1.82
  -4  -8  -9    2.99    1.54
  -4  -7  -9   27.66    5.92
  -4  -7  -9   31.66    3.41
  -4  -7  -9   31.59    3.39
  -4  -6  -9   13.61    2.48
  -4  -6  -9   15.11    2.31
  -4  -6  -9   10.45    1.90
  -4  -5  -9   35.66    5.19
  -4  -5  -9   35.87    2.76
  -4  -5  -9   35.15    7.23
  -4  -4  -9    2.75    1.40
  -4  -4  -9    0.52    0.48
  -4  -3  -9    0.97    0.72
  -4  -3  -9    1.10    1.01
  -4  -3  -9    0.72    0.65
  -4  -2  -9  111.97    8.43
  -4  -2  -9  124.56   18.15
  -4  -2  -9  135.40    8.37
  -4  -1  -9   70.91    4.02
  -4  -1  -9   77.39    3.64
  -4  -1  -9   89.91    5.22
  -4   0  -9   -0.14    1.08
  -4   0  -9    4.18    1.77
  -4   0  -9   -0.01    0.75
  -4   1  -9   67.34    3.75
  -4   1  -9   77.90    3.77
  -4   1  -9   70.01    4.56
  -4   2  -9  115.69    4.53
   4  -2   9  122.51   17.83
  -4   2  -9  116.51    3.58
  -4   3  -9   -0.11    1.06
   4  -3   9    0.22    0.94
  -4   3  -9    1.50    0.58
  -4   4  -9    1.55    1.45
   4  -4   9   -2.06    0.98
  -4   5  -9   40.57    3.77
   4  -5   9   36.56    2.82
  -4   6  -9    9.09    1.92
   4  -6   9   11.84    1.71
  -4   7  -9   30.98    2.71
   4  -7   9   31.27    5.99
  -4   8  -9    1.72    1.32
   4  -8   9    3.16    1.13
  -4  -7 -10   -1.93    1.58
  -4  -6 -10   12.16    3.35
  -4  -6 -10   11.94    2.30
  -4  -6 -10   14.04    1.96
  -4  -5 -10    1.08    1.10
  -4  -5 -10    2.11    1.59
  -4  -5 -10    0.97    0.63
  -4  -4 -10  531.28   22.38
  -4  -4 -10  534.47   21.94
  -4  -4 -10  519.79   22.29
  -4  -3 -10   48.59   10.09
  -4  -3 -10   52.74    3.93
  -4  -3 -10   54.73   10.23
  -4  -2 -10   89.03    9.80
  -4  -2 -10  105.08    7.09
  -4  -2 -10   98.98   13.34
  -4  -1 -10   10.45    1.37
  -4  -1 -10    6.62    1.55
  -4  -1 -10    8.44    1.52
  -4   0 -10  398.19   22.37
  -4   0 -10  444.38   24.28
  -4   0 -10  402.30   25.58
  -4   1 -10    5.59    2.21
  -4   1 -10    7.71    1.72
  -4   1 -10    6.43    1.34
  -4   2 -10   97.79   12.51
   4  -2  10   98.04    6.45
  -4   2 -10   95.57    6.15
  -4   3 -10   53.10    3.89
   4  -3  10   47.26    3.87
  -4   3 -10   30.70    5.48
  -4   4 -10  499.77   20.39
   4  -4  10  548.27   22.33
  -4   5 -10    5.37    2.77
   4  -5  10    2.31    1.73
  -4   6 -10   11.58    1.94
   4  -6  10   13.57    1.96
   4  -7  10   -0.40    1.09
  -4  -6 -11    1.03    1.18
  -4  -5 -11   -0.07    1.87
  -4  -4 -11  602.11   33.22
  -4  -4 -11  564.80   30.74
  -4  -4 -11  568.53   30.62
  -4  -3 -11    5.68    1.25
  -4  -3 -11    8.51    2.08
  -4  -3 -11   10.21    2.22
  -4  -2 -11  233.63   12.77
  -4  -2 -11  246.94    8.79
  -4  -2 -11  229.84   14.13
  -4  -1 -11   13.85    2.88
  -4  -1 -11   21.77    2.54
  -4  -1 -11   15.32    2.76
  -4   0 -11    0.87    1.29
  -4   0 -11    1.16    1.43
  -4   0 -11    5.27    1.85
  -4   1 -11    8.46    3.67
  -4   1 -11   16.15    2.24
  -4   1 -11   13.97    2.82
  -4   2 -11  228.23    8.85
  -4   2 -11  237.48    8.41
  -4   2 -11  230.10    7.07
  -4   3 -11   10.31    2.18
   4  -3  11    6.33    1.65
  -4   4 -11  534.32   29.04
   4  -4  11  569.73   30.92
  -4   5 -11    2.22    1.57
   4  -5  11    2.32    1.54
   4  -6  11    4.38    2.02
  -4  -3 -12   33.64    6.71
  -4  -3 -12   36.86    6.45
  -4  -2 -12   16.30    3.12
  -4  -2 -12   13.97    2.29
  -4  -1 -12   -0.29    1.42
  -4  -1 -12    1.14    0.68
  -4  -1 -12    0.29    0.58
  -4   0 -12  294.83   18.69
  -4   1 -12    3.04    1.49
  -4   3 -12   31.91    3.33
   5   3 -11   94.57    8.12
   5   1 -11   81.68   15.04
   5   0 -11   -1.19    0.94
   5  -1 -11  108.35    7.73
   5   6 -10   97.14    7.57
   5   5 -10    1.90    0.96
   5   4 -10    0.78    0.47
   5   3 -10    1.18    0.75
   5   2 -10   11.11    3.26
   5   1 -10  269.99   20.03
   5   0 -10   86.75    9.68
   5  -1 -10  285.34   21.23
   5  -4 -10    1.27    0.54
   5  -5 -10    0.45    0.35
   5   6  -9    0.99    0.60
   5   5  -9  179.27   13.42
   5   4  -9   42.43    7.34
   5   3  -9  176.62   11.92
   5   2  -9  130.96    8.17
   5   1  -9  472.89   25.57
   5   0  -9    0.76    0.39
   5  -1  -9  447.81   24.37
   5  -3  -9  154.95    9.46
   5  -3  -9  167.40   10.23
   5  -4  -9   53.68    2.56
   5  -4  -9   40.82    2.03
   5  -5  -9  275.74   19.82
  -5   6   9    0.17    0.43
   5  -6  -9    1.01    0.92
   5  -7  -9   31.40    2.11
   5   8  -8    8.05    1.60
  -5  -8   8   10.78    1.07
   5   7  -8  621.19   14.33
   5   7  -8  732.45   18.67
   5   6  -8    4.09    0.58
   5   5  -8  510.63   31.97
   5   4  -8   11.74    1.78
   5   3  -8  724.77   33.24
   5   2  -8    2.68    0.76
   5   1  -8  293.47   12.78
   5   0  -8    0.18    0.39
   5  -3  -8  739.43   32.54
   5  -3  -8  728.65   32.07
  -5   4   8   12.35    2.19
   5  -4  -8   12.30    0.92
   5  -5  -8  615.95   37.84
  -5   6   8    4.39    1.68
   5  -6  -8    4.47    1.67
  -5   7   8  661.40   18.49
   5  -8  -8   10.08    1.40
  -5  -9   7    0.01    0.64
  -5  -8   7   85.01    5.61
   5   7  -7    1.84    0.43
  -5  -7   7    2.92    0.76
   5   7  -7    0.59    0.71
   5   6  -7    1.43    0.49
   5   5  -7   69.32    9.54
   5   4  -7  168.83    7.88
   5   3  -7  124.71    5.32
   5   2  -7  116.74    7.28
   5   1  -7  176.44   10.68
   5   0  -7   -0.42    0.85
   5  -1  -7  200.84   10.24
   5  -3  -7  132.79    3.98
  -5   4   7  191.59    8.18
   5  -4  -7  207.99    8.38
  -5   5   7   69.84    4.66
   5  -5  -7   92.83    4.83
  -5   6   7    1.83    0.72
   5  -6  -7    2.37    1.02
   5  -7  -7    3.05    1.26
   5  -8  -7  119.29    4.79
   5  -9  -7    0.25    0.89
   5  10  -6    6.97    1.74
  -5 -10   6    2.70    1.52
   5   9  -6   33.97    1.93
  -5  -9   6   30.03    3.24
  -5  -9   6   41.03    3.43
   5   8  -6    4.46    2.08
  -5  -8   6   12.26    1.87
   5   7  -6   62.17    2.33
  -5  -7   6   57.06    4.86
   5   7  -6   68.08    3.03
   5   6  -6   51.96    1.65
  -5  -6   6   55.80    1.71
   5   6  -6   57.43    8.31
   5   5  -6   90.73    6.88
   5   4  -6   40.74    8.34
   5   3  -6  111.56    8.46
   5   2  -6   13.19    3.09
   5   1  -6  752.45   30.68
   5   0  -6  124.11   26.05
   5  -1  -6  771.70   31.49
   5  -2  -6   16.18    1.99
  -5   3   6  111.23    7.34
   5  -3  -6  105.12    6.75
  -5   4   6   42.69    5.68
   5  -4  -6   42.66    2.33
  -5   5   6   87.99    5.45
   5  -5  -6  107.85    3.92
  -5   6   6   48.14    5.81
   5  -6  -6   70.88    2.65
  -5   7   6   58.90    9.94
   5  -7  -6   66.90    3.37
   5  -8  -6    9.90    2.68
   5  -9  -6   52.69    2.90
   5 -10  -6    4.17    0.95
   5  11  -5  124.75   10.38
  -5 -11   5  113.07    8.94
   5  10  -5   22.11    2.78
  -5 -10   5   10.19    2.15
  -5 -10   5   20.04    4.63
   5   9  -5   15.57    1.84
  -5  -9   5   12.53    2.03
  -5  -9   5   30.59    6.69
   5   8  -5   20.26    4.25
  -5  -8   5    9.19    1.82
  -5  -8   5   21.23    4.46
   5   7  -5  537.88   20.95
  -5  -7   5  429.52   17.81
  -5  -7   5  515.64   21.53
   5   7  -5  578.30   23.01
   5   6  -5   -0.51    0.32
  -5  -6   5    0.39    0.79
  -5  -6   5    0.00    1.03
   5   6  -5   -0.99    0.78
   5   5  -5  508.81   32.64
   5   4  -5   33.55    7.94
   5   3  -5  158.22    8.81
   5   2  -5   58.12    6.94
   5   1  -5  182.36    8.88
   5   0  -5    0.97    0.52
   5  -1  -5  162.77    9.79
  -5   2   5   54.99    2.98
   5  -2  -5   54.32    2.42
   5  -2  -5   48.70    4.00
  -5   3   5  158.12    7.82
   5  -3  -5  161.56    6.70
  -5   4   5   29.77    5.08
   5  -4  -5   32.27    3.45
  -5   5   5  534.20   34.64
   5  -5  -5  599.56   37.63
  -5   6   5    3.31    0.93
   5  -6  -5    0.45    0.57
  -5   7   5  609.01   25.64
   5  -7  -5  564.17   22.06
  -5   8   5   18.87    4.65
   5  -8  -5   20.30    1.74
  -5   9   5   17.50    5.44
   5  -9  -5   26.23    1.95
  -5  10   5   27.86    6.55
   5 -10  -5   20.46    2.01
   5 -11  -5  117.77    7.88
   5  11  -4   17.97    4.62
  -5 -11   4   22.90    4.06
   5  10  -4   57.35    3.52
   5   9  -4   34.56    3.95
  -5  -9   4    8.66    2.09
  -5  -9   4    9.90    2.29
   5   8  -4   77.00    4.51
  -5  -8   4   59.12    3.78
  -5  -8   4   72.83    9.87
   5   7  -4  543.58   15.64
  -5  -7   4  484.16   15.45
  -5  -7   4  552.35   17.56
   5   6  -4  177.84    8.27
  -5  -6   4  156.10    8.12
  -5  -6   4  173.73    9.27
   5   6  -4  209.83   10.47
   5   5  -4  305.33   12.31
  -5  -5   4  310.01   13.15
  -5  -5   4  367.06   16.70
   5   5  -4  392.02   16.80
  -5  -4   4   94.95    4.59
  -5  -4   4  118.56    5.00
   5   4  -4  110.33    7.45
  -5  -3   4    7.40    0.46
   5   3  -4   13.50    2.43
   5   2  -4  179.00   11.48
   5   1  -4    0.55    0.43
   5   0  -4  263.92    8.50
  -5   1   4    0.27    0.22
   5  -1  -4    1.36    0.62
  -5   2   4  170.67   10.46
   5  -2  -4  191.71   11.36
   5  -2  -4  196.63   12.52
  -5   3   4   12.62    2.17
   5  -3  -4   10.33    1.66
  -5   4   4  118.53    6.37
   5  -4  -4  113.45    5.18
  -5   5   4  359.05   15.64
   5  -5  -4  373.74   15.24
  -5   6   4  166.04    8.79
   5  -6  -4  206.98    9.84
  -5   7   4  497.27   15.94
   5  -7  -4  574.47   16.76
  -5   8   4   71.59    5.20
   5  -8  -4   73.01    4.32
  -5   9   4    7.02    1.91
   5  -9  -4    9.11    1.43
  -5  10   4   61.29    4.63
   5 -10  -4   57.00    2.99
  -5  11   4   24.79    3.19
   5 -11  -4   22.83    2.12
   5  11  -3  456.25   24.82
  -5 -11   3  559.12   31.34
   5  10  -3   10.97    2.88
  -5 -10   3   12.80    2.41
  -5 -10   3   15.68    3.71
   5   9  -3    0.52    0.52
  -5  -9   3    0.75    1.15
  -5  -9   3    2.82    1.06
   5   8  -3   15.48    3.17
  -5  -8   3   14.94    1.88
  -5  -8   3   17.19    3.49
   5   7  -3  240.27   11.21
  -5  -7   3  184.46    9.17
  -5  -7   3  239.17   13.43
   5   6  -3   -0.02    0.53
  -5  -6   3    2.00    1.06
  -5  -6   3    1.28    0.67
   5   6  -3    0.94    1.35
   5   5  -3  844.32   33.68
  -5  -5   3  913.11   36.93
  -5  -5   3  935.32   38.76
   5   5  -3  937.21   38.19
  -5  -4   3   14.04    1.46
  -5  -4   3   15.86    0.93
  -5  -4   3   15.01    3.71
   5   4  -3   15.10    2.80
  -5  -3   3  446.32   11.57
  -5  -3   3  401.33    9.81
  -5  -3   3  392.45   11.81
   5   3  -3  442.43   12.82
  -5  -2   3   44.51    2.30
  -5  -2   3   47.77    2.23
   5   2  -3   38.90    2.86
  -5  -1   3 2916.75    9.65
  -5  -1   3 2699.13   63.40
   5   1  -3 2782.48   67.44
  -5   0   3   -0.14    0.22
  -5   0   3    0.17    0.40
   5   0  -3   -0.60    0.82
  -5   1   3 2691.25   63.77
   5  -1  -3 2859.17    9.37
   5  -1  -3 2842.06   68.87
  -5   2   3   39.98    2.47
   5  -2  -3   43.33    2.23
   5  -2  -3   40.84    5.49
  -5   3   3  451.08   12.44
   5  -3  -3  421.67   10.67
   5  -3  -3  413.42   11.92
  -5   4   3   17.89    2.12
   5  -4  -3   14.44    1.89
  -5   5   3  955.22   38.48
   5  -5  -3  918.44   36.18
  -5   6   3    2.30    1.86
   5  -6  -3    0.84    0.81
  -5   7   3  281.52   14.25
   5  -7  -3  289.91   13.63
  -5   8   3   18.97    2.54
   5  -8  -3   16.86    2.71
  -5   9   3    1.03    1.27
   5  -9  -3    0.53    0.84
  -5  10   3   10.72    2.31
   5 -10  -3   12.77    1.74
  -5  11   3  441.46   25.03
   5 -11  -3  460.90   25.07
   5  12  -2   57.47   14.78
   5  11  -2   96.25   13.20
  -5 -11   2   96.82    7.02
  -5 -11   2   82.50   14.62
   5  10  -2    2.70    1.21
  -5 -10   2    5.38    1.98
  -5 -10   2    0.71    0.94
   5   9  -2 1021.20   46.02
  -5  -9   2  990.39   45.23
  -5  -9   2 1049.37   47.94
   5   8  -2   11.53    3.70
  -5  -8   2   12.49    1.85
  -5  -8   2   15.18    3.77
   5   7  -2  498.26   22.39
  -5  -7   2  489.40   22.29
  -5  -7   2  542.88   25.51
   5   6  -2  200.29    8.73
  -5  -6   2  229.25   10.43
  -5  -6   2  233.63   11.23
   5   6  -2  214.02    9.85
   5   5  -2   92.91    6.11
  -5  -5   2  107.31    5.62
  -5  -5   2   98.04    7.32
   5   5  -2   95.15    5.48
  -5  -4   2   15.25    1.48
  -5  -4   2   16.83    1.18
  -5  -4   2   19.16    4.35
   5   4  -2   21.18    3.85
  -5  -3   2 1922.21   46.15
  -5  -3   2 1850.50   43.99
  -5  -3   2 1798.76   44.92
   5   3  -2 1877.89   46.52
  -5  -2   2    9.11    1.58
  -5  -2   2    6.23    0.67
  -5  -2   2    7.73    1.78
   5   2  -2    9.50    1.94
  -5  -1   2   19.89    3.08
  -5  -1   2   17.91    2.71
   5   1  -2   19.55    3.79
  -5   0   2  401.73   10.91
  -5   0   2  426.25   11.61
   5   0  -2  410.87   12.62
  -5   1   2   17.02    1.22
   5  -1  -2   17.43    1.07
   5  -1  -2   21.14    5.16
  -5   2   2    7.25    1.18
   5  -2  -2    7.53    0.92
   5  -2  -2    8.97    1.83
  -5   3   2 2205.39   53.48
   5  -3  -2 1948.54   46.57
   5  -3  -2 1965.18   48.59
  -5   4   2   17.90    1.94
   5  -4  -2   16.95    1.27
   5  -4  -2   16.17    1.70
  -5   5   2  102.33    5.56
   5  -5  -2  103.30    5.01
  -5   6   2  233.34   10.96
   5  -6  -2  202.10    8.86
  -5   7   2  515.88   23.72
   5  -7  -2  530.34   23.73
  -5   8   2   15.70    2.38
   5  -8  -2   13.60    2.38
  -5   9   2 1142.19   16.44
   5  -9  -2 1133.31   51.17
  -5  10   2    6.42    1.96
   5 -10  -2    3.91    1.04
   5 -11  -2  111.56    7.35
   5 -12  -2   82.22    6.34
  -5 -12   1    0.52    1.44
   5  11  -1   18.76    4.74
  -5 -11   1   22.44    3.13
  -5 -11   1   23.03    4.50
   5  10  -1   82.57    8.73
  -5 -10   1   88.66    5.85
  -5 -10   1   88.15   15.42
   5   9  -1    6.37    1.48
  -5  -9   1    7.27    1.52
  -5  -9   1    4.77    1.41
   5   8  -1  139.82    8.64
  -5  -8   1  148.52    6.41
   5   7  -1  208.52   13.70
  -5  -7   1  241.21   16.16
  -5  -7   1  233.08   15.82
   5   6  -1    1.04    0.53
  -5  -6   1    2.87    1.70
  -5  -6   1    1.88    1.15
   5   5  -1  149.10    9.76
  -5  -5   1  166.12   10.49
  -5  -5   1  171.48   12.68
   5   5  -1  182.20   11.78
  -5  -4   1  283.99    8.89
  -5  -4   1  285.73    7.82
  -5  -4   1  294.95    9.73
   5   4  -1  274.87    8.73
  -5  -3   1  116.24    6.28
  -5  -3   1  114.25    5.22
  -5  -3   1  111.69    6.09
   5   3  -1  110.34    6.33
  -5  -2   1  248.47    7.88
  -5  -2   1  266.25    7.63
  -5  -2   1  259.84    8.94
   5   2  -1  284.45    9.61
  -5  -1   1    8.96    1.13
  -5  -1   1    8.24    1.53
  -5  -1   1    9.51    2.09
   5   1  -1   10.96    1.77
  -5   0   1    0.38    0.50
   5   0  -1    0.95    0.75
  -5   1   1    9.56    1.17
   5  -1  -1    7.00    1.13
   5  -1  -1    8.42    1.67
  -5   2   1  253.16    8.07
   5  -2  -1  257.22    7.49
   5  -2  -1  268.35    8.97
  -5   3   1  102.35    5.03
   5  -3  -1  122.15    5.68
   5  -3  -1  120.71    6.43
  -5   4   1  332.78    9.98
   5  -4  -1  269.43    7.56
   5  -4  -1  294.74    9.29
  -5   5   1  165.16   10.55
   5  -5  -1  158.21    9.82
   5  -5  -1  154.56   10.03
  -5   6   1    1.02    0.92
   5  -6  -1    0.29    0.82
  -5   7   1  218.47   14.73
   5  -7  -1  211.87   13.94
  -5   8   1  162.83    7.32
   5  -8  -1  135.58    7.13
  -5   9   1    4.85    1.82
   5  -9  -1    5.43    1.41
  -5  10   1   84.67    5.60
   5 -10  -1   89.01    5.48
  -5  11   1   31.95    3.79
   5 -11  -1   19.97    2.14
  -5  12   1   -0.53    1.38
  -5 -12   0    1.32    1.57
   5  11   0   68.41    5.26
  -5 -11   0   64.12    9.98
  -5 -11   0   65.71   16.29
   5  10   0    0.27    0.41
  -5 -10   0    1.53    1.19
  -5 -10   0   -0.14    1.29
   5   9   0  647.32   30.11
  -5  -9   0  759.24   35.40
  -5  -9   0  724.90   33.83
   5   8   0   -0.09    0.76
  -5  -8   0    2.27    1.63
   5   7   0   10.44    1.99
  -5  -7   0    8.60    1.43
  -5  -7   0   11.83    2.75
   5   6   0    0.08    0.43
  -5  -6   0   -0.22    0.81
  -5  -6   0    0.56    0.68
   5   5   0    1.71    0.67
  -5  -5   0    4.48    0.86
  -5  -5   0    6.27    1.52
   5   5   0    5.73    1.41
  -5  -4   0   -0.19    0.84
  -5  -4   0   -0.18    1.39
  -5  -4   0    0.98    0.97
   5   4   0    1.72    1.47
  -5  -3   0 2052.94   49.72
  -5  -3   0 1992.77   47.73
  -5  -3   0 2092.71   51.75
   5   3   0 2033.80   50.10
  -5  -2   0    0.18    0.40
  -5  -2   0    3.44    0.58
  -5  -2   0    2.18    0.91
   5   2   0   -0.20    1.00
  -5  -1   0  312.39    9.43
  -5  -1   0  323.74    9.30
  -5  -1   0  317.50   10.50
   5   1   0  328.72   10.59
  -5   0   0   -0.33    0.62
   5   0   0    0.24    0.61
  -5   0   0    0.50    0.53
   5   0   0    1.49    0.86
  -5   1   0  311.88    9.07
   5  -1   0  327.51    9.34
   5  -1   0  325.74   10.55
  -5   2   0   -0.65    0.78
   5  -2   0    2.10    1.00
   5  -2   0    1.00    0.60
  -5   3   0 1954.24   47.31
   5  -3   0 2014.10   48.36
   5  -3   0 2035.42   50.38
  -5   4   0    0.50    0.83
   5  -4   0   -0.62    0.83
  -5   5   0    3.29    1.97
   5  -5   0    4.62    1.05
   5  -5   0    5.71    1.12
  -5   6   0    0.62    1.15
   5  -6   0    0.01    0.80
   5  -6   0    1.23    1.12
  -5   7   0    7.78    1.23
   5  -7   0    9.23    1.51
  -5   8   0    1.08    1.26
   5  -8   0   -0.97    0.87
  -5   9   0  713.43   33.34
  -5  10   0    3.44    1.85
   5 -10   0   -0.49    0.98
  -5  11   0   76.44    4.85
   5 -11   0   73.89    4.03
   5 -12   0    0.29    1.26
  -5 -12  -1   -0.21    1.32
   5  11   1   19.86    3.82
  -5 -11  -1   21.41    2.64
  -5 -11  -1   18.80    5.65
   5  10   1   78.56   12.34
  -5 -10  -1  109.00    7.24
  -5 -10  -1   95.58   15.09
   5   9   1    5.29    1.63
  -5  -9  -1    7.80    1.88
  -5  -9  -1    7.02    1.31
   5   8   1  129.26    8.29
  -5  -8  -1  123.13    5.37
  -5  -8  -1  146.02   11.27
   5   7   1  222.36   14.75
  -5  -7  -1  220.97   14.80
  -5  -7  -1  193.01   13.29
   5   6   1   -0.20    0.61
  -5  -6  -1   -0.22    0.63
  -5  -6  -1    1.60    1.07
  -5  -5  -1  146.08   13.25
  -5  -5  -1  164.21   10.86
  -5  -4  -1  283.13    8.57
  -5  -4  -1  271.99    7.87
  -5  -4  -1  272.44   10.23
   5   4   1  284.94    9.08
  -5  -3  -1  107.33    6.96
  -5  -3  -1  112.22    8.70
   5   3   1  114.06   11.32
  -5  -2  -1  266.43   13.45
  -5  -2  -1  249.38    7.51
  -5  -2  -1  263.46   10.46
   5   2   1  261.48   10.63
  -5  -1  -1    7.99    1.34
  -5  -1  -1    8.30    1.01
  -5  -1  -1    9.04    1.73
   5   1   1    8.56    2.17
  -5   0  -1   -1.26    0.81
   5   0   1   -0.18    0.68
  -5   0  -1    1.02    0.67
   5   0   1   -0.13    1.08
  -5   1  -1    7.94    1.02
   5  -1   1    7.70    0.99
   5  -1   1   10.04    1.39
  -5   2  -1  256.49    8.10
   5  -2   1  254.78    7.74
   5  -2   1  262.21    9.30
  -5   3  -1  114.60    5.64
   5  -3   1  115.64    5.57
   5  -3   1  130.45    9.18
  -5   4  -1  347.14   10.64
   5  -4   1  289.33    8.42
   5  -4   1  290.36    9.43
  -5   5  -1  143.10    9.25
   5  -5   1  160.49   10.15
   5  -5   1  175.10   14.10
  -5   6  -1    0.42    1.10
   5  -6   1    0.29    0.86
   5  -6   1    1.00    0.62
  -5   7  -1  271.46   18.27
   5  -7   1  213.83   14.11
   5  -7   1  223.76   17.94
   5  -8   1  152.78    6.28
  -5   9  -1    5.10    1.46
   5  -9   1    4.00    1.26
  -5  10  -1   90.76    6.11
   5 -10   1   96.53    5.88
  -5  11  -1   23.94    2.69
   5 -11   1   21.14    2.20
   5 -12   1    2.43    1.97
   5  12   2   57.23   13.18
  -5 -12  -2   80.92    6.62
   5  11   2   84.17   12.95
  -5 -11  -2  126.46    9.26
  -5 -11  -2   91.48   19.70
   5  10   2    2.30    1.28
  -5 -10  -2    3.89    1.96
  -5 -10  -2    2.29    1.16
   5   9   2  959.67   43.71
  -5  -9  -2  831.04   38.05
  -5  -9  -2 1024.38   46.95
   5   8   2   13.93    2.90
  -5  -8  -2   13.33    1.78
  -5  -8  -2   18.80    3.97
   5   7   2  550.58   25.54
  -5  -7  -2  554.79   25.42
  -5  -7  -2  569.69   26.29
   5   6   2  203.48    9.39
  -5  -6  -2  211.58   14.46
  -5  -6  -2  202.69   14.22
  -5  -5  -2   98.22    7.86
  -5  -5  -2  101.80    5.23
  -5  -5  -2  102.57    8.93
  -5  -4  -2   17.08    3.50
  -5  -4  -2   21.29    2.98
  -5  -4  -2   19.77    3.61
  -5  -3  -2 2003.74   49.16
  -5  -3  -2 1786.92   43.36
  -5  -3  -2 1875.18   46.92
   5   3   2 1838.75   45.50
  -5  -2  -2    7.11    1.07
  -5  -2  -2    6.27    1.00
  -5  -2  -2    8.23    1.32
   5   2   2    7.52    1.08
  -5  -1  -2   15.33    3.82
  -5  -1  -2   14.03    1.50
  -5  -1  -2   21.92    4.13
   5   1   2   17.40    4.39
  -5   0  -2  434.57   12.45
   5   0   2  392.54   11.23
  -5   0  -2  405.72   12.47
   5   0   2  387.10   12.00
  -5   1  -2   19.61    1.69
   5  -1   2   17.41    1.43
  -5   1  -2   21.52    4.32
   5  -1   2   18.28    3.68
  -5   2  -2    7.16    1.14
   5  -2   2    6.63    1.08
   5  -2   2    7.87    1.84
  -5   3  -2 1985.16   48.44
   5  -3   2 1854.12   44.98
   5  -3   2 1845.43   45.60
  -5   4  -2   12.19    1.44
   5  -4   2   17.42    2.00
   5  -4   2   19.17    4.63
  -5   5  -2  104.86    5.74
   5  -5   2  105.41    5.45
   5  -5   2  101.58    6.70
  -5   6  -2  183.59    8.62
   5  -6   2  211.27    9.60
   5  -6   2  222.47   14.16
   5  -7   2  541.37   24.47
   5  -7   2  561.09   25.46
  -5   8  -2   12.67    2.01
   5  -8   2   16.02    2.50
   5  -8   2   18.21    3.26
  -5   9  -2  872.94   40.01
   5  -9   2  992.21   44.98
   5  -9   2 1077.64   48.79
  -5  10  -2    2.44    1.18
   5 -10   2    5.12    2.03
   5 -10   2    4.12    0.72
  -5  11  -2  105.53    7.65
   5 -11   2  105.00    7.15
   5 -11   2  111.14    7.41
   5 -12   2   83.69    6.61
   5  11   3  472.92   26.18
  -5 -11  -3  507.08   28.32
  -5 -11  -3  544.79   30.27
   5  10   3   10.64    3.18
  -5 -10  -3    9.93    1.79
  -5 -10  -3   11.69    2.59
   5   9   3   -1.94    0.91
  -5  -9  -3   -0.57    1.08
  -5  -9  -3    1.15    0.50
   5   8   3   16.68    2.46
  -5  -8  -3   21.57    4.77
  -5  -8  -3   14.87    3.12
   5   7   3  251.75   12.54
  -5  -7  -3  254.58   13.62
   5   6   3    1.85    1.26
  -5  -6  -3    2.21    0.96
  -5  -6  -3   -0.62    1.31
  -5  -5  -3  950.66   38.85
  -5  -5  -3  940.43   38.03
  -5  -5  -3  969.62   39.77
  -5  -4  -3   15.26    2.08
  -5  -4  -3   14.59    1.85
  -5  -4  -3   16.42    3.35
  -5  -3  -3  416.19   12.40
  -5  -3  -3  400.39   11.06
  -5  -3  -3  403.90   11.84
  -5  -2  -3   43.69    7.19
  -5  -2  -3   42.34    7.27
  -5  -2  -3   46.60    8.10
   5   2   3   43.40    3.64
  -5  -1  -3 2827.99   68.15
  -5  -1  -3 2699.53   64.66
  -5  -1  -3 2756.64   66.88
   5   1   3 2737.05   66.41
  -5   0  -3    0.87    0.90
   5   0   3    1.32    1.46
  -5   0  -3    1.09    0.99
   5   0   3    2.32    1.32
  -5   1  -3 2671.31   64.11
   5  -1   3 2714.69   65.01
  -5   1  -3 2766.91   66.89
   5  -1   3 2585.62   62.87
  -5   2  -3   43.56    2.84
   5  -2   3   51.46    3.28
   5  -2   3   50.56    4.19
  -5   3  -3  399.44   11.18
   5  -3   3  403.88   11.15
   5  -3   3  455.93   13.35
  -5   4  -3   17.57    2.11
   5  -4   3   16.31    1.60
   5  -4   3   18.38    3.07
  -5   5  -3  895.43   36.03
   5  -5   3  986.18   39.34
   5  -5   3  941.96   38.16
  -5   6  -3    0.47    1.03
   5  -6   3    1.30    1.04
   5  -6   3    1.63    0.66
  -5   7  -3  223.72   11.16
   5  -7   3  271.41   13.12
   5  -7   3  256.47   12.45
  -5   8  -3   14.70    1.93
   5  -8   3   16.29    1.75
   5  -8   3   16.42    4.04
   5  -9   3    3.00    1.48
   5  -9   3    4.10    1.60
  -5  10  -3   10.75    1.86
   5 -10   3   13.50    2.15
   5 -10   3   15.41    3.66
  -5  11  -3  416.32   23.20
   5 -11   3  481.27   26.50
   5 -11   3  479.61   26.06
  -5 -11  -4   25.65    3.26
   5  10   4   59.16   10.07
  -5 -10  -4   52.72    3.77
  -5 -10  -4   64.89   11.68
   5   9   4    9.53    2.62
  -5  -9  -4    7.71    1.74
  -5  -9  -4    8.82    1.92
   5   8   4   73.48   10.10
  -5  -8  -4   79.96   12.62
  -5  -8  -4   69.67   10.81
   5   7   4  519.31   16.40
  -5  -7  -4  536.96   17.22
  -5  -6  -4  177.63   12.82
  -5  -6  -4  164.45   12.10
  -5  -5  -4  387.30   16.88
  -5  -5  -4  372.03   15.87
  -5  -5  -4  399.78   17.38
  -5  -4  -4   98.85    7.29
  -5  -4  -4  112.97    5.77
  -5  -4  -4  106.54   10.27
  -5  -3  -4    6.14    1.46
  -5  -3  -4    9.80    1.45
  -5  -3  -4   11.94    2.78
  -5  -2  -4  185.55   16.05
  -5  -2  -4  170.54   10.76
  -5  -2  -4  175.30   11.37
  -5  -1  -4   -4.16    1.32
  -5  -1  -4   -5.24    1.18
  -5  -1  -4    1.31    1.00
   5   1   4   -0.43    0.94
  -5   0  -4  260.44    7.96
   5   0   4  247.57    7.53
  -5   0  -4  266.00   11.00
   5   0   4  258.87    8.51
  -5   1  -4    2.42    1.53
   5  -1   4    1.42    0.96
  -5   1  -4   -0.11    1.02
   5  -1   4    1.29    0.79
  -5   2  -4  173.46   10.98
   5  -2   4  180.70   11.33
  -5   2  -4  186.95   12.02
   5  -2   4  186.45   12.02
  -5   3  -4   10.54    1.54
   5  -3   4    7.32    1.26
   5  -3   4    8.23    1.78
  -5   4  -4  129.95    7.35
   5  -4   4  114.75    5.85
   5  -4   4  113.71    7.34
  -5   5  -4  351.55   15.13
   5  -5   4  384.39   16.30
   5  -5   4  387.54   20.32
  -5   6  -4  215.98   11.14
   5  -6   4  202.32   10.16
   5  -6   4  186.14    9.49
  -5   7  -4  492.46   15.31
   5  -7   4  618.76   18.91
   5  -7   4  544.31   16.90
  -5   8  -4   70.70    4.14
   5  -8   4   75.61    4.96
   5  -8   4   66.43    4.06
  -5   9  -4   11.88    2.68
   5  -9   4    8.90    1.63
   5  -9   4   10.39    2.03
  -5  10  -4   57.07    3.75
   5 -10   4   58.04    3.46
   5 -10   4   64.62    8.15
   5 -11   4   26.58    2.99
   5 -11   4   24.75    5.10
   5  10   5   18.13    5.85
  -5 -10  -5   21.50    2.68
  -5 -10  -5   23.43    4.79
   5   9   5   25.28    5.11
  -5  -9  -5   32.21    7.00
  -5  -9  -5   31.01    4.52
   5   8   5   17.23    4.00
  -5  -8  -5   22.39    3.14
  -5  -8  -5   20.18    3.73
  -5  -7  -5  561.24   23.49
  -5  -7  -5  578.61   23.25
  -5  -7  -5  513.72   21.09
  -5  -6  -5    0.91    0.77
  -5  -6  -5    0.45    1.08
  -5  -6  -5   -0.07    1.13
  -5  -5  -5  539.07   34.71
  -5  -5  -5  495.40   31.62
  -5  -5  -5  490.32   31.55
  -5  -4  -5   30.39    5.99
  -5  -4  -5   33.09    2.31
  -5  -4  -5   36.32    5.99
  -5  -3  -5  151.15    8.67
  -5  -3  -5  169.85    8.08
  -5  -3  -5  168.20   12.10
  -5  -2  -5   51.73    4.37
  -5  -2  -5   51.62    7.19
  -5  -2  -5   53.24   10.16
  -5  -1  -5  168.43    8.28
  -5  -1  -5  160.42    7.66
  -5  -1  -5  178.84    8.72
  -5   0  -5   -0.19    0.96
  -5   0  -5   -0.25    0.99
   5   0   5    1.19    1.03
  -5   1  -5  161.92    7.69
   5  -1   5  169.68    7.93
  -5   1  -5  169.49    8.55
   5  -1   5  189.34   11.76
  -5   2  -5   56.41    3.72
   5  -2   5   50.86    3.29
  -5   2  -5   41.60    6.68
   5  -2   5   63.57    8.74
  -5   3  -5  164.73    7.89
   5  -3   5  173.93    8.26
   5  -3   5  169.22   10.03
  -5   4  -5   27.83    2.33
   5  -4   5   34.20    5.80
   5  -4   5   33.74    5.53
  -5   5  -5  500.11   31.98
   5  -5   5  538.55   34.33
   5  -5   5  587.32   37.74
  -5   6  -5   -0.13    1.05
   5  -6   5    0.15    0.80
   5  -6   5   -0.07    0.87
  -5   7  -5  526.99   21.48
   5  -7   5  586.07   23.68
   5  -7   5  585.41   23.76
  -5   8  -5   20.20    2.28
   5  -8   5   23.25    3.71
   5  -8   5   22.59    3.13
  -5   9  -5   31.64    3.13
   5  -9   5   27.80    2.65
   5  -9   5   31.62    7.00
  -5  10  -5   25.58    3.03
   5 -10   5   30.31    3.11
   5 -10   5   20.63    3.50
   5 -11   5  132.76   14.88
  -5 -10  -6    8.03    2.16
   5   9   6   47.93    3.71
  -5  -9  -6   44.79    5.04
  -5  -9  -6   44.10    9.13
  -5  -8  -6   11.38    1.45
  -5  -8  -6    8.93    1.50
  -5  -8  -6   13.69    2.05
  -5  -7  -6   66.18   10.13
  -5  -7  -6   75.07    5.40
  -5  -7  -6   63.94   10.82
  -5  -6  -6   64.53   10.69
  -5  -6  -6   60.24    3.27
  -5  -6  -6   67.42    8.37
  -5  -5  -6  103.70   14.99
  -5  -5  -6  107.33    5.06
  -5  -5  -6   96.59   14.65
  -5  -4  -6   37.92    6.17
  -5  -4  -6   38.01    2.89
  -5  -4  -6   34.25    6.38
  -5  -3  -6   96.97    8.66
  -5  -3  -6  106.62    7.65
  -5  -3  -6  114.46   11.84
  -5  -2  -6   13.97    2.50
  -5  -2  -6   13.41    1.62
  -5  -2  -6   17.04    2.70
  -5  -1  -6  749.41   30.79
  -5  -1  -6  702.37   28.51
  -5  -1  -6  736.83   30.23
  -5   0  -6  128.82   26.36
  -5   0  -6  126.33   25.81
  -5   0  -6  132.69   10.77
  -5   1  -6  702.26   28.52
   5  -1   6  723.32   29.27
  -5   1  -6  721.50   29.58
  -5   2  -6   15.17    1.46
   5  -2   6   16.01    1.75
  -5   2  -6   13.61    3.12
   5  -2   6   14.99    1.71
  -5   3  -6  102.93    7.51
   5  -3   6  114.78    8.84
   5  -3   6  106.25    7.82
  -5   4  -6   40.69    3.15
   5  -4   6   47.19    3.34
   5  -4   6   42.44    6.05
  -5   5  -6  102.53    5.13
   5  -5   6  114.67    5.09
   5  -5   6   87.62    4.67
  -5   6  -6   58.05    3.22
   5  -6   6   67.52    3.56
   5  -6   6   59.06    9.96
  -5   7  -6   67.68    3.82
   5  -7   6   74.69    5.33
   5  -7   6   51.83    5.71
  -5   8  -6    8.26    1.40
   5  -8   6   15.37    2.16
   5  -8   6   12.33    1.94
  -5   9  -6   50.17    3.62
   5  -9   6   51.57    3.60
   5  -9   6   48.85    8.02
   5 -10   6    8.47    1.97
   5 -10   6    7.61    1.41
  -5  -9  -7    1.20    1.01
  -5  -9  -7    0.85    1.77
  -5  -8  -7   76.15   15.38
  -5  -8  -7  111.36    5.51
  -5  -8  -7   91.04   16.81
  -5  -7  -7    2.99    0.84
  -5  -7  -7    2.86    1.12
  -5  -7  -7    1.62    0.68
  -5  -6  -7    3.28    1.45
  -5  -6  -7    0.88    0.58
  -5  -6  -7    1.31    0.84
  -5  -5  -7   69.65    8.56
  -5  -5  -7   71.99    4.87
  -5  -5  -7   64.01    9.95
  -5  -4  -7  169.13   15.63
  -5  -4  -7  179.19    8.52
  -5  -4  -7  185.22   15.39
  -5  -3  -7  127.02   10.88
  -5  -3  -7  125.54    6.68
  -5  -3  -7  136.40   10.48
  -5  -2  -7  113.83    9.95
  -5  -2  -7  121.27    6.34
  -5  -2  -7  124.74   15.10
  -5  -1  -7  180.13    9.51
  -5  -1  -7  185.45    9.54
  -5  -1  -7  191.88   16.50
  -5   0  -7   -0.08    0.98
  -5   0  -7    1.46    1.55
  -5   0  -7   -0.32    0.88
  -5   1  -7  169.42    8.74
   5  -1   7  192.24    9.64
  -5   1  -7  198.26   12.62
  -5   2  -7  121.82    6.40
   5  -2   7  108.41    7.75
  -5   2  -7  110.55    9.78
  -5   3  -7  125.90    5.64
   5  -3   7  128.59    5.62
  -5   4  -7  171.63    8.20
   5  -4   7  181.63    8.59
  -5   5  -7   74.25    5.18
   5  -5   7   74.39    4.92
   5  -5   7   55.58    2.79
  -5   6  -7    0.98    1.05
   5  -6   7    2.05    1.02
   5  -6   7   -0.49    0.67
   5  -7   7    1.72    1.14
   5  -7   7    0.95    1.00
   5  -8   7  101.52    5.07
   5  -8   7   54.63    7.62
   5  -9   7    0.57    1.19
   5  -9   7    0.31    0.45
  -5  -8  -8   14.05    2.07
  -5  -8  -8    9.23    2.58
  -5  -7  -8  738.89   20.91
  -5  -7  -8  732.91   19.95
  -5  -7  -8  716.55   19.59
  -5  -6  -8    2.06    0.74
  -5  -6  -8    2.89    1.81
  -5  -6  -8    5.05    2.11
  -5  -5  -8  513.77   32.79
  -5  -5  -8  529.73   33.46
  -5  -5  -8  534.93   33.78
  -5  -4  -8    9.33    1.50
  -5  -4  -8   10.68    1.79
  -5  -4  -8    8.88    2.01
  -5  -3  -8  710.60   33.28
  -5  -3  -8  648.14   30.38
  -5  -3  -8  781.71   36.07
  -5  -2  -8    0.80    0.68
  -5  -2  -8    2.40    1.27
  -5  -2  -8    1.88    0.78
  -5  -1  -8  252.64   11.65
  -5  -1  -8  277.66   12.22
  -5  -1  -8  274.34   12.28
  -5   0  -8    1.49    0.66
  -5   0  -8   -0.19    1.07
  -5   0  -8    0.71    0.66
  -5   1  -8  269.37   11.86
  -5   1  -8  273.81   14.79
  -5   2  -8    0.38    1.07
   5  -2   8    1.18    0.88
  -5   2  -8    0.83    0.56
  -5   3  -8  715.29   32.99
   5  -3   8  727.14   33.48
  -5   3  -8  651.82   29.60
  -5   4  -8   10.50    1.74
   5  -4   8   10.74    1.62
  -5   5  -8  577.02   36.48
   5  -5   8  551.74   34.81
  -5   6  -8    1.28    1.16
   5  -6   8    3.16    1.29
  -5   7  -8  713.90   19.56
   5  -7   8  718.69   19.44
   5  -8   8   13.49    2.27
  -5  -7  -9   20.51    4.98
  -5  -6  -9    1.03    0.98
  -5  -6  -9    5.10    2.45
  -5  -6  -9    0.89    0.75
  -5  -5  -9  172.27   18.60
  -5  -5  -9  221.40   16.89
  -5  -5  -9  187.20   25.70
  -5  -4  -9   40.67   14.22
  -5  -4  -9   42.73    3.41
  -5  -4  -9   42.76    7.04
  -5  -3  -9  167.18   11.93
  -5  -3  -9  172.80   11.89
  -5  -3  -9  195.85   16.25
  -5  -2  -9  112.57    9.54
  -5  -2  -9  125.43    8.04
  -5  -2  -9  128.76   10.38
  -5  -1  -9  446.52   24.70
  -5  -1  -9  451.14   24.57
  -5  -1  -9  452.28   24.48
  -5   0  -9   -0.18    0.73
  -5   0  -9   -1.44    1.31
  -5   0  -9    0.64    0.55
  -5   1  -9  392.12   21.80
  -5   1  -9  397.70   23.13
  -5   1  -9  457.15   24.59
  -5   2  -9  126.20    8.04
   5  -2   9  129.32    8.10
  -5   2  -9  110.31   10.84
  -5   3  -9  185.88   12.63
   5  -3   9  182.11   12.41
  -5   3  -9  168.75   11.07
  -5   4  -9   40.33   12.38
   5  -4   9   42.39    3.30
  -5   5  -9  226.26   17.34
   5  -5   9  192.81   14.75
  -5   6  -9    0.13    1.03
   5  -6   9    0.53    1.24
   5  -7   9   23.04    2.71
  -5  -6 -10   79.22   15.51
  -5  -5 -10    0.91    0.88
  -5  -5 -10    1.50    0.85
  -5  -4 -10    3.85    1.46
  -5  -4 -10    2.52    0.94
  -5  -3 -10    4.28    1.83
  -5  -3 -10    1.03    1.78
  -5  -2 -10   13.89    3.03
  -5  -2 -10   14.21    2.11
  -5  -2 -10   12.56    2.25
  -5  -1 -10  267.28   20.33
  -5  -1 -10  276.68   20.66
  -5  -1 -10  241.71   26.80
  -5   0 -10   77.74    8.50
  -5   0 -10   86.18    9.07
  -5   0 -10   78.09    7.24
  -5   1 -10  261.45   19.88
  -5   1 -10  254.76   19.07
  -5   1 -10  257.04   20.69
  -5   2 -10   13.13    2.37
  -5   2 -10   10.15    2.17
  -5   3 -10   -0.77    1.14
   5  -3  10    3.15    1.60
  -5   4 -10    0.81    1.25
   5  -4  10    3.65    1.43
   5  -5  10    1.35    1.31
   5  -6  10  111.50    8.16
  -5  -3 -11   93.80   17.66
  -5  -2 -11   -1.40    1.41
  -5  -2 -11   -1.42    1.20
  -5  -1 -11   93.75   11.67
  -5   0 -11    0.70    0.92
  -5   0 -11    2.18    1.16
  -5   1 -11   68.44   15.55
  -5   2 -11    0.64    0.90
  -5   2 -11    0.23    0.48
   5  -3  11  100.17    7.23
   6   3 -10   90.56   13.01
   6   2 -10   95.58   16.41
   6   1 -10    5.87    1.42
   6   0 -10   30.06   10.02
   6  -1 -10    4.27    1.91
   6  -2 -10   96.70    8.71
   6  -3 -10   96.44    7.24
   6   5  -9   65.00   11.14
   6   4  -9   44.79    9.80
   6   3  -9    0.86    0.53
   6   2  -9    3.54    0.97
   6   1  -9   72.09    9.84
   6   0  -9   -0.85    1.00
   6  -1  -9   84.15    6.00
   6  -5  -9   83.86    5.03
   6   7  -8    4.02    1.10
   6   6  -8   16.86    3.64
   6   5  -8    0.17    0.44
   6   4  -8  149.21   11.58
   6   3  -8    2.68    1.26
   6   2  -8  131.99    9.42
   6   1  -8    2.63    1.44
   6   0  -8  141.92   11.16
   6  -1  -8    2.18    0.89
   6  -2  -8  129.94   11.13
   6  -3  -8    1.04    0.53
   6  -4  -8  170.97   12.09
   6  -5  -8   -0.29    0.30
   6  -6  -8   19.32    3.47
   6   7  -7  114.37    7.31
   6   6  -7    8.95    1.66
   6   5  -7  132.53    9.92
   6   4  -7   17.12    4.00
   6   3  -7   10.07    2.08
   6   2  -7   14.75    3.15
   6  -1  -7  243.10   12.49
   6  -2  -7   24.57    5.91
   6  -3  -7    6.61    1.72
  -6   4   7   14.71    2.66
   6  -4  -7   18.56    2.15
   6  -5  -7  154.25    6.37
   6  -6  -7   14.68    2.00
   6  -7  -7  132.52    7.81
  -6  -9   6   48.60    7.27
   6   8  -6   88.56    5.05
  -6  -8   6   86.17    6.75
  -6  -7   6   16.36    2.35
   6   7  -6   19.69    2.15
   6   6  -6  242.93   11.20
   6   5  -6   -0.36    0.91
   6   4  -6  309.28   15.40
   6   3  -6  105.19    4.54
   6   0  -6   91.81    6.13
   6  -1  -6   61.62    3.39
   6  -2  -6  400.95   16.87
  -6   3   6  100.39    2.49
   6  -3  -6   95.68    4.16
  -6   4   6  292.28   13.83
   6  -4  -6  317.51   14.39
   6  -4  -6  246.95   12.60
  -6   5   6    0.69    0.46
   6  -5  -6    0.25    0.42
  -6   6   6  186.14   10.00
   6  -6  -6  286.36   11.52
   6  -7  -6   17.86    3.83
   6  -8  -6  139.62    8.35
   6  -9  -6   83.27    5.98
   6   9  -5    4.24    1.16
  -6  -9   5    2.70    1.60
   6   8  -5  146.45    4.64
  -6  -8   5  102.89    4.54
  -6  -8   5  154.85   11.82
  -6  -7   5   14.74    2.31
   6   7  -5   16.96    1.83
  -6  -6   5   32.64    1.70
  -6  -6   5   40.35    1.28
   6   6  -5   42.02    7.59
   6   5  -5   54.99   11.04
   6   4  -5  334.20   11.79
   6   3  -5   41.80    7.91
   6   1  -5   53.21    6.21
   6   0  -5    0.00    1.05
   6  -1  -5   52.10    4.37
  -6   2   5  999.60    6.05
   6  -2  -5  905.30   40.33
  -6   3   5   32.85    4.10
   6  -3  -5   37.69    1.34
   6  -3  -5   35.72    9.75
  -6   4   5  256.54   11.42
   6  -4  -5  317.18   12.47
   6  -4  -5  272.86   12.08
  -6   5   5   32.82    2.72
   6  -5  -5   47.71    2.37
  -6   6   5   27.06    2.88
   6  -6  -5   40.01    1.91
  -6   7   5   14.62    2.51
   6  -7  -5   19.75    3.45
  -6   8   5  140.94    7.12
   6  -8  -5  183.41    6.12
  -6   9   5    6.51    2.43
   6  -9  -5    3.41    1.01
  -6 -10   4   18.86    2.77
   6   9  -4  111.79    4.25
  -6  -9   4  115.07    7.87
  -6  -9   4  113.46   12.83
   6   8  -4   59.67    4.33
  -6  -8   4   63.16    4.47
  -6  -8   4   66.17    7.04
   6   7  -4   65.80    2.92
  -6  -7   4   58.21    3.30
  -6  -7   4   71.25    9.41
   6   7  -4   87.42    5.82
  -6  -6   4  148.67    8.11
  -6  -6   4  200.37    9.32
  -6  -6   4  183.65   16.36
   6   6  -4  186.74    9.83
  -6  -5   4  153.55    7.08
  -6  -4   4   11.24    1.07
  -6  -4   4   20.38    2.49
   6   4  -4   20.46    3.59
   6   3  -4  410.12   19.24
   6   2  -4   10.58    2.05
   6   1  -4   95.78    8.25
   6   0  -4   49.54    9.01
  -6   1   4   75.84    2.18
   6  -1  -4   91.78    7.71
  -6   2   4    7.71    1.25
   6  -2  -4   13.18    0.89
   6  -2  -4   16.85    4.55
  -6   3   4  357.79   16.68
   6  -3  -4  439.44   19.27
   6  -3  -4  396.87   18.65
  -6   4   4   19.62    2.31
   6  -4  -4   23.76    3.25
   6  -4  -4   19.56    5.55
  -6   5   4  159.66    7.17
   6  -5  -4  167.05    5.57
  -6   6   4  187.77   10.56
   6  -6  -4  192.51    9.31
  -6   7   4   72.95    5.60
   6  -7  -4   86.34    5.34
  -6   8   4   57.98    4.32
   6  -8  -4   69.02    3.82
  -6   9   4  117.14    8.51
   6  -9  -4  120.47    7.32
  -6  10   4   19.47    3.13
   6 -10  -4   20.98    3.39
   6  10  -3  122.06    7.93
  -6 -10   3  124.93    8.95
   6   9  -3    0.25    0.46
  -6  -9   3   -0.15    0.98
   6   8  -3  275.31   17.46
  -6  -8   3  251.42   16.41
  -6  -8   3  291.00   20.27
   6   7  -3   17.05    3.75
  -6  -7   3   18.71    2.03
  -6  -7   3   26.02    6.57
  -6  -6   3   51.58    2.97
  -6  -6   3   53.39    2.06
  -6  -6   3   55.81    7.40
  -6  -5   3   46.96    2.55
  -6  -4   3  454.04   28.83
  -6  -4   3  407.99   25.55
   6   4  -3  421.47   27.31
  -6  -3   3    2.27    1.10
  -6  -3   3    3.87    1.14
   6   3  -3    5.73    1.11
  -6  -2   3   71.43    4.35
  -6  -2   3   59.33    3.19
   6   2  -3   86.93    8.43
  -6  -1   3   13.63    2.06
  -6  -1   3   11.13    1.02
   6   1  -3   12.48    2.66
  -6   0   3    0.59    0.34
  -6   0   3    1.76    0.83
   6   0  -3    0.19    0.68
  -6   1   3   14.79    1.57
   6  -1  -3   14.85    2.87
  -6   2   3   56.05    3.61
   6  -2  -3   67.59    3.76
   6  -2  -3   67.46    9.70
  -6   3   3    3.72    1.67
   6  -3  -3    1.13    0.75
   6  -3  -3    3.18    1.12
  -6   4   3  438.65   28.25
   6  -4  -3  434.79   27.40
   6  -4  -3  432.09   28.00
  -6   5   3   46.30    3.49
   6  -5  -3   38.07    2.73
   6  -5  -3   38.90   10.07
  -6   6   3   52.26    3.28
   6  -6  -3   47.88    3.16
  -6   7   3   28.91    3.23
   6  -7  -3   24.20    1.80
  -6   8   3  372.23   24.77
   6  -8  -3  291.26   18.55
  -6   9   3    2.70    1.96
   6  -9  -3    0.27    0.76
   6 -10  -3  118.77    7.83
   6  10  -2   29.68    7.47
  -6 -10   2   33.03    2.96
  -6 -10   2   32.72    9.54
   6   9  -2  135.47   10.56
  -6  -9   2  164.36   12.90
  -6  -9   2  148.99   20.01
   6   8  -2   18.23    3.92
  -6  -8   2   20.44    2.20
  -6  -8   2   25.63    5.62
   6   7  -2   57.27    3.04
  -6  -7   2   66.05    3.41
  -6  -7   2   75.11   11.26
  -6  -6   2  128.41    5.60
  -6  -6   2  107.50    4.06
   6   6  -2  103.87    6.62
  -6  -5   2   33.54    2.62
  -6  -5   2   34.80    2.23
   6   5  -2   36.77    7.83
  -6  -4   2    2.56    1.04
  -6  -4   2    3.82    1.13
  -6  -4   2    4.22    2.32
   6   4  -2    6.15    1.14
  -6  -3   2  269.00   11.45
  -6  -3   2  264.25   10.83
  -6  -3   2  243.54   13.47
   6   3  -2  244.66   11.24
  -6  -2   2    0.33    0.42
  -6  -2   2    1.20    0.64
   6   2  -2    2.26    0.68
  -6  -1   2   29.47    3.43
  -6  -1   2   26.57    4.16
   6   1  -2   29.20    5.97
  -6   0   2  507.87   20.75
  -6   0   2  488.77   19.83
   6   0  -2  512.91   21.99
  -6   1   2   25.45    4.12
   6  -1  -2   26.35    4.11
   6  -1  -2   22.42    6.52
  -6   2   2    2.43    1.38
   6  -2  -2   -0.51    0.68
   6  -2  -2    0.98    0.45
  -6   3   2  359.93   15.58
   6  -3  -2  278.59   11.57
   6  -3  -2  286.17   12.95
  -6   4   2    3.57    1.66
   6  -4  -2    3.37    1.01
   6  -4  -2    5.23    1.61
  -6   5   2   31.57    2.61
   6  -5  -2   32.24    2.41
   6  -5  -2   32.43    4.04
  -6   6   2  115.15    5.63
   6  -6  -2  104.74    4.19
   6  -6  -2   96.92    6.14
  -6   7   2   74.77    5.37
   6  -7  -2   61.99    2.58
  -6   8   2   25.13    2.88
   6  -8  -2   23.64    2.00
  -6   9   2  160.60   12.86
   6  -9  -2  152.28   11.58
  -6  10   2   42.73    4.11
   6 -10  -2   32.89    2.44
   6  11  -1   79.09   10.39
  -6 -11   1   89.99    7.02
   6  10  -1   68.34    8.82
  -6 -10   1   67.07    8.24
  -6 -10   1   61.52   14.80
   6   9  -1    1.60    0.65
  -6  -9   1    1.84    1.73
  -6  -9   1   -0.07    1.38
   6   8  -1   35.17    6.67
  -6  -8   1   45.22    3.37
  -6  -8   1   29.69    6.37
   6   7  -1  127.05   20.04
  -6  -7   1  175.03    8.52
  -6  -7   1  153.43   13.48
  -6  -6   1   35.67    2.30
  -6  -6   1   36.25    1.85
  -6  -6   1   44.95    9.62
   6   6  -1   41.05    2.85
  -6  -5   1  240.35   15.80
  -6  -5   1  249.01   16.05
  -6  -5   1  219.52   16.72
   6   5  -1  255.23   17.11
  -6  -4   1   78.03    3.78
  -6  -4   1   86.87    6.00
  -6  -4   1   76.04   13.71
   6   4  -1   72.16    3.46
  -6  -3   1    4.32    1.02
  -6  -3   1    4.13    1.17
  -6  -3   1    8.08    1.80
   6   3  -1    3.11    1.68
  -6  -2   1  447.78   18.46
  -6  -2   1  497.68   20.26
  -6  -2   1  483.08   21.00
   6   2  -1  522.63   22.48
  -6  -1   1  424.38   17.53
  -6  -1   1  438.00   17.93
   6   1  -1  435.45   18.92
  -6   0   1    0.79    0.41
  -6   0   1    3.36    1.12
   6   0  -1    1.02    0.65
  -6   1   1  428.47   17.69
   6  -1  -1  445.54   18.21
   6  -1  -1  444.39   19.37
  -6   2   1  524.21   21.69
   6  -2  -1  504.94   20.62
   6  -2  -1  533.58   22.89
  -6   3   1    2.75    1.24
   6  -3  -1    3.70    0.96
   6  -3  -1    3.16    1.10
  -6   4   1   99.42    7.41
   6  -4  -1   78.92    2.59
   6  -4  -1   88.15   10.47
  -6   5   1  256.39   17.04
   6  -5  -1  236.81   15.36
   6  -5  -1  251.01   16.81
  -6   6   1   38.77    2.59
   6  -6  -1   38.94    2.06
  -6   7   1  132.11   19.20
   6  -7  -1  138.45    6.47
  -6   8   1   37.92    3.23
   6  -8  -1   29.67    2.05
   6  -8  -1   40.02    2.91
   6  -9  -1    0.28    0.81
  -6  10   1   81.39    6.41
   6 -10  -1   75.80    3.61
  -6  11   1   94.87    7.73
   6 -11  -1   87.65    6.43
   6  10   0   95.19   12.90
  -6 -10   0   95.04    6.69
  -6 -10   0  100.62   14.13
   6   9   0    1.49    0.79
  -6  -9   0   -0.66    1.35
  -6  -9   0    1.07    1.24
   6   8   0    0.44    0.49
  -6  -8   0    0.84    1.17
  -6  -8   0    2.45    1.35
   6   7   0    0.36    0.74
  -6  -7   0    3.26    1.48
  -6  -7   0    1.84    0.93
  -6  -6   0 2164.30   17.26
  -6  -6   0 2051.50   55.43
  -6  -6   0 2086.28   58.05
  -6  -5   0    0.37    0.39
  -6  -5   0   -0.57    1.09
  -6  -5   0   -0.04    1.27
   6   5   0   -0.35    0.92
  -6  -4   0    7.93    1.81
  -6  -4   0    9.93    1.71
  -6  -4   0   13.54    3.24
   6   4   0    8.86    1.91
  -6  -3   0    0.50    0.47
  -6  -3   0   -0.90    1.19
   6   3   0    0.74    0.71
  -6  -2   0   34.77    5.49
  -6  -2   0   27.16    2.00
  -6  -2   0   33.54    6.12
   6   2   0   31.64    6.79
  -6  -1   0    0.26    0.47
  -6  -1   0   -0.06    0.46
  -6  -1   0   -1.77    1.17
   6   1   0    1.50    0.83
  -6   0   0 1982.94   47.22
  -6   0   0 1756.65   41.68
   6   0   0 1866.87   45.92
  -6   1   0    2.83    1.09
   6  -1   0   -1.45    0.76
   6  -1   0    1.75    1.22
  -6   2   0   31.27    2.25
   6  -2   0   31.18    6.00
   6  -2   0   37.46    7.98
  -6   3   0    0.67    0.93
   6  -3   0    1.61    1.03
   6  -3   0   -0.04    0.97
  -6   4   0    9.03    2.28
   6  -4   0    9.38    2.16
   6  -4   0   10.02    1.72
  -6   5   0   -0.62    1.05
   6  -5   0   -0.70    0.73
   6  -5   0    0.83    0.70
  -6   6   0 2571.35   21.74
  -6   7   0   -1.05    1.00
   6  -7   0    0.88    0.80
   6  -7   0   -0.10    0.88
  -6   8   0    0.60    0.93
   6  -8   0    1.33    0.87
   6  -8   0    0.65    0.51
   6  -9   0   -0.25    0.92
   6  -9   0    0.79    0.74
  -6  10   0   97.74   13.10
   6 -10   0   97.01    6.33
   6 -10   0  119.60    8.07
   6  11   1   72.28    6.85
   6  10   1   62.91    5.45
  -6 -10  -1   81.61    6.74
  -6 -10  -1   74.89   18.82
   6   9   1    0.55    0.52
  -6  -9  -1    0.65    1.37
  -6  -9  -1    3.07    1.09
   6   8   1   27.58    6.92
  -6  -8  -1   31.81    2.63
  -6  -8  -1   34.51    7.48
  -6  -7  -1  147.49    7.40
  -6  -7  -1  132.74   22.27
  -6  -6  -1   43.56    7.68
  -6  -6  -1   38.69    3.50
  -6  -6  -1   44.72    7.57
  -6  -5  -1  218.31   14.50
  -6  -5  -1  242.49   15.77
  -6  -5  -1  235.37   17.27
  -6  -4  -1   70.32    5.47
  -6  -4  -1   75.09    4.59
  -6  -4  -1   84.91   15.52
   6   4   1   75.62    3.76
  -6  -3  -1    4.38    1.22
  -6  -3  -1    4.20    1.13
  -6  -3  -1    3.23    1.33
   6   3   1    4.78    1.06
  -6  -2  -1  459.87   19.25
  -6  -2  -1  462.52   19.10
  -6  -2  -1  462.93   20.95
   6   2   1  487.37   21.21
  -6  -1  -1  449.42   18.84
  -6  -1  -1  453.03   18.81
  -6  -1  -1  429.05   19.23
   6   1   1  415.37   18.13
  -6   0  -1   -2.69    1.73
  -6   0  -1    1.18    0.81
  -6   0  -1    2.67    0.99
   6   0   1    1.18    1.13
  -6   1  -1  444.37   18.55
   6  -1   1  434.62   18.00
   6  -1   1  462.50   20.12
  -6   2  -1  490.66   20.46
   6  -2   1  473.24   19.58
   6  -2   1  469.45   20.23
  -6   3  -1    2.26    0.90
   6  -3   1    8.47    1.99
   6  -3   1    5.15    1.08
  -6   4  -1   99.36    7.39
   6  -4   1   81.61    2.96
   6  -4   1   84.75    7.39
  -6   5  -1  211.58   14.02
   6  -5   1  238.14   15.56
   6  -5   1  235.46   19.63
  -6   6  -1   43.62    3.12
   6  -6   1   44.03    3.14
   6  -6   1   40.58    3.99
  -6   7  -1  165.53    8.73
   6  -7   1  142.39    6.88
   6  -7   1  160.14    9.98
  -6   8  -1   35.14    2.88
   6  -8   1   28.84    2.07
   6  -8   1   40.46    5.44
  -6   9  -1    0.24    0.96
   6  -9   1    0.75    0.97
   6  -9   1    0.66    0.80
  -6  10  -1   88.15    6.55
   6 -10   1   69.19    8.25
   6 -10   1   91.77   10.97
   6 -11   1   80.37    6.02
   6  10   2   26.94    6.50
  -6 -10  -2   34.73    3.80
  -6 -10  -2   31.44    7.46
   6   9   2  138.88   18.16
  -6  -9  -2  133.35   10.61
  -6  -9  -2  159.39   13.01
   6   8   2   19.60    2.06
  -6  -8  -2   16.50    1.99
  -6  -8  -2   24.55    5.18
  -6  -7  -2   63.42    8.14
  -6  -7  -2   65.41    3.13
  -6  -7  -2   65.49   11.15
  -6  -6  -2   97.47    6.33
  -6  -6  -2  100.54    5.80
  -6  -6  -2   99.45   16.22
  -6  -5  -2   33.94    5.78
  -6  -5  -2   31.51    2.50
  -6  -5  -2   38.62    8.23
  -6  -4  -2    3.90    1.32
  -6  -4  -2    1.72    0.68
  -6  -4  -2    4.47    1.29
   6   4   2    1.45    1.24
  -6  -3  -2  255.08   15.69
  -6  -3  -2  260.42   11.24
  -6  -3  -2  266.59   12.31
   6   3   2  285.42   12.99
  -6  -2  -2   -0.12    0.82
  -6  -2  -2    1.34    0.87
  -6  -2  -2    1.50    0.76
   6   2   2    2.99    1.20
  -6  -1  -2   25.23    6.43
  -6  -1  -2   27.59    2.30
  -6  -1  -2   25.84    6.35
   6   1   2   29.91    4.40
  -6   0  -2  475.70   20.00
  -6   0  -2  505.61   20.94
  -6   0  -2  532.14   22.76
   6   0   2  473.11   20.38
  -6   1  -2   29.61    2.37
   6  -1   2   22.71    2.10
   6  -1   2   27.78    4.20
  -6   2  -2    0.45    0.45
   6  -2   2    1.30    1.29
   6  -2   2    1.53    1.16
  -6   3  -2  294.50   13.05
   6  -3   2  269.89   11.66
   6  -3   2  255.62   11.71
  -6   4  -2    5.12    1.75
   6  -4   2    3.31    1.22
   6  -4   2    6.99    1.17
  -6   5  -2   35.61    2.98
   6  -5   2   32.72    2.47
   6  -5   2   35.65    3.53
   6  -6   2  120.43    6.64
  -6   7  -2   78.51    5.56
   6  -7   2   72.24    8.30
   6  -7   2   76.48    8.93
  -6   8  -2   29.26    3.48
   6  -8   2   23.46    2.32
   6  -8   2   27.19    5.46
  -6   9  -2  153.59   12.12
   6  -9   2  143.82   11.11
   6  -9   2  159.99   14.05
   6 -10   2   38.55    2.94
   6 -10   2   41.14    6.37
  -6 -10  -3  107.95    7.64
   6   9   3   -0.43    1.02
  -6  -9  -3    0.19    1.17
  -6  -9  -3   -1.67    1.37
  -6  -8  -3  295.48   22.19
  -6  -8  -3  283.63   18.83
  -6  -7  -3   19.91    3.06
  -6  -7  -3   20.66    2.10
  -6  -7  -3   20.31    4.67
  -6  -6  -3   48.88    8.39
  -6  -6  -3   49.56    2.64
  -6  -6  -3   50.53    9.59
  -6  -5  -3   39.08    7.62
  -6  -5  -3   45.51    3.22
  -6  -5  -3   39.60    8.44
  -6  -4  -3  375.81   24.31
  -6  -4  -3  404.51   25.94
  -6  -4  -3  407.16   26.58
  -6  -3  -3    3.74    0.87
  -6  -3  -3    1.97    0.68
  -6  -3  -3    2.50    1.51
   6   3   3    4.75    1.76
  -6  -2  -3   62.01    6.82
  -6  -2  -3   57.88    3.84
  -6  -2  -3   76.70    7.63
   6   2   3   68.52    4.88
  -6  -1  -3   10.30    2.11
  -6  -1  -3   11.53    1.70
  -6  -1  -3   11.41    2.08
   6   1   3   10.13    1.92
  -6   0  -3   -1.05    1.12
  -6   0  -3    0.92    0.98
  -6   0  -3    0.63    0.68
   6   0   3   -0.42    1.17
  -6   1  -3   15.17    2.20
   6  -1   3   13.51    3.20
  -6   1  -3   12.16    2.96
   6  -1   3   14.67    2.88
  -6   2  -3   67.09    4.48
   6  -2   3   63.07    4.07
   6  -2   3   75.78    5.87
  -6   3  -3    3.07    1.27
   6  -3   3    3.73    1.26
   6  -3   3    2.74    1.25
   6  -4   3  403.37   25.80
   6  -4   3  409.57   26.58
   6  -5   3   47.05    3.21
   6  -5   3   49.12    8.61
  -6   6  -3   53.30    3.18
   6  -6   3   52.79    2.77
   6  -6   3   56.25    4.06
  -6   7  -3   21.06    2.34
   6  -7   3   23.34    2.12
   6  -7   3   25.43    3.70
  -6   8  -3  356.31   23.37
   6  -8   3  332.35   21.45
   6  -8   3  341.61   25.51
  -6   9  -3   -0.27    1.37
   6  -9   3    0.73    1.08
   6  -9   3    0.84    0.91
   6 -10   3  137.17    9.29
   6 -10   3  125.39    9.47
  -6 -10  -4   20.27    2.48
  -6  -9  -4  119.85    8.15
  -6  -9  -4  112.74   23.45
  -6  -8  -4   75.57    9.32
  -6  -8  -4   73.92    4.72
  -6  -8  -4   78.65   14.49
  -6  -7  -4   78.12    9.89
  -6  -7  -4   90.05    6.03
  -6  -7  -4   73.17   14.53
  -6  -6  -4  188.73   20.54
  -6  -6  -4  199.96   10.22
  -6  -6  -4  194.54   10.58
  -6  -5  -4  156.83    9.91
  -6  -4  -4   22.27    3.72
  -6  -3  -4  388.68   23.84
  -6  -3  -4  388.49   18.57
  -6  -2  -4   10.88    2.04
  -6  -2  -4   11.14    1.81
  -6  -2  -4   13.46    2.96
   6   2   4   10.69    1.71
  -6  -1  -4   90.42    6.71
  -6  -1  -4   90.00    6.55
  -6  -1  -4   91.88    8.36
   6   1   4   94.08    7.16
  -6   0  -4   49.59    2.89
  -6   0  -4   43.58    4.06
  -6   0  -4   45.39    9.74
   6   0   4   50.50    7.68
  -6   1  -4   89.63    6.55
   6  -1   4   91.13    6.54
  -6   1  -4   92.23    8.27
   6  -1   4   86.12    7.83
  -6   2  -4   11.46    1.51
   6  -2   4   14.84    1.53
   6  -2   4   22.01    3.15
   6  -3   4  403.66   18.53
   6  -3   4  401.30   18.96
   6  -4   4   21.52    2.78
   6  -4   4   31.09    5.76
  -6   5  -4  153.54    6.49
   6  -5   4  164.91    6.40
   6  -5   4  162.01   11.97
  -6   6  -4  233.35   12.25
   6  -6   4  197.54   10.15
   6  -6   4  201.50   12.90
  -6   7  -4   68.58    4.90
   6  -7   4   88.43    5.89
   6  -7   4   86.54    6.64
  -6   8  -4   67.94    4.64
   6  -8   4   71.34    4.46
   6  -8   4   85.15    6.86
  -6   9  -4  138.50    9.50
   6  -9   4  124.07    9.69
   6  -9   4  140.74   13.61
   6 -10   4   20.87    5.74
   6 -10   4   19.02    4.11
  -6  -9  -5    3.91    1.74
  -6  -9  -5    3.81    1.16
  -6  -8  -5  171.92   15.89
  -6  -8  -5  175.84    6.77
  -6  -8  -5  158.77   16.03
  -6  -7  -5   16.53    2.81
  -6  -7  -5   18.70    3.87
  -6  -6  -5   39.22    3.96
  -6  -6  -5   44.23    2.97
  -6  -6  -5   34.94    6.79
  -6  -5  -5   53.63    7.11
  -6  -5  -5   53.37    3.05
  -6  -5  -5   45.67    7.88
  -6  -4  -5  256.88   14.15
  -6  -4  -5  291.46   13.08
  -6  -3  -5   30.80    5.55
  -6  -1  -5   50.19   11.47
  -6  -1  -5   60.66   11.54
  -6   0  -5    1.15    0.86
  -6   0  -5   -0.41    0.95
   6   0   5    0.31    0.95
   6  -1   5   57.16    3.63
  -6   1  -5   53.55   10.24
   6  -1   5   59.64    4.28
   6  -2   5  909.21   40.12
  -6   2  -5  852.03   37.75
   6  -2   5  929.45   41.47
  -6   3  -5   34.05    2.53
   6  -3   5   35.58    2.38
   6  -3   5   40.67    5.17
  -6   4  -5  299.41   13.07
   6  -4   5  313.41   13.41
   6  -4   5  320.26   23.92
  -6   5  -5   48.60    2.99
   6  -5   5   49.50    5.00
   6  -5   5   55.15    8.95
  -6   6  -5   34.22    5.11
   6  -6   5   35.36    2.58
   6  -6   5   47.23    7.87
  -6   7  -5   15.11    2.08
   6  -7   5   16.21    2.18
   6  -7   5   20.78    2.97
  -6   8  -5  134.82    8.91
   6  -8   5  175.20    6.81
   6  -8   5  192.05   17.26
  -6   9  -5    5.90    2.14
   6  -9   5    4.42    1.47
  -6  -9  -6   53.98    8.47
  -6  -8  -6  109.50   10.61
  -6  -8  -6  113.98    7.51
  -6  -8  -6  107.96   20.84
  -6  -7  -6   25.55    2.89
  -6  -7  -6   18.94    4.04
  -6  -7  -6   18.99    4.08
  -6  -6  -6  230.49   15.62
  -6  -6  -6  258.78   11.52
  -6  -6  -6  275.22   12.79
  -6  -5  -6    0.82    0.42
  -6  -5  -6   -0.20    0.99
  -6  -5  -6    0.86    0.91
  -6  -4  -6  254.43   15.23
  -6  -4  -6  297.48   14.68
  -6  -4  -6  299.58   15.30
  -6  -3  -6   94.34    8.26
  -6  -3  -6   96.33    3.79
  -6  -3  -6   96.40   15.80
  -6  -2  -6  388.88   16.47
  -6  -2  -6  399.51   16.55
  -6  -2  -6  422.42   18.53
  -6  -1  -6   61.64    7.32
  -6  -1  -6   59.53    3.27
  -6  -1  -6   67.54    4.93
  -6   0  -6   87.84    7.18
  -6   0  -6   97.86    4.00
  -6   0  -6   90.38    5.64
  -6   1  -6   59.58    3.03
   6  -1   6   69.64    3.22
  -6   1  -6   65.20    5.29
  -6   2  -6  376.29   15.68
   6  -2   6  430.34   17.67
  -6   2  -6  397.39   16.47
   6  -2   6  416.56   17.69
  -6   3  -6   93.95    3.91
   6  -3   6  106.15    4.06
   6  -3   6  101.53    4.62
  -6   4  -6  292.91   14.66
   6  -4   6  289.72   14.28
   6  -4   6  292.17   23.38
  -6   5  -6    2.90    1.21
   6  -5   6    0.09    0.86
   6  -5   6    1.26    0.68
  -6   6  -6  233.08   10.73
   6  -6   6  260.03   11.57
   6  -6   6  249.76   17.51
  -6   7  -6   20.53    2.56
   6  -7   6   14.44    2.00
   6  -7   6   22.46    3.36
  -6   8  -6  102.47    6.94
   6  -8   6  113.25    7.56
   6  -8   6  100.10    9.26
   6  -9   6   65.87    7.26
  -6  -8  -7   13.88    3.07
  -6  -7  -7   95.04   13.42
  -6  -7  -7  108.34    7.41
  -6  -7  -7   98.04   18.87
  -6  -6  -7   10.87    2.30
  -6  -6  -7   14.76    2.67
  -6  -6  -7    8.90    2.36
  -6  -5  -7  130.38    9.24
  -6  -5  -7  153.86    7.84
  -6  -5  -7  147.40   15.21
  -6  -4  -7   14.65    2.13
  -6  -4  -7   13.71    2.45
  -6  -4  -7   15.09    3.59
  -6  -3  -7    4.85    1.06
  -6  -3  -7    5.96    1.61
  -6  -2  -7   11.27    1.82
  -6  -2  -7   10.95    1.85
  -6  -2  -7   14.15    2.87
  -6  -1  -7  227.08   12.02
  -6  -1  -7  235.81   12.00
  -6  -1  -7  224.32   11.75
  -6   0  -7    1.06    1.00
  -6   0  -7   -1.23    1.18
  -6   0  -7    1.09    1.23
  -6   1  -7  224.34   11.43
  -6   1  -7  230.75   17.10
  -6   2  -7   10.74    1.95
   6  -2   7   13.49    1.65
  -6   2  -7   14.17    2.70
  -6   3  -7    5.76    1.46
   6  -3   7    7.67    1.77
  -6   4  -7   15.29    2.12
   6  -4   7   17.96    2.22
   6  -4   7   12.22    1.74
  -6   5  -7  155.71    8.05
   6  -5   7  155.03    7.79
   6  -5   7  109.49    7.16
  -6   6  -7    9.57    2.15
   6  -6   7   12.57    2.27
   6  -6   7    7.23    1.91
  -6   7  -7  135.34    9.36
   6  -7   7  102.54    8.70
   6  -7   7   75.31    4.10
   6  -8   7   12.79    2.55
  -6  -7  -8    3.04    1.29
  -6  -6  -8   14.96    2.07
  -6  -6  -8   10.63    1.68
  -6  -5  -8   -0.07    1.28
  -6  -5  -8    1.22    0.54
  -6  -5  -8    0.35    0.81
  -6  -4  -8  133.56   15.60
  -6  -4  -8  117.18   21.23
  -6  -4  -8  144.32   13.07
  -6  -3  -8    1.76    0.68
  -6  -3  -8    2.51    1.68
  -6  -3  -8    2.27    1.19
  -6  -2  -8  125.08    6.97
  -6  -2  -8  123.89    6.57
  -6  -2  -8  118.85   18.67
  -6  -1  -8    3.18    0.99
  -6  -1  -8    3.07    1.08
  -6   0  -8  152.07   17.92
  -6   0  -8  166.33   11.52
  -6   0  -8  129.96   15.76
  -6   1  -8    4.25    1.69
  -6   1  -8    4.13    1.32
  -6   1  -8    3.02    0.69
  -6   2  -8  123.20    6.49
   6  -2   8  125.99    6.58
  -6   2  -8  126.66    7.55
  -6   3  -8    1.76    1.22
   6  -3   8   -0.49    0.97
  -6   4  -8  154.21   12.04
   6  -4   8  156.53   12.21
  -6   5  -8   -0.04    1.21
   6  -5   8    1.62    1.22
   6  -6   8   21.13    2.65
   6  -7   8    6.54    2.12
  -6  -5  -9   69.81   14.52
  -6  -4  -9   45.80    9.69
  -6  -4  -9   38.80    9.79
  -6  -3  -9    2.74    1.04
  -6  -3  -9    3.39    1.87
  -6  -3  -9    3.34    1.28
  -6  -2  -9    1.82    0.65
  -6  -2  -9    4.55    1.91
  -6  -2  -9   -0.12    1.18
  -6  -1  -9   58.70   14.71
  -6  -1  -9   76.05    8.95
  -6  -1  -9   69.08   14.23
  -6   0  -9    0.29    0.53
  -6   0  -9    1.29    1.28
  -6   0  -9    0.75    1.18
  -6   1  -9   74.16    9.99
  -6   1  -9   88.79    4.85
  -6   1  -9   60.88   11.92
  -6   2  -9    6.36    1.97
  -6   2  -9    2.31    0.84
  -6   3  -9    3.36    1.87
   6  -3   9    0.90    1.13
   6  -4   9   44.98   10.17
  -6  -3 -10  100.99    8.41
  -6  -2 -10   75.96   17.98
  -6  -1 -10    4.25    1.40
  -6   0 -10   32.58    8.88
  -6   0 -10   32.28    6.60
  -6   1 -10    4.97    1.24
  -6   2 -10   87.43   12.15
   6  -3  10   96.66    7.21
   7   1  -9   37.77    8.26
   7   0  -9    0.64    0.91
   7  -1  -9   40.15   11.50
   7   4  -8   -1.07    1.09
   7   3  -8  300.65   18.52
   7   2  -8    0.26    0.84
   7   1  -8  503.81   27.76
   7   0  -8   -0.21    1.27
   7  -1  -8  456.09   25.31
   7  -2  -8   -0.62    1.24
   7  -3  -8  290.76   18.06
   7   6  -7    1.90    0.91
   7   5  -7   70.48    7.83
   7   4  -7  110.24    8.69
   7   3  -7   26.37    5.58
   7   2  -7  115.07   10.23
   7   1  -7   13.28    2.93
   7   0  -7    0.71    0.42
   7  -1  -7   14.27    2.50
   7  -2  -7  103.77   12.66
   7  -3  -7   22.23    7.13
   7  -4  -7  100.40    8.33
   7  -5  -7   90.72    5.47
   7  -5  -7   82.76   15.48
   7  -6  -7    2.11    1.40
   7   7  -6  216.91   13.68
   7   6  -6   87.37   11.09
   7   5  -6  508.23   14.85
   7   4  -6   14.50    3.16
   7   3  -6    3.89    1.09
   7   2  -6   21.57    4.34
   7   1  -6   34.78    7.94
   7   0  -6   65.03    6.92
   7  -1  -6   31.40    5.32
   7  -2  -6   17.73    4.95
   7  -3  -6    2.52    1.02
  -7   4   6    3.56    1.43
   7  -4  -6   15.13    1.10
   7  -4  -6   10.64    3.11
   7  -5  -6  542.83   13.18
   7  -5  -6  482.74   14.69
   7  -6  -6  106.62    9.92
   7  -6  -6   83.90   11.92
   7  -7  -6  219.21   13.06
   7   7  -5    7.63    2.43
   7   6  -5    2.31    0.91
   7   5  -5   50.68    9.92
   7   4  -5   30.13    5.72
   7   3  -5   76.85   13.26
   7   2  -5   13.64    2.58
   7   1  -5  314.00   15.83
   7   0  -5   -0.69    1.11
   7  -1  -5  319.87   16.15
   7  -2  -5   12.29    3.10
  -7   3   5   60.89    3.76
   7  -3  -5   75.34    4.38
   7  -3  -5   69.42    6.23
   7  -4  -5   34.42    2.23
   7  -4  -5   29.99    6.71
  -7   5   5   28.45    2.77
   7  -5  -5   48.68    2.74
   7  -5  -5   42.87   10.90
   7  -6  -5    3.18    0.94
   7  -6  -5    0.79    0.81
   7  -8  -5   20.14    5.01
  -7  -8   4   37.50    2.82
  -7  -8   4   33.24    8.49
  -7  -7   4    1.91    1.23
  -7  -7   4    1.27    0.63
   7   7  -4    3.74    1.11
  -7  -6   4  172.18   12.88
  -7  -6   4  204.62   14.62
   7   6  -4  211.19   16.03
  -7  -5   4   28.57    2.28
   7   5  -4   34.54    6.95
   7   4  -4   34.03    6.72
   7   3  -4   23.76    5.14
   7   2  -4   63.18   10.25
   7   1  -4  413.00   17.60
   7   0  -4  383.80   16.60
  -7   1   4  297.96   11.99
   7  -1  -4  426.08   18.20
  -7   2   4   36.66    2.33
   7  -2  -4   54.25   12.51
   7  -3  -4   26.82    1.37
   7  -3  -4   20.93    3.55
  -7   4   4   26.72    2.75
   7  -4  -4   30.56    1.54
   7  -4  -4   29.36    5.47
  -7   5   4   32.92    3.43
   7  -5  -4   28.14    1.95
   7  -5  -4   25.49    5.93
  -7   6   4  197.64   15.43
   7  -6  -4  208.50   15.18
   7  -6  -4  203.10   15.63
   7  -7  -4    0.33    0.38
   7  -7  -4    0.34    1.04
  -7   8   4   35.30    3.32
   7  -8  -4   44.92    2.48
   7  -8  -4   36.36    3.02
  -7  -9   3  234.33   18.00
  -7  -8   3   16.28    1.93
  -7  -8   3   17.82    2.86
  -7  -8   3   15.84    4.94
  -7  -7   3  627.65   44.77
  -7  -7   3  603.64   43.71
   7   7  -3  626.45   44.94
  -7  -6   3    0.61    1.17
  -7  -6   3    0.38    0.50
  -7  -6   3    0.61    0.87
   7   6  -3    3.84    1.63
  -7  -5   3  766.50   39.93
  -7  -5   3  736.20   39.71
   7   5  -3  768.91   40.82
  -7  -4   3   19.19    1.76
  -7  -4   3   20.39    4.27
   7   4  -3   19.59    3.63
  -7  -3   3   57.35    2.09
  -7  -3   3   64.88    1.83
   7   3  -3   65.41   12.14
  -7  -2   3   31.06    5.15
  -7  -2   3   28.55    3.82
   7   2  -3   26.49    6.47
  -7  -1   3  256.13    7.67
  -7  -1   3  254.92    7.68
   7   1  -3  242.87   11.54
  -7   0   3    0.00    0.38
  -7   0   3    0.66    0.53
   7   0  -3    1.34    0.84
  -7   1   3  271.87    8.30
  -7   1   3  289.83    9.26
   7  -1  -3  254.33    9.71
   7  -2  -3   29.41    1.51
   7  -2  -3   26.75    8.00
  -7   3   3   66.91    3.13
   7  -3  -3   65.42    2.21
   7  -3  -3   65.58    7.26
  -7   4   3   26.00    2.52
   7  -4  -3   18.41    1.31
   7  -4  -3   19.86    3.53
  -7   5   3  816.85   43.14
   7  -5  -3  775.66   40.20
   7  -5  -3  788.95   41.91
  -7   6   3    0.32    1.16
   7  -6  -3    1.19    0.60
  -7   7   3  683.33   80.48
   7  -7  -3  634.80   45.01
   7  -7  -3  573.23   41.40
  -7   8   3   22.94    3.54
   7  -8  -3   19.14    1.72
   7  -8  -3   14.22    2.89
   7  -9  -3  246.70   14.91
   7  -9  -3  223.04   25.04
  -7  -9   2  161.92   10.77
  -7  -9   2  141.92   10.35
  -7  -8   2   37.49    4.64
  -7  -8   2   40.65   10.72
  -7  -7   2    3.68    1.71
  -7  -7   2    1.34    0.67
  -7  -7   2    1.86    1.35
  -7  -6   2   98.71    5.74
  -7  -6   2   91.03    4.68
  -7  -6   2   83.67   13.28
   7   6  -2   98.31   12.94
  -7  -5   2   84.81    5.37
  -7  -5   2   89.77    5.27
  -7  -5   2   87.93   16.88
   7   5  -2   96.39    9.06
  -7  -4   2   44.63    2.29
  -7  -4   2   42.99    1.80
  -7  -4   2   40.55   10.17
   7   4  -2   44.23    8.24
  -7  -3   2 1018.06   38.48
   7   3  -2  959.91   38.30
  -7  -2   2   45.90    1.88
   7   2  -2   62.08   11.30
  -7  -1   2  295.34    9.02
   7   1  -2  297.28   10.88
  -7   0   2  122.72    5.75
   7   0  -2  113.94   10.04
  -7   1   2  261.27    8.27
   7  -1  -2  282.54   10.91
  -7   2   2   52.53    2.65
   7  -2  -2   48.08    1.97
   7  -2  -2   42.23    9.32
  -7   3   2 1346.14  190.26
   7  -3  -2 1080.83  152.60
   7  -3  -2 1031.66   40.67
  -7   4   2   38.60    2.54
   7  -4  -2   42.11    1.93
   7  -4  -2   37.97    8.78
  -7   5   2   88.86    5.84
   7  -5  -2   83.34    5.05
   7  -5  -2   92.62    8.65
  -7   6   2   99.34    6.19
   7  -6  -2   88.80    4.76
   7  -6  -2   88.90    7.96
   7  -7  -2    0.46    0.84
   7  -7  -2    1.03    0.98
  -7   8   2   44.99    3.76
   7  -8  -2   41.06    5.86
   7  -8  -2   37.37    6.78
  -7   9   2  164.62   11.40
   7  -9  -2  150.32    9.57
  -7  -9   1  121.79   19.29
  -7  -8   1  129.17    6.25
  -7  -8   1   99.70   11.56
  -7  -8   1   96.68   20.17
  -7  -7   1    8.73    1.66
  -7  -7   1    5.54    1.22
  -7  -7   1    3.97    1.84
  -7  -6   1    2.17    0.92
  -7  -6   1    1.48    0.75
  -7  -6   1    3.75    1.59
   7   6  -1    3.82    1.64
  -7  -5   1    4.23    1.33
  -7  -5   1    5.96    1.19
  -7  -5   1    3.75    1.26
   7   5  -1    2.10    1.25
  -7  -4   1  208.55    9.15
  -7  -4   1  220.93    9.23
  -7  -4   1  195.36    9.71
   7   4  -1  188.43    9.08
  -7  -3   1   36.22    6.90
  -7  -3   1   36.45    3.90
  -7  -3   1   35.57    7.54
   7   3  -1   38.38    7.26
  -7  -2   1  155.68    6.12
  -7  -2   1  163.93    5.60
  -7  -2   1  147.26    6.74
   7   2  -1  155.38    8.91
  -7  -1   1  118.95    7.01
  -7  -1   1  133.30    6.60
   7   1  -1  130.65    6.65
  -7   0   1   -0.12    0.54
  -7   0   1    0.12    0.64
   7   0  -1    1.62    1.21
  -7   1   1  119.45    5.72
   7  -1  -1  120.12    9.84
  -7   2   1  175.75    6.37
   7  -2  -1  187.00    6.33
   7  -2  -1  170.00    7.29
  -7   3   1   31.03    2.20
   7  -3  -1   26.42    1.84
   7  -3  -1   38.61    6.76
  -7   4   1  260.05   11.65
   7  -4  -1  199.48    8.48
   7  -4  -1  218.83   11.16
  -7   5   1    1.78    1.15
   7  -5  -1    2.62    0.79
   7  -5  -1    5.98    1.26
  -7   6   1    2.89    1.11
   7  -6  -1    0.97    0.66
   7  -6  -1    4.95    1.47
  -7   7   1    6.64    1.38
   7  -7  -1    5.26    0.99
   7  -7  -1   10.25    2.06
  -7   8   1  119.06    6.25
   7  -8  -1  102.52    4.44
   7  -8  -1  104.66    8.82
   7  -9  -1  119.08    7.85
  -7  -9   0  745.86   43.45
  -7  -9   0  690.64   40.61
  -7  -8   0   -0.81    1.12
  -7  -8   0    2.87    1.54
  -7  -7   0   40.81   12.48
  -7  -7   0   38.90   12.29
  -7  -7   0   42.74    9.76
  -7  -6   0    0.15    1.16
  -7  -6   0    1.08    1.17
  -7  -6   0    5.06    1.89
  -7  -5   0   99.49   11.64
  -7  -5   0   99.09    5.41
  -7  -5   0   92.76   10.77
   7   5   0   94.49    5.99
  -7  -4   0    0.05    0.58
  -7  -4   0    0.69    0.68
  -7  -4   0   -0.23    1.26
   7   4   0    1.69    1.45
  -7  -3   0  613.29   18.20
  -7  -3   0  581.51   16.79
  -7  -3   0  566.94   18.34
   7   3   0  593.25   18.71
  -7  -2   0    0.54    0.47
  -7  -2   0    0.44    0.76
  -7  -2   0    1.38    1.10
   7   2   0    1.73    1.05
  -7  -1   0   60.83    5.45
  -7  -1   0   57.79    3.69
   7   1   0   57.30    5.50
  -7   0   0    0.41    0.46
  -7   0   0    0.58    0.72
   7   0   0   -0.71    1.10
  -7   1   0   68.56    7.45
   7  -1   0   62.30    3.70
   7  -1   0   73.60    6.13
  -7   2   0    0.84    0.72
   7  -2   0    0.56    0.75
   7  -2   0    0.85    0.67
  -7   3   0  619.07   18.49
   7  -3   0  610.13   17.73
   7  -3   0  625.36   19.65
  -7   4   0    1.63    1.13
   7  -4   0    1.05    0.59
   7  -4   0   -1.25    0.89
  -7   5   0  114.63    6.93
   7  -5   0   98.45    5.43
   7  -5   0  105.62    8.17
  -7   6   0    2.40    1.84
   7  -6   0    1.05    0.76
   7  -6   0    4.34    1.28
  -7   7   0   46.82    3.61
   7  -7   0   52.27    3.34
   7  -7   0   43.54   10.31
  -7   8   0    0.06    0.96
   7  -8   0    1.97    1.34
   7  -8   0    0.42    0.93
  -7   9   0  672.83   39.37
   7  -9   0  651.27   37.54
   7  -9   0  684.38   39.98
  -7  -9  -1  118.62    7.90
  -7  -8  -1   96.94    5.00
  -7  -8  -1   97.01   13.18
  -7  -7  -1    8.81    1.63
  -7  -7  -1    4.68    1.84
  -7  -7  -1    6.72    1.98
  -7  -6  -1    2.36    1.22
  -7  -6  -1    2.58    1.06
  -7  -6  -1    2.78    1.60
  -7  -5  -1    1.89    0.98
  -7  -5  -1    1.81    1.07
  -7  -5  -1    4.11    1.25
   7   5   1    3.55    1.68
  -7  -4  -1  189.73    8.63
  -7  -4  -1  197.78    8.59
  -7  -4  -1  207.09   10.74
   7   4   1  217.58   10.40
  -7  -3  -1   32.38    5.63
  -7  -3  -1   38.55    2.20
  -7  -3  -1   33.52    6.28
   7   3   1   38.68    7.07
  -7  -2  -1  165.33   13.61
  -7  -2  -1  169.97    6.15
  -7  -2  -1  151.29    8.22
   7   2   1  165.00   15.54
  -7  -1  -1  145.82   13.34
  -7  -1  -1  125.58    6.11
  -7  -1  -1  120.56    9.27
   7   1   1  129.37    8.64
  -7   0  -1    1.82    0.83
  -7   0  -1    0.00    0.69
   7   0   1    1.19    0.70
  -7   1  -1  135.63    7.01
   7  -1   1  129.34    6.21
   7  -1   1  125.50    6.93
  -7   2  -1  184.25    7.18
   7  -2   1  182.93    6.55
   7  -2   1  184.86   11.50
  -7   3  -1   38.43    2.75
   7  -3   1   34.55    2.23
  -7   4  -1  223.33   10.17
   7  -4   1  200.13    8.73
  -7   5  -1    1.67    0.93
   7  -5   1    2.40    1.15
   7  -5   1    2.83    1.05
  -7   6  -1    1.73    1.20
   7  -6   1    2.72    1.07
   7  -6   1    2.61    0.91
   7  -7   1    3.32    0.96
   7  -7   1    7.07    1.83
  -7   8  -1  100.51    5.19
   7  -8   1  106.09    4.62
   7  -8   1   99.05    8.43
  -7   9  -1  114.31    8.07
   7  -9   1  131.98    8.79
   7  -9   1  134.49    9.33
  -7  -9  -2  138.38    9.44
  -7  -9  -2  136.17    8.80
  -7  -8  -2   40.72    3.15
  -7  -8  -2   33.78    6.22
  -7  -8  -2   37.86    9.67
  -7  -7  -2    1.52    0.76
  -7  -7  -2   -0.19    1.09
  -7  -7  -2    2.77    1.35
  -7  -6  -2   87.09   12.31
  -7  -6  -2   94.17    5.42
  -7  -6  -2   76.74   13.35
  -7  -5  -2   78.29    6.07
  -7  -5  -2   94.47    5.99
  -7  -5  -2   84.96   16.39
  -7  -4  -2   42.11    8.15
  -7  -4  -2   36.00    6.37
  -7  -4  -2   44.83   10.29
   7   4   2   40.53    2.99
  -7  -3  -2  920.52   35.87
  -7  -3  -2  984.48   37.84
  -7  -3  -2  983.19   38.83
   7   3   2 1016.59   40.02
  -7  -2  -2   43.59    5.40
  -7  -2  -2   46.01    2.56
  -7  -2  -2   49.53   10.68
   7   2   2   48.50    7.03
  -7  -1  -2  302.21   17.90
  -7  -1  -2  300.04    9.84
  -7  -1  -2  264.64    9.96
   7   1   2  293.80   10.86
  -7   0  -2  127.37    8.62
  -7   0  -2  118.46    7.17
  -7   0  -2  112.47    6.45
   7   0   2  116.23    8.04
  -7   1  -2  284.30    9.54
   7  -1   2  277.30    9.07
   7  -1   2  294.14   20.48
  -7   2  -2   46.62    4.92
   7  -2   2   46.07    2.45
  -7   3  -2  965.95   37.42
   7  -3   2  961.53   37.02
  -7   4  -2   39.89    2.78
   7  -4   2   42.25    2.39
   7  -4   2   44.97    9.00
  -7   5  -2   85.27    5.83
   7  -5   2   87.39    5.54
   7  -5   2   99.65   13.15
  -7   6  -2   80.53    5.02
   7  -6   2   90.62    5.22
   7  -6   2   80.39    7.58
   7  -7   2    2.42    1.42
   7  -7   2    0.05    0.83
  -7   8  -2   55.08    4.13
   7  -8   2   47.37    2.96
  -7   9  -2  144.96    9.85
   7  -9   2  144.69    9.48
   7  -9   2  160.26   12.26
  -7  -8  -3   22.57    3.83
  -7  -8  -3   16.92    3.31
  -7  -8  -3   16.14    3.39
  -7  -7  -3  620.71   44.63
  -7  -7  -3  630.95   45.56
  -7  -6  -3   -0.24    0.66
  -7  -6  -3    0.57    1.08
  -7  -6  -3    1.87    1.30
  -7  -5  -3  745.88   39.47
  -7  -5  -3  827.11   43.30
  -7  -5  -3  794.22   42.28
  -7  -4  -3   16.60    2.67
  -7  -4  -3   16.98    2.58
  -7  -4  -3   18.24    3.78
  -7  -3  -3   67.41   12.33
  -7  -3  -3   64.79    3.66
  -7  -3  -3   59.92   13.16
   7   3   3   58.97    3.63
  -7  -2  -3   27.32    6.28
  -7  -2  -3   25.10    4.04
  -7  -2  -3   22.07    5.74
   7   2   3   25.81    4.50
  -7  -1  -3  242.10   14.21
  -7  -1  -3  254.09    8.98
  -7  -1  -3  246.01    9.45
   7   1   3  250.78   15.18
  -7   0  -3    0.69    0.45
  -7   0  -3    1.61    1.11
  -7   0  -3    0.33    0.57
   7   0   3   -0.49    1.11
  -7   1  -3  245.51    8.51
   7  -1   3  244.73    8.37
  -7   2  -3   25.48    5.48
   7  -2   3   26.75    6.93
   7  -2   3   34.47    7.26
  -7   3  -3   81.10    4.07
   7  -3   3   69.37    3.11
   7  -3   3   75.08   11.90
  -7   4  -3   20.30    2.25
   7  -4   3   20.88    1.99
   7  -4   3   24.51    4.02
  -7   5  -3  834.81   44.04
   7  -5   3  749.27   39.29
   7  -5   3  862.28   45.73
  -7   6  -3    1.36    1.38
   7  -6   3    1.00    1.13
   7  -6   3   -0.01    0.59
  -7   7  -3  596.83   42.86
   7  -7   3  628.85   44.91
   7  -7   3  708.09   83.28
  -7   8  -3   26.50    2.91
   7  -8   3   17.46    1.93
   7  -8   3   19.29    3.06
   7  -9   3  249.17   15.45
  -7  -8  -4   37.49    4.68
  -7  -7  -4    0.16    1.43
  -7  -7  -4    0.26    1.04
  -7  -6  -4  173.27   16.49
  -7  -6  -4  209.99   15.71
  -7  -5  -4   30.53    3.90
  -7  -5  -4   30.73    2.84
  -7  -5  -4   31.53    7.33
  -7  -4  -4   29.76    2.97
  -7  -4  -4   23.99    5.16
  -7  -4  -4   29.42    5.98
  -7  -3  -4   23.40    4.29
  -7  -3  -4   21.70    1.89
  -7  -3  -4   27.81    4.62
  -7  -2  -4   54.46   10.11
  -7  -2  -4   56.51    3.07
  -7  -2  -4   49.82   10.74
   7   2   4   59.72    3.77
  -7  -1  -4  425.27   17.87
  -7  -1  -4  414.31   17.14
  -7  -1  -4  407.10   18.14
   7   1   4  425.24   18.21
  -7   0  -4  390.80   16.70
  -7   0  -4  353.06   14.71
  -7   0  -4  353.18   15.44
  -7   1  -4  381.65   15.80
  -7   1  -4  382.65   16.31
   7  -1   4  429.61   18.84
  -7   2  -4   57.63    3.18
   7  -2   4   67.64   11.52
  -7   3  -4   29.06    2.72
   7  -3   4   25.02    2.16
   7  -3   4   25.73    4.74
  -7   4  -4   39.34    3.16
   7  -4   4   32.62    2.43
   7  -4   4   38.70    6.82
  -7   5  -4   33.85    3.23
   7  -5   4   33.23    2.82
   7  -5   4   42.68    7.00
  -7   6  -4  209.98   16.05
   7  -6   4  195.92   14.71
   7  -6   4  205.46   17.84
  -7   7  -4    2.00    1.59
   7  -7   4    1.57    1.04
   7  -7   4    3.55    1.39
   7  -8   4   39.40    3.08
   7  -8   4   41.24   10.07
  -7  -8  -5   19.94    2.21
  -7  -7  -5   12.64    2.30
  -7  -7  -5    7.93    1.61
  -7  -6  -5    1.02    0.83
  -7  -6  -5    1.37    1.16
  -7  -6  -5    0.88    0.81
  -7  -5  -5   23.08    8.10
  -7  -5  -5   47.00    3.52
  -7  -4  -5   32.41    3.97
  -7  -4  -5   32.35    2.82
  -7  -4  -5   29.13    5.23
  -7  -3  -5   66.35   10.84
  -7  -3  -5   74.14    5.17
  -7  -3  -5   63.58   12.63
  -7  -2  -5    8.15    1.50
  -7  -2  -5   11.27    1.62
  -7  -2  -5   11.37    2.56
  -7  -1  -5  296.69   21.18
  -7  -1  -5  309.80   16.81
  -7  -1  -5  302.68   17.29
  -7   0  -5    1.10    0.61
  -7   0  -5    0.94    0.59
  -7   0  -5    0.14    0.81
   7   0   5    0.28    1.11
  -7   1  -5  296.36   14.55
  -7   1  -5  295.49   15.02
   7  -1   5  330.04   19.29
  -7   2  -5    9.81    1.75
   7  -2   5   11.50    1.77
   7  -2   5   10.38    1.59
  -7   3  -5   66.57    8.98
   7  -3   5   71.69    5.05
   7  -3   5   79.55   10.60
  -7   4  -5   39.50   12.16
   7  -4   5   31.36    2.38
   7  -4   5   39.27   14.04
  -7   5  -5   44.07    3.48
   7  -5   5   54.35    3.89
   7  -5   5   49.97    9.96
   7  -6   5    1.31    1.50
   7  -6   5    2.77    1.29
   7  -7   5    8.25    1.59
   7  -7   5   14.98    2.69
   7  -8   5   24.12    2.45
   7  -8   5   33.83    6.31
  -7  -6  -6   68.34   14.10
  -7  -6  -6   95.44    6.63
  -7  -5  -6  496.90   15.03
  -7  -5  -6  502.02   14.30
  -7  -5  -6  474.13   14.42
  -7  -4  -6   12.04    1.62
  -7  -4  -6   17.00    2.35
  -7  -4  -6   13.33    3.85
  -7  -3  -6    4.13    1.51
  -7  -3  -6    3.72    1.63
  -7  -3  -6    2.94    1.35
  -7  -2  -6   19.24    2.72
  -7  -2  -6   17.78    2.04
  -7  -2  -6   17.57    4.56
  -7  -1  -6   33.37    5.26
  -7  -1  -6   27.26    2.65
  -7  -1  -6   30.21    6.05
  -7   0  -6   69.61    6.67
  -7   0  -6   62.51    6.64
  -7   0  -6   60.51    5.46
  -7   1  -6   34.64    3.22
  -7   1  -6   31.23    4.54
  -7   1  -6   23.05    3.85
   7  -1   6   31.48    3.49
  -7   2  -6   17.19    2.06
   7  -2   6   18.62    2.14
   7  -2   6   18.86    2.36
  -7   3  -6    3.41    1.64
   7  -3   6    0.77    0.59
   7  -3   6    3.03    1.95
  -7   4  -6   15.70    2.28
   7  -4   6   21.63    2.48
   7  -4   6   18.03    3.10
  -7   5  -6  488.52   14.33
   7  -5   6  494.55   14.19
   7  -5   6  528.69   26.00
  -7   6  -6   88.13    6.42
   7  -6   6   90.57    6.36
   7  -6   6  109.95   10.05
   7  -7   6  196.17   12.58
   7  -7   6  217.80   22.65
  -7  -6  -7    1.78    1.02
  -7  -5  -7   67.07    7.45
  -7  -5  -7   59.21   13.38
  -7  -4  -7   94.39    8.85
  -7  -4  -7  102.41    6.87
  -7  -3  -7   25.14    4.13
  -7  -3  -7   28.99    2.48
  -7  -3  -7   21.72    5.69
  -7  -2  -7  107.35   13.85
  -7  -2  -7  115.21    9.33
  -7  -2  -7  122.51   12.93
  -7  -1  -7   14.08    2.43
  -7  -1  -7   13.00    1.95
  -7  -1  -7   14.41    3.97
  -7   0  -7   -0.10    1.02
  -7   0  -7   -0.39    1.05
  -7   0  -7   -0.14    1.04
  -7   1  -7   11.49    2.01
  -7   1  -7   10.06    1.79
  -7   1  -7   14.01    3.11
  -7   2  -7  122.43    9.94
   7  -2   7  119.72    9.56
  -7   3  -7   24.53    3.96
   7  -3   7   28.90    5.70
  -7   4  -7  113.04    7.83
   7  -4   7  114.27    7.60
   7  -4   7   97.52    7.13
   7  -5   7   90.27    6.76
   7  -5   7   80.71   11.75
   7  -6   7    1.70    1.49
   7  -6   7    0.68    1.49
  -7  -4  -8    0.99    0.75
  -7  -3  -8  305.52   21.20
  -7  -3  -8  304.39   20.28
  -7  -2  -8    0.79    0.67
  -7  -2  -8    0.94    1.58
  -7  -1  -8  458.05   25.63
  -7  -1  -8  508.07   27.83
  -7  -1  -8  517.03   28.47
  -7   0  -8    0.18    0.95
  -7   0  -8    2.33    1.31
  -7   1  -8  464.35   26.01
  -7   1  -8  448.15   24.67
  -7   1  -8  453.61   24.86
  -7   2  -8   -0.75    1.23
  -7   2  -8    2.31    1.44
   7  -3   8  299.48   18.35
   7  -4   8    3.30    1.77
  -7  -1  -9   43.39    9.54
  -7  -1  -9   38.40    7.91
  -7   0  -9   -0.03    1.36
  -7   0  -9   -0.26    1.10
  -7   1  -9   33.43    7.62
   8   1  -7  164.51   11.18
   8   0  -7    1.27    0.96
   8  -1  -7  152.47   10.47
   8   3  -6  100.58   11.22
   8   2  -6  125.69   17.04
   8   1  -6    8.94    1.61
   8   0  -6  168.89   10.80
   8  -2  -6  107.59   15.92
   8  -3  -6   94.72   13.96
   8   4  -5  191.34   12.52
   8   3  -5   13.41    2.26
   8   2  -5  218.20   17.08
   8   1  -5   47.80    7.20
   8   0  -5   -0.70    1.30
   8  -1  -5   47.93    9.85
   8  -2  -5  225.96   13.65
   8  -3  -5    7.31    1.54
   8  -5  -5   45.17    1.95
   8  -5  -5   33.24    7.88
   8   6  -4   24.15    2.60
   8   5  -4   12.34    2.53
   8   4  -4    1.41    1.06
   8   3  -4  385.96   12.46
   8   2  -4   45.60    7.04
   8   1  -4   87.63   17.24
   8   0  -4  128.93   15.28
   8  -1  -4   86.61   12.72
  -8   2   4   45.55    3.36
  -8   2   4   35.61    2.58
   8  -2  -4   40.70    7.16
   8  -3  -4  399.94   13.03
   8  -4  -4    1.03    0.84
   8  -4  -4    0.69    1.00
   8  -5  -4    9.92    1.29
   8  -6  -4   26.37    1.83
   8  -6  -4   21.30    6.33
  -8  -6   3    0.96    0.94
   8   6  -3    0.98    1.34
  -8  -5   3   14.93    2.30
   8   5  -3   13.80    2.56
  -8  -4   3   69.66    3.20
   8   4  -3   55.05    9.03
  -8  -3   3    1.18    1.04
   8   3  -3    1.32    1.15
  -8  -2   3  151.23    6.44
   8   2  -3  155.00   10.70
  -8  -1   3   34.37    4.53
   8   1  -3   40.84    6.62
  -8   0   3    0.87    0.59
  -8   0   3    5.73    1.63
   8   0  -3    1.20    0.63
  -8   1   3   18.17    3.32
   8  -1  -3   34.96    7.09
  -8   2   3  158.33    7.03
   8  -2  -3  144.54   12.30
   8  -3  -3    0.62    0.55
   8  -3  -3    2.33    1.31
   8  -4  -3   56.46   10.01
   8  -5  -3   13.68    2.97
   8  -5  -3   13.78    2.87
   8  -6  -3    3.05    1.05
  -8  -7   2   46.58    2.94
  -8  -6   2  160.34    9.70
  -8  -6   2  153.79   14.40
   8   6  -2  132.73    9.19
  -8  -5   2   51.96    2.65
  -8  -5   2   42.18   11.26
   8   5  -2   50.50    3.46
  -8  -4   2    9.55    1.38
   8   4  -2   11.12    1.45
  -8  -3   2  165.89    7.29
  -8  -3   2  170.51    7.20
   8   3  -2  173.57    8.89
  -8  -2   2    4.50    1.57
  -8  -2   2    0.24    0.39
   8   2  -2    1.40    0.66
  -8  -1   2  109.03    5.72
  -8  -1   2  109.66    3.14
   8   1  -2  144.15   14.72
  -8   0   2  126.95   11.72
  -8   0   2  137.28    9.17
   8   0  -2  108.25   12.18
  -8   1   2  125.05   11.71
  -8   1   2  105.05    5.42
   8  -1  -2   97.99   18.25
  -8   2   2    2.34    1.66
   8  -2  -2   -0.10    1.32
  -8   3   2  202.73    9.33
   8  -3  -2  179.56    7.69
   8  -3  -2  168.43   20.92
  -8   4   2   12.75    1.81
   8  -4  -2   10.37    3.10
   8  -4  -2   11.97    2.22
   8  -5  -2   47.19    2.15
   8  -5  -2   47.38    9.74
   8  -6  -2  139.74    8.72
   8  -6  -2  124.42   13.49
   8  -7  -2   47.65    2.55
   8  -7  -2   37.90   12.08
  -8  -6   1    8.31    2.31
  -8  -5   1  273.88    8.64
  -8  -5   1  264.95    7.63
  -8  -5   1  271.44   10.55
   8   5  -1  262.06    9.57
  -8  -4   1   90.69    9.45
  -8  -4   1  104.71    7.98
  -8  -4   1   86.49   19.29
   8   4  -1   92.56   12.01
  -8  -3   1    1.83    0.64
  -8  -3   1    0.96    0.86
   8   3  -1    0.00    1.23
  -8  -2   1  124.56    8.46
  -8  -2   1  125.90    8.38
   8   2  -1  119.90    8.98
  -8  -1   1  281.34   18.04
  -8  -1   1  252.05   16.00
   8   1  -1  292.69   20.66
  -8   0   1    0.43    0.57
  -8   0   1    0.92    0.93
   8   0  -1    1.88    0.81
  -8   1   1  294.18   26.37
   8  -1  -1  296.45   30.80
  -8   2   1  114.78    7.90
   8  -2  -1  133.22    8.85
   8  -2  -1  125.37   11.36
  -8   3   1    0.52    0.82
   8  -3  -1   -0.27    0.64
   8  -3  -1    0.04    0.47
   8  -4  -1   93.58    8.19
   8  -4  -1   86.88   16.62
  -8   5   1  262.85    8.82
   8  -5  -1  247.21    7.45
   8  -5  -1  253.81   14.02
  -8   6   1   12.33    2.01
   8  -6  -1   10.24    1.27
   8  -6  -1   12.09    2.55
  -8   7   1  165.15   10.93
   8  -7  -1  139.93    8.85
   8  -7  -1  165.01   15.20
  -8  -7   0    1.36    1.61
  -8  -6   0  676.89   10.32
  -8  -6   0  661.48   36.29
  -8  -5   0    0.46    0.95
  -8  -5   0    0.75    0.96
   8   5   0   -0.52    1.19
  -8  -4   0   55.15    5.95
  -8  -4   0   67.30   15.02
   8   4   0   68.45    6.40
  -8  -3   0   -0.44    0.73
  -8  -3   0   -0.76    0.81
  -8  -3   0    1.11    0.81
   8   3   0   -0.38    1.03
  -8  -2   0    2.79    0.65
  -8  -2   0    5.66    1.32
   8   2   0    4.55    1.10
  -8  -1   0   -0.39    0.69
  -8  -1   0   -0.09    0.73
   8   1   0   -0.38    1.15
  -8   0   0 1100.92   57.32
  -8   0   0 1011.76   52.50
   8   0   0 1074.42   56.94
  -8   1   0    0.76    0.50
  -8   1   0    1.22    0.83
   8  -1   0   -0.19    1.25
  -8   2   0    4.53    1.35
   8  -2   0    3.58    0.84
   8  -2   0    7.21    1.26
  -8   3   0   -0.72    0.86
   8  -3   0    0.18    0.70
   8  -3   0   -0.56    1.21
  -8   4   0   59.48    7.56
   8  -4   0   65.18    5.35
   8  -4   0   65.17   11.92
   8  -5   0   -1.07    0.71
   8  -5   0    1.37    1.14
  -8   6   0  764.37   12.15
   8  -6   0  598.86   31.79
   8  -6   0  658.99   35.90
   8  -7   0    1.93    1.14
   8  -7   0   -0.26    1.23
  -8  -6  -1   12.80    2.08
  -8  -6  -1    9.89    2.66
  -8  -6  -1    9.27    2.80
  -8  -5  -1  226.85    9.39
  -8  -5  -1  272.48    8.29
  -8  -5  -1  252.44    9.73
   8   5   1  253.52    9.12
  -8  -4  -1   91.59   12.02
  -8  -4  -1   95.95    7.56
  -8  -4  -1   91.33   12.62
   8   4   1  106.40    8.98
  -8  -3  -1    0.00    1.05
  -8  -3  -1    0.66    0.59
  -8  -3  -1   -0.29    1.35
   8   3   1    0.32    0.87
  -8  -2  -1  135.72   16.58
  -8  -2  -1  128.28    8.71
  -8  -2  -1  108.24   12.82
   8   2   1  128.14   13.98
  -8  -1  -1  260.65   21.63
  -8  -1  -1  246.78   16.37
   8   1   1  260.88   19.90
  -8   0  -1    0.50    0.61
  -8   0  -1    0.91    0.84
   8   0   1    3.87    1.27
  -8   1  -1  297.26   21.64
  -8   1  -1  274.26   17.71
   8  -1   1  271.44   20.57
  -8   2  -1  120.96    8.42
   8  -2   1  129.33    8.79
   8  -2   1  122.31   13.77
   8  -3   1   -0.31    0.71
   8  -3   1    0.93    0.88
  -8   4  -1   92.46    7.57
   8  -4   1   97.03    7.83
   8  -4   1   96.15   17.38
  -8   5  -1  242.15    8.16
   8  -5   1  242.86    7.68
   8  -5   1  268.71   14.61
  -8   6  -1   13.12    2.69
   8  -6   1    9.99    2.65
   8  -6   1   11.47    3.16
  -8   7  -1  184.00   12.27
   8  -7   1  161.71   11.73
  -8  -7  -2   43.96    2.69
  -8  -6  -2  130.70    8.48
  -8  -5  -2   31.28    8.45
  -8  -5  -2   52.68    2.92
  -8  -4  -2   10.24    1.71
  -8  -4  -2   12.32    2.16
  -8  -4  -2   10.72    2.60
   8   4   2    9.17    1.76
  -8  -3  -2  165.90   10.15
  -8  -3  -2  186.58    8.47
  -8  -3  -2  174.50    9.18
   8   3   2  189.85    9.64
  -8  -2  -2    1.69    1.18
  -8  -2  -2   -0.51    1.03
  -8  -2  -2    1.49    0.97
   8   2   2    0.74    0.67
  -8  -1  -2  124.27   11.68
  -8  -1  -2  115.23    8.06
  -8  -1  -2  109.87    5.30
   8   1   2  105.83    9.79
  -8   0  -2  120.12   10.38
  -8   0  -2  117.60    8.23
   8   0   2  115.22   15.17
  -8   1  -2  117.77   10.11
  -8   1  -2  107.60    5.92
   8  -1   2  114.15   10.99
  -8   2  -2    1.52    1.14
   8  -2   2    0.34    0.85
   8  -2   2    1.60    1.15
  -8   3  -2  175.53    8.33
   8  -3   2  173.04    7.90
   8  -3   2  197.05   18.08
  -8   4  -2   16.08    2.26
   8  -4   2   10.75    1.49
   8  -4   2   13.96    2.16
  -8   5  -2   50.56    3.14
   8  -5   2   54.76    2.94
   8  -5   2   55.31   12.99
  -8   6  -2  127.77    8.67
   8  -6   2  125.39    8.15
   8  -6   2  128.99    9.79
   8  -7   2   38.28    2.52
   8  -7   2   49.04    9.47
  -8  -6  -3   -1.27    1.44
  -8  -6  -3    0.27    0.64
  -8  -5  -3   14.98    3.47
  -8  -5  -3   15.76    1.76
  -8  -4  -3   33.41    9.73
  -8  -4  -3   56.25    3.02
  -8  -4  -3   43.31   12.62
  -8  -3  -3    0.90    0.97
  -8  -3  -3    0.59    1.13
  -8  -3  -3    2.83    1.62
   8   3   3    0.75    1.11
  -8  -2  -3  138.44   13.07
  -8  -2  -3  138.68    6.93
  -8  -2  -3  129.62   13.26
   8   2   3  153.15    8.29
  -8  -1  -3   37.17   12.29
  -8  -1  -3   28.70    5.93
  -8  -1  -3   31.50    7.49
   8   1   3   35.71    4.56
  -8   0  -3    1.97    1.11
  -8   0  -3    1.14    0.96
   8   0   3    0.72    1.00
  -8   1  -3   34.24    5.89
  -8   1  -3   38.14   11.71
   8  -1   3   38.33   13.63
  -8   2  -3  151.02    7.60
   8  -2   3  144.98    7.00
   8  -2   3  137.78    9.60
  -8   3  -3    4.00    2.01
   8  -3   3    2.24    0.95
   8  -3   3    2.03    1.32
  -8   4  -3   64.11    3.76
   8  -4   3   68.79   12.89
  -8   5  -3   17.62    2.67
   8  -5   3   15.12    2.96
   8  -5   3   16.79    3.00
  -8   6  -3    1.79    1.42
   8  -6   3    0.40    0.96
   8  -6   3    2.34    1.12
  -8  -6  -4   19.69    4.08
  -8  -5  -4   10.28    1.94
  -8  -5  -4    9.18    1.53
  -8  -4  -4    1.01    0.56
  -8  -3  -4  415.79   13.15
  -8  -3  -4  374.44   16.38
  -8  -2  -4   37.66    5.38
  -8  -2  -4   31.81    7.94
   8   2   4   43.55    3.93
  -8  -1  -4   91.15    9.27
  -8  -1  -4   69.47   16.28
   8   1   4   92.01   10.22
  -8   0  -4  113.26    9.34
  -8   0  -4  114.45    9.44
   8   0   4  142.55   11.62
  -8   1  -4   87.73   12.00
   8  -1   4   86.24   12.15
  -8   2  -4   39.28    3.69
   8  -2   4   37.14    2.86
   8  -2   4   49.37    9.74
  -8   3  -4  462.25   14.11
   8  -3   4  404.46   11.82
   8  -3   4  390.65   17.14
  -8   4  -4    0.65    1.07
   8  -4   4    0.62    1.03
   8  -4   4    2.52    1.07
  -8   5  -4    7.54    2.54
   8  -5   4    7.59    1.60
   8  -5   4   14.79    2.77
   8  -6   4   25.74    2.35
  -8  -5  -5   30.81    5.02
  -8  -5  -5   41.82    3.14
  -8  -4  -5  192.41   21.01
  -8  -4  -5  206.23   13.60
  -8  -3  -5   10.80    2.21
  -8  -3  -5    7.86    1.79
  -8  -3  -5   10.58    2.30
  -8  -2  -5  244.32   14.57
  -8  -2  -5  255.74   14.77
  -8  -2  -5  231.03   13.94
  -8  -1  -5   46.56    7.48
  -8  -1  -5   49.48    3.01
  -8   0  -5    1.40    1.20
  -8   0  -5    2.68    1.66
  -8   0  -5    0.75    0.90
   8   0   5    0.74    1.28
  -8   1  -5   46.24    8.73
  -8   1  -5   50.62    3.46
   8  -1   5   54.59    3.92
  -8   2  -5  233.33   13.60
   8  -2   5  240.76   13.84
   8  -2   5  265.27   16.69
  -8   3  -5   10.57    1.93
   8  -3   5   10.92    1.69
  -8   4  -5  210.11   13.40
   8  -4   5  204.80   12.87
   8  -4   5  218.46   14.39
   8  -5   5   44.37    3.17
  -8  -3  -6  113.53   16.84
  -8  -3  -6   98.08   11.63
  -8  -2  -6  101.73   15.97
  -8  -2  -6  112.26   11.44
  -8  -2  -6   91.42   20.09
  -8  -1  -6    5.59    1.13
  -8  -1  -6    7.74    1.62
  -8   0  -6  188.42   17.73
  -8   0  -6  176.71   10.82
  -8   0  -6  151.96   16.10
  -8   1  -6    9.22    2.02
  -8   1  -6    8.75    1.95
   8  -1   6   11.73    2.39
  -8   2  -6  124.30    8.57
   8  -2   6  138.86   10.05
   8  -3   6  100.88    7.11
   8  -3   6  115.93    8.77
  -8  -1  -7  134.06   21.60
  -8   0  -7   -0.58    1.45
  -8   0  -7   -0.37    1.33
  -8   1  -7  180.48   12.32
  -8   1  -7  160.70   10.71
   9   0  -3   -0.53    1.06
  -9  -3   2  270.81   16.01
  -9  -2   2   38.55    6.16
   9   2  -2   53.09    8.27
  -9  -1   2   50.32    8.35
   9   1  -2   66.39   11.42
  -9   0   2   80.87    9.08
  -9   1   2   61.60    9.02
   9  -1  -2   55.95   10.29
  -9   2   2   50.58    9.08
  -9  -3   1   88.54    6.36
   9   3  -1   96.65    7.46
  -9  -2   1  162.64   11.04
  -9  -1   1   24.55    4.94
   9   1  -1   27.61    6.36
  -9   0   1    0.20    0.87
   9   0  -1    1.29    0.99
  -9   1   1   26.00    4.91
   9  -1  -1   29.31    5.99
  -9   2   1  217.31   17.29
   9  -2  -1  156.80   13.81
   9  -3  -1   99.27   11.90
   9   2   0    1.11    1.28
   9   1   0   68.33   10.89
  -9   1   0   67.07   10.70
   9  -1   0   70.00   11.46
  -9   2   0   -0.25    1.47
  -9   2   0    2.22    1.28
   9  -2   0    1.56    1.20
  -9   3   0  115.98    7.76
   9  -3   0  139.45    8.88
   9  -3   0  114.22   22.21
   9   3   1   99.85   12.43
  -9  -1  -1   29.26    5.70
  -9  -1  -1   25.52    2.07
   9   1   1   29.92    5.99
   9   0   1    0.01    0.87
  -9   1  -1   28.90    7.54
  -9   1  -1   31.67    2.68
   9  -1   1   26.12    3.80
  -9   2  -1  209.19   14.89
  -9   2  -1  162.99   10.46
   9  -2   1  193.54   17.56
   9  -3   1  100.27    6.74
   9  -3   1  104.13   11.73
  -9  -2  -2   55.51    3.16
   9   2   2   53.43    4.11
  -9  -1  -2   56.30    7.37
   9   1   2   66.41   11.60
   9   0   2   96.47   16.86
   9  -1   2   63.29   10.72
  -9   2  -2   46.98    8.01
  -9   2  -2   51.75    3.13
   9  -2   2   52.72   10.56
  -9   3  -2  263.69   16.15
   9  -3   2  272.62   16.42
  -9  -2  -3   17.10    2.18
   9   2   3   19.84    3.19
  -9  -1  -3  344.96   20.54
   9   1   3  385.84   32.23
  -9   0  -3    1.94    1.14
  -9   1  -3  467.26   28.25
  -9   1  -3  361.37   21.53
   9  -1   3  370.47   24.74
  -9   2  -3   16.47    3.81
   0   0   0    0.00    0.00
;
_shelx_hkl_checksum              177
loop_
_space_group_symop_operation_xyz
'x, y, z'
'-x+1/2, -y+1/2, z+1/2'
'-x, y, -z+1/2'
'x+1/2, -y+1/2, -z'
'-x, -y, -z'
'x-1/2, y-1/2, -z-1/2'
'x, -y, z-1/2'
'-x-1/2, y-1/2, z'
loop_
_atom_site_label
_atom_site_type_symbol
_atom_site_fract_x
_atom_site_fract_y
_atom_site_fract_z
_atom_site_U_iso_or_equiv
_atom_site_adp_type
_atom_site_occupancy
_atom_site_site_symmetry_order
_atom_site_calc_flag
_atom_site_refinement_flags_posn
_atom_site_refinement_flags_adp
_atom_site_refinement_flags_occupancy
_atom_site_disorder_assembly
_atom_site_disorder_group
Cs1 Cs 0.01566(5) 0.33435(3) 0.93467(3) 0.0230(2) Uani 1 1 d . . . . .
Mn1 Mn 0.0000 0.14738(10) 1.2500 0.0169(3) Uani 1 2 d S T P . .
Mn2 Mn 0.0000 0.0000 1.0000 0.0153(3) Uani 1 2 d S . P . .
V1 V 0.22100(11) 0.41061(7) 1.25424(6) 0.0133(3) Uani 1 1 d . . . . .
F1 F -0.0986(4) 0.1473(2) 1.0776(2) 0.0215(6) Uani 1 1 d . . . . .
O1 O 0.3443(4) 0.4986(3) 1.1658(3) 0.0215(7) Uani 1 1 d . . . . .
O2 O 0.2948(5) 0.4114(3) 1.3965(3) 0.0247(8) Uani 1 1 d . . . . .
O3 O 0.2076(4) 0.2763(3) 1.2040(3) 0.0246(8) Uani 1 1 d . . . . .
O4 O 0.0000 0.4696(5) 1.2500 0.0249(13) Uani 1 2 d S T P . .
loop_
_atom_site_aniso_label
_atom_site_aniso_U_11
_atom_site_aniso_U_22
_atom_site_aniso_U_33
_atom_site_aniso_U_23
_atom_site_aniso_U_13
_atom_site_aniso_U_12
Cs1 0.0226(3) 0.0214(3) 0.0251(3) 0.00340(12) 0.00078(10) -0.00151(11)
Mn1 0.0190(6) 0.0159(5) 0.0159(6) 0.000 -0.0015(3) 0.000
Mn2 0.0152(5) 0.0142(6) 0.0163(6) -0.0004(4) -0.0001(3) 0.0007(3)
V1 0.0125(4) 0.0124(5) 0.0149(5) 0.0000(2) 0.0008(2) -0.0011(3)
F1 0.0213(16) 0.0199(13) 0.0233(15) -0.0006(10) -0.0015(11) 0.0041(12)
O1 0.0165(16) 0.0235(16) 0.0243(16) 0.0029(13) 0.0019(13) -0.0026(13)
O2 0.0273(18) 0.0260(18) 0.0208(17) 0.0016(14) -0.0017(15) -0.0069(13)
O3 0.0223(17) 0.0207(17) 0.0308(19) -0.0049(15) 0.0051(15) -0.0032(13)
O4 0.016(2) 0.020(3) 0.039(4) 0.000 0.0013(18) 0.000
loop_
_atom_type_symbol
_atom_type_description
_atom_type_scat_dispersion_real
_atom_type_scat_dispersion_imag
_atom_type_scat_source
O O 0.0106 0.0060 'International Tables Vol C Tables 4.2.6.8 and 6.1.1.4'
F F 0.0171 0.0103 'International Tables Vol C Tables 4.2.6.8 and 6.1.1.4'
V V 0.3005 0.5294 'International Tables Vol C Tables 4.2.6.8 and 6.1.1.4'
Mn Mn 0.3368 0.7283 'International Tables Vol C Tables 4.2.6.8 and 6.1.1.4'
Cs Cs -0.3680 2.1192 'International Tables Vol C Tables 4.2.6.8 and 6.1.1.4'
loop_
_geom_angle_atom_site_label_1
_geom_angle_atom_site_label_2
_geom_angle_atom_site_label_3
_geom_angle
_geom_angle_site_symmetry_1
_geom_angle_site_symmetry_3
F1 Cs1 F1 112.66(8) . 4_557
F1 Cs1 O3 74.03(9) . 4_457
F1 Cs1 O3 139.53(8) 4_557 4_457
F1 Cs1 O4 159.31(7) . 5_567
F1 Cs1 O4 87.27(5) 4_557 5_567
O3 Cs1 O4 87.26(8) 4_457 5_567
F1 Cs1 O2 70.19(8) . 3_557
F1 Cs1 O2 138.72(8) 4_557 3_557
O3 Cs1 O2 81.71(9) 4_457 3_557
O4 Cs1 O2 98.89(7) 5_567 3_557
F1 Cs1 O2 61.42(8) . 2_554
F1 Cs1 O2 67.66(8) 4_557 2_554
O3 Cs1 O2 83.89(8) 4_457 2_554
O4 Cs1 O2 126.30(8) 5_567 2_554
O2 Cs1 O2 131.59(6) 3_557 2_554
F1 Cs1 O3 58.81(8) . .
F1 Cs1 O3 68.32(7) 4_557 .
O3 Cs1 O3 132.82(6) 4_457 .
O4 Cs1 O3 138.82(8) 5_567 .
O2 Cs1 O3 81.34(8) 3_557 .
O2 Cs1 O3 75.44(8) 2_554 .
F1 Cs1 O1 111.78(8) . 5_567
F1 Cs1 O1 135.33(7) 4_557 5_567
O3 Cs1 O1 59.59(8) 4_457 5_567
O4 Cs1 O1 49.20(5) 5_567 5_567
O2 Cs1 O1 56.90(8) 3_557 5_567
O2 Cs1 O1 142.26(8) 2_554 5_567
O3 Cs1 O1 135.94(7) . 5_567
F1 Cs1 O3 107.44(7) . 2_554
F1 Cs1 O3 53.64(7) 4_557 2_554
O3 Cs1 O3 85.95(9) 4_457 2_554
O4 Cs1 O3 79.33(7) 5_567 2_554
O2 Cs1 O3 167.62(8) 3_557 2_554
O2 Cs1 O3 47.31(8) 2_554 2_554
O3 Cs1 O3 108.16(2) . 2_554
O1 Cs1 O3 115.30(7) 5_567 2_554
F1 Cs1 O2 149.83(8) . 7_565
F1 Cs1 O2 50.50(7) 4_557 7_565
O3 Cs1 O2 135.86(8) 4_457 7_565
O4 Cs1 O2 48.73(7) 5_567 7_565
O2 Cs1 O2 105.30(8) 3_557 7_565
O2 Cs1 O2 116.90(3) 2_554 7_565
O3 Cs1 O2 91.13(7) . 7_565
O1 Cs1 O2 87.40(7) 5_567 7_565
O3 Cs1 O2 82.87(7) 2_554 7_565
F1 Cs1 V1 174.05(6) . 7_565
F1 Cs1 V1 61.71(5) 4_557 7_565
O3 Cs1 V1 111.38(7) 4_457 7_565
O4 Cs1 V1 26.63(3) 5_567 7_565
O2 Cs1 V1 112.44(6) 3_557 7_565
O2 Cs1 V1 115.87(6) 2_554 7_565
O3 Cs1 V1 115.79(6) . 7_565
O1 Cs1 V1 73.71(5) 5_567 7_565
O3 Cs1 V1 71.16(5) 2_554 7_565
O2 Cs1 V1 25.23(5) 7_565 7_565
F1 Cs1 V1 78.06(6) . .
F1 Cs1 V1 68.69(5) 4_557 .
O3 Cs1 V1 146.80(7) 4_457 .
O4 Cs1 V1 116.19(6) 5_567 .
O2 Cs1 V1 72.09(6) 3_557 .
O2 Cs1 V1 98.30(6) 2_554 .
O3 Cs1 V1 24.68(6) . .
O1 Cs1 V1 117.23(5) 5_567 .
O3 Cs1 V1 119.80(6) 2_554 .
O2 Cs1 V1 72.36(5) 7_565 .
V1 Cs1 V1 97.517(18) 7_565 .
F1 Mn1 F1 179.95(15) . 3_557
F1 Mn1 O3 87.67(12) . 3_557
F1 Mn1 O3 92.36(13) 3_557 3_557
F1 Mn1 O3 92.36(13) . .
F1 Mn1 O3 87.67(12) 3_557 .
O3 Mn1 O3 94.96(17) 3_557 .
F1 Mn1 O1 101.15(11) . 6_558
F1 Mn1 O1 78.81(11) 3_557 6_558
O3 Mn1 O1 93.54(12) 3_557 6_558
O3 Mn1 O1 164.31(12) . 6_558
F1 Mn1 O1 78.81(11) . 8_655
F1 Mn1 O1 101.15(11) 3_557 8_655
O3 Mn1 O1 164.31(12) 3_557 8_655
O3 Mn1 O1 93.54(11) . 8_655
O1 Mn1 O1 81.45(16) 6_558 8_655
F1 Mn1 Cs1 141.23(8) . 3_557
F1 Mn1 Cs1 38.82(8) 3_557 3_557
O3 Mn1 Cs1 55.11(9) 3_557 3_557
O3 Mn1 Cs1 81.67(9) . 3_557
O1 Mn1 Cs1 92.47(8) 6_558 3_557
O1 Mn1 Cs1 139.53(8) 8_655 3_557
F1 Mn1 Cs1 38.82(8) . .
F1 Mn1 Cs1 141.23(8) 3_557 .
O3 Mn1 Cs1 81.68(9) 3_557 .
O3 Mn1 Cs1 55.11(9) . .
O1 Mn1 Cs1 139.53(8) 6_558 .
O1 Mn1 Cs1 92.47(8) 8_655 .
Cs1 Mn1 Cs1 115.95(3) 3_557 .
F1 Mn1 Cs1 140.45(9) . 2
F1 Mn1 Cs1 39.55(8) 3_557 2
O3 Mn1 Cs1 117.65(9) 3_557 2
O3 Mn1 Cs1 57.78(9) . 2
O1 Mn1 Cs1 106.54(8) 6_558 2
O1 Mn1 Cs1 78.03(8) 8_655 2
Cs1 Mn1 Cs1 65.403(10) 3_557 2
Cs1 Mn1 Cs1 111.230(16) . 2
F1 Mn1 Cs1 39.55(8) . 4_457
F1 Mn1 Cs1 140.45(9) 3_557 4_457
O3 Mn1 Cs1 57.78(9) 3_557 4_457
O3 Mn1 Cs1 117.65(9) . 4_457
O1 Mn1 Cs1 78.03(8) 6_558 4_457
O1 Mn1 Cs1 106.54(8) 8_655 4_457
Cs1 Mn1 Cs1 111.231(16) 3_557 4_457
Cs1 Mn1 Cs1 65.403(10) . 4_457
Cs1 Mn1 Cs1 174.15(3) 2 4_457
F1 Mn1 Cs1 96.54(9) . 2_455
F1 Mn1 Cs1 83.46(9) 3_557 2_455
O3 Mn1 Cs1 40.67(8) 3_557 2_455
O3 Mn1 Cs1 133.84(9) . 2_455
O1 Mn1 Cs1 52.89(8) 6_558 2_455
O1 Mn1 Cs1 132.62(9) 8_655 2_455
Cs1 Mn1 Cs1 63.536(10) 3_557 2_455
Cs1 Mn1 Cs1 113.208(15) . 2_455
Cs1 Mn1 Cs1 122.652(16) 2 2_455
Cs1 Mn1 Cs1 57.010(16) 4_457 2_455
F1 Mn1 Cs1 83.46(9) . 4_557
F1 Mn1 Cs1 96.54(9) 3_557 4_557
O3 Mn1 Cs1 133.85(9) 3_557 4_557
O3 Mn1 Cs1 40.68(8) . 4_557
O1 Mn1 Cs1 132.62(9) 6_558 4_557
O1 Mn1 Cs1 52.89(8) 8_655 4_557
Cs1 Mn1 Cs1 113.207(15) 3_557 4_557
Cs1 Mn1 Cs1 63.536(10) . 4_557
Cs1 Mn1 Cs1 57.010(16) 2 4_557
Cs1 Mn1 Cs1 122.652(16) 4_457 4_557
Cs1 Mn1 Cs1 174.43(3) 2_455 4_557
F1 Mn2 F1 180.00(8) 5_557 .
F1 Mn2 O1 98.70(11) 5_557 8_655
F1 Mn2 O1 81.30(11) . 8_655
F1 Mn2 O1 81.30(11) 5_557 4_457
F1 Mn2 O1 98.70(11) . 4_457
O1 Mn2 O1 180.0 8_655 4_457
F1 Mn2 O2 94.42(12) 5_557 6_558
F1 Mn2 O2 85.58(12) . 6_558
O1 Mn2 O2 86.24(12) 8_655 6_558
O1 Mn2 O2 93.76(12) 4_457 6_558
F1 Mn2 O2 85.58(12) 5_557 2_554
F1 Mn2 O2 94.42(12) . 2_554
O1 Mn2 O2 93.76(12) 8_655 2_554
O1 Mn2 O2 86.24(12) 4_457 2_554
O2 Mn2 O2 180.0 6_558 2_554
F1 Mn2 Cs1 42.77(8) 5_557 5_557
F1 Mn2 Cs1 137.23(8) . 5_557
O1 Mn2 Cs1 81.67(8) 8_655 5_557
O1 Mn2 Cs1 98.33(8) 4_457 5_557
O2 Mn2 Cs1 54.37(9) 6_558 5_557
O2 Mn2 Cs1 125.63(9) 2_554 5_557
F1 Mn2 Cs1 137.23(8) 5_557 .
F1 Mn2 Cs1 42.77(8) . .
O1 Mn2 Cs1 98.33(8) 8_655 .
O1 Mn2 Cs1 81.67(8) 4_457 .
O2 Mn2 Cs1 125.63(9) 6_558 .
O2 Mn2 Cs1 54.37(9) 2_554 .
Cs1 Mn2 Cs1 180.0 5_557 .
F1 Mn2 Cs1 39.58(8) 5_557 8_655
F1 Mn2 Cs1 140.42(8) . 8_655
O1 Mn2 Cs1 70.98(8) 8_655 8_655
O1 Mn2 Cs1 109.02(8) 4_457 8_655
O2 Mn2 Cs1 119.10(9) 6_558 8_655
O2 Mn2 Cs1 60.90(9) 2_554 8_655
Cs1 Mn2 Cs1 66.608(9) 5_557 8_655
Cs1 Mn2 Cs1 113.391(9) . 8_655
F1 Mn2 Cs1 140.42(8) 5_557 4_457
F1 Mn2 Cs1 39.58(8) . 4_457
O1 Mn2 Cs1 109.02(8) 8_655 4_457
O1 Mn2 Cs1 70.98(8) 4_457 4_457
O2 Mn2 Cs1 60.90(9) 6_558 4_457
O2 Mn2 Cs1 119.10(9) 2_554 4_457
Cs1 Mn2 Cs1 113.392(9) 5_557 4_457
Cs1 Mn2 Cs1 66.609(9) . 4_457
Cs1 Mn2 Cs1 180.0 8_655 4_457
F1 Mn2 Cs1 96.81(9) 5_557 4_557
F1 Mn2 Cs1 83.19(9) . 4_557
O1 Mn2 Cs1 52.41(8) 8_655 4_557
O1 Mn2 Cs1 127.59(8) 4_457 4_557
O2 Mn2 Cs1 138.30(9) 6_558 4_557
O2 Mn2 Cs1 41.70(9) 2_554 4_557
Cs1 Mn2 Cs1 115.409(8) 5_557 4_557
Cs1 Mn2 Cs1 64.591(8) . 4_557
Cs1 Mn2 Cs1 57.601(15) 8_655 4_557
Cs1 Mn2 Cs1 122.399(15) 4_457 4_557
F1 Mn2 Cs1 83.19(9) 5_557 8
F1 Mn2 Cs1 96.81(9) . 8
O1 Mn2 Cs1 127.59(8) 8_655 8
O1 Mn2 Cs1 52.41(8) 4_457 8
O2 Mn2 Cs1 41.70(9) 6_558 8
O2 Mn2 Cs1 138.30(9) 2_554 8
Cs1 Mn2 Cs1 64.591(8) 5_557 8
Cs1 Mn2 Cs1 115.409(8) . 8
Cs1 Mn2 Cs1 122.399(15) 8_655 8
Cs1 Mn2 Cs1 57.601(15) 4_457 8
Cs1 Mn2 Cs1 180.0 4_557 8
O3 V1 O2 109.85(17) . .
O3 V1 O1 114.27(16) . .
O2 V1 O1 111.07(16) . .
O3 V1 O4 107.19(19) . .
O2 V1 O4 109.23(13) . .
O1 V1 O4 104.96(17) . .
O3 V1 Cs1 149.81(11) . 7_566
O2 V1 Cs1 69.21(12) . 7_566
O1 V1 Cs1 92.81(11) . 7_566
O4 V1 Cs1 49.92(12) . 7_566
O3 V1 Cs1 57.80(13) . .
O2 V1 Cs1 166.65(11) . .
O1 V1 Cs1 80.45(11) . .
O4 V1 Cs1 72.71(6) . .
Cs1 V1 Cs1 118.30(2) 7_566 .
O3 V1 Cs1 92.91(12) . 3_557
O2 V1 Cs1 48.19(12) . 3_557
O1 V1 Cs1 151.69(11) . 3_557
O4 V1 Cs1 72.24(6) . 3_557
Cs1 V1 Cs1 63.334(17) 7_566 3_557
Cs1 V1 Cs1 123.24(3) . 3_557
O3 V1 Cs1 61.63(12) . 2
O2 V1 Cs1 50.98(12) . 2
O1 V1 Cs1 116.72(11) . 2
O4 V1 Cs1 137.88(11) . 2
Cs1 V1 Cs1 119.00(2) 7_566 2
Cs1 V1 Cs1 118.46(2) . 2
Cs1 V1 Cs1 68.302(15) 3_557 2
O3 V1 Cs1 119.55(13) . 5_567
O2 V1 Cs1 128.96(12) . 5_567
O1 V1 Cs1 59.78(11) . 5_567
O4 V1 Cs1 45.53(11) . 5_567
Cs1 V1 Cs1 61.908(19) 7_566 5_567
Cs1 V1 Cs1 62.180(16) . 5_567
Cs1 V1 Cs1 114.51(2) 3_557 5_567
Cs1 V1 Cs1 176.48(2) 2 5_567
O3 V1 Cs1 38.85(11) . 4_557
O2 V1 Cs1 107.41(12) . 4_557
O1 V1 Cs1 80.57(11) . 4_557
O4 V1 Cs1 137.61(10) . 4_557
Cs1 V1 Cs1 171.04(3) 7_566 4_557
Cs1 V1 Cs1 66.801(15) . 4_557
Cs1 V1 Cs1 121.13(2) 3_557 4_557
Cs1 V1 Cs1 59.933(19) 2 4_557
Cs1 V1 Cs1 118.57(2) 5_567 4_557
Mn1 F1 Mn2 104.97(12) . .
Mn1 F1 Cs1 114.23(12) . .
Mn2 F1 Cs1 107.60(11) . .
Mn1 F1 Cs1 113.85(11) . 4_457
Mn2 F1 Cs1 113.61(11) . 4_457
Cs1 F1 Cs1 102.68(8) . 4_457
V1 O1 Mn2 141.77(18) . 4_557
V1 O1 Mn1 120.27(16) . 6_668
Mn2 O1 Mn1 93.57(11) 4_557 6_668
V1 O1 Cs1 95.61(13) . 5_567
Mn2 O1 Cs1 98.24(10) 4_557 5_567
Mn1 O1 Cs1 95.79(10) 6_668 5_567
V1 O2 Mn2 137.07(18) . 2
V1 O2 Cs1 108.32(15) . 3_557
Mn2 O2 Cs1 110.58(12) 2 3_557
V1 O2 Cs1 105.37(14) . 2
Mn2 O2 Cs1 92.34(11) 2 2
Cs1 O2 Cs1 89.76(8) 3_557 2
V1 O2 Cs1 85.56(13) . 7_566
Mn2 O2 Cs1 87.71(10) 2 7_566
Cs1 O2 Cs1 74.70(7) 3_557 7_566
Cs1 O2 Cs1 163.35(11) 2 7_566
V1 O3 Mn1 127.03(17) . .
V1 O3 Cs1 121.19(14) . 4_557
Mn1 O3 Cs1 111.05(12) . 4_557
V1 O3 Cs1 97.53(14) . .
Mn1 O3 Cs1 92.17(11) . .
Cs1 O3 Cs1 88.04(9) 4_557 .
V1 O3 Cs1 93.87(14) . 2
Mn1 O3 Cs1 90.03(11) . 2
Cs1 O3 Cs1 76.27(7) 4_557 2
Cs1 O3 Cs1 163.86(11) . 2
V1 O4 V1 135.0(3) 3_557 .
V1 O4 Cs1 109.76(10) 3_557 7_566
V1 O4 Cs1 103.45(10) . 7_566
V1 O4 Cs1 103.45(10) 3_557 5_567
V1 O4 Cs1 109.76(10) . 5_567
Cs1 O4 Cs1 83.58(13) 7_566 5_567
loop_
_geom_bond_atom_site_label_1
_geom_bond_atom_site_label_2
_geom_bond_distance
_geom_bond_site_symmetry_2
Cs1 F1 2.846(3) .
Cs1 F1 2.928(3) 4_557
Cs1 O3 3.082(3) 4_457
Cs1 O4 3.089(4) 5_567
Cs1 O2 3.139(3) 3_557
Cs1 O2 3.250(3) 2_554
Cs1 O3 3.399(4) .
Cs1 O1 3.537(3) 5_567
Cs1 O3 3.558(4) 2_554
Cs1 O2 3.682(4) 7_565
Cs1 V1 3.9262(9) 7_565
Cs1 V1 3.9821(10) .
Mn1 F1 2.058(3) .
Mn1 F1 2.058(3) 3_557
Mn1 O3 2.240(3) 3_557
Mn1 O3 2.240(3) .
Mn1 O1 2.306(3) 6_558
Mn1 O1 2.306(3) 8_655
Mn1 Cs1 4.1409(9) 3_557
Mn1 Cs1 4.2050(8) 2
Mn1 Cs1 4.2050(8) 4_457
Mn1 Cs1 4.4127(8) 2_455
Mn1 Cs1 4.4127(8) 4_557
Mn2 F1 2.072(3) 5_557
Mn2 F1 2.072(3) .
Mn2 O1 2.188(3) 8_655
Mn2 O1 2.188(3) 4_457
Mn2 O2 2.195(3) 6_558
Mn2 O2 2.195(3) 2_554
Mn2 Cs1 3.9955(8) 5_557
Mn2 Cs1 4.2103(7) 8_655
Mn2 Cs1 4.2103(7) 4_457
Mn2 Cs1 4.4178(8) 4_557
Mn2 Cs1 4.4178(8) 8
V1 O3 1.677(3) .
V1 O2 1.679(3) .
V1 O1 1.705(3) .
V1 O4 1.810(2) .
V1 Cs1 3.9263(9) 7_566
V1 Cs1 3.9983(10) 3_557
V1 Cs1 4.0341(9) 2
V1 Cs1 4.0737(9) 5_567
V1 Cs1 4.2025(10) 4_557
F1 Cs1 2.928(3) 4_457
O1 Mn2 2.188(3) 4_557
O1 Mn1 2.306(3) 6_668
O1 Cs1 3.537(3) 5_567
O2 Mn2 2.195(3) 2
O2 Cs1 3.139(3) 3_557
O2 Cs1 3.250(3) 2
O2 Cs1 3.682(4) 7_566
O3 Cs1 3.082(3) 4_557
O3 Cs1 3.558(4) 2
O4 V1 1.810(2) 3_557
O4 Cs1 3.089(4) 7_566
O4 Cs1 3.089(4) 5_567
