#------------------------------------------------------------------------------
#$Date: 2021-04-18 01:53:29 +0300 (Sun, 18 Apr 2021) $
#$Revision: 264279 $
#$URL: file:///home/coder/svn-repositories/cod/cif/1/56/18/1561876.cif $
#------------------------------------------------------------------------------
#
# This file is available in the Crystallography Open Database (COD),
# http://www.crystallography.net/
#
# All data on this site have been placed in the public domain by the
# contributors.
#
data_1561876
loop_
_publ_author_name
'Gou, Yi'
'Chen, MeiRong'
'Li, Shanhe'
'Deng, JunGang'
'Li, Jinlong'
'Fang, GuiHua'
'Yang, Feng'
'Huang, GuoJin'
_publ_section_title
;
 Dithiocarbazate-Copper Complexes for Bioimaging and Treatment of
 Pancreatic Cancer.
;
_journal_name_full               'Journal of medicinal chemistry'
_journal_paper_doi               10.1021/acs.jmedchem.0c01936
_journal_year                    2021
_chemical_formula_moiety         'C13 H11 Cl Cu N4 S2'
_chemical_formula_sum            'C13 H11 Cl Cu N4 S2'
_chemical_formula_weight         386.37
_space_group_crystal_system      triclinic
_space_group_IT_number           2
_space_group_name_Hall           '-P 1'
_space_group_name_H-M_alt        'P -1'
_atom_sites_solution_hydrogens   geom
_atom_sites_solution_primary     heavy
_atom_sites_solution_secondary   difmap
_audit_creation_date             2019-09-30
_audit_creation_method
;
Olex2 1.2
(compiled 2016.08.25 svn.r3337 for OlexSys, GUI svn.r5221)
;
_cell_angle_alpha                68.887(5)
_cell_angle_beta                 71.065(5)
_cell_angle_gamma                82.137(6)
_cell_formula_units_Z            2
_cell_length_a                   8.6462(14)
_cell_length_b                   9.7989(15)
_cell_length_c                   10.1011(18)
_cell_measurement_reflns_used    10444
_cell_measurement_temperature    296
_cell_measurement_theta_max      26.32
_cell_measurement_theta_min      3.04
_cell_volume                     755.0(2)
_computing_molecular_graphics    'Olex2 (Dolomanov et al., 2009)'
_computing_publication_material  'Olex2 (Dolomanov et al., 2009)'
_computing_structure_refinement  'XL (Sheldrick, 2008)'
_computing_structure_solution    'ShelXS (Sheldrick, 2008)'
_diffrn_ambient_temperature      296
_diffrn_measured_fraction_theta_full 0.998
_diffrn_measured_fraction_theta_max 0.998
_diffrn_measurement_device_type  'SuperNova, Single source at offset), Eos'
_diffrn_radiation_monochromator  graphite
_diffrn_radiation_type           MoK\a
_diffrn_radiation_wavelength     0.70932
_diffrn_reflns_av_R_equivalents  0.0609
_diffrn_reflns_av_unetI/netI     0.0610
_diffrn_reflns_limit_h_max       9
_diffrn_reflns_limit_h_min       -10
_diffrn_reflns_limit_k_max       12
_diffrn_reflns_limit_k_min       -12
_diffrn_reflns_limit_l_max       12
_diffrn_reflns_limit_l_min       -12
_diffrn_reflns_number            10444
_diffrn_reflns_theta_full        26.32
_diffrn_reflns_theta_max         26.32
_diffrn_reflns_theta_min         3.04
_diffrn_source                   'fine-focus sealed tube'
_exptl_absorpt_coefficient_mu    1.896
_exptl_absorpt_correction_T_max  0.7641
_exptl_absorpt_correction_T_min  0.6805
_exptl_absorpt_correction_type   multi-scan
_exptl_crystal_colour            'dark blue'
_exptl_crystal_colour_modifier   dark
_exptl_crystal_colour_primary    blue
_exptl_crystal_density_diffrn    1.700
_exptl_crystal_density_method    'not measured'
_exptl_crystal_description       block
_exptl_crystal_F_000             390
_exptl_crystal_size_max          0.22
_exptl_crystal_size_mid          0.18
_exptl_crystal_size_min          0.15
_refine_diff_density_max         0.917
_refine_diff_density_min         -2.272
_refine_diff_density_rms         0.164
_refine_ls_extinction_method     none
_refine_ls_goodness_of_fit_ref   1.116
_refine_ls_hydrogen_treatment    constr
_refine_ls_matrix_type           full
_refine_ls_number_parameters     191
_refine_ls_number_reflns         3079
_refine_ls_number_restraints     0
_refine_ls_restrained_S_all      1.116
_refine_ls_R_factor_all          0.1097
_refine_ls_R_factor_gt           0.0887
_refine_ls_shift/su_max          0.000
_refine_ls_shift/su_mean         0.000
_refine_ls_structure_factor_coef Fsqd
_refine_ls_weighting_details
'calc w=1/[\s^2^(Fo^2^)+(0.1593P)^2^+1.8714P] where P=(Fo^2^+2Fc^2^)/3'
_refine_ls_weighting_scheme      calc
_refine_ls_wR_factor_gt          0.2520
_refine_ls_wR_factor_ref         0.2749
_reflns_number_gt                2355
_reflns_number_total             3079
_reflns_threshold_expression     >2sigma(I)
_iucr_refine_instructions_details
;
TITL shelx in P-1 #2
REM reset to P-1 #2
CELL 0.70932 8.64617 9.79891 10.10106 68.8867 71.0654 82.1367
ZERR 2 0.00135 0.00153 0.00175 0.0049 0.005 0.0058
LATT 1
SFAC C H Cl Cu N S
UNIT 26 22 2 2 8 4
 
L.S. 4
PLAN  20
SIZE 0.15 0.18 0.22
TEMP 22.85
BOND
fmap 2
acta
SHEL 999 0.8
REM <olex2.extras>
REM <HklSrc "%.\\shelx.hkl">
REM </olex2.extras>
 
WGHT    0.159300    1.871400
FVAR       0.47939
CU1   4    0.693290    0.528783    0.007958    11.00000    0.03978    0.04336 =
         0.03427   -0.00590    0.00082   -0.00679
CL1   3    0.495750    0.384321    0.192615    11.00000    0.04693    0.05163 =
         0.04057    0.00163   -0.00034   -0.00877
S1    6    0.832957    0.347685   -0.073873    11.00000    0.05258    0.04125 =
         0.05102   -0.00743   -0.00254   -0.00458
N2    5    0.881411    0.647423   -0.133823    11.00000    0.04366    0.03678 =
         0.03231   -0.00699    0.00540   -0.00838
S2    6    1.124293    0.376150   -0.325145    11.00000    0.06577    0.06438 =
         0.05749   -0.03052   -0.00536    0.01013
C2    1    0.981547    0.461853   -0.211469    11.00000    0.04777    0.04181 =
         0.03497   -0.01137   -0.00400    0.00441
N1    5    1.000745    0.598489   -0.236607    11.00000    0.04659    0.04263 =
         0.03563   -0.00731    0.00834   -0.00895
N4    5    0.639476    0.713862    0.061279    11.00000    0.03797    0.04838 =
         0.03195   -0.00793   -0.00205   -0.00125
C3    1    0.883410    0.780067   -0.139913    11.00000    0.04507    0.03758 =
         0.02757   -0.00487   -0.00269   -0.00882
C9    1    0.750970    0.818137   -0.020123    11.00000    0.04191    0.04768 =
         0.03306   -0.01208   -0.01036    0.00608
N3    5    0.937348    1.021941   -0.316539    11.00000    0.06409    0.04445 =
         0.04100   -0.01089   -0.01193   -0.00711
C4    1    1.003124    0.891722   -0.255021    11.00000    0.04604    0.04078 =
         0.03130   -0.00673   -0.00618   -0.00868
C5    1    1.169059    0.856728   -0.298392    11.00000    0.04145    0.05150 =
         0.04474   -0.00846   -0.00983   -0.00657
AFIX  43
H5    2    1.209732    0.765966   -0.250258    11.00000   -1.20000
AFIX   0
C10   1    0.744042    0.946065    0.009994    11.00000    0.06151    0.04084 =
         0.04332   -0.01587   -0.00851    0.00136
AFIX  43
H10   2    0.824519    1.015677   -0.045476    11.00000   -1.20000
AFIX   0
C13   1    0.513765    0.736761    0.170155    11.00000    0.05106    0.05533 =
         0.03905   -0.01665   -0.00398    0.00226
AFIX  43
H13   2    0.434335    0.665940    0.223836    11.00000   -1.20000
AFIX   0
C6    1    1.271139    0.959102   -0.413668    11.00000    0.05628    0.07596 =
         0.05643   -0.01775   -0.00068   -0.03040
AFIX  43
H6    2    1.382548    0.938770   -0.446271    11.00000   -1.20000
AFIX   0
C12   1    0.497921    0.863504    0.205822    11.00000    0.06048    0.06952 =
         0.03939   -0.02438   -0.00147    0.00808
AFIX  43
H12   2    0.410081    0.876877    0.283090    11.00000   -1.20000
AFIX   0
C11   1    0.614087    0.968170    0.125023    11.00000    0.06697    0.06336 =
         0.04385   -0.02487   -0.01276    0.00864
AFIX  43
H11   2    0.605988    1.053676    0.147084    11.00000   -1.20000
AFIX   0
C8    1    1.041350    1.119072   -0.428221    11.00000    0.08804    0.04876 =
         0.04357   -0.00442   -0.02470   -0.00636
AFIX  43
H8    2    0.999241    1.210353   -0.473279    11.00000   -1.20000
AFIX   0
C7    1    1.205727    1.092968   -0.480582    11.00000    0.08347    0.06369 =
         0.04219   -0.00233   -0.00146   -0.03668
AFIX  43
H7    2    1.272039    1.164147   -0.559773    11.00000   -1.20000
AFIX   0
C1    1    1.261812    0.519189   -0.453048    11.00000    0.07806    0.06835 =
         0.06881   -0.02597    0.01802    0.00270
AFIX 137
H1A   2    1.206796    0.590570   -0.517533    11.00000   -1.50000
H1B   2    1.354645    0.478772   -0.511287    11.00000   -1.50000
H1C   2    1.297774    0.564966   -0.398944    11.00000   -1.50000
HKLF 4
 
REM  shelx in P-1 #2
REM R1 =  0.0887 for   2355 Fo > 4sig(Fo)  and  0.1097 for all   3079 data
REM    191 parameters refined using      0 restraints
 
END  
     
WGHT      0.1594      1.8687 
REM Highest difference peak  0.917,  deepest hole -2.272,  1-sigma level  0.164
Q1    1   0.7252  0.4438  0.0634  11.00000  0.05    0.92
Q2    1   0.6809  0.5231 -0.0749  11.00000  0.05    0.85
Q3    1   0.7117  0.5359  0.0884  11.00000  0.05    0.76
Q4    1   0.8091  0.4365 -0.1307  11.00000  0.05    0.72
Q5    1   0.6867  0.3785 -0.0026  11.00000  0.05    0.72
Q6    1   0.8007  0.3426 -0.1456  11.00000  0.05    0.70
Q7    1   0.6733  0.6163 -0.0596  11.00000  0.05    0.66
Q8    1   0.7510  0.6626  0.0214  11.00000  0.05    0.63
Q9    1   0.5241  0.5453  0.0008  11.00000  0.05    0.60
Q10   1   0.8449  0.2721 -0.0228  11.00000  0.05    0.59
Q11   1   0.8547  0.5131  0.0372  11.00000  0.05    0.58
Q12   1   0.7136  0.6798  0.0012  11.00000  0.05    0.58
Q13   1   0.6149  0.4809  0.0630  11.00000  0.05    0.57
Q14   1   1.1426  0.3807 -0.2419  11.00000  0.05    0.56
Q15   1   0.7794  0.5843 -0.0590  11.00000  0.05    0.55
Q16   1   0.5485  0.5935 -0.0465  11.00000  0.05    0.54
Q17   1   0.8713  0.5367 -0.0015  11.00000  0.05    0.54
Q18   1   1.1725  0.2921 -0.3028  11.00000  0.05    0.53
Q19   1   0.3312  0.3792  0.2039  11.00000  0.05    0.52
Q20   1   0.9236  0.4047 -0.1389  11.00000  0.05    0.49

  REM The information below was added by Olex2.
  REM
  REM R1 = 0.0887 for 2355 Fo > 4sig(Fo) and 0.1097 for all 11518 data
  REM n/a parameters refined using n/a restraints
  REM Highest difference peak 0.92, deepest hole -2.27
  REM Mean Shift 0, Max Shift 0.000.
  
  REM +++ Tabular Listing of Refinement Information +++
  REM R1_all = 0.1097
  REM R1_gt = 0.0887
  REM wR_ref = 0.2749
  REM GOOF = 1.116
  REM Shift_max = 0.000
  REM Shift_mean = 0
  REM Reflections_all = 11518
  REM Reflections_gt = 2355
  REM Parameters = n/a
  REM Hole = -2.27
  REM Peak = 0.92
  REM Flack = n/a
  
  
;
_cod_data_source_file            jm0c01936_si_003.cif
_cod_data_source_block           shelx
_cod_database_code               1561876
_olex2_refinement_description
;
1. Fixed Uiso
 At 1.2 times of:
  All C(H) groups
 At 1.5 times of:
  All C(H,H,H) groups
2.a Aromatic/amide H refined with riding coordinates:
 C5(H5), C10(H10), C13(H13), C6(H6), C12(H12), C11(H11), C8(H8), C7(H7)
2.b Idealised Me refined as rotating group:
 C1(H1a,H1b,H1c)
;
_olex2_submission_special_instructions 'No special instructions were received'
loop_
_space_group_symop_id
_space_group_symop_operation_xyz
1 'x, y, z'
2 '-x, -y, -z'
loop_
_atom_site_label
_atom_site_type_symbol
_atom_site_fract_x
_atom_site_fract_y
_atom_site_fract_z
_atom_site_U_iso_or_equiv
_atom_site_adp_type
_atom_site_occupancy
_atom_site_calc_flag
_atom_site_disorder_assembly
_atom_site_disorder_group
_atom_site_refinement_flags_posn
Cu1 Cu 0.69329(11) 0.52878(10) 0.00796(10) 0.0436(4) Uani 1 d . . .
Cl1 Cl 0.4958(3) 0.3843(2) 0.1926(2) 0.0538(6) Uani 1 d . . .
S1 S 0.8330(3) 0.3477(2) -0.0739(2) 0.0536(6) Uani 1 d . . .
N2 N 0.8814(8) 0.6474(7) -0.1338(7) 0.0425(15) Uani 1 d . . .
S2 S 1.1243(3) 0.3762(3) -0.3251(3) 0.0642(7) Uani 1 d . . .
C2 C 0.9815(10) 0.4619(9) -0.2115(8) 0.0447(18) Uani 1 d . . .
N1 N 1.0007(8) 0.5985(7) -0.2366(7) 0.0478(16) Uani 1 d . . .
N4 N 0.6395(8) 0.7139(7) 0.0613(7) 0.0432(15) Uani 1 d . . .
C3 C 0.8834(9) 0.7801(8) -0.1399(8) 0.0398(16) Uani 1 d . . .
C9 C 0.7510(9) 0.8181(9) -0.0201(8) 0.0423(17) Uani 1 d . . .
N3 N 0.9373(9) 1.0219(7) -0.3165(7) 0.0512(17) Uani 1 d . . .
C4 C 1.0031(9) 0.8917(8) -0.2550(8) 0.0415(17) Uani 1 d . . .
C5 C 1.1691(10) 0.8567(9) -0.2984(9) 0.0483(19) Uani 1 d . . .
H5 H 1.2097 0.7660 -0.2503 0.058 Uiso 1 calc . . R
C10 C 0.7440(11) 0.9461(9) 0.0100(9) 0.0502(19) Uani 1 d . . .
H10 H 0.8245 1.0157 -0.0455 0.060 Uiso 1 calc . . R
C13 C 0.5138(10) 0.7368(10) 0.1702(9) 0.051(2) Uani 1 d . . .
H13 H 0.4343 0.6659 0.2238 0.061 Uiso 1 calc . . R
C6 C 1.2711(12) 0.9591(11) -0.4137(11) 0.065(3) Uani 1 d . . .
H6 H 1.3825 0.9388 -0.4463 0.078 Uiso 1 calc . . R
C12 C 0.4979(12) 0.8635(11) 0.2058(9) 0.059(2) Uani 1 d . . .
H12 H 0.4101 0.8769 0.2831 0.071 Uiso 1 calc . . R
C11 C 0.6141(12) 0.9682(11) 0.1250(9) 0.058(2) Uani 1 d . . .
H11 H 0.6060 1.0537 0.1471 0.070 Uiso 1 calc . . R
C8 C 1.0413(13) 1.1191(10) -0.4282(10) 0.062(2) Uani 1 d . . .
H8 H 0.9992 1.2104 -0.4733 0.074 Uiso 1 calc . . R
C7 C 1.2057(14) 1.0930(11) -0.4806(10) 0.068(3) Uani 1 d . . .
H7 H 1.2720 1.1641 -0.5598 0.082 Uiso 1 calc . . R
C1 C 1.2618(14) 0.5192(12) -0.4530(12) 0.082(4) Uani 1 d . . .
H1A H 1.2068 0.5906 -0.5175 0.122 Uiso 1 calc . . GR
H1B H 1.3546 0.4788 -0.5113 0.122 Uiso 1 calc . . GR
H1C H 1.2978 0.5650 -0.3989 0.122 Uiso 1 calc . . GR
loop_
_atom_site_aniso_label
_atom_site_aniso_U_11
_atom_site_aniso_U_22
_atom_site_aniso_U_33
_atom_site_aniso_U_23
_atom_site_aniso_U_13
_atom_site_aniso_U_12
Cu1 0.0398(6) 0.0434(6) 0.0343(5) -0.0059(4) 0.0008(4) -0.0068(4)
Cl1 0.0469(11) 0.0516(12) 0.0406(10) 0.0016(8) -0.0003(8) -0.0088(9)
S1 0.0526(12) 0.0412(11) 0.0510(12) -0.0074(9) -0.0025(9) -0.0046(9)
N2 0.044(3) 0.037(3) 0.032(3) -0.007(3) 0.005(3) -0.008(3)
S2 0.0658(15) 0.0644(15) 0.0575(14) -0.0305(12) -0.0054(11) 0.0101(12)
C2 0.048(4) 0.042(4) 0.035(4) -0.011(3) -0.004(3) 0.004(3)
N1 0.047(4) 0.043(4) 0.036(3) -0.007(3) 0.008(3) -0.009(3)
N4 0.038(3) 0.048(4) 0.032(3) -0.008(3) -0.002(3) -0.001(3)
C3 0.045(4) 0.038(4) 0.028(3) -0.005(3) -0.003(3) -0.009(3)
C9 0.042(4) 0.048(4) 0.033(4) -0.012(3) -0.010(3) 0.006(3)
N3 0.064(4) 0.044(4) 0.041(4) -0.011(3) -0.012(3) -0.007(3)
C4 0.046(4) 0.041(4) 0.031(3) -0.007(3) -0.006(3) -0.009(3)
C5 0.041(4) 0.051(5) 0.045(4) -0.008(4) -0.010(3) -0.007(4)
C10 0.062(5) 0.041(4) 0.043(4) -0.016(3) -0.009(4) 0.001(4)
C13 0.051(5) 0.055(5) 0.039(4) -0.017(4) -0.004(4) 0.002(4)
C6 0.056(5) 0.076(7) 0.056(5) -0.018(5) -0.001(4) -0.030(5)
C12 0.060(5) 0.070(6) 0.039(4) -0.024(4) -0.001(4) 0.008(5)
C11 0.067(6) 0.063(6) 0.044(5) -0.025(4) -0.013(4) 0.009(5)
C8 0.088(7) 0.049(5) 0.044(5) -0.004(4) -0.025(5) -0.006(5)
C7 0.083(7) 0.064(6) 0.042(5) -0.002(4) -0.001(5) -0.037(5)
C1 0.078(7) 0.068(7) 0.069(7) -0.026(5) 0.018(6) 0.003(6)
loop_
_atom_type_symbol
_atom_type_description
_atom_type_scat_dispersion_real
_atom_type_scat_dispersion_imag
_atom_type_scat_source
C C 0.0033 0.0016 'International Tables Vol C Tables 4.2.6.8 and 6.1.1.4'
H H 0.0000 0.0000 'International Tables Vol C Tables 4.2.6.8 and 6.1.1.4'
Cl Cl 0.1484 0.1585 'International Tables Vol C Tables 4.2.6.8 and 6.1.1.4'
Cu Cu 0.3201 1.2651 'International Tables Vol C Tables 4.2.6.8 and 6.1.1.4'
N N 0.0061 0.0033 'International Tables Vol C Tables 4.2.6.8 and 6.1.1.4'
S S 0.1246 0.1234 'International Tables Vol C Tables 4.2.6.8 and 6.1.1.4'
loop_
_geom_angle_atom_site_label_1
_geom_angle_atom_site_label_2
_geom_angle_atom_site_label_3
_geom_angle
_geom_angle_site_symmetry_1
_geom_angle_site_symmetry_3
_geom_angle_publ_flag
Cl1 Cu1 S1 95.55(9) . . ?
N2 Cu1 Cl1 172.5(2) . . ?
N2 Cu1 S1 84.1(2) . . ?
N2 Cu1 N4 79.9(3) . . ?
N4 Cu1 Cl1 99.29(18) . . ?
N4 Cu1 S1 162.1(2) . . ?
C2 S1 Cu1 93.8(3) . . ?
N1 N2 Cu1 122.4(5) . . ?
C3 N2 Cu1 118.0(5) . . ?
C3 N2 N1 119.2(6) . . ?
C2 S2 C1 103.4(4) . . ?
S1 C2 S2 113.8(5) . . ?
N1 C2 S1 128.1(6) . . ?
N1 C2 S2 118.1(6) . . ?
C2 N1 N2 110.6(6) . . ?
C9 N4 Cu1 113.6(5) . . ?
C13 N4 Cu1 127.0(6) . . ?
C13 N4 C9 119.2(7) . . ?
N2 C3 C9 114.0(6) . . ?
N2 C3 C4 125.2(7) . . ?
C9 C3 C4 120.9(7) . . ?
N4 C9 C3 113.9(7) . . ?
N4 C9 C10 122.0(7) . . ?
C10 C9 C3 124.1(7) . . ?
C8 N3 C4 115.9(8) . . ?
N3 C4 C3 115.2(7) . . ?
N3 C4 C5 123.8(7) . . ?
C5 C4 C3 120.9(7) . . ?
C6 C5 C4 118.4(8) . . ?
C9 C10 C11 118.4(8) . . ?
N4 C13 C12 121.9(8) . . ?
C5 C6 C7 118.8(9) . . ?
C11 C12 C13 118.7(8) . . ?
C12 C11 C10 119.7(9) . . ?
N3 C8 C7 124.3(9) . . ?
C8 C7 C6 118.8(8) . . ?
loop_
_geom_bond_atom_site_label_1
_geom_bond_atom_site_label_2
_geom_bond_distance
_geom_bond_site_symmetry_2
_geom_bond_publ_flag
Cu1 Cl1 2.257(2) . ?
Cu1 S1 2.261(2) . ?
Cu1 N2 1.963(6) . ?
Cu1 N4 2.026(7) . ?
S1 C2 1.717(8) . ?
N2 N1 1.379(9) . ?
N2 C3 1.281(10) . ?
S2 C2 1.743(8) . ?
S2 C1 1.789(10) . ?
C2 N1 1.294(10) . ?
N4 C9 1.341(10) . ?
N4 C13 1.333(10) . ?
C3 C9 1.491(10) . ?
C3 C4 1.494(10) . ?
C9 C10 1.382(11) . ?
N3 C4 1.341(10) . ?
N3 C8 1.338(11) . ?
C4 C5 1.391(11) . ?
C5 C6 1.369(11) . ?
C10 C11 1.388(12) . ?
C13 C12 1.391(13) . ?
C6 C7 1.380(15) . ?
C12 C11 1.369(14) . ?
C8 C7 1.369(15) . ?
loop_
_refln_index_h
_refln_index_k
_refln_index_l
_refln_F_squared_meas
_refln_F_squared_sigma
0 0 2 158.6 6.47
0 0 2 151.89 8.1
0 0 -2 147.95 6.57
0 0 -2 141.8 7.59
0 0 3 142.37 6.65
0 0 3 144.5 7.71
0 0 -3 142.3 4.74
0 0 -3 133.16 7.37
0 0 4 469.36 17.55
0 0 4 494.32 22.7
0 0 -4 444.45 20.2
0 0 -4 485.05 23.7
0 0 5 219.37 10.75
0 0 5 232.75 12.67
0 0 -5 227.39 11
0 0 -5 219.68 12.95
0 0 6 248.63 13.37
0 0 6 260.72 15.17
0 0 -6 253.97 13.51
0 0 -6 229.93 10.91
0 0 7 43.69 5.7
0 0 7 48.79 7
0 0 -7 42.97 5.78
0 0 -7 42.81 6.5
0 0 8 2.63 3.76
0 0 8 -3.56 4.39
0 0 -8 -0.83 3.8
0 0 -8 -2.37 4.16
0 0 9 64.02 8.15
0 0 9 67.77 9.53
0 0 -9 69.28 8.17
0 0 -9 53.41 8.33
0 0 10 28.86 7.46
0 0 10 37.03 8.4
0 0 -10 41.42 7.55
0 0 -10 33.27 7.19
0 0 11 13.07 4.03
0 0 11 12.23 7.28
0 0 -11 9.67 6.98
0 0 -11 12.45 3.99
0 1 -11 -0.97 3.82
0 1 -11 3.32 3.47
0 -1 11 1.59 6.15
0 -1 11 14.52 6.45
0 1 -10 5.45 5.77
0 1 -10 3.83 5.31
0 -1 10 11.13 5.76
0 -1 10 5.65 5.97
0 1 -9 9.75 5.45
0 1 -9 11.99 5.12
0 -1 9 8.85 5.17
0 -1 9 6.65 5.82
0 1 -8 3.19 4.39
0 1 -8 3.08 4.15
0 -1 8 2.93 4.18
0 -1 8 10.59 4.8
0 1 -7 14.37 2.93
0 1 -7 14.47 4.56
0 -1 7 14.95 4.42
0 -1 7 18.94 5.09
0 1 -6 176.4 11.08
0 1 -6 162.44 11.15
0 -1 6 177.38 7.87
0 -1 6 190.72 12.13
0 1 -5 382.18 19.01
0 1 -5 369.92 19.63
0 -1 5 399.54 19.08
0 -1 5 412.42 20.85
0 1 -4 739.81 37.44
0 1 -4 735.89 38.63
0 -1 4 763.2 37.99
0 -1 4 808.27 41.48
0 1 -3 586.83 22.89
0 1 -3 590.21 26.9
0 -1 3 607.83 26.65
0 -1 3 615.16 27.3
0 1 -2 40.74 3.5
0 1 -2 44.18 3.75
0 -1 2 43.27 3.36
0 -1 2 38.17 3.96
0 1 -1 1123.7 52.29
0 1 -1 1150.2 51.9
0 -1 1 1156.35 53.27
0 -1 1 1090.03 49.94
0 1 2 168.96 6.07
0 1 2 163.23 7.43
0 -1 -2 165.51 6.19
0 -1 -2 156.82 7.52
0 1 3 25.47 2.94
0 1 3 28.39 3.83
0 -1 -3 25.86 2.87
0 -1 -3 29.57 3.83
0 1 4 -1.26 2.04
0 1 4 -0.67 2.55
0 -1 -4 -0.03 1.95
0 -1 -4 -0.57 2.63
0 1 5 135.3 5.26
0 1 5 144.93 8.88
0 -1 -5 136.88 7.19
0 -1 -5 132.07 8.67
0 1 6 91.22 4.46
0 1 6 98.15 5.28
0 -1 -6 94.23 6.46
0 -1 -6 89.37 8.59
0 1 7 26.26 4.52
0 1 7 31.44 5.69
0 -1 -7 21.36 4.47
0 -1 -7 18.95 6.13
0 1 8 29.25 5.46
0 1 8 26.07 6.78
0 -1 -8 30.2 5.47
0 -1 -8 25.59 4.12
0 1 9 83.47 9.27
0 1 9 107.41 11.02
0 -1 -9 94.92 9.83
0 -1 -9 81.07 10.49
0 1 10 38.29 7.11
0 1 10 31.43 5.18
0 -1 -10 33.25 7.32
0 -1 -10 37.66 7.78
0 1 11 40.18 8.27
0 1 11 38.37 9.6
0 -1 -11 49.36 8.63
0 -1 -11 38.52 8.79
0 2 -10 35.96 8
0 2 -10 32.18 7.22
0 -2 10 22.13 4.85
0 -2 10 24.9 7.78
0 2 -9 64.23 9.35
0 2 -9 53.61 8.27
0 -2 9 64.51 9.07
0 -2 9 73.96 9.45
0 2 -8 65.34 8.49
0 2 -8 63.27 7.49
0 -2 8 65.12 8.3
0 -2 8 55.77 8.5
0 2 -7 69.92 7.76
0 2 -7 62.88 6.77
0 -2 7 69.08 7.59
0 -2 7 63.38 8.19
0 2 -6 82.27 6.99
0 2 -6 73.26 6.53
0 -2 6 66.2 6.9
0 -2 6 69.23 7.65
0 2 -5 321.36 16.77
0 2 -5 303.84 16.08
0 -2 5 333.47 17.07
0 -2 5 347 18.9
0 2 -4 1891.29 142.63
0 2 -4 1959.14 145.84
0 -2 4 2059.27 154.37
0 -2 4 2121.02 156.23
0 2 -3 661.06 30.8
0 2 -3 668.26 30.27
0 -2 3 677.25 31.52
0 -2 3 695.33 31.47
0 2 -2 62.14 3.92
0 2 -2 66.58 3.31
0 -2 2 67.62 3.84
0 -2 2 68.74 3.8
0 2 -1 13.43 2.14
0 2 -1 12.96 1.58
0 -2 1 10.6 2.19
0 -2 1 12.23 2.52
0 2 0 989.31 44.46
0 2 0 1025.31 42.73
0 -2 0 995.26 44.75
0 -2 0 1010.96 40.97
0 2 1 2.27 1.36
0 2 1 3.88 0.96
0 -2 -1 4.43 1.4
0 -2 -1 3.92 1.07
0 2 2 916.61 42.06
0 2 2 939.07 43.09
0 -2 -2 943.83 44.13
0 -2 -2 931.41 46.04
0 2 3 89.06 4.4
0 2 3 86.71 4.91
0 -2 -3 83.88 4.5
0 -2 -3 79.37 5.64
0 2 4 138.22 6.36
0 2 4 151.82 7.31
0 -2 -4 138.22 4.61
0 -2 -4 128.29 5.44
0 2 5 170.21 8.42
0 2 5 185.31 9.69
0 -2 -5 167.07 8.2
0 -2 -5 170.04 10.32
0 2 6 174.52 9.78
0 2 6 200.95 11.42
0 -2 -6 182.56 9.62
0 -2 -6 172.62 12.08
0 2 7 82.22 4.66
0 2 7 84.67 8.52
0 -2 -7 83.01 6.79
0 -2 -7 71.56 8.59
0 2 8 52.74 4.19
0 2 8 51.37 8.02
0 -2 -8 52.4 6.62
0 -2 -8 55.13 5.79
0 2 9 91.92 6.28
0 2 9 98.82 10.84
0 -2 -9 100.97 6.32
0 -2 -9 93 11.31
0 2 10 33.54 6.66
0 2 10 28.14 7.91
0 -2 -10 36.81 6.72
0 -2 -10 29.98 7.85
0 2 11 37.32 7.5
0 2 11 35.71 5.35
0 -2 -11 34.23 7.7
0 -2 -11 11.43 8.66
0 2 12 4.98 6.81
0 2 12 16.14 7.62
0 -2 -12 7.53 6.87
0 -2 -12 12.04 4.57
0 3 -10 38.4 8.4
0 3 -10 22.82 7.11
0 -3 10 22.86 8.09
0 -3 10 26.85 8.23
0 3 -9 46.28 5.65
0 3 -9 41.66 7.48
0 -3 9 49.51 5.49
0 -3 9 51.61 8.5
0 3 -8 75.97 9.79
0 3 -8 77.78 8.43
0 -3 8 83.97 9.16
0 -3 8 63.44 9.37
0 3 -7 148.7 11.83
0 3 -7 140.68 10.62
0 -3 7 134.99 11.44
0 -3 7 133.39 11.82
0 3 -6 17 2.94
0 3 -6 14.28 4.1
0 -3 6 23.43 4.41
0 -3 6 12.94 4.79
0 3 -5 178.02 10.94
0 3 -5 172.65 9.89
0 -3 5 175.39 10.44
0 -3 5 178.9 11.1
0 3 -4 886.66 50.19
0 3 -4 940.35 50.8
0 -3 4 907.07 51.08
0 -3 4 919.15 51.79
0 3 -3 326.64 14.92
0 3 -3 354.57 13.95
0 -3 3 339.52 12.44
0 -3 3 353 14.82
0 3 -2 98.93 5.18
0 3 -2 97.7 3.94
0 -3 2 102.35 5.26
0 -3 2 112.03 4.68
0 3 -1 4.36 1.83
0 3 -1 4.49 1.16
0 -3 1 5.12 1.86
0 -3 1 7.18 1.81
0 3 0 14.32 1.97
0 3 0 15.33 1.44
0 -3 0 16.74 1.93
0 -3 0 15.86 1.2
0 3 1 34.62 2.29
0 3 1 36.53 1.53
0 -3 -1 34.26 2.42
0 -3 -1 33.28 1.61
0 3 2 875.85 39.86
0 3 2 871.2 39.43
0 -3 -2 929.03 43.39
0 -3 -2 902.62 43.75
0 3 3 0.96 1.8
0 3 3 4.33 1.66
0 -3 -3 3.4 1.8
0 -3 -3 -1.15 2.14
0 3 4 201.75 8.52
0 3 4 213.94 9.01
0 -3 -4 193.4 8.76
0 -3 -4 206.23 10.47
0 3 5 595.75 28.21
0 3 5 648.78 31.41
0 -3 -5 608.31 26.04
0 -3 -5 571.94 32.15
0 3 6 179.13 9.6
0 3 6 199.67 10.92
0 -3 -6 184.22 9.71
0 -3 -6 165.67 11.87
0 3 7 85.81 6.92
0 3 7 89.05 8.08
0 -3 -7 85.48 6.98
0 -3 -7 72.49 9.08
0 3 8 169.24 11.95
0 3 8 185.76 14.38
0 -3 -8 177.89 12.08
0 -3 -8 152.95 14.77
0 3 9 10.72 4.37
0 3 9 6.04 5.24
0 -3 -9 4.76 4.4
0 -3 -9 11.97 6.13
0 3 10 5.57 4.55
0 3 10 4.13 5.14
0 -3 -10 5.16 4.74
0 -3 -10 0.79 5.86
0 3 11 7.64 5.55
0 3 11 4.06 6.43
0 -3 -11 15.1 5.76
0 -3 -11 9.63 6.6
0 3 12 -4.69 5.68
0 3 12 -3.6 3.98
0 -3 -12 -2.35 5.73
0 -3 -12 1.92 6.75
0 4 -9 4.47 6.65
0 4 -9 13.14 5.1
0 -4 9 12.51 6.46
0 -4 9 15.37 6.09
0 4 -8 79.41 10.13
0 4 -8 73.38 7.85
0 -4 8 69.6 9.74
0 -4 8 77.96 9.25
0 4 -7 62.68 7.94
0 4 -7 49.87 6.1
0 -4 7 55.01 4.94
0 -4 7 55.7 7.24
0 4 -6 47.8 6.53
0 4 -6 49.86 5.08
0 -4 6 46.41 6.14
0 -4 6 44.27 6.3
0 4 -5 21.09 2.98
0 4 -5 26.85 3.56
0 -4 5 25.59 4.51
0 -4 5 28.2 4.62
0 4 -4 3.28 3.1
0 4 -4 2.37 2.21
0 -4 4 7.08 1.86
0 -4 4 2.83 4.11
0 4 -3 41.39 4.2
0 4 -3 43.53 2.98
0 -4 3 51.36 4.26
0 -4 3 52.75 4.15
0 4 -2 241.16 10.65
0 4 -2 250.29 8.49
0 -4 2 235.03 10.48
0 -4 2 258.42 11.55
0 4 -1 16.64 1.46
0 4 -1 16.17 1.76
0 -4 1 14.84 2.34
0 -4 1 18.05 2.2
0 4 0 109.96 4.98
0 4 0 123.41 4.1
0 -4 0 110.8 5.25
0 -4 0 126.44 3.61
0 4 1 465.74 18.08
0 4 1 479.79 18.06
0 -4 -1 476.44 16.48
0 -4 -1 494.57 16.04
0 4 2 1406.73 79.52
0 4 2 1432.84 78.1
0 -4 -2 1379.98 80.97
0 -4 -2 1368.13 77.05
0 4 3 373.72 14.69
0 4 3 370.43 13.11
0 -4 -3 378.62 15.9
0 -4 -3 376.14 15.27
0 4 4 237.16 10.12
0 4 4 236.37 9.1
0 -4 -4 243.29 10.74
0 -4 -4 223.32 11.83
0 4 5 229.86 10.64
0 4 5 235.79 10.38
0 -4 -5 224.39 10.88
0 -4 -5 210.87 12.19
0 4 6 39.59 4.2
0 4 6 48.43 4.49
0 -4 -6 43.05 4.38
0 -4 -6 36.72 5.85
0 4 7 222.5 13.18
0 4 7 257.68 15.15
0 -4 -7 235.66 13.54
0 -4 -7 203.99 16.34
0 4 8 79.83 7.36
0 4 8 77.63 8.45
0 -4 -8 77.83 7.56
0 -4 -8 75.28 9.84
0 4 9 7.37 3.97
0 4 9 0.84 4.4
0 -4 -9 1.63 2.47
0 -4 -9 2.58 4.98
0 4 10 6.21 4.54
0 4 10 4.32 3.09
0 -4 -10 3.32 2.91
0 -4 -10 -1.71 6.07
0 4 11 0.38 4.98
0 4 11 11.56 5.53
0 -4 -11 3.92 5.22
0 -4 -11 -2.59 6.17
0 4 12 -2.02 5.52
0 4 12 18.12 6.06
0 -4 -12 4.51 5.89
0 -4 -12 -11.28 6.79
0 5 -9 9.52 7.08
0 5 -9 12.58 5.11
0 -5 9 11.62 7.05
0 -5 9 16.02 6.37
0 5 -8 55.59 8.83
0 5 -8 46.93 6.42
0 -5 8 49.05 8.93
0 -5 8 47.35 7.88
0 5 -7 45.06 5.08
0 5 -7 49.04 5.57
0 -5 7 45.83 7.76
0 -5 7 48.75 6.86
0 5 -6 4.75 4.08
0 5 -6 2.96 2.76
0 -5 6 -8.54 4.13
0 -5 6 2.86 3.63
0 5 -5 8.06 3.64
0 5 -5 -0.46 2.43
0 -5 5 1.25 2.28
0 -5 5 4.85 3.19
0 5 -4 23.21 2.7
0 5 -4 23.83 2.84
0 -5 4 20.96 4
0 -5 4 18.32 5.41
0 5 -3 3.25 2.73
0 5 -3 4.31 2.26
0 -5 3 5.72 2.63
0 -5 3 -5.55 2.63
0 5 -2 502.95 24.25
0 5 -2 512.51 22.09
0 -5 2 510.66 25.04
0 -5 2 553.21 26.55
0 5 -1 68.6 4.35
0 5 -1 70.05 3.44
0 -5 1 74.63 4.51
0 -5 1 76.33 4.09
0 5 0 2.65 1.72
0 -5 0 -0.2 1.4
0 5 1 6.07 1.96
0 5 1 11.85 1.94
0 -5 -1 7.82 1.49
0 -5 -1 6.82 1.47
0 5 2 201.9 8.01
0 5 2 238.68 7.24
0 -5 -2 204.74 8.09
0 5 3 176.9 7.27
0 5 3 189.68 7.33
0 -5 -3 170.84 8.27
0 -5 -3 181.84 7.29
0 5 4 308.31 12.97
0 5 4 314.81 13.42
0 -5 -4 308.85 14.44
0 -5 -4 299.44 14.84
0 5 5 69.86 4.55
0 5 5 70.76 4.25
0 -5 -5 74.62 5.29
0 -5 -5 55.86 5.6
0 5 6 21.66 3.54
0 5 6 21.49 3.23
0 -5 -6 18.32 3.45
0 -5 -6 11.39 4.56
0 5 7 1.56 3.15
0 5 7 4 3.14
0 -5 -7 7.69 3.24
0 -5 -7 6.99 4.22
0 5 8 4.33 3.32
0 5 8 -1.81 2.06
0 -5 -8 2.55 3.32
0 -5 -8 0.59 4.45
0 5 9 41.88 5.98
0 5 9 33.43 6.38
0 -5 -9 36.34 6.29
0 -5 -9 41.06 7.52
0 5 10 4.93 4.38
0 5 10 0.52 4.65
0 -5 -10 -3.34 4.45
0 -5 -10 9.18 5.43
0 5 11 13.74 5.1
0 5 11 0.08 5.31
0 -5 -11 -3.36 5.19
0 -5 -11 11.29 6.74
0 5 12 -1.13 5.5
0 5 12 2.18 5.71
0 -5 -12 2.95 5.52
0 -5 -12 5.68 6.7
0 6 -8 1.99 6.16
0 6 -8 9.52 4.18
0 -6 8 2.98 5.91
0 -6 8 8.59 5.47
0 6 -7 29.75 6.78
0 6 -7 20.46 4.51
0 -6 7 20.18 6.55
0 -6 7 25.77 5.64
0 6 -6 45.41 7.32
0 6 -6 42.9 4.83
0 -6 6 44.03 4.41
0 -6 6 47.36 6.12
0 6 -5 -3.9 3.7
0 6 -5 4.29 3.14
0 -6 5 5.29 3.6
0 -6 5 -2.64 3.12
0 6 -4 87.42 7.72
0 6 -4 86.6 5.17
0 -6 4 81.2 5.23
0 -6 4 86.74 6.7
0 6 -3 86.51 6.78
0 6 -3 78.03 5.2
0 -6 3 85.33 6.68
0 -6 3 79.36 5.77
0 6 -2 303.16 16.01
0 6 -2 308.74 13.81
0 -6 2 324.68 16.66
0 -6 2 353.27 15.28
0 6 -1 180.35 9.09
0 6 -1 179.41 7.04
0 -6 1 180.34 9.09
0 -6 1 194.98 9.05
0 6 0 84.67 5.13
0 6 0 89.99 5.17
0 -6 0 90.84 4.45
0 -6 0 80.1 3.72
0 6 1 58.37 3.88
0 6 1 69.59 3.84
0 -6 -1 61.37 3.1
0 -6 -1 55.98 3
0 6 2 0.49 2.48
0 6 2 -3.21 1.79
0 -6 -2 -2.01 1.04
0 -6 -2 0.28 1.62
0 6 3 127.89 5.87
0 6 3 133.42 5.51
0 -6 -3 112.9 6.57
0 -6 -3 110.17 6.73
0 6 4 363.2 16.29
0 6 4 381.41 14.66
0 -6 -4 342.84 17.44
0 -6 -4 361.37 16.83
0 6 5 46.42 4.02
0 6 5 44.94 3.17
0 -6 -5 30.33 4.23
0 -6 -5 33.73 4.74
0 6 6 70.34 5.5
0 6 6 79.43 5.13
0 -6 -6 63.73 6.19
0 -6 -6 50.52 6.8
0 6 7 2.44 3.28
0 6 7 1.73 3.03
0 -6 -7 6.14 3.38
0 -6 -7 4.66 4.37
0 6 8 21.87 4.38
0 6 8 13.53 4.15
0 -6 -8 16.8 4.59
0 -6 -8 16.51 5.41
0 6 9 2.37 3.86
0 6 9 6.12 3.7
0 -6 -9 -0.67 4.01
0 -6 -9 -1.61 4.94
0 6 10 5.5 4.7
0 6 10 8.35 2.9
0 -6 -10 7.96 4.84
0 -6 -10 0.45 3.48
0 6 11 9.17 5.65
0 6 11 16.49 5.69
0 -6 -11 10.33 6.04
0 -6 -11 10.72 7.68
0 6 12 -0.11 5.68
0 6 12 10.31 5.8
0 -6 -12 -0.94 5.98
0 -6 -12 5.63 7.08
0 7 -7 4.94 5.53
0 7 -7 1.85 3.59
0 -7 7 5.56 5.53
0 -7 7 1.54 6.19
0 7 -6 37.74 7.5
0 7 -6 45.08 5.09
0 -7 6 44.8 7.57
0 -7 6 33.68 8.25
0 7 -5 5.04 4.71
0 7 -5 10.66 2.73
0 -7 5 5.63 4.65
0 -7 5 6.09 3.74
0 7 -4 2.09 3.77
0 7 -4 1.59 2.08
0 -7 4 3.31 3.73
0 -7 4 2.96 2.86
0 7 -3 11.61 3.63
0 7 -3 7.23 2.71
0 -7 3 3.16 3.62
0 -7 3 2.15 3.64
0 7 -2 183.9 11.38
0 7 -2 174.42 8.58
0 -7 2 184.42 11.18
0 -7 2 178.46 11.45
0 7 -1 151.17 9.27
0 7 -1 165.35 6.03
0 -7 1 188 10.56
0 -7 1 169.9 7.38
0 7 0 121.67 7.37
0 7 0 133.58 7.41
0 -7 0 121.85 6.24
0 7 1 5.13 2.38
0 7 1 6.1 2.31
0 -7 -1 3.4 1.7
0 -7 -1 2.24 1.58
0 7 2 11.08 2.45
0 7 2 9.47 2.4
0 -7 -2 6.62 1.87
0 -7 -2 5.92 1.99
0 7 3 48.66 3.76
0 -7 -3 42.07 3.96
0 7 4 8.72 2.31
0 7 4 2.15 1.64
0 -7 -4 2.45 2.6
0 -7 -4 3.83 2.95
0 -7 -5 15.58 3.84
0 -7 -5 18.57 3.73
0 7 6 7.71 2.94
0 7 6 3.54 3.09
0 -7 -6 -2.3 3.34
0 -7 -6 0.06 3.47
0 7 7 8.38 3.43
0 7 7 10.18 2.95
0 -7 -7 4.43 3.98
0 -7 -7 2.49 4.36
0 7 8 1.63 3.51
0 7 8 9.23 3.39
0 -7 -8 5.51 4.04
0 -7 -8 1.61 4.39
0 7 9 -3.32 3.68
0 7 9 2.92 3.51
0 -7 -9 -0.39 4.1
0 -7 -9 0.35 4.54
0 7 10 5.48 4.35
0 7 10 -0.4 4.21
0 -7 -10 3.64 4.74
0 -7 -10 0.85 5.08
0 7 11 4.12 4.95
0 7 11 -1.33 4.78
0 -7 -11 2.79 5.13
0 -7 -11 3.11 6.36
0 7 12 5.02 5.42
0 7 12 -0.92 5.55
0 -7 -12 -1.38 5.77
0 -7 -12 9.57 7.19
0 8 -6 28.25 7.05
0 8 -6 30.55 5.69
0 -8 6 29.53 7.16
0 -8 6 17.72 5.81
0 8 -5 34.03 6.25
0 8 -5 23.52 3.75
0 -8 5 31.42 6.37
0 -8 5 14 5.04
0 8 -4 -1.27 4.1
0 8 -4 4.82 2.29
0 -8 4 4.78 4.14
0 -8 4 -2.15 4.05
0 8 -3 0.15 3.54
0 8 -3 0.44 2.56
0 -8 3 4.26 3.55
0 -8 3 -0.19 2.57
0 8 -2 16.2 4.03
0 8 -2 15.06 2.91
0 -8 2 10.4 4.01
0 -8 2 5.41 3.96
0 8 -1 3.69 2.85
0 -8 1 -0.24 1.84
0 -8 1 0.1 1.49
0 8 0 111.32 7.45
0 8 0 120.78 7.71
0 -8 0 99.26 4.98
0 8 1 10.16 3.73
0 8 1 7.62 2.92
0 -8 -1 5.9 2.12
0 -8 -1 4.71 1.83
0 8 2 74.09 5.51
0 8 2 78.19 5.44
0 8 3 0.39 2.62
0 8 3 4.49 2.46
0 -8 -3 1.7 1.4
0 -8 -3 2.5 2.28
0 8 4 8.07 2.59
0 -8 -4 1.5 3.06
0 8 5 91.27 6.37
0 8 5 83.41 6.48
0 -8 -5 62.88 6.24
0 8 6 15.43 3.56
0 8 6 12.72 3.69
0 -8 -6 8.1 4.01
0 -8 -6 6.1 3.61
0 8 7 7.79 3.51
0 8 7 6.67 3.02
0 -8 -7 7.85 4.19
0 -8 -7 4.62 3.93
0 8 8 18.68 4.51
0 8 8 17.11 3.82
0 -8 -8 10.94 5.22
0 -8 -8 13.12 5.23
0 8 9 21.74 4.72
0 8 9 15.5 4.2
0 -8 -9 7.34 5.56
0 -8 -9 7.17 5.46
0 8 10 -2.11 4.01
0 8 10 3.2 3.9
0 -8 -10 -7.77 4.74
0 -8 -10 7.54 4.85
0 8 11 9.3 5.68
0 8 11 15.29 5.39
0 -8 -11 10.46 6.32
0 -8 -11 6.16 6.51
0 9 -5 32.73 6.74
0 9 -5 24.9 4.34
0 -9 5 23.89 6.89
0 -9 5 10.41 6.59
0 9 -4 26.12 5.68
0 9 -4 20.83 3.42
0 -9 4 17.33 5.91
0 -9 4 6.76 5.59
0 9 -3 4.97 3.95
0 9 -3 2.61 2.9
0 -9 3 -3.63 3.98
0 -9 3 1.54 2.66
0 9 -2 -0.49 3.65
0 -9 2 2.99 3.05
0 9 -1 12.34 3.68
0 9 -1 12.98 3.93
0 -9 1 3.92 3.08
0 -9 1 4.43 2.16
0 9 0 7.99 3.1
0 9 0 0.82 3.26
0 -9 0 1.86 2.36
0 -9 0 0.6 1.84
0 9 1 23.72 3.77
0 -9 -1 13.07 2.74
0 -9 -1 8.51 2.29
0 9 2 31.54 4.3
0 9 2 26.83 4.17
0 9 3 0.73 2.9
0 9 3 3.26 2.8
0 -9 -3 3.7 2.1
0 -9 -3 4.04 2.28
0 -9 -4 3.23 1.97
0 -9 -4 2.57 2.88
0 9 5 0.78 2.77
0 9 5 0.02 2.16
0 -9 -5 -2.72 2.34
0 9 6 3.79 3.1
0 9 6 -0.89 2.37
0 -9 -6 3.14 3.57
0 -9 -6 3.56 3.85
0 9 7 12.44 3.73
0 9 7 11.89 3.12
0 -9 -7 -0.66 4.41
0 -9 -7 -3.47 3.76
0 9 8 5.46 3.64
0 9 8 6.73 3.22
0 -9 -8 1.5 4.48
0 -9 -8 1.64 4.09
0 9 9 -1.74 3.7
0 9 9 0.96 3.35
0 -9 -9 5.21 4.53
0 -9 -9 2.04 4.19
0 9 10 6.47 4.55
0 9 10 3.21 4.08
0 -9 -10 6.61 5.46
0 -9 -10 2.66 5.24
0 9 11 7.22 5.08
0 9 11 2.52 4.62
0 -9 -11 7.27 6.03
0 -9 -11 5.05 5.75
0 10 -3 4.89 4.73
0 10 -2 18.07 4.96
0 10 -2 14.79 5.38
0 10 -1 17.5 4.66
0 10 -1 18.24 5.04
0 -10 1 12.38 3.83
0 10 0 12.73 3.71
0 10 0 10.05 4.12
0 -10 0 0.13 2.72
0 10 1 34.22 5.16
0 10 1 34.32 5.18
0 10 2 15.22 4.43
0 10 2 5.95 3.39
0 -10 -2 1.47 2.24
0 -10 -2 2.57 2.16
0 10 3 11.36 3.36
0 10 3 6.08 3.2
0 -10 -3 0.64 1.76
0 -10 -3 3.3 2.36
0 10 4 12.59 3.6
0 10 4 12.11 3.26
0 -10 -4 2.71 2.69
0 -10 -4 1.45 2.18
0 10 5 3.7 3.37
0 10 5 3.81 2.98
0 -10 -5 -1.7 2.76
0 -10 -5 1.28 3.08
0 10 6 4.69 2.96
0 10 6 2.26 2.52
0 -10 -6 -4.51 2.64
0 10 7 5.08 3.64
0 10 7 3.02 3.1
0 -10 -7 9.93 4.3
0 -10 -7 4.46 3.29
0 10 8 3.36 3.85
0 10 8 4.73 3.26
0 -10 -8 8.05 4.62
0 -10 -8 8.67 3.96
0 10 9 2.28 4.26
0 10 9 0.78 3.63
0 -10 -9 5.04 4.98
0 -10 -9 7.08 4.22
0 10 10 14.06 4.96
0 10 10 8.11 4.61
0 -10 -10 6.84 6.08
0 -10 -10 5.44 5.53
0 11 -2 31.86 6.51
0 11 -2 27.29 7
0 11 -1 19.52 5.41
0 11 -1 13.4 5.69
0 11 0 12.56 4.69
0 11 0 13.38 5.19
0 11 1 7.7 3.96
0 11 1 3.3 4.09
0 11 2 11.24 5.29
0 11 2 2.79 3.72
0 11 3 16.32 3.95
0 11 3 5.54 3.8
0 -11 -3 3.69 2.54
0 -11 -3 5.42 2.51
0 11 4 15.44 4.13
0 11 4 10.08 3.87
0 -11 -4 5 2.7
0 11 5 12.36 3.95
0 11 5 5.07 3.35
0 -11 -5 2.39 2.16
0 -11 -5 -0.65 2.26
0 11 6 -5 3.84
0 11 6 2.66 3.18
0 -11 -6 1.7 3.16
0 -11 -6 2.65 3.25
0 11 7 3.6 3.65
0 -11 -7 1.51 3.13
0 11 8 3.44 3.57
0 11 8 3.4 3.12
0 -11 -8 1.57 4.62
0 -11 -8 -3.11 3.38
0 11 9 13.52 4.61
0 11 9 0.4 5.28
0 -11 -9 7.16 5.56
0 -11 -9 4.46 4.51
0 12 1 2.09 4
0 12 1 0 4.14
0 12 2 3.55 5.26
0 12 2 0.47 3.97
0 12 3 5.32 4.04
0 12 4 4.3 3.68
0 12 5 11.43 4.5
0 12 5 4.64 4.03
0 12 6 37.91 5.84
0 12 6 5.36 4.76
0 12 7 10.06 4.55
0 12 7 -1.78 3.84
0 -12 -7 1.05 2.86
0 -12 -7 0.42 3.02
-1 12 6 7.75 4.67
-1 12 6 -5.39 3.78
-1 12 5 10.93 5.35
-1 12 5 5.78 4.45
-1 12 4 15.88 5.51
-1 12 4 7.12 4.65
-1 12 3 4.91 4.53
-1 12 3 2.37 4.39
-1 12 2 3.11 5.05
-1 12 2 8.63 4.83
-1 12 1 0.42 4.47
-1 12 1 -2.39 4.81
1 -11 -8 15.6 5.72
1 -11 -8 3.41 3.56
-1 11 8 0.29 4.39
-1 11 8 4.74 3.23
1 -11 -7 5.91 5.11
1 -11 -7 -0.12 2.96
-1 11 7 7.03 4.13
-1 11 7 2.38 3.44
1 -11 -6 1.25 1.93
1 -11 -6 -3.27 3.23
-1 11 6 8.3 4.83
-1 11 6 3.55 3.69
-1 11 5 5.1 4.55
-1 11 5 2.66 3.82
-1 11 4 19.24 4.95
-1 11 4 1.66 3.97
-1 11 3 12.84 4.69
-1 11 2 8.79 4.83
-1 11 2 12.87 4.72
-1 11 1 49.8 7.03
-1 11 1 39.87 7.57
-1 11 0 40.58 6.73
-1 11 0 34.32 7.32
-1 11 -1 7.18 4.58
-1 11 -1 -1.36 4.99
-1 11 -2 15.26 5.87
-1 11 -2 6.76 6.01
1 -10 -9 10.67 5.37
1 -10 -9 -1.7 4.58
-1 10 9 1.76 4.6
-1 10 9 -0.34 3.47
1 -10 -8 6.93 6.35
1 -10 -8 6.5 5.82
-1 10 8 25.71 5.09
-1 10 8 11.7 3.97
1 -10 -7 -1.56 4.43
1 -10 -7 1.6 2.94
-1 10 7 -1.74 3.64
-1 10 7 -0.04 2.61
1 -10 -6 9.38 5
1 -10 -6 2.06 3.11
-1 10 6 20.86 4.12
-1 10 6 4.78 2.62
1 -10 -5 -0.96 1.6
1 -10 -5 4.06 2.76
-1 10 5 7.3 4.22
-1 10 5 -0.57 3.32
1 -10 -4 3.65 2.08
1 -10 -4 3.02 2.56
-1 10 4 11.16 3.59
1 -10 -3 15.89 2.01
1 -10 -3 15.95 2.27
1 -10 -2 18.4 1.85
1 -10 -2 16.78 1.59
-1 10 1 138.77 11.35
-1 10 1 133.38 12.06
-1 10 0 71.79 7.72
-1 10 0 60.26 8.19
-1 10 -1 19.07 4.78
-1 10 -1 6.19 5.13
-1 10 -2 4.55 4.45
-1 10 -2 4.02 4.76
-1 10 -3 30.14 6.41
-1 10 -3 22.14 7.05
1 -9 -10 12.91 6.32
1 -9 -10 2.52 5.99
-1 9 10 4.74 5.25
-1 9 10 9.06 5.72
1 -9 -9 11.67 5.33
1 -9 -9 2.8 4.84
-1 9 9 4.77 4.41
-1 9 9 -2.05 3.47
1 -9 -8 7.16 4.66
1 -9 -8 3.27 3.78
-1 9 8 1.66 3.82
-1 9 8 -0.05 2.95
1 -9 -7 25.28 6.18
1 -9 -7 12.66 6.29
1 -9 -6 15.5 5.33
1 -9 -6 5.15 3.7
-1 9 6 22.52 3.98
1 -9 -5 34.78 7.19
-1 9 5 69.41 6.21
-1 9 5 53.53 3.93
1 -9 -4 14.94 3.71
1 -9 -4 52.31 3.42
-1 9 3 21.2 4.27
-1 9 3 14.33 3.97
-1 9 2 14.06 3.9
-1 9 2 11.06 3.74
-1 9 1 210.99 13.14
-1 9 1 211.14 14.37
-1 9 0 92.94 8.24
-1 9 0 94.53 8.46
1 -9 1 1.06 1.57
1 -9 1 2.48 1.21
-1 9 -1 0.88 3.63
-1 9 -1 5.2 3.8
1 -9 2 1.2 1.58
1 -9 2 2.48 2.01
1 -9 2 0.37 1.47
-1 9 -2 11.36 3.82
-1 9 -2 5.06 4.11
1 -9 3 3.91 2.68
-1 9 -3 2.45 4.41
1 -9 4 -1.47 4.48
-1 9 -4 1.81 4.3
1 -9 5 19.59 6.9
-1 9 -5 20.45 6.93
1 -8 -11 17.92 6.78
1 -8 -11 9.49 6.51
-1 8 11 6.95 5.98
-1 8 11 1.67 5.37
1 -8 -10 20.61 8.34
1 -8 -10 29.25 8.09
-1 8 10 41.96 7.06
-1 8 10 29.95 6.24
1 -8 -9 10.78 5.46
1 -8 -9 5.43 5.4
-1 8 9 5.86 4.65
-1 8 9 5.63 3.94
1 -8 -8 5.94 5.26
1 -8 -8 3.85 4.61
-1 8 8 16.25 4.55
-1 8 8 10.65 3.6
1 -8 -7 54.88 8.55
1 -8 -7 32.9 9.49
-1 8 7 71.19 4.71
-1 8 7 73.78 5.61
1 -8 -6 103.06 10.97
-1 8 6 125.65 9.57
-1 8 6 130.82 7.45
1 -8 -5 250.97 18.33
1 -8 -5 240.56 14.47
-1 8 5 279.8 16.27
-1 8 5 295.09 12.9
1 -8 -4 106.53 10.13
1 -8 -4 104.52 7.95
-1 8 4 137.45 8.56
-1 8 4 135.92 5.62
1 -8 -3 1.57 1.48
1 -8 -3 3.2 2.13
-1 8 3 2.94 3.01
-1 8 3 5.15 2.84
1 -8 -2 3.59 1.23
1 -8 -2 1.05 1.59
-1 8 2 5.33 3.1
-1 8 2 10.73 2.88
-1 8 1 70.77 6.25
-1 8 1 75.87 6.44
-1 8 0 19.39 4.23
-1 8 0 22.11 4.17
1 -8 1 7.08 1.86
1 -8 1 7.39 1.36
-1 8 -1 10.85 3.72
-1 8 -1 19.31 3.89
1 -8 2 6.3 2.31
-1 8 -2 12.24 3.92
1 -8 3 3.97 3.79
1 -8 3 2.76 2.55
-1 8 -3 -0.56 2.44
-1 8 -3 1.64 1.92
1 -8 4 16.24 5.35
1 -8 4 9.84 3.92
-1 8 -4 13.6 5.09
-1 8 -4 18.21 3.4
1 -8 5 32.68 7.37
1 -8 5 27.8 4.64
-1 8 -5 39.8 7.05
-1 8 -5 39.04 3.65
1 -8 6 40.65 8.72
1 -8 6 35.38 5.95
-1 8 -6 44.93 8.65
-1 8 -6 50.58 5.93
1 -7 -11 23.59 8.46
1 -7 -11 31.55 8.62
-1 7 11 30.08 7.66
-1 7 11 33.04 6.85
1 -7 -10 14.99 8.02
1 -7 -10 37.26 8.69
-1 7 10 35.56 7.13
-1 7 10 39.53 6.36
1 -7 -9 36.72 8.13
1 -7 -9 47.48 8.61
-1 7 9 38.7 7.1
-1 7 9 52.41 6.23
1 -7 -8 101.92 11.25
1 -7 -8 85.49 12.87
-1 7 8 100.14 9.03
-1 7 8 100.54 8.2
1 -7 -7 83.49 9.27
1 -7 -7 74.43 8.48
-1 7 7 80.64 7.58
-1 7 7 89.34 6.55
1 -7 -6 36.76 6.5
1 -7 -6 32.74 5.65
-1 7 6 49.54 3.65
-1 7 6 52.42 4.24
1 -7 -5 317.41 20.27
1 -7 -5 313.2 18.33
-1 7 5 328.61 14.2
-1 7 5 339.27 14.86
1 -7 -4 196.01 12.81
1 -7 -4 189.4 9.93
-1 7 4 212.17 10.99
-1 7 4 223.22 9.53
1 -7 -3 3.86 2.93
1 -7 -3 3.25 2.39
-1 7 3 10.02 2.68
-1 7 3 3.66 1.56
1 -7 -2 1.39 1.66
-1 7 2 9.15 2.72
-1 7 2 8.64 2.6
-1 7 1 67.31 5.14
-1 7 1 66.82 5.11
1 -7 0 0.92 1.48
1 -7 0 1.6 0.92
-1 7 0 2.9 2.61
-1 7 0 6.61 2.77
1 -7 1 138.93 6.44
-1 7 -1 154.48 9.41
-1 7 -1 164 9.78
1 -7 2 180.03 11.45
1 -7 2 179.23 8.75
-1 7 -2 174.6 8.23
-1 7 -2 184 6.97
1 -7 3 172.39 11.89
1 -7 3 150.38 9.57
-1 7 -3 166.87 11.76
-1 7 -3 170.9 6.46
1 -7 4 102.56 9.06
1 -7 4 79.42 7.41
-1 7 -4 89.74 8.66
-1 7 -4 94.1 4.67
1 -7 5 77.68 9.08
1 -7 5 67.33 7.85
-1 7 -5 72.72 8.78
-1 7 -5 79.72 5.1
1 -7 6 41.1 8.05
1 -7 6 44.54 7.45
-1 7 -6 44.26 7.95
-1 7 -6 47.99 4.71
1 -7 7 47.89 9.27
1 -7 7 49.51 6.93
-1 7 -7 41.55 9.08
-1 7 -7 51.56 5.51
1 -6 -11 8.73 7.2
1 -6 -11 14.16 7.92
-1 6 11 24.36 6.52
-1 6 11 15.95 6.34
1 -6 -10 20.93 6.97
1 -6 -10 26.97 7.54
-1 6 10 29.24 6.61
-1 6 10 19.87 3.83
1 -6 -9 54.22 8.83
1 -6 -9 69.56 10.15
-1 6 9 69.82 8.08
-1 6 9 61.94 7.72
1 -6 -8 125.4 11.91
1 -6 -8 101.71 11.37
-1 6 8 123.8 10.18
-1 6 8 123.02 9.3
1 -6 -7 6.42 4.61
1 -6 -7 15.56 4.81
-1 6 7 15.86 4.25
-1 6 7 16.44 3.54
1 -6 -6 45.56 5.94
1 -6 -6 45.47 6.04
-1 6 6 45.12 5.17
-1 6 6 45.03 5.53
1 -6 -5 128.81 9.21
1 -6 -5 111.55 8.38
-1 6 5 133.62 5.97
-1 6 5 143.66 6.64
1 -6 -4 23.93 2.77
1 -6 -4 26.01 3.61
-1 6 4 40.87 3.71
-1 6 4 33.72 3.08
1 -6 -3 52.45 5.33
1 -6 -3 58.39 4.86
-1 6 3 67.29 4.57
-1 6 3 72.04 3.32
1 -6 -2 154.03 6.25
-1 6 2 170.78 7.79
1 -6 -1 4.26 1.21
1 -6 -1 5.1 1.27
-1 6 1 8.87 2.41
-1 6 1 10.9 2.31
1 -6 0 18.06 1.43
-1 6 0 22.36 3.11
-1 6 0 26.37 3.1
1 -6 1 369.87 15.4
-1 6 -1 345.52 17.34
1 -6 2 247.84 14.92
1 -6 2 303.32 13.54
-1 6 -2 283.5 15.28
-1 6 -2 326.68 11.4
1 -6 3 81.63 6.77
1 -6 3 69.23 4.4
-1 6 -3 68.03 6.83
-1 6 -3 73.52 4.02
1 -6 4 223.93 14.06
1 -6 4 197.57 10.35
-1 6 -4 208.39 13.61
-1 6 -4 210.62 8.81
1 -6 5 66.4 8.07
1 -6 5 72.38 5.84
-1 6 -5 74.19 7.9
-1 6 -5 70.2 4.67
1 -6 6 19.74 5.91
1 -6 6 16.18 4.29
-1 6 -6 21.68 5.73
-1 6 -6 20.76 3.29
1 -6 7 44.85 8.48
1 -6 7 51.32 6.4
-1 6 -7 49.09 8.26
-1 6 -7 44.84 5.2
1 -6 8 12.59 6.36
1 -6 8 7.93 4.96
-1 6 -8 10.82 6.57
-1 6 -8 9.49 4.12
1 -5 -11 19.93 7.52
1 -5 -11 23.94 8.51
-1 5 11 25.24 7.14
-1 5 11 22.45 7.42
1 -5 -10 12.23 6.06
1 -5 -10 12.57 6.61
-1 5 10 16.13 5.65
-1 5 10 11.9 5.9
1 -5 -9 64.01 8.71
1 -5 -9 67.26 10.37
-1 5 9 62.32 8.19
-1 5 9 65.23 8.38
1 -5 -8 71.49 8.66
1 -5 -8 68.27 10.08
-1 5 8 80.84 7.91
-1 5 8 82.18 8.13
1 -5 -7 16.54 4.53
1 -5 -7 20.16 5.32
-1 5 7 19.6 4.28
-1 5 7 17.22 4.27
1 -5 -6 60.85 6.18
1 -5 -6 61.12 6.86
-1 5 6 59.32 5.58
-1 5 6 66.94 5.28
1 -5 -5 81.07 4.49
1 -5 -5 63.26 6.28
-1 5 5 79.4 5.76
-1 5 5 77.29 4.9
1 -5 -4 60.63 5.01
1 -5 -4 52.25 4.66
-1 5 4 59.43 4.3
-1 5 4 61.7 4.21
1 -5 -3 422.14 20.84
1 -5 -3 426.22 20.54
-1 5 3 440.47 19.1
-1 5 3 452.07 15.83
1 -5 -2 411.69 18.95
1 -5 -2 401.44 15.88
-1 5 2 391.23 14.31
-1 5 2 422.98 13.94
1 -5 -1 470.85 14.91
1 -5 -1 453.32 15.86
-1 5 1 504.69 21.56
-1 5 1 508.84 21.11
1 -5 0 340.97 9.64
1 -5 0 301.26 8.86
-1 5 0 327.52 13.82
-1 5 0 356.38 12.54
1 -5 1 609.84 29.7
1 -5 1 606.04 23.66
-1 5 -1 605.02 25.8
-1 5 -1 631.86 22.75
1 -5 2 242.12 13.22
1 -5 2 308.78 12.26
-1 5 -2 293.64 9.76
1 -5 3 368.75 18.6
1 -5 3 353.01 14.83
-1 5 -3 338.07 18.16
-1 5 -3 355.39 13.1
1 -5 4 92.5 7.81
1 -5 4 90.2 5.91
-1 5 -4 91.36 7.4
-1 5 -4 90.15 5.62
1 -5 5 10.83 4.19
1 -5 5 8.84 3.25
-1 5 -5 12.55 2.69
-1 5 -5 12.81 2.5
1 -5 6 24.1 5.5
1 -5 6 24.65 4.46
-1 5 -6 29.41 5.62
-1 5 -6 25.16 3.65
1 -5 7 7.75 5.81
1 -5 7 13.31 4.53
-1 5 -7 28.47 5.82
-1 5 -7 15.42 3.75
1 -5 8 13.5 6.33
1 -5 8 11.99 5.14
-1 5 -8 13.35 6.18
-1 5 -8 12.44 4.2
1 -5 9 -1.16 5.93
1 -5 9 7.91 4.73
-1 5 -9 -2.04 3.54
-1 5 -9 1.56 3.91
1 -4 -11 5.88 5.76
1 -4 -11 2.46 6.66
-1 4 11 6.71 5.53
-1 4 11 4.22 6.01
1 -4 -10 -4.18 5.02
1 -4 -10 5.21 5.95
-1 4 10 2.51 4.95
-1 4 10 9.59 3.29
1 -4 -9 39.33 7
1 -4 -9 38.16 8.02
-1 4 9 45.33 6.8
-1 4 9 40.64 7.34
1 -4 -8 72.76 8.28
1 -4 -8 83.35 10.39
-1 4 8 80.97 7.95
-1 4 8 78.09 8.77
1 -4 -7 50.42 6.27
1 -4 -7 51.43 8.39
-1 4 7 54.58 6.13
-1 4 7 58.39 6.53
1 -4 -6 65.89 6.02
1 -4 -6 61.98 6.92
-1 4 6 60.72 3.71
-1 4 6 71.14 5.98
1 -4 -5 68.38 5.45
1 -4 -5 58.83 6.17
-1 4 5 68.02 3.44
-1 4 5 84.95 5.21
1 -4 -4 5 2.53
1 -4 -4 1.69 2.59
-1 4 4 4.54 2.38
-1 4 4 5.59 1.98
1 -4 -3 1462.19 97.12
1 -4 -3 1494.67 97.61
-1 4 3 1478.88 92.82
-1 4 3 1559.35 89.93
1 -4 -2 1688.07 115.27
1 -4 -2 1675.71 101.92
-1 4 2 1697.06 109.96
-1 4 2 1781.27 106.24
1 -4 -1 272.01 8.38
-1 4 1 259.31 10.2
1 -4 0 665.3 22.27
1 -4 0 630.07 20.79
-1 4 0 625.45 28.06
-1 4 0 672.49 29.63
1 -4 1 235.11 10.02
1 -4 1 264.21 7.94
-1 4 -1 205.91 9.64
-1 4 -1 241.17 6.31
1 -4 2 25.83 3.1
1 -4 2 26.55 2.61
-1 4 -2 24.16 3.08
-1 4 -2 25.61 1.9
1 -4 3 177.82 8.98
1 -4 3 179 7.32
-1 4 -3 170.1 8.92
-1 4 -3 156.19 6.02
1 -4 4 79.42 6.07
1 -4 4 79.54 5.31
-1 4 -4 76.57 6.13
-1 4 -4 76.06 4.43
1 -4 5 7.57 4.01
1 -4 5 13.29 3.44
-1 4 -5 10.73 3.95
-1 4 -5 12.12 3.75
1 -4 6 9.81 4.75
1 -4 6 18.72 4.12
-1 4 -6 19.98 4.84
-1 4 -6 18.9 4.7
1 -4 7 63.1 7.69
1 -4 7 54.39 6.68
-1 4 -7 55.48 7.88
-1 4 -7 56.37 5.94
1 -4 8 15.4 3.84
1 -4 8 17.37 5.26
-1 4 -8 22.33 6.2
-1 4 -8 11.61 4.65
1 -4 9 9.42 3.88
1 -4 9 -1.4 5.26
-1 4 -9 11.88 6.21
-1 4 -9 12.98 4.68
1 -3 -11 2.09 5.7
1 -3 -11 2.57 3.68
-1 3 11 -0.61 5.34
-1 3 11 5.71 6.14
1 -3 -10 -5.15 5.08
1 -3 -10 -0.59 5.43
-1 3 10 -4.76 4.72
-1 3 10 5.9 5.25
1 -3 -9 18.54 5.39
1 -3 -9 15.5 6.19
-1 3 9 12.31 5.13
-1 3 9 10.63 6.03
1 -3 -8 40.39 6.15
1 -3 -8 31.83 7.02
-1 3 8 32.42 5.82
-1 3 8 40.07 6.78
1 -3 -7 262.11 16.39
1 -3 -7 249.2 19.71
-1 3 7 238.54 15.49
-1 3 7 257.85 12.59
1 -3 -6 376.23 20.56
1 -3 -6 384.26 24.51
-1 3 6 347.89 19.27
-1 3 6 400.44 22.7
1 -3 -5 0.23 2.46
1 -3 -5 5.76 2.93
-1 3 5 1.49 1.5
-1 3 5 -1.56 2.81
1 -3 -4 134.56 7.22
1 -3 -4 141.87 8.34
-1 3 4 139.64 6.98
-1 3 4 146.2 7.55
1 -3 -3 1642.8 109.18
1 -3 -3 1660.53 107.2
-1 3 3 1676.33 107.94
-1 3 3 1690.35 104.83
1 -3 -2 649.11 26
1 -3 -2 618.48 24.83
-1 3 2 612.44 23.49
-1 3 2 638.51 25.74
1 -3 -1 694.55 30.69
1 -3 -1 685.93 25.47
-1 3 1 648.71 28.17
-1 3 1 679.47 23.24
1 -3 0 91.53 1.58
1 -3 0 77.81 1.32
1 -3 1 16.41 2.35
1 -3 1 15.4 1.35
-1 3 -1 15.19 2.15
-1 3 -1 13.41 1.05
1 -3 2 35.99 2.11
1 -3 2 33.03 2.66
-1 3 -2 27.54 3.05
-1 3 -2 33.44 2.37
1 -3 3 200.86 9.35
1 -3 3 200.58 7.8
-1 3 -3 192.93 9.14
-1 3 -3 178.27 6.8
1 -3 4 105.25 4.56
1 -3 4 102.45 7.59
-1 3 -4 101.06 6.41
-1 3 -4 95 6.45
1 -3 5 -0.11 3
1 -3 5 0.49 2.94
-1 3 -5 3.31 1.94
-1 3 -5 4.13 2.41
1 -3 6 62.82 6.69
1 -3 6 65.87 6.71
-1 3 -6 74.17 6.91
-1 3 -6 57.67 5.48
1 -3 7 4.51 4.15
1 -3 7 2.61 3.84
-1 3 -7 5.2 4.3
-1 3 -7 5.46 3.33
1 -3 8 44.47 7.42
1 -3 8 47.08 7.04
-1 3 -8 49.19 7.47
-1 3 -8 39.42 5.98
1 -3 9 90.22 11.65
1 -3 9 103.8 10.66
-1 3 -9 104.91 11.89
-1 3 -9 86.3 9.49
1 -3 10 8.76 4.27
1 -3 10 20.18 6.26
-1 3 -10 10.46 7.12
-1 3 -10 17.09 5.87
1 -2 -11 11.54 7.06
1 -2 -11 11.87 7.11
-1 2 11 20.17 6.48
-1 2 11 8.7 7.47
1 -2 -10 26.64 6.57
1 -2 -10 23.06 6.92
-1 2 10 17.29 6.4
-1 2 10 22.22 7.69
1 -2 -9 17.11 5.57
1 -2 -9 10.25 6.48
-1 2 9 15.64 5.54
-1 2 9 22.44 4.05
1 -2 -8 23.36 3.57
1 -2 -8 28.25 6.73
-1 2 8 32.22 5.56
-1 2 8 39.92 6.7
1 -2 -7 403.63 19.2
1 -2 -7 377.57 27.12
-1 2 7 389.79 23.46
-1 2 7 441.5 28.31
1 -2 -6 299.99 16.08
1 -2 -6 294.7 18.91
-1 2 6 295.43 16.26
-1 2 6 324.82 18.76
1 -2 -5 18.15 3.4
1 -2 -5 14.14 4.35
-1 2 5 20.24 3.28
-1 2 5 20.03 2.41
1 -2 -4 3.68 2.46
1 -2 -4 6.48 3.17
-1 2 4 4.85 2.38
-1 2 4 5.46 2.8
1 -2 -3 359.89 15.17
1 -2 -3 377.09 16.15
-1 2 3 379.92 15.19
-1 2 3 372.83 15.43
1 -2 -2 155.6 6.82
1 -2 -2 142.54 6.36
-1 2 2 153.92 4.67
-1 2 2 152.1 6.44
1 -2 -1 1262.39 62.84
1 -2 -1 1181.87 60.06
-1 2 1 1206.87 63.67
-1 2 1 1248.03 62.2
-1 2 0 15.93 2.54
-1 2 0 28.34 2.37
1 -2 1 522.52 20.9
1 -2 1 533.27 17.68
-1 2 -1 489.87 19.87
-1 2 -1 518.41 17.04
1 -2 2 79.89 4.41
1 -2 2 78.12 4.25
-1 2 -2 69.5 4.12
-1 2 -2 76.8 3.21
1 -2 3 107.49 5.44
1 -2 3 106.54 4.84
-1 2 -3 104 5.31
-1 2 -3 95.42 4.67
1 -2 4 4.61 2.4
1 -2 4 2.79 2.37
-1 2 -4 1.45 2.52
-1 2 -4 2.91 2.2
1 -2 5 20.38 3.49
1 -2 5 21.33 3.54
-1 2 -5 11.39 3.64
-1 2 -5 16.85 3.35
1 -2 6 11.46 3.93
1 -2 6 18.28 4.28
-1 2 -6 17.87 4.16
-1 2 -6 13.8 3.76
1 -2 7 15.99 4.53
1 -2 7 7.87 4.77
-1 2 -7 17.89 4.83
-1 2 -7 14.98 4.16
1 -2 8 28.87 5.71
1 -2 8 24.52 5.61
-1 2 -8 23.2 5.89
-1 2 -8 21.26 4.93
1 -2 9 29.27 6.64
1 -2 9 21.27 6.63
-1 2 -9 32.49 6.85
-1 2 -9 24.97 5.94
1 -2 10 12.99 5.9
1 -2 10 5.9 5.72
-1 2 -10 10.15 6.1
-1 2 -10 5.6 5.1
1 -2 11 7.85 6.54
1 -2 11 9.39 6.3
-1 2 -11 3.44 6.67
-1 2 -11 5.21 3.56
1 -1 -11 19.81 7.48
1 -1 -11 21.21 7.58
-1 1 11 12.33 7.18
-1 1 11 18.5 8.44
1 -1 -10 29.17 7
1 -1 -10 28.65 7.25
-1 1 10 24.55 6.82
-1 1 10 17.71 5.1
1 -1 -9 -4.71 4.61
1 -1 -9 -7.91 4.89
-1 1 9 0.89 4.52
-1 1 9 -0.11 5.34
1 -1 -8 -1.22 4.15
1 -1 -8 6.83 4.62
-1 1 8 2.59 4.12
-1 1 8 8.33 5.12
1 -1 -7 418.11 25
1 -1 -7 374.33 26.31
-1 1 7 395.28 24.21
-1 1 7 414.49 21.15
1 -1 -6 460.31 25.18
1 -1 -6 426.95 26.46
-1 1 6 446.28 24.18
-1 1 6 469.68 27.46
1 -1 -5 150.28 8.53
1 -1 -5 143.82 9.74
-1 1 5 151.93 8.29
-1 1 5 162.43 9.68
1 -1 -4 357.67 15.83
1 -1 -4 360.8 17.52
-1 1 4 358.6 15.99
-1 1 4 384.92 18.52
1 -1 -3 74.49 4.28
1 -1 -3 69.93 3.23
-1 1 3 72.13 4.3
-1 1 3 67.52 3.19
1 -1 -2 25.56 2.91
1 -1 -2 24.22 3.47
-1 1 2 26.7 2.88
-1 1 2 28.7 3.85
1 -1 -1 5.01 1.67
1 -1 -1 5.79 1.47
-1 1 1 6.21 0.96
-1 1 1 5.25 2.31
1 -1 0 480.82 15.28
-1 1 0 469.62 15.02
-1 1 0 463.62 12.14
1 -1 1 143.71 4.99
1 -1 1 139.85 3.97
-1 1 -1 131.77 4.9
-1 1 -1 148.9 4.28
1 -1 2 1283.43 64.73
1 -1 2 1322.38 69.49
-1 1 -2 1258.76 68.91
-1 1 -2 1225.55 66.89
1 -1 3 107.67 3.65
1 -1 3 116.07 5.49
-1 1 -3 103.41 5.3
-1 1 -3 96.09 5.27
1 -1 4 34.09 2.19
1 -1 4 35.61 3.7
-1 1 -4 27.63 3.38
-1 1 -4 29.25 3.45
1 -1 5 164.39 8.77
1 -1 5 163.5 9.12
-1 1 -5 155.91 8.52
-1 1 -5 156.07 9.67
1 -1 6 84.53 6.71
1 -1 6 87.9 7.24
-1 1 -6 82.34 6.66
-1 1 -6 73.88 7.36
1 -1 7 10.17 3.61
1 -1 7 5.83 4
-1 1 -7 -7.96 3.68
-1 1 -7 2.29 3.69
1 -1 8 16.94 5.22
1 -1 8 21.83 5.44
-1 1 -8 19.9 5.32
-1 1 -8 19.8 5.19
1 -1 9 15.74 5.63
1 -1 9 21.69 5.8
-1 1 -9 14.26 5.78
-1 1 -9 14.5 5.17
1 -1 10 -0.25 4.66
1 -1 10 1.17 4.87
-1 1 -10 -1.79 4.82
-1 1 -10 -1.33 4.3
1 -1 11 -1.03 3.44
1 -1 11 -3.63 3.48
-1 1 -11 -2.28 5.72
-1 1 -11 -5.57 5.3
1 0 -11 47.27 10.08
1 0 -11 50.68 9.76
-1 0 11 44.84 9.56
-1 0 11 52.25 11.45
1 0 -10 69.62 10.27
1 0 -10 55.92 9.75
-1 0 10 56 9.62
-1 0 10 65.85 11.23
1 0 -9 0.65 5.07
1 0 -9 6.59 4.83
-1 0 9 3.3 4.68
-1 0 9 5.82 5.73
1 0 -8 11.46 4.56
1 0 -8 7.3 4.87
-1 0 8 6.08 4.31
-1 0 8 4.44 5.33
1 0 -7 55.95 6.42
1 0 -7 49.87 6.7
-1 0 7 44.92 6.31
-1 0 7 50.81 7.94
1 0 -6 62.95 5.84
1 0 -6 53.38 4.09
-1 0 6 60.81 5.85
-1 0 6 66.22 7.52
1 0 -5 501.2 24.57
1 0 -5 462.02 25.34
-1 0 5 508.25 21.29
-1 0 5 517.2 27.55
1 0 -4 25.14 2.03
1 0 -4 21.36 3.63
-1 0 4 23.14 3.31
-1 0 4 29.72 4.17
1 0 -3 116.3 5.62
1 0 -3 107.89 6.17
-1 0 3 116.5 4.03
-1 0 3 115.26 6.52
1 0 -2 115.81 5.65
1 0 -2 110.82 6.36
-1 0 2 124.68 5.92
-1 0 2 120.31 7.49
1 0 -1 980.85 42.47
1 0 -1 950.18 42.73
-1 0 1 1020.51 43.5
-1 0 1 921.23 38.36
1 0 2 1260.7 63.52
1 0 2 1213.13 62.71
-1 0 -2 1237.93 62.68
-1 0 -2 1232.18 64.59
1 0 3 216.84 8.44
1 0 3 202.36 6.74
-1 0 -3 203.06 8.44
-1 0 -3 198.61 9.46
1 0 4 27.27 3.33
-1 0 -4 22.49 1.79
-1 0 -4 26.29 3.42
1 0 5 313.43 14.96
-1 0 -5 292.18 10.56
-1 0 -5 279.49 14.98
1 0 6 84.65 6.17
1 0 6 85.09 7.09
-1 0 -6 86.36 4.19
-1 0 -6 82.62 6.99
1 0 7 38.88 5.27
1 0 7 44.02 6.32
-1 0 -7 49.87 5.44
-1 0 -7 41.73 6.79
1 0 8 9.73 4.39
1 0 8 18.04 5.08
-1 0 -8 9.9 4.57
-1 0 -8 9.61 5.41
1 0 9 17.94 5.09
1 0 9 13.02 5.59
-1 0 -9 12.91 5.35
-1 0 -9 13.62 5.54
1 0 10 -3.1 4.83
1 0 10 9.7 5.25
-1 0 -10 4.22 3.05
-1 0 -10 5.89 5.14
1 0 11 1.59 5.7
1 0 11 9.71 5.68
-1 0 -11 5.16 5.57
-1 0 -11 -2.92 5.33
1 1 -10 33.98 8.21
1 1 -10 34.45 8.35
-1 -1 10 35.22 7.87
-1 -1 10 35.91 9.08
1 1 -9 22.12 6.41
1 1 -9 18.03 6.17
-1 -1 9 17.44 6.26
-1 -1 9 26.36 7.14
1 1 -8 4.4 4.15
1 1 -8 3.87 4.26
-1 -1 8 -1.9 4.13
-1 -1 8 -1.76 4.94
1 1 -7 10.97 3.97
1 1 -7 2.42 4.08
-1 -1 7 3.43 3.93
-1 -1 7 -0.8 4.9
1 1 -6 10.29 3.63
1 1 -6 5.09 3.7
-1 -1 6 2.91 3.52
-1 -1 6 12.8 4.66
1 1 -5 26.74 3.9
1 1 -5 21.45 3.93
-1 -1 5 24.35 3.77
-1 -1 5 23.16 4.69
1 1 -4 106.98 6.35
1 1 -4 101.69 6.49
-1 -1 4 115.25 6.22
-1 -1 4 111.92 7.37
1 1 -3 37.72 3.64
1 1 -3 45.38 3.84
-1 -1 3 44.97 3.46
-1 -1 3 59.42 4.7
1 1 -2 1.18 1.99
1 1 -2 3.7 2.24
-1 -1 2 2.78 1.95
-1 -1 2 8.37 2.51
1 1 -1 24.82 2.51
1 1 -1 29.69 2.65
-1 -1 1 28.86 2.4
-1 -1 1 29.63 3.17
1 1 0 77.31 2.16
1 1 0 67.79 2.48
-1 -1 0 79.01 2.16
-1 -1 0 68.55 2.46
1 1 1 71.89 2.41
-1 -1 -1 70.95 1.41
-1 -1 -1 67.33 2.4
1 1 2 6.92 1.39
1 1 2 6.27 1.88
-1 -1 -2 6.23 1.32
-1 -1 -2 7.46 1.91
1 1 3 162.81 6.55
1 1 3 158.6 7.48
-1 -1 -3 156.69 6.57
-1 -1 -3 153.74 8.33
1 1 4 3.47 2.04
1 1 4 5.64 1.47
-1 -1 -4 4.04 2.03
-1 -1 -4 3.17 2.71
1 1 5 13.08 1.64
1 1 5 14.3 3.34
-1 -1 -5 14.35 2.74
-1 -1 -5 15 3.6
1 1 6 28.82 3.65
1 1 6 28.74 4.47
-1 -1 -6 28.2 3.62
-1 -1 -6 25.11 4.58
1 1 7 5.04 3.23
1 1 7 10.11 3.96
-1 -1 -7 8.68 3.3
-1 -1 -7 2.39 4.3
1 1 8 97.13 8.25
1 1 8 97.72 9.8
-1 -1 -8 98.89 8.27
-1 -1 -8 85.2 9.8
1 1 9 131.81 11.42
1 1 9 131.69 12.74
-1 -1 -9 145.09 11.32
-1 -1 -9 133.02 13.72
1 1 10 -1.64 4.81
1 1 10 8.04 5.33
-1 -1 -10 10.09 4.8
-1 -1 -10 7.67 3.4
1 1 11 12.03 5.86
1 1 11 10.27 6.56
-1 -1 -11 7.22 6.16
-1 -1 -11 19.07 6.59
1 1 12 -0.1 5.3
1 1 12 -3.78 5.86
-1 -1 -12 1.67 5.7
-1 -1 -12 3.65 5.78
1 2 -10 28.1 7.25
1 2 -10 7.87 6.6
-1 -2 10 16.62 7.13
-1 -2 10 15.85 7.65
1 2 -9 37.33 8.23
1 2 -9 41.81 7.77
-1 -2 9 42.77 8.22
-1 -2 9 49.43 8.69
1 2 -8 76.04 8.49
1 2 -8 54.62 8.19
-1 -2 8 58.01 8.06
-1 -2 8 60.84 9.12
1 2 -7 14.11 4.67
1 2 -7 10.01 4.54
-1 -2 7 10.45 4.39
-1 -2 7 5.37 5.36
1 2 -6 55.58 6.47
1 2 -6 52.2 6.36
-1 -2 6 50.77 6.01
-1 -2 6 61.63 7.42
1 2 -5 39.86 4.84
1 2 -5 42.94 4.8
-1 -2 5 38.83 4.54
-1 -2 5 36.75 5.8
1 2 -4 6.11 2.72
1 2 -4 4.39 2.73
-1 -2 4 5.98 2.56
-1 -2 4 4.98 3.12
1 2 -3 118.27 6.31
1 2 -3 120.6 6.62
-1 -2 3 118.5 6.11
-1 -2 3 129.81 5.04
1 2 -2 424.82 17.25
1 2 -2 437.69 17.45
-1 -2 2 443.95 17.41
-1 -2 2 475.36 18.89
1 2 -1 6.97 1.73
1 2 -1 8.28 1.79
-1 -2 1 6.25 1.69
-1 -2 1 4.91 2.12
1 2 0 6.2 1.77
1 2 0 3.37 1.55
-1 -2 0 7.1 1.79
-1 -2 0 6.6 1.65
1 2 1 1034.49 41.92
-1 -2 -1 1024.1 46.52
1 2 2 1380.32 67.95
1 2 2 1293.32 65.66
-1 -2 -2 1375.46 68.78
-1 -2 -2 1343.01 74.14
1 2 3 1632.65 94.66
1 2 3 1580.69 91.4
-1 -2 -3 1600.52 93.98
-1 -2 -3 1669.35 105.8
1 2 4 23.58 2.44
1 2 4 23.17 1.82
-1 -2 -4 21.07 2.48
-1 -2 -4 25.51 3.64
1 2 5 78.98 4.83
1 2 5 89.55 5.95
-1 -2 -5 91.04 4.7
-1 -2 -5 83.11 6.54
1 2 6 4.06 2.44
1 2 6 2.49 2.99
-1 -2 -6 1.08 2.35
-1 -2 -6 4.26 3.45
1 2 7 12.17 3.48
1 2 7 14.47 4.15
-1 -2 -7 19.13 3.35
-1 -2 -7 9.28 2.8
1 2 8 11.13 3.85
1 2 8 6.31 4.7
-1 -2 -8 9.81 4
-1 -2 -8 10.83 5.43
1 2 9 141.23 11.32
1 2 9 160.36 13.01
-1 -2 -9 151.81 11.97
-1 -2 -9 129.22 13.29
1 2 10 34.59 6.16
1 2 10 34.34 7.15
-1 -2 -10 29.61 6.45
-1 -2 -10 21.9 5.18
1 2 11 -1.86 4.61
1 2 11 2.37 5.26
-1 -2 -11 -5.12 4.75
-1 -2 -11 1.92 5.7
1 2 12 -1.71 5.43
1 2 12 13.95 5.96
-1 -2 -12 -0.59 5.41
-1 -2 -12 -3.36 6.41
1 3 -10 17.72 6.24
-1 -3 10 5.24 6.08
-1 -3 10 -2.15 4.11
1 3 -9 6.31 6.47
1 3 -9 15.73 5.58
-1 -3 9 13.33 6.12
-1 -3 9 16.99 6.53
1 3 -8 -1.45 4.56
1 3 -8 -3.63 3.93
-1 -3 8 -1.79 2.62
-1 -3 8 12.45 4.55
1 3 -7 46.73 6.85
1 3 -7 41.83 6.27
-1 -3 7 39.48 6.59
-1 -3 7 47.68 7.63
1 3 -6 49.79 6.45
1 3 -6 48.53 5.8
-1 -3 6 41.86 5.9
-1 -3 6 45.83 6.94
1 3 -5 4.83 3.26
1 3 -5 2.94 2.89
-1 -3 5 -0.55 3.19
-1 -3 5 5.8 3.86
1 3 -4 5.73 2.89
1 3 -4 5.55 2.53
-1 -3 4 3.57 2.62
-1 -3 4 0.03 3.54
1 3 -3 32.16 3.43
1 3 -3 27.36 3.05
-1 -3 3 31.12 3.25
-1 -3 3 34.44 3.92
1 3 -2 12.18 2.23
1 3 -2 8.76 2.01
-1 -3 2 10.25 2.12
-1 -3 2 7.33 2.41
1 3 -1 72.8 3.69
1 3 -1 78.38 3.55
-1 -3 1 81.28 4.6
-1 -3 1 86.51 3.88
1 3 0 10.6 1.54
1 3 0 11.78 1.64
-1 -3 0 12.31 1.53
-1 -3 0 11.92 1.76
1 3 1 92.14 3.71
1 3 1 93.75 2.89
-1 -3 -1 92.67 4.33
-1 -3 -1 97.22 3.65
1 3 2 40.45 1.96
1 3 2 39.45 2.47
-1 -3 -2 34.78 2.61
-1 -3 -2 32.33 2.46
1 3 3 92.83 3.59
1 3 3 92.92 4.13
-1 -3 -3 86.85 3.75
-1 -3 -3 91.86 4.67
1 3 4 384.93 14.79
1 3 4 392.06 16
-1 -3 -4 392.44 15.36
-1 -3 -4 409.87 18.35
1 3 5 688.27 32.66
1 3 5 726.16 34.96
-1 -3 -5 703.08 33.3
-1 -3 -5 666.97 37.29
1 3 6 35.65 3.65
1 3 6 38.9 4.26
-1 -3 -6 37.29 3.64
-1 -3 -6 28.25 5.31
1 3 7 15.21 3.67
1 3 7 24.56 4.38
-1 -3 -7 18.5 3.57
-1 -3 -7 26.37 5.41
1 3 8 44 5.58
1 3 8 51.81 6.47
-1 -3 -8 47.01 5.4
-1 -3 -8 44.06 7.68
1 3 9 71.72 7.31
1 3 9 70.7 8.74
-1 -3 -9 71.4 7.23
-1 -3 -9 60.58 9.8
1 3 10 6.4 4.5
1 3 10 8.43 5.29
-1 -3 -10 3.55 4.58
-1 -3 -10 13.82 5.76
1 3 11 14.32 5.44
1 3 11 18.4 6.13
-1 -3 -11 10.31 5.49
-1 -3 -11 5.13 7.43
1 3 12 6.15 5.5
1 3 12 0.95 3.75
-1 -3 -12 11.34 5.4
-1 -3 -12 6.44 4.31
1 4 -9 7.42 5.8
1 4 -9 7.14 4.69
-1 -4 9 -6.51 5.69
-1 -4 9 2.98 5.84
1 4 -8 17.9 5.82
1 4 -8 4.23 4.79
-1 -4 8 16.37 5.73
-1 -4 8 13.68 5.8
1 4 -7 -4.66 4.35
1 4 -7 4.51 3.53
-1 -4 7 1.36 4.22
-1 -4 7 3.44 4.59
1 4 -6 0.66 3.93
1 4 -6 5.44 3.26
-1 -4 6 -1.82 3.79
-1 -4 6 4.32 4.05
1 4 -5 16.78 4.27
1 4 -5 14.2 3.47
-1 -4 5 16.38 4.02
-1 -4 5 11.78 4.76
1 4 -4 -1.39 2.93
1 4 -4 3.42 2.28
-1 -4 4 3.45 2.7
-1 -4 4 0.24 3.54
1 4 -3 122.52 6.66
1 4 -3 113.89 5.89
-1 -4 3 123.18 6.6
-1 -4 3 126.38 7.5
1 4 -2 50.49 3.72
1 4 -2 51.18 3.19
-1 -4 2 51.84 3.63
-1 -4 2 59.09 3.91
1 4 -1 137.75 7.31
1 4 -1 133.96 5.04
-1 -4 1 133.69 5.54
-1 -4 1 147.82 6.02
1 4 0 -0.99 1.36
1 4 0 0.87 1.21
-1 -4 0 1.32 1.33
-1 -4 0 0.73 1.82
1 4 1 84.41 3.18
1 4 1 85.16 3.91
-1 -4 -1 87.41 3.53
-1 -4 -1 89.33 3.4
1 4 2 145.15 4.61
-1 -4 -2 122.86 4.66
-1 -4 -2 135.81 6.17
1 4 3 265.44 8.88
1 4 3 263.9 9.34
-1 -4 -3 255.17 9.57
-1 -4 -3 263.78 10.58
1 4 4 105.1 4.73
1 4 4 116.73 5.11
-1 -4 -4 107.29 5.12
-1 -4 -4 117.48 6.63
1 4 5 922.5 49.48
1 4 5 1011.23 53.55
-1 -4 -5 953.94 52.05
-1 -4 -5 956.86 56.93
1 4 6 112.98 6.47
1 4 6 126.67 6.89
-1 -4 -6 111.98 6.47
-1 -4 -6 110.67 9.2
1 4 7 8.31 3.06
1 4 7 8.71 3.47
-1 -4 -7 12 3.08
-1 -4 -7 4.43 4.53
1 4 8 4.87 3.53
1 4 8 4.56 3.94
-1 -4 -8 8.04 3.45
-1 -4 -8 11.17 5.25
1 4 9 19.07 2.89
1 4 9 19.09 5.17
-1 -4 -9 14.04 4.66
-1 -4 -9 14.91 6.2
1 4 10 40.28 6.52
1 4 10 47.6 7.09
-1 -4 -10 42.6 6.59
-1 -4 -10 27.73 8.52
1 4 11 16.98 5.57
1 4 11 17.69 6.3
-1 -4 -11 13.05 5.79
-1 -4 -11 17.59 7.08
1 4 12 14.72 5.51
1 4 12 2.81 6.1
-1 -4 -12 6.51 5.66
-1 -4 -12 4.79 7.79
1 5 -8 -6.4 5.42
1 5 -8 7.57 4.19
-1 -5 8 4.1 5.32
-1 -5 8 4.87 5.23
1 5 -7 26.87 6.32
1 5 -7 17.11 4.97
-1 -5 7 29.08 6.22
-1 -5 7 27.38 6.36
1 5 -6 5.91 4.38
1 5 -6 5.66 3.4
-1 -5 6 3.52 4.3
-1 -5 6 5.35 5.82
1 5 -5 5.82 4.01
1 5 -5 9.08 4.12
-1 -5 5 8.06 3.92
-1 -5 5 8.71 4.1
1 5 -4 36.29 4.71
1 5 -4 31.59 3.68
-1 -5 4 25.4 4.58
-1 -5 4 42.11 5.58
1 5 -3 65.16 5.28
1 5 -3 60.11 4.3
-1 -5 3 69.83 5.32
-1 -5 3 70.43 5.77
1 5 -2 9.4 2.54
1 5 -2 7.71 1.87
-1 -5 2 7.75 2.44
-1 -5 2 8.63 2.6
1 5 -1 178.09 8.04
1 5 -1 184.25 6.86
-1 -5 1 184.56 9.48
-1 -5 1 213.78 8.6
1 5 0 104.88 4.68
1 5 0 111.57 4.29
-1 -5 0 95.05 4.54
-1 -5 0 121.35 5.85
1 5 1 582.9 23.63
1 5 1 572.58 23.21
-1 -5 -1 601.33 24.06
-1 -5 -1 569.21 22.99
1 5 2 539.59 23.12
1 5 2 569.03 22.17
-1 -5 -2 584.07 25.39
-1 -5 -2 565.33 22.72
1 5 3 181.24 6.42
1 5 3 184.3 6.55
-1 -5 -3 166.34 6.93
-1 -5 -3 173.02 7.67
1 5 4 219.06 8.49
1 5 4 231.77 8.8
-1 -5 -4 217.87 9.14
-1 -5 -4 218.97 10.43
1 5 5 299.58 12.89
1 5 5 312.22 12.99
-1 -5 -5 314.79 14.32
-1 -5 -5 288.16 15.88
1 5 6 6.27 2.38
1 5 6 4.11 2.61
-1 -5 -6 3.23 2.46
-1 -5 -6 7.98 3.56
1 5 7 75.37 5.75
1 5 7 83.87 6.13
-1 -5 -7 74.03 5.93
-1 -5 -7 58.28 8.29
1 5 8 66.66 6.13
1 5 8 73.18 6.65
-1 -5 -8 57.44 6.36
-1 -5 -8 46.89 8.57
1 5 9 1.18 3.56
1 5 9 6.97 3.83
-1 -5 -9 1.64 3.52
-1 -5 -9 2.69 4.84
1 5 10 25.69 5.27
1 5 10 19.19 5.68
-1 -5 -10 23.43 5.35
-1 -5 -10 13.2 7.12
1 5 11 52.29 7.63
1 5 11 40.9 8.17
-1 -5 -11 46.29 7.59
-1 -5 -11 43.12 9.59
1 5 12 10.81 5.5
1 5 12 8.2 6.05
-1 -5 -12 8.72 5.57
-1 -5 -12 -0.49 7.99
1 6 -7 17.36 6.37
1 6 -7 20.55 4.89
-1 -6 7 24.25 6.58
-1 -6 7 18.02 6.32
1 6 -6 5.38 2.8
1 6 -6 4.67 3.38
-1 -6 6 4.23 4.61
-1 -6 6 0.34 4.3
1 6 -5 29.57 5.67
1 6 -5 30.68 4.28
-1 -6 5 33 5.65
-1 -6 5 26.02 5.43
1 6 -4 16.74 3.93
1 6 -4 10.94 3.04
-1 -6 4 8.45 3.8
-1 -6 4 15.6 4.32
1 6 -3 122.66 7.82
1 6 -3 103.07 5.74
-1 -6 3 105.76 7.77
-1 -6 3 118.67 8.28
1 6 -2 174.45 9.37
1 6 -2 167.85 7.71
-1 -6 2 182.52 9.26
-1 -6 2 182.54 9.9
1 6 -1 33.92 3.4
1 6 -1 36.79 3.35
-1 -6 1 30.03 3.33
-1 -6 1 29.47 4.59
1 6 0 97.07 6.37
1 6 0 100.86 4.03
-1 -6 0 96.68 5.41
-1 -6 0 113.8 6.26
1 6 1 397.44 16.45
1 6 1 415.92 16.86
-1 -6 -1 446.11 18.68
1 6 2 101.34 4.47
1 6 2 111.95 4.48
-1 -6 -2 88.86 5.39
-1 -6 -2 104.75 4.57
1 6 3 11.23 1.91
-1 -6 -3 6.94 2.69
-1 -6 -4 27.46 3
-1 -6 -4 29.53 3.28
1 6 5 19.73 2.67
1 6 5 18.74 2.55
-1 -6 -5 13.12 2.86
-1 -6 -5 13.67 3.47
1 6 6 23.15 3.99
1 6 6 21.95 3.04
-1 -6 -6 16.17 3.41
-1 -6 -6 19.28 4.33
1 6 7 84.49 6.1
1 6 7 88.33 6.23
-1 -6 -7 86.01 6.72
-1 -6 -7 57.33 8.7
1 6 8 2.68 3.17
1 6 8 2.29 3.38
-1 -6 -8 4.63 3.14
-1 -6 -8 0.5 4.48
1 6 9 30.46 5
1 6 9 32.54 5.3
-1 -6 -9 21.38 5.18
-1 -6 -9 20.96 6.84
1 6 10 15.88 4.93
1 6 10 24.9 5.33
-1 -6 -10 10.16 5.21
-1 -6 -10 12.88 6.46
1 6 11 34.13 6.53
1 6 11 39.9 7.05
-1 -6 -11 21.41 6.85
-1 -6 -11 27.59 8.62
1 6 12 18.53 6.37
1 6 12 20.66 6.95
-1 -6 -12 9.28 6.68
-1 -6 -12 26.13 8.2
1 7 -7 4.88 5.39
1 7 -7 2.4 3.98
-1 -7 7 6.28 5.24
-1 -7 7 2.48 5.13
1 7 -6 8.32 5.02
1 7 -6 7.25 3.53
-1 -7 6 5.07 5.12
-1 -7 6 2.85 4.94
1 7 -5 46.65 6.46
1 7 -5 34.2 4.5
-1 -7 5 40.81 6.54
-1 -7 5 37.67 6.33
1 7 -4 73.5 7.36
1 7 -4 70.89 5.18
-1 -7 4 69.18 7.33
-1 -7 4 59.86 7.16
1 7 -3 72.03 6.39
1 7 -3 68.73 4.64
-1 -7 3 60.37 6.25
-1 -7 3 61.06 6.46
1 7 -2 220.02 12.29
1 7 -2 221.01 10.43
-1 -7 2 225.55 12.66
-1 -7 2 227.39 12.65
1 7 -1 247.78 12.77
1 7 -1 262.17 10.7
-1 -7 1 274.83 13.19
-1 -7 1 203.71 13.79
1 7 0 72.57 4.61
-1 -7 0 45.42 5.39
1 7 1 271.31 12.24
1 7 1 263.29 11.78
-1 -7 -1 287.01 11.74
-1 -7 -2 7.04 2.42
-1 -7 -2 4.51 2.4
1 7 3 60.11 3.57
1 7 3 57.59 3.59
1 7 4 8.56 2.05
1 7 4 8.24 1.95
-1 -7 -4 1.24 2.23
-1 -7 -4 2.91 2.24
1 7 5 3.32 2.18
1 7 5 5.14 2.12
-1 -7 -5 2.9 2.36
-1 -7 -5 4 2.68
1 7 6 69.86 4.88
1 7 6 70.23 4.92
-1 -7 -6 40.31 6.63
1 7 7 263.65 15
1 7 7 273.39 14.46
-1 -7 -7 260.14 16.45
1 7 8 82.66 6.5
1 7 8 80.59 6.55
-1 -7 -8 63.28 7.48
-1 -7 -8 51.91 8.7
1 7 9 23.06 4.39
1 7 9 16.02 4.36
-1 -7 -9 8.15 4.75
-1 -7 -9 6.87 6
1 7 10 48.27 6.55
1 7 10 58.44 6.9
-1 -7 -10 27.7 6.92
-1 -7 -10 30.77 8.36
1 7 11 31.73 6.26
1 7 11 30.03 6.62
-1 -7 -11 18.16 6.72
-1 -7 -11 20.72 8.1
1 7 12 21.3 6.22
1 7 12 18.2 6.62
-1 -7 -12 8.24 6.48
-1 -7 -12 12.38 7.98
1 8 -6 21.08 6.64
1 8 -6 21.25 4.51
-1 -8 6 21.8 6.56
-1 -8 6 11.94 8.26
1 8 -5 11.91 5.32
1 8 -5 14.47 3.71
-1 -8 5 16.93 5.3
-1 -8 5 9.51 4.83
1 8 -4 30.04 5.35
1 8 -4 21.63 3.72
-1 -8 4 31.72 5.4
-1 -8 4 13.64 4.91
1 8 -3 119.07 8.84
1 8 -3 122.47 6.84
-1 -8 3 88.58 8.84
-1 -8 3 65.54 9.56
1 8 -2 66.8 5.98
1 8 -2 67.27 5.53
-1 -8 2 54.95 6.12
1 8 -1 8.26 3
1 8 -1 3.95 1.99
-1 -8 1 4.48 3.25
-1 -8 1 1.74 2.55
1 8 0 42.99 4.12
1 8 0 47.65 4.34
-1 -8 0 21.68 4.75
1 8 1 1.64 2.4
1 8 1 1.39 2.31
-1 -8 -1 6.2 2.55
-1 -8 -1 2.36 2.18
1 8 2 2.17 2.24
1 8 2 6.77 2.14
-1 -8 -2 -0.82 1.69
-1 -8 -2 1.5 1.68
1 8 3 115.72 6.2
1 8 3 113.21 6.12
1 8 4 74.81 5.15
1 8 4 66.3 4.45
1 8 5 12.32 2.62
1 8 5 9.89 2.47
-1 -8 -5 3.41 3.8
-1 -8 -5 0.79 3.03
-1 -8 -6 13.96 5.07
-1 -8 -6 17.06 4.32
1 8 7 295.06 16.39
1 8 7 286.51 16.87
1 8 8 93.72 7.23
1 8 8 77.19 7.22
-1 -8 -8 53.44 7.97
1 8 9 67.85 6.35
1 8 9 67.19 6.44
-1 -8 -9 24.11 7.47
-1 -8 -9 28.81 8.22
1 8 10 34.92 5.46
1 8 10 29.36 5.33
-1 -8 -10 14.4 6.31
-1 -8 -10 15.9 7.01
1 8 11 5.55 4.51
1 8 11 6.78 4.5
-1 -8 -11 0.94 5.09
-1 -8 -11 0.79 5.97
1 8 12 20.7 5.91
1 8 12 16.57 6.02
-1 -8 -12 -1.04 6.61
-1 -8 -12 10.64 7.63
1 9 -4 1.67 4.64
1 9 -4 7.66 4.11
-1 -9 4 5.76 4.68
-1 -9 4 6.92 5.48
1 9 -3 35.08 5.55
1 9 -3 24.45 4.98
-1 -9 3 37.9 5.7
1 9 -2 -2.22 3.46
1 9 -2 2.87 2.23
-1 -9 2 5.55 3.85
-1 -9 2 4.06 3.07
1 9 -1 4.65 3.13
-1 -9 1 1.16 2.44
-1 -9 1 -0.7 2.13
1 9 0 17.19 3.08
1 9 0 8.03 3.32
-1 -9 0 3.79 2.66
-1 -9 0 2.81 1.98
1 9 1 11.71 3
1 9 1 14.5 3.98
-1 -9 -1 2.95 2.39
1 9 2 62.71 4.9
1 9 2 60.95 6.59
1 9 3 255.25 13.26
1 9 3 262.77 13.59
-1 -9 -4 10.26 2.65
-1 -9 -4 8.35 2.86
1 9 5 12.02 2.74
-1 -9 -5 0.06 2.84
-1 -9 -6 12.52 5.08
-1 -9 -6 3.39 3.95
1 9 7 35.16 5.37
-1 -9 -7 14.79 4.82
-1 -9 -7 7.4 4.97
1 9 8 77.15 6.99
1 9 8 64.98 7.28
1 9 9 69.3 7.15
1 9 9 63.83 7.48
1 9 10 9.05 4.37
1 9 10 9.31 4.4
-1 -9 -10 10.6 5.08
-1 -9 -10 4.17 5.64
1 9 11 0.94 4.44
1 9 11 1.94 4.41
-1 -9 -11 8.81 5.12
-1 -9 -11 3.63 5.66
1 10 -3 5.76 4.58
-1 -10 3 12.65 5.2
-1 -10 3 3.91 3.73
-1 -10 2 1.48 3.38
-1 -10 2 0.33 2.62
1 10 -1 30.43 4.51
1 10 -1 28.76 4.81
-1 -10 1 3.05 4.81
-1 -10 1 6.35 3.48
1 10 0 45.64 5.21
1 10 0 40.24 5.62
1 10 1 5.45 2.94
1 10 1 -2.77 2.97
-1 -10 -1 2.03 3.06
-1 -10 -1 3.69 2.54
-1 -10 -2 8.61 2.67
-1 -10 -2 7.23 3.07
-1 -10 -3 64.31 5.4
-1 -10 -3 19.95 5.65
1 10 4 145.19 8.62
1 10 4 107.38 8.65
-1 -10 -5 4.86 3.65
-1 -10 -5 1.31 4.08
1 10 6 25.99 3.64
-1 -10 -6 -2.88 3.85
1 10 7 10.43 3.19
1 10 7 6.07 3.18
-1 -10 -7 -6.16 3.83
-1 -10 -7 -1.4 4.86
1 10 8 10.15 3.58
1 10 8 10.92 3.66
-1 -10 -8 5.77 4.34
-1 -10 -8 0.69 4.28
1 10 9 15.23 4.22
1 10 9 7.77 4.21
-1 -10 -9 9.47 4.95
-1 -10 -9 4.91 4.94
1 10 10 10.2 5.32
1 10 10 4.02 4.1
-1 -10 -10 6.44 4.78
-1 -10 -10 -5.92 5.14
1 11 -1 48.63 8.14
1 11 -1 37.23 7.22
1 11 0 37.93 4.88
1 11 0 30.08 5.14
-1 -11 0 13.79 4.57
-1 -11 0 10.55 3.77
1 11 1 21.92 3.9
1 11 1 13.84 4.04
-1 -11 -1 7.73 2.84
-1 -11 -1 4.45 3.13
-1 -11 -2 7.77 3.81
-1 -11 -2 8.56 3.51
1 11 3 31.54 4.41
-1 -11 -3 12.68 3.18
-1 -11 -3 11.86 3.87
1 11 4 19.73 3.84
-1 -11 -4 9.78 2.79
-1 -11 -4 6.24 3.97
1 11 5 22.32 4.07
-1 -11 -5 7.82 4.46
1 11 6 11.79 3.5
1 11 6 2.15 3.15
-1 -11 -6 4.79 2.76
-1 -11 -6 -1.16 4.26
1 11 7 -3.88 3
-1 -11 -7 3.76 3.23
1 11 8 8.57 3.4
1 11 8 1.27 3.51
-1 -11 -8 2.64 4.34
-1 -11 -8 -1.18 3.86
1 11 9 8.49 3.85
1 11 9 1.97 5.16
-1 -11 -9 0.45 4.73
-1 -11 -9 2.71 4.33
1 12 1 31.68 5.07
1 12 1 14.2 5.28
1 12 2 17.5 4.26
1 12 2 8.48 4.3
1 12 3 13.13 3.85
1 12 3 4.91 3.87
1 12 4 4.65 3.36
1 12 4 -1.13 3.36
-1 -12 -4 3.99 2.48
1 12 5 1.86 3.2
-1 -12 -5 2.12 3.23
-1 -12 -5 -1.44 3.63
1 12 6 7.64 5.03
1 12 6 5.87 3.23
-1 -12 -6 0.94 2.92
-1 -12 -6 4 3.12
1 12 7 -2.71 3.71
1 12 7 3.06 3.22
-1 -12 -7 2.17 2.8
-1 -12 -7 -1.64 3.13
1 12 8 9.25 4.84
1 12 8 4.8 4.66
-1 -12 -8 -0.57 3.8
-2 12 4 27.44 6.47
-2 12 4 3.8 5.46
-2 12 3 38.52 8.21
-2 12 2 -6.7 5.59
2 -11 -7 18.11 7.19
-2 11 7 13.3 5.67
-2 11 6 -0.07 3.94
-2 11 5 1.73 5.2
-2 11 5 7.24 4.34
-2 11 4 7.72 4.97
-2 11 4 0.28 4.2
-2 11 3 1.68 4.63
-2 11 3 2.6 4.21
-2 11 2 17.27 5.67
-2 11 2 8.12 5.38
-2 11 1 42.42 7.19
-2 11 1 22.92 7.15
-2 11 0 8.36 4.96
-2 11 0 0.52 5.38
-2 11 -1 1.13 5.12
-2 11 -1 8.49 5.43
2 -10 -9 1.8 5.95
2 -10 -9 6.25 5.59
-2 10 9 -1.5 4.9
-2 10 9 0.19 3.36
2 -10 -8 18.25 6.95
2 -10 -8 5.95 4.55
-2 10 8 25.98 5.45
-2 10 8 8.13 3.85
2 -10 -7 9.43 6.1
2 -10 -7 9.45 3.58
-2 10 7 22.74 4.9
-2 10 7 1.48 3.17
2 -10 -6 1.93 4.71
2 -10 -6 -1.22 3.13
-2 10 6 -4.27 3.72
-2 10 6 2.62 2.47
2 -10 -5 5.8 3.15
-2 10 5 30.07 4.71
-2 10 4 19.54 5.56
-2 10 4 15.49 4.67
-2 10 3 5.63 4.42
-2 10 3 4.39 3.96
-2 10 2 9.35 4.9
-2 10 2 12.14 2.95
-2 10 1 49.84 6.97
-2 10 1 44.97 7.52
-2 10 0 41.36 6.84
-2 10 0 33.13 7.04
-2 10 -1 35.35 6.61
-2 10 -1 32.34 4.64
-2 10 -2 35.46 6.92
-2 10 -2 33.46 4.82
-2 10 -3 18.89 6.33
-2 10 -3 13.86 6.52
2 -9 -9 5.91 5.91
2 -9 -9 1.34 4.53
-2 9 9 -0.25 5
-2 9 9 2.81 3.52
2 -9 -8 8.09 6.57
2 -9 -8 9.07 4.86
-2 9 8 19.32 5.27
-2 9 8 19.24 3.84
2 -9 -7 -1.57 4.85
2 -9 -7 4.55 4.19
-2 9 7 2.49 3.91
-2 9 7 -0.56 2.47
2 -9 -6 0.21 3.26
2 -9 -6 7.99 3.12
-2 9 6 18.81 4.39
-2 9 6 12.8 3.46
2 -9 -5 15.94 5.68
2 -9 -5 12.36 3.14
-2 9 5 14.13 3.04
2 -9 -4 2.03 2.08
-2 9 4 4.92 3.52
-2 9 3 4.39 4.33
-2 9 3 14.35 3.98
-2 9 2 37.55 5.89
-2 9 2 37.24 5.53
-2 9 1 9.18 4.45
-2 9 1 13.69 4.49
-2 9 0 47.72 6.65
-2 9 0 43.76 6.81
-2 9 -1 133.92 11.45
-2 9 -1 138.61 12.09
-2 9 -2 5.8 4.58
-2 9 -2 11.72 4.94
-2 9 -3 10.43 4.81
-2 9 -3 4.64 5.23
-2 9 -4 0.18 4.45
2 -9 5 2.83 6.45
-2 9 -5 5.99 5.52
2 -8 -10 8.26 6.67
2 -8 -10 5.73 5.79
-2 8 10 6.72 5.46
-2 8 10 4.6 4.61
2 -8 -9 2.21 7.11
2 -8 -9 10.91 5.92
-2 8 9 20.46 5.8
-2 8 9 22.89 4.72
2 -8 -8 0.12 5.85
2 -8 -8 8.67 4.7
-2 8 8 15.01 5.05
-2 8 8 11.81 3.82
2 -8 -7 7.95 4.83
2 -8 -7 1.45 3.69
-2 8 7 4.15 2.5
-2 8 7 4.34 3.87
2 -8 -6 0.17 4.87
2 -8 -6 7.69 3.54
-2 8 6 11.23 4.2
-2 8 6 9.23 3.29
2 -8 -5 147.34 12.94
2 -8 -5 106.61 11
-2 8 5 149.72 10.59
-2 8 5 161.77 8.53
2 -8 -4 89.47 9.62
2 -8 -4 68.98 6.46
-2 8 4 108.09 7.78
-2 8 4 96.9 4.88
2 -8 -3 61.55 2.77
2 -8 -3 53.19 4.24
-2 8 2 94.09 5.36
-2 8 2 84.46 7.48
-2 8 1 26.73 4.82
-2 8 1 30.04 3.15
-2 8 0 82.05 7.36
-2 8 0 91.38 7.85
-2 8 -1 78.49 7.68
-2 8 -1 81.89 8.01
-2 8 -2 1.9 3.81
-2 8 -2 5.11 4.06
2 -8 3 0.69 1.44
-2 8 -3 6.5 3.76
2 -8 4 11.97 4.79
2 -8 4 4.27 2.41
-2 8 -4 -0.77 4.71
-2 8 -4 4.99 1.88
2 -8 5 22.84 6.62
-2 8 -5 17.6 6.31
2 -8 6 2.49 6.13
-2 8 -6 10.39 5.88
2 -7 -10 6.08 6.2
2 -7 -10 3.57 5.79
-2 7 10 0.96 5.37
-2 7 10 6.72 4.59
2 -7 -9 13.29 7.67
2 -7 -9 22.82 6.98
-2 7 9 32.11 6.41
-2 7 9 34.57 5.5
2 -7 -8 10.52 6.59
2 -7 -8 23.88 5.82
-2 7 8 24.67 5.88
-2 7 8 22.82 4.54
2 -7 -7 -0.2 4.22
2 -7 -7 3.44 3.53
-2 7 7 1.75 3.6
-2 7 7 -4.4 2.78
2 -7 -6 15.75 5.54
2 -7 -6 18.27 4.59
-2 7 6 25.4 4.78
-2 7 6 22.47 3.37
2 -7 -5 6.2 3.76
2 -7 -5 1.65 3.89
-2 7 5 9.51 3.22
-2 7 5 -1.9 2.72
2 -7 -4 9.33 4.54
2 -7 -4 12.88 3.85
-2 7 4 15.98 3.98
-2 7 4 23.01 2.5
2 -7 -3 264.11 18.12
-2 7 3 301.68 15.74
-2 7 3 277.98 9.61
2 -7 -2 24.15 1.12
2 -7 -2 19.69 1.63
-2 7 1 11.7 3.37
-2 7 1 7.02 3.32
-2 7 0 35.01 4.6
-2 7 0 35.03 3.07
-2 7 -1 55.66 5.78
-2 7 -1 52.1 5.84
2 -7 2 10.32 1.09
-2 7 -2 22.24 3.9
2 -7 3 14.03 4.99
2 -7 3 17.39 2.35
-2 7 -3 18 4.63
-2 7 -3 21.33 1.82
2 -7 4 10.02 5
2 -7 4 9.12 2.85
-2 7 -4 5.98 4.88
-2 7 -4 14.3 2.36
2 -7 5 -0.21 4.54
2 -7 5 1.62 3
-2 7 -5 -5.37 4.24
-2 7 -5 2.61 1.71
2 -7 6 22.54 4.58
2 -7 6 24.89 3.91
-2 7 -6 26.96 4.21
-2 7 -6 28.72 3.36
2 -7 7 8.23 6.13
2 -7 7 9.31 4.73
-2 7 -7 -0.01 5.85
-2 7 -7 4.07 4.03
2 -6 -11 0.9 7.06
2 -6 -11 10.65 6.94
-2 6 11 10.77 6.64
-2 6 11 14.65 6.21
2 -6 -10 2.98 6.52
2 -6 -10 18.77 6.26
-2 6 10 0.97 6.01
-2 6 10 17.76 5.55
2 -6 -9 48.44 9.19
2 -6 -9 45.74 8.76
-2 6 9 47.37 8.19
-2 6 9 59.89 7.44
2 -6 -8 8.93 5.52
2 -6 -8 8.85 5.33
-2 6 8 12.06 4.75
-2 6 8 9.42 4.34
2 -6 -7 -0.2 4.66
2 -6 -7 7.18 4.25
-2 6 7 9.73 4.17
-2 6 7 4.33 4.58
2 -6 -6 47.97 6.94
2 -6 -6 44.88 5.99
-2 6 6 54.4 3.94
-2 6 6 57.13 4.94
2 -6 -5 7.07 3.54
2 -6 -5 0.63 3.22
-2 6 5 5.48 3.27
-2 6 5 3.17 2.91
2 -6 -4 117.88 6.75
2 -6 -4 106.35 8.76
-2 6 4 128.86 5.69
-2 6 4 137.85 5.57
2 -6 -3 283.53 16.45
2 -6 -3 256.89 12.79
-2 6 3 291.53 14.19
-2 6 3 307.15 10.82
2 -6 -2 2.28 1.89
2 -6 -2 4.57 1.32
-2 6 2 5.86 2.67
-2 6 2 5.6 0.85
-2 6 1 31.25 4.04
-2 6 1 45.89 4.1
-2 6 0 -0.9 2.39
-2 6 0 1.79 2.49
-2 6 -1 -6.51 2.5
-2 6 -1 6.56 2.65
2 -6 2 -3.38 3.4
2 -6 2 1.41 1.11
-2 6 -2 3.26 2.99
-2 6 -2 2.1 0.88
2 -6 3 5.99 3.39
2 -6 3 1.35 1.91
-2 6 -3 2.69 3.22
-2 6 -3 0.66 1.28
2 -6 4 81.87 7.88
2 -6 4 67.54 4.1
-2 6 -4 75.82 5.11
-2 6 -4 80.36 4.34
2 -6 5 12.39 5.07
2 -6 5 11.79 2.81
-2 6 -5 13.94 4.72
-2 6 -5 11.43 2.93
2 -6 6 39.84 7.56
2 -6 6 42 5.99
-2 6 -6 43.21 4.66
-2 6 -6 41.58 3.81
2 -6 7 19.54 6.22
2 -6 7 10.29 3.88
-2 6 -7 18.63 6.02
-2 6 -7 15.03 4.46
2 -6 8 0.46 6.14
2 -6 8 2.5 5.27
-2 6 -8 8.91 5.87
-2 6 -8 5.57 4.56
2 -5 -11 11.26 6.78
2 -5 -11 9.25 7.02
-2 5 11 5.1 6.21
-2 5 11 2.47 6.33
2 -5 -10 11.28 4.18
2 -5 -10 16.36 6.67
-2 5 10 18.22 6.21
-2 5 10 12.54 6.08
2 -5 -9 27.41 7.29
2 -5 -9 35.96 7.62
-2 5 9 27.54 6.95
-2 5 9 37.7 6.74
2 -5 -8 22.64 6.19
2 -5 -8 29.09 6.45
-2 5 8 27.39 5.8
2 -5 -7 121.92 11.01
2 -5 -7 115.9 10.86
-2 5 7 115.25 6.74
-2 5 7 124.91 9.59
2 -5 -6 73.4 7.66
2 -5 -6 76.37 10.02
-2 5 6 78.5 6.94
-2 5 6 72.7 6.57
2 -5 -5 9.89 3.68
2 -5 -5 5.47 3.44
-2 5 5 11.29 3.36
-2 5 5 9.66 2.71
2 -5 -4 54.95 3.78
2 -5 -4 53.45 4.88
-2 5 4 59.52 4.81
-2 5 4 62.19 3.67
2 -5 -3 45.35 3.27
2 -5 -3 49.98 3.47
-2 5 3 53.05 4.29
-2 5 3 56.73 3.25
2 -5 -2 37.95 4.12
2 -5 -2 33.13 2.29
-2 5 2 40.3 3.64
-2 5 2 39.99 1.79
-2 5 1 48.38 4.32
-2 5 1 42.39 3.84
-2 5 0 4.72 2.54
-2 5 0 9.39 2.51
-2 5 -1 4.97 2.56
-2 5 -1 12.07 2.81
2 -5 2 22.95 2.29
2 -5 2 19.76 1.86
-2 5 -2 15.87 2.18
-2 5 -2 19.88 1.06
2 -5 3 27.54 4.1
2 -5 3 19.31 2.6
-2 5 -3 24.1 3.93
-2 5 -3 21.79 1.91
2 -5 4 67.7 6.34
2 -5 4 45.05 4.88
-2 5 -4 63.02 4.2
-2 5 -4 61.24 3.91
2 -5 5 9.58 4.41
2 -5 5 7.17 2.67
-2 5 -5 13.78 4.24
-2 5 -5 8.8 2.21
2 -5 6 6.18 4.37
2 -5 6 3.19 2.82
-2 5 -6 3.64 4.19
-2 5 -6 0.17 3.18
2 -5 7 13.36 5.13
2 -5 7 7.69 3.57
-2 5 -7 11.63 5.15
-2 5 -7 4.96 4.22
2 -5 8 1.17 5.22
2 -5 8 1.76 3.85
-2 5 -8 3.58 5.3
-2 5 -8 5.25 3.34
2 -5 9 6.03 5.75
2 -5 9 5.71 4.24
-2 5 -9 2.64 3.57
-2 5 -9 -1.23 3.92
2 -4 -11 -2.86 6.59
2 -4 -11 4.48 6.87
-2 4 11 3.72 6.21
-2 4 11 14.87 6.44
2 -4 -10 26.1 7.34
2 -4 -10 22.03 7.56
-2 4 10 21.24 6.99
-2 4 10 22.25 7.41
2 -4 -9 -1.05 4.91
2 -4 -9 6.86 5.17
-2 4 9 5.82 4.76
-2 4 9 4.45 5.09
2 -4 -8 15.19 5.4
2 -4 -8 21.49 5.69
-2 4 8 13.56 5.06
-2 4 8 10.88 5.36
2 -4 -7 87.89 8.63
2 -4 -7 76.64 9.2
-2 4 7 79.65 8.02
-2 4 7 82.6 8.79
2 -4 -6 -1.2 3.47
2 -4 -6 9.19 3.77
-2 4 6 1.22 3.28
-2 4 6 1.95 3.45
2 -4 -5 200.75 12.3
2 -4 -5 206.79 12.26
-2 4 5 200.97 11.27
-2 4 5 223.9 11.78
2 -4 -4 0.75 2.68
2 -4 -4 2.38 3.27
-2 4 4 4.47 2.51
-2 4 4 0.7 2.2
2 -4 -3 1.44 2.77
2 -4 -3 4.9 2.71
-2 4 3 7.66 1.55
-2 4 3 7.83 1.79
2 -4 -2 105.42 6.59
2 -4 -2 109.39 4.66
-2 4 2 112.01 4.13
-2 4 2 116.71 4.33
2 -4 -1 10.76 2.84
2 -4 -1 13.4 0.99
-2 4 1 18.16 2.57
-2 4 1 15.81 0.95
-2 4 0 310.81 13.29
-2 4 0 319.53 13.48
-2 4 -1 349.41 15.08
2 -4 2 151.26 7.6
2 -4 2 145.19 4.43
-2 4 -2 131.65 7.12
-2 4 -2 138.84 3.73
2 -4 3 41.46 4.25
2 -4 3 36.11 3.2
-2 4 -3 40.98 2.69
-2 4 -3 45.58 2.7
2 -4 4 17.83 3.68
2 -4 4 13.17 2.39
-2 4 -4 18.35 3.69
-2 4 -4 13.28 2.62
2 -4 5 13.54 3.62
2 -4 5 3.41 2.65
-2 4 -5 7.42 2.28
-2 4 -5 4.89 2.27
2 -4 6 10.84 4.16
2 -4 6 9.86 3.11
-2 4 -6 10.11 4.19
-2 4 -6 1.84 2.75
2 -4 7 8.05 5.36
2 -4 7 18.36 3.89
-2 4 -7 13.73 5.01
-2 4 -7 11.79 4.64
2 -4 8 -5.03 3.02
2 -4 8 0.24 3.65
-2 4 -8 2.38 4.73
-2 4 -8 0.3 3.21
2 -4 9 4.77 3.61
2 -4 9 4.82 4.3
-2 4 -9 6.47 5.71
-2 4 -9 2.24 4.15
2 -4 10 14.55 4.78
2 -4 10 8.31 5.85
-2 4 -10 12.29 7.22
-2 4 -10 14.41 5.46
2 -3 -11 5.92 5.82
2 -3 -11 3.19 6.07
-2 3 11 -4.66 5.45
-2 3 11 -0.64 3.81
2 -3 -10 5.79 5.51
2 -3 -10 -0.97 5.85
-2 3 10 6.01 5.38
-2 3 10 5.48 5.96
2 -3 -9 6.1 4.58
2 -3 -9 -6.61 4.71
-2 3 9 -0.29 4.3
-2 3 9 0.3 5.02
2 -3 -8 11.44 4.62
2 -3 -8 4.11 3.06
-2 3 8 11.07 4.62
-2 3 8 11.39 5.03
2 -3 -7 20.45 4.7
2 -3 -7 14.45 5.16
-2 3 7 15.71 4.65
-2 3 7 11.97 5.48
2 -3 -6 18.59 4.21
2 -3 -6 15.77 4.87
-2 3 6 21.53 4.26
-2 3 6 20.48 4.74
2 -3 -5 15.86 3.64
2 -3 -5 12.55 4.06
-2 3 5 16.32 3.69
-2 3 5 19.72 3.96
2 -3 -4 144.36 7.99
2 -3 -4 136.57 7.72
-2 3 4 144.9 7.41
-2 3 4 143.9 7.59
2 -3 -3 657.66 33.3
2 -3 -3 660.15 30.15
-2 3 3 676.24 32.37
-2 3 3 677.62 34.11
2 -3 -2 10.03 1.61
2 -3 -2 9.77 2.05
-2 3 2 8.72 2.34
-2 3 2 10.28 2.24
2 -3 -1 68.2 4.15
2 -3 -1 61.16 2.14
-2 3 1 69.46 3.95
-2 3 1 67.71 2.51
-2 3 0 116.96 6.59
-2 3 0 177.24 5.16
-2 3 -1 2.24 1.91
2 -3 2 9.07 2.41
2 -3 2 9.59 1.28
-2 3 -2 11.47 2.31
-2 3 -2 9.02 1.29
2 -3 3 30.2 3.38
2 -3 3 28.6 2.79
-2 3 -3 29.61 3.24
-2 3 -3 25.5 2
2 -3 4 4.54 2.56
2 -3 4 -0.35 2.66
-2 3 -4 3.11 2.53
-2 3 -4 1.79 1.79
2 -3 5 13.16 3.69
2 -3 5 8.86 2.9
-2 3 -5 12.82 3.5
-2 3 -5 8.23 3.59
2 -3 6 268.28 16.56
2 -3 6 261.42 18.34
-2 3 -6 263.12 16.3
-2 3 -6 250.93 13.94
2 -3 7 73.31 5.34
2 -3 7 64.93 6.72
-2 3 -7 68.5 7.75
-2 3 -7 67.62 7.79
2 -3 8 2.71 4.37
2 -3 8 1.64 3.64
-2 3 -8 3.21 4.43
-2 3 -8 -0.83 3.25
2 -3 9 26.11 7.24
2 -3 9 28.77 5.83
-2 3 -9 23.92 6.96
-2 3 -9 26.85 5.38
2 -3 10 22.47 6.6
2 -3 10 0.74 5.55
-2 3 -10 12.52 6.62
-2 3 -10 9.89 5.14
2 -2 -11 29.26 7.96
2 -2 -11 22.5 7.94
-2 2 11 12.41 7.32
-2 2 11 7.24 8.53
2 -2 -10 10.55 6.07
2 -2 -10 9.47 6.35
-2 2 10 10.25 5.73
-2 2 10 2.7 6.94
2 -2 -9 64.74 9.45
2 -2 -9 64.77 9.78
-2 2 9 64.48 9.08
-2 2 9 79.49 6.93
2 -2 -8 13.89 5.16
2 -2 -8 14.08 5.52
-2 2 8 16.09 5.05
-2 2 8 9.96 5.87
2 -2 -7 32.87 5.64
2 -2 -7 27.39 5.97
-2 2 7 27.12 5.47
-2 2 7 31.72 6.77
2 -2 -6 63.66 6.38
2 -2 -6 57.43 4.35
-2 2 6 56.96 6.19
-2 2 6 60.29 4.62
2 -2 -5 4.58 3.06
2 -2 -5 2.47 3.31
-2 2 5 2.72 3.01
-2 2 5 9.51 3.65
2 -2 -4 39.37 3.85
2 -2 -4 35.37 3.95
-2 2 4 34.52 3.76
-2 2 4 42.19 4.26
2 -2 -3 212.7 9.63
2 -2 -3 203.51 8.93
-2 2 3 212.52 9.33
-2 2 3 221.08 9.65
2 -2 -2 -4.2 2.08
2 -2 -2 2.27 1.53
-2 2 2 1.81 1.15
-2 2 2 3.57 1.76
2 -2 -1 719.52 32.53
2 -2 -1 655.38 26.33
-2 2 1 679.34 29.87
-2 2 1 739.38 28.52
2 -2 0 157.04 6.25
2 -2 0 152.73 3.71
-2 2 0 145.74 5.94
-2 2 0 149.83 3.79
-2 2 -1 200.11 7.68
-2 2 -1 213.57 5.08
2 -2 2 22.95 2.49
2 -2 2 22.59 1.64
-2 2 -2 18.35 2.45
-2 2 -2 16.74 1.86
2 -2 3 81.22 3.17
2 -2 3 90.37 4.6
-2 2 -3 77.4 4.43
-2 2 -3 68.02 3.45
2 -2 4 1.73 2.42
2 -2 4 3.79 2.08
-2 2 -4 6.05 2.33
-2 2 -4 3.93 1.99
2 -2 5 50.96 4.63
2 -2 5 49.27 4.44
-2 2 -5 55.92 4.74
-2 2 -5 39.3 4.55
2 -2 6 440.11 24.57
2 -2 6 462.15 24.87
-2 2 -6 439.01 24.39
-2 2 -6 412.64 24.46
2 -2 7 263.58 17.61
2 -2 7 278.15 17.18
-2 2 -7 282.31 17.72
-2 2 -7 252.87 16.33
2 -2 8 41.32 6.04
-2 2 -8 46.98 6.69
-2 2 -8 37.08 5.93
2 -2 9 8.18 4.97
2 -2 9 -1.51 4.38
-2 2 -9 6.11 4.98
-2 2 -9 9.28 4.13
2 -2 10 30.41 6.96
2 -2 10 18.48 6.3
-2 2 -10 26.48 7.05
-2 2 -10 13.77 5.77
2 -2 11 12.77 7.28
2 -2 11 18.91 6.4
-2 2 -11 13.94 7.43
-2 2 -11 13.13 6.23
2 -1 -11 -2.66 6.43
2 -1 -11 0.98 6.66
-2 1 11 -1.48 6.09
-2 1 11 -10.54 7.41
2 -1 -10 10.83 5.71
2 -1 -10 -0.17 5.89
-2 1 10 5 3.38
-2 1 10 -1.87 6.63
2 -1 -9 26.5 6.54
2 -1 -9 18.92 7.11
-2 1 9 28.92 6.43
-2 1 9 18.36 7.82
2 -1 -8 40.84 7.13
2 -1 -8 43.14 7.25
-2 1 8 46.35 6.83
-2 1 8 43.64 8.41
2 -1 -7 156.05 11.54
2 -1 -7 143.85 12.45
-2 1 7 150.6 11.49
-2 1 7 161.95 14.33
2 -1 -6 13.43 3.98
2 -1 -6 16.31 4.56
-2 1 6 11.14 2.52
-2 1 6 14.6 3.26
2 -1 -5 166.59 6.83
2 -1 -5 157.53 10.29
-2 1 5 166.65 9.35
-2 1 5 156.61 7.5
2 -1 -4 3.95 2.52
2 -1 -4 5.11 2.68
-2 1 4 -0.99 2.49
-2 1 4 5.33 3.07
2 -1 -3 76.64 4.56
2 -1 -3 65.48 4.63
-2 1 3 74.76 4.37
-2 1 3 74.88 5.09
2 -1 -2 59.19 3.76
2 -1 -2 61.4 3.7
-2 1 2 57.98 3.7
-2 1 2 65.57 4.17
2 -1 -1 22.53 2.5
2 -1 -1 22.74 1.92
-2 1 1 16.03 2.43
-2 1 1 23.44 2.33
2 -1 0 19.05 2.09
2 -1 0 17.33 1.27
-2 1 0 17.41 2.09
-2 1 0 16.88 1.42
-2 1 -1 46.64 2.76
-2 1 -1 49.46 2.22
2 -1 2 693.74 32.2
2 -1 2 788.67 30.77
-2 1 -2 800.93 34.89
-2 1 -2 822.49 33.1
2 -1 3 328.46 13.42
2 -1 3 345.42 12.26
-2 1 -3 348.34 13.63
-2 1 -3 336.72 12.75
2 -1 4 0.5 2.06
2 -1 4 4.86 2.04
-2 1 -4 0.7 2.09
-2 1 -4 0.29 2.13
2 -1 5 118.31 6.49
2 -1 5 126.48 6.65
-2 1 -5 117.45 6.46
-2 1 -5 93.2 6.51
2 -1 6 272.17 14.36
2 -1 6 290.76 15.5
-2 1 -6 285.39 14.48
-2 1 -6 233.83 14.55
2 -1 7 127.92 9.33
2 -1 7 130.1 10.05
-2 1 -7 134.03 6.76
-2 1 -7 117.84 9.63
2 -1 8 57.72 6.84
2 -1 8 51.43 6.97
-2 1 -8 58.76 7.11
-2 1 -8 61.21 7.58
2 -1 9 41.48 7.04
2 -1 9 40.56 6.92
-2 1 -9 54.36 7.18
-2 1 -9 41.87 6.92
2 -1 10 16.82 6.01
2 -1 10 17.46 5.79
-2 1 -10 11.25 6.01
-2 1 -10 16.55 5.81
2 -1 11 7.59 5.58
2 -1 11 4.66 5.43
-2 1 -11 13.66 5.76
-2 1 -11 -5.32 5.25
2 0 -10 4.47 6.05
2 0 -10 8.96 3.94
-2 0 10 12.76 5.79
-2 0 10 -8.1 7.21
2 0 -9 0.82 3.1
2 0 -9 2.31 5.42
-2 0 9 4.41 4.91
-2 0 9 5.85 3.66
2 0 -8 19.71 5.68
2 0 -8 25.48 5.99
-2 0 8 22.61 5.55
-2 0 8 13.67 6.88
2 0 -7 153.43 11.38
2 0 -7 130.81 7.84
-2 0 7 129.24 10.65
-2 0 7 150.53 13.7
2 0 -6 2.7 3.83
2 0 -6 9.08 4.14
-2 0 6 4.24 2.28
-2 0 6 16.83 4.92
2 0 -5 26.08 4.17
2 0 -5 30.12 4.44
-2 0 5 24.1 2.58
-2 0 5 30.12 5.43
2 0 -4 52.96 4.49
2 0 -4 52.16 4.69
-2 0 4 54.25 4.33
-2 0 4 56.24 5.62
2 0 -3 125.7 6.05
2 0 -3 124.06 6.71
-2 0 3 117.76 6.19
-2 0 3 131.39 7.68
2 0 -2 603.93 25.31
2 0 -2 586.34 25.56
-2 0 2 636.82 26.31
-2 0 2 576.57 22.34
2 0 -1 64.45 3.36
2 0 -1 69.22 3.56
-2 0 1 66.63 3.4
-2 0 1 75.46 4.28
2 0 0 26.94 1.85
2 0 0 21.86 1.94
-2 0 0 24.38 1.82
-2 0 0 24.31 2.09
-2 0 -1 488.62 16.78
-2 0 -1 453.56 14.75
-2 0 -1 526.44 17.62
-2 0 -1 491.63 16.68
2 0 2 8572.88 1296.2
2 0 2 8049.63 1227.17
-2 0 -2 8075.83 1225.14
-2 0 -2 7638.53 1180.2
2 0 3 3769.39 359.5
2 0 3 3679.52 349.48
-2 0 -3 3712.64 350.62
-2 0 -3 3539.69 344.21
2 0 4 248.41 9.88
2 0 4 252.74 9.94
-2 0 -4 230.34 9.24
-2 0 -4 238.53 10.8
2 0 5 26.42 3.12
2 0 5 28.37 3.31
-2 0 -5 23.71 1.98
-2 0 -5 18.55 3.64
2 0 6 112.22 6.83
2 0 6 117.93 7.48
-2 0 -6 101.41 6.53
-2 0 -6 90.26 7.75
2 0 7 83.41 6.94
2 0 7 84.95 7.53
-2 0 -7 80.99 6.71
-2 0 -7 76.9 7.92
2 0 8 171.48 12.2
2 0 8 162.63 12.66
-2 0 -8 166.62 11.71
-2 0 -8 150.97 12.67
2 0 9 38.38 4.15
2 0 9 40.3 6.65
-2 0 -9 28.13 6.3
-2 0 -9 42.43 7.31
2 0 10 5.85 5.42
2 0 10 13.45 5.39
-2 0 -10 10.47 5.28
-2 0 -10 14.79 5.63
2 0 11 6.66 5.56
2 0 11 6.25 5.51
-2 0 -11 6.81 5.47
-2 0 -11 5.6 5.7
2 0 12 14.6 6.68
2 0 12 9.33 6.6
-2 0 -12 8.07 6.74
-2 0 -12 11.33 6.96
2 1 -10 -7.46 5.78
2 1 -10 -2.7 5.8
-2 -1 10 0.9 5.61
-2 -1 10 -0.89 6.75
2 1 -9 -1.01 5.12
2 1 -9 -3.18 5.01
-2 -1 9 2.45 4.76
-2 -1 9 5.01 5.76
2 1 -8 4.7 4.78
2 1 -8 5.57 4.85
-2 -1 8 2.16 4.45
-2 -1 8 0.98 5.47
2 1 -7 17.41 4.55
2 1 -7 7.71 3.05
-2 -1 7 15.65 4.58
-2 -1 7 10.16 5.96
2 1 -6 5.28 3.59
2 1 -6 3.32 3.94
-2 -1 6 2.43 2.15
-2 -1 6 6.92 4.77
2 1 -5 24.59 3.97
2 1 -5 24.7 2.76
-2 -1 5 18.78 3.84
-2 -1 5 24.66 5.23
2 1 -4 155.49 7.94
2 1 -4 160.79 8.71
-2 -1 4 149.43 7.96
-2 -1 4 163.94 7.5
2 1 -3 212.31 9.31
2 1 -3 207.32 7.46
-2 -1 3 213.26 9.36
-2 -1 3 227.78 11.53
2 1 -2 749.6 34.17
2 1 -2 764.59 36.02
-2 -1 2 783.26 35.46
-2 -1 2 825.68 39.11
2 1 -1 989.29 46.13
2 1 -1 964.44 48.07
-2 -1 1 1022.24 47.91
-2 -1 1 1079.87 53.17
2 1 0 64.1 2.17
2 1 0 58.44 3.37
-2 -1 0 67 3.13
-2 -1 0 66.44 3.7
-2 -1 -1 254.46 5.78
-2 -1 -1 252.8 8.64
2 1 2 1289.2 61.97
2 1 2 1337.53 70.4
-2 -1 -2 1271.39 61.84
-2 -1 -2 1262.55 67.99
2 1 3 1435.06 79.29
2 1 3 1368.85 77.85
-2 -1 -3 1412.44 79.17
-2 -1 -3 1420.4 83.28
2 1 4 109.83 4.68
2 1 4 122.6 5.71
-2 -1 -4 107.74 4.75
-2 -1 -4 108.6 6.08
2 1 5 75.47 4.83
-2 -1 -5 64.39 4.19
-2 -1 -5 68.38 5.54
2 1 6 5.56 2.38
2 1 6 4.03 2.85
-2 -1 -6 0.16 2.38
-2 -1 -6 4.78 3.13
2 1 7 22.7 3.9
2 1 7 29.77 4.63
-2 -1 -7 24.16 3.92
-2 -1 -7 26.26 5.31
2 1 8 66.24 6.51
2 1 8 68.6 7.54
-2 -1 -8 70.71 6.44
-2 -1 -8 56.26 8.13
2 1 9 13.35 4.31
2 1 9 15.91 4.95
-2 -1 -9 9.26 4.47
-2 -1 -9 10.01 5.32
2 1 10 8.14 2.87
2 1 10 2.11 5.02
-2 -1 -10 8.81 2.83
-2 -1 -10 5.67 6.01
2 1 11 39.95 7.84
2 1 11 40.37 7.84
-2 -1 -11 42.71 7.4
-2 -1 -11 27.91 8.46
2 1 12 11.55 7.22
2 1 12 24.86 7.22
-2 -1 -12 24.54 6.96
-2 -1 -12 14.4 7.85
2 2 -10 -2.27 6.5
2 2 -10 4.58 5.78
-2 -2 10 5.68 6.25
-2 -2 10 9.16 6.99
2 2 -9 15.9 6.3
2 2 -9 19.71 6.16
-2 -2 9 16.36 6.2
-2 -2 9 7.09 7.42
2 2 -8 7.61 5.43
2 2 -8 7.07 5.25
-2 -2 8 16.1 5.29
-2 -2 8 20.33 6.7
2 2 -7 56.99 4.72
2 2 -7 54.8 4.75
-2 -2 7 53.86 7.1
-2 -2 7 53.15 8.73
2 2 -6 89.02 7.7
2 2 -6 76.27 5.08
-2 -2 6 72.23 7.43
-2 -2 6 88.76 9.81
2 2 -5 239.83 13.55
2 2 -5 231.79 13.52
-2 -2 5 218.34 13.3
-2 -2 5 256.79 16.56
2 2 -4 83.42 5.7
2 2 -4 77.06 5.75
-2 -2 4 76.14 5.54
-2 -2 4 88.12 7.39
2 2 -3 87.59 4.96
2 2 -3 81.86 5.07
-2 -2 3 83.01 4.84
-2 -2 3 85.18 6.33
2 2 -2 2862.79 243.52
2 2 -2 2859.23 245.89
-2 -2 2 2861.23 245.44
-2 -2 2 3017.61 261.44
2 2 -1 1364.41 75.25
2 2 -1 1421.89 81.8
-2 -2 1 1420.44 77.24
-2 -2 1 1422.95 82.51
2 2 0 330.93 10.69
2 2 0 329.25 12.11
-2 -2 0 327.08 10.32
-2 -2 0 330.03 12.53
2 2 1 10.8 1.13
-2 -2 -1 11.37 0.62
-2 -2 -1 11.68 1.24
2 2 2 1064.55 42.73
2 2 2 1114.49 54.78
-2 -2 -2 1034.99 42.08
-2 -2 -2 1050.17 52.87
2 2 3 25.09 1.97
2 2 3 24.79 2.62
-2 -2 -3 24.33 1.94
-2 -2 -3 20.53 1.81
2 2 4 610.37 23.98
2 2 4 610.1 26.15
-2 -2 -4 581.31 25.02
-2 -2 -4 604.96 28.59
2 2 5 327.41 13.08
2 2 5 319.64 11.6
-2 -2 -5 313.45 12.31
-2 -2 -5 321.38 16.58
2 2 6 29.56 3.18
2 2 6 32.9 3.93
-2 -2 -6 32 3.1
-2 -2 -6 22.22 4.8
2 2 7 24.82 2.34
2 2 7 23.58 4.28
-2 -2 -7 26.11 2.27
-2 -2 -7 26.09 5.31
2 2 8 94.03 7.33
2 2 8 93.29 8.16
-2 -2 -8 88.4 7.07
-2 -2 -8 89.12 10.13
2 2 9 59.32 6.44
2 2 9 55.23 4.81
-2 -2 -9 57.13 6.34
-2 -2 -9 47.41 8.25
2 2 10 38.42 6.34
2 2 10 39.08 7.05
-2 -2 -10 42.18 6.3
-2 -2 -10 28.59 7.77
2 2 11 66.79 8.77
2 2 11 58.28 9.6
-2 -2 -11 71.14 8.91
-2 -2 -11 57.87 11.43
2 2 12 19.34 6.23
2 2 12 2.93 7.06
-2 -2 -12 18.75 6.54
-2 -2 -12 20.98 7.69
2 3 -9 8.73 6.08
2 3 -9 4.65 5.61
-2 -3 9 10.21 5.83
-2 -3 9 13 6.89
2 3 -8 21.12 6.38
2 3 -8 22.37 5.86
-2 -3 8 24.62 6.39
-2 -3 8 23.22 7.53
2 3 -7 77.18 8.53
2 3 -7 69.52 7.79
-2 -3 7 68.24 8.56
-2 -3 7 78.02 9.97
2 3 -6 221.83 14.28
2 3 -6 189.15 13.12
-2 -3 6 208.17 14.2
-2 -3 6 213.61 16.64
2 3 -5 246.24 14.38
2 3 -5 227.03 13.42
-2 -3 5 215.74 13.26
-2 -3 5 261.67 17.61
2 3 -4 172.43 9.54
2 3 -4 164.72 9.42
-2 -3 4 160.35 9.11
-2 -3 4 185.35 11.94
2 3 -3 136.59 6.93
2 3 -3 133.02 7.1
-2 -3 3 130.07 6.55
-2 -3 3 142.84 8.19
2 3 -2 829.01 41.01
2 3 -2 853.98 42.81
-2 -3 2 860.3 45.38
-2 -3 2 866.91 40.58
2 3 -1 1312.09 72.76
2 3 -1 1314.51 70.66
-2 -3 1 1341.87 73.38
-2 -3 1 1396.47 81.05
2 3 0 253.17 8.62
2 3 0 245.9 7.53
-2 -3 0 251.34 8.29
-2 -3 0 265.53 9.88
2 3 1 32.13 1.52
2 3 1 29.87 2.29
-2 -3 -1 30.47 1.33
-2 -3 -1 34.15 2.64
2 3 2 165.81 4
-2 -3 -2 150.85 6.43
2 3 3 82.5 2.87
2 3 3 84.18 4.18
-2 -3 -3 81.13 2.96
-2 -3 -3 73.68 4.24
2 3 4 275.7 10.37
2 3 4 290.86 11.37
-2 -3 -4 269.41 9.09
-2 -3 -4 271.22 12.49
2 3 5 66.01 3.57
2 3 5 67.43 4.34
-2 -3 -5 61.56 3.33
-2 -3 -5 60.85 5.39
2 3 6 276.52 14.68
2 3 6 297.93 14.03
-2 -3 -6 281.2 11.83
-2 -3 -6 263.05 16.04
2 3 7 229.05 14.64
2 3 7 259.06 13.8
-2 -3 -7 251.26 12.11
-2 -3 -7 210.52 16.11
2 3 8 101.82 7.45
2 3 8 108.09 6.01
-2 -3 -8 114.22 7.56
-2 -3 -8 86.94 10.68
2 3 9 43.24 5.38
2 3 9 35.48 6.25
-2 -3 -9 37.77 5.19
-2 -3 -9 22.91 7.9
2 3 10 131.93 10.78
2 3 10 136.33 12.6
-2 -3 -10 131.79 10.76
-2 -3 -10 111.55 14.24
2 3 11 36.86 6.84
2 3 11 40.15 7.65
-2 -3 -11 39.57 6.58
-2 -3 -11 31.64 8.62
2 3 12 5.08 5.1
2 3 12 -4.69 5.63
-2 -3 -12 12.31 5.02
-2 -3 -12 1.42 7.12
2 4 -8 17.51 6.37
2 4 -8 19.23 5.64
-2 -4 8 23.11 6.15
-2 -4 8 4.21 7.18
2 4 -7 7.45 4.98
2 4 -7 14.83 4.52
-2 -4 7 13.2 4.89
-2 -4 7 5.25 5.7
2 4 -6 96.99 9.08
2 4 -6 88.24 8.22
-2 -4 6 93.48 8.7
-2 -4 6 110.59 10.6
2 4 -5 328.3 19.4
2 4 -5 303.68 17.97
-2 -4 5 312.42 18.58
-2 -4 5 341.13 22.45
2 4 -4 116.37 7.86
2 4 -4 111.01 7.19
-2 -4 4 108.37 7.39
-2 -4 4 128.81 9.65
2 4 -3 26.44 3.54
2 4 -3 26.56 3.4
-2 -4 3 28.51 3.29
-2 -4 3 30.02 4.35
2 4 -2 114.97 5.73
2 4 -2 117.79 6.11
-2 -4 2 116.65 5.51
-2 -4 2 126.68 5.02
2 4 -1 5.8 1.77
2 4 -1 8.39 1.91
-2 -4 1 7.47 1.69
-2 -4 1 2.39 2.33
2 4 0 427.92 16.67
2 4 0 421.63 16.62
-2 -4 0 439.24 16.89
-2 -4 0 447.11 18.48
2 4 1 319.73 10.59
-2 -4 -1 327.02 12.47
2 4 2 12.87 1.26
2 4 2 12.09 1.32
-2 -4 -2 9.81 2.12
-2 -4 -2 9.08 1.99
2 4 3 26.52 1.82
2 4 3 28.56 2.46
-2 -4 -3 19.57 1.43
-2 -4 -3 21.35 2.49
2 4 4 1371.37 78.78
2 4 4 1374.1 81.6
-2 -4 -4 1420.98 81.43
-2 -4 -4 1372.47 88.26
2 4 5 971.37 48.74
2 4 5 968.65 52.01
-2 -4 -5 975.62 50.63
-2 -4 -5 954.51 57.68
2 4 6 70.02 4.38
2 4 6 84.2 5.12
-2 -4 -6 73.8 5.66
-2 -4 -6 58.52 6.65
2 4 7 465.16 26.43
2 4 7 513.45 27.02
-2 -4 -7 472.88 23.49
-2 -4 -7 432.22 29.74
2 4 8 59.77 5.57
2 4 8 67.7 6.59
-2 -4 -8 69.23 5.61
-2 -4 -8 49.42 8.9
2 4 9 98.87 7.9
2 4 9 114.87 9.6
-2 -4 -9 88.77 7.61
-2 -4 -9 80.56 11.53
2 4 10 116.11 9.45
2 4 10 119.59 11.19
-2 -4 -10 110.4 9.42
-2 -4 -10 82.45 12.57
2 4 11 38.87 4.32
2 4 11 37.57 8.01
-2 -4 -11 44.4 6.66
-2 -4 -11 29.01 9.39
2 4 12 2.58 4.75
2 4 12 7.63 5.73
-2 -4 -12 1.51 4.9
-2 -4 -12 2.32 3.92
2 5 -8 24.67 7.07
2 5 -8 21.92 6.15
-2 -5 8 23.59 7.07
-2 -5 8 28.88 8.13
2 5 -7 1.51 4.97
2 5 -7 9.5 4.3
-2 -5 7 9.95 4.93
-2 -5 7 3.9 5.56
2 5 -6 77.79 5.42
2 5 -6 67.27 7.36
-2 -5 6 66.45 8.04
-2 -5 6 77.76 9.56
2 5 -5 82.44 5.15
2 5 -5 83.44 7.07
-2 -5 5 81.15 5.13
-2 -5 5 87.58 8.87
2 5 -4 75.38 6.39
2 5 -4 72.5 5.77
-2 -5 4 62.44 6.13
-2 -5 4 86.75 7.94
2 5 -3 33.05 4.12
2 5 -3 34.42 3.83
-2 -5 3 32.68 3.92
-2 -5 3 43.35 5.03
2 5 -2 3.59 2.39
2 5 -2 7.6 2.21
-2 -5 2 6.46 2.34
-2 -5 2 6.89 3.01
2 5 -1 12.69 2.23
-2 -5 1 11.34 1.97
-2 -5 1 8.83 2.75
2 5 0 513.79 20.74
2 5 0 501.19 21.74
-2 -5 0 528.31 20.97
-2 -5 0 584.69 25.49
2 5 1 379.71 14.79
-2 -5 -1 406.39 16.67
2 5 2 57.47 2.2
-2 -5 -2 59.51 3.43
-2 -5 -2 43.52 3.38
2 5 3 125.14 4.61
-2 -5 -3 99.1 5.6
2 5 4 264.48 10.69
-2 -5 -4 261.27 9.16
-2 -5 -4 238.92 12.47
2 5 5 122.54 6.24
2 5 5 121.77 6.18
-2 -5 -5 117.71 5.58
2 5 6 744.57 37.07
2 5 6 737.65 39.18
-2 -5 -6 772.54 40.02
-2 -5 -6 723.5 47.26
2 5 7 118.29 8.65
2 5 7 123.53 7.51
-2 -5 -7 121.41 7.19
-2 -5 -7 111.15 10.51
2 5 8 -0.17 2.8
2 5 8 1.45 3.24
-2 -5 -8 1 3.53
-2 -5 -8 8.73 4.61
2 5 9 26.43 4.13
2 5 9 21.76 4.92
-2 -5 -9 16.59 4.18
-2 -5 -9 9.55 6.14
2 5 10 13.54 4.06
2 5 10 7.79 4.88
-2 -5 -10 11.27 4.19
-2 -5 -10 -3.17 6.24
2 5 11 2.54 4.06
2 5 11 -1.9 4.95
-2 -5 -11 4.75 4.21
-2 -5 -11 0.88 5.78
2 5 12 -0.44 4.53
2 5 12 -1.3 5.4
-2 -5 -12 7.61 4.66
-2 -5 -12 0.46 6.57
2 6 -7 12.61 5.75
2 6 -7 14.03 4.92
-2 -6 7 7.66 5.8
-2 -6 7 15.67 6.23
2 6 -6 10.15 5.01
2 6 -6 12.05 4.39
-2 -6 6 13.3 5.03
-2 -6 6 12.2 5.66
2 6 -5 44.77 6.16
2 6 -5 41.87 5.43
-2 -6 5 41.45 6.36
-2 -6 5 46.83 6.93
2 6 -4 106.68 8.09
2 6 -4 98.04 7.14
-2 -6 4 104.43 8.35
-2 -6 4 115.42 9.92
2 6 -3 64.11 5.32
2 6 -3 56.99 4.64
-2 -6 3 56.23 5.09
-2 -6 3 59.48 6.6
2 6 -2 10.81 2.91
2 6 -2 11.67 2.61
-2 -6 2 10.96 2.82
-2 -6 2 13.03 3.55
2 6 -1 18.51 3.56
2 6 -1 20.34 2.56
-2 -6 1 16.51 2.61
-2 -6 1 19.68 3.45
2 6 0 550.63 24.83
2 6 0 567.61 26.8
-2 -6 0 549.28 24.88
-2 -6 0 655.89 30.95
2 6 1 718.13 35.44
2 6 1 713.02 32.93
-2 -6 -1 805.91 39.28
2 6 2 269.44 9.4
2 6 2 300.68 11.19
-2 -6 -2 268.14 12.7
2 6 3 293.04 10.1
2 6 3 324.97 11.05
-2 -6 -3 302.46 13.76
2 6 4 27.6 3.41
-2 -6 -4 13.31 2
-2 -6 -4 13.38 2.89
2 6 5 130.73 5.63
2 6 5 149.17 7.07
-2 -6 -5 117.44 8.47
2 6 6 270.31 12
2 6 6 275.99 13.24
-2 -6 -6 277.82 13.22
-2 -6 -6 250.48 16.42
2 6 7 105.92 6.35
2 6 7 120.51 7.4
-2 -6 -7 107.01 6.98
-2 -6 -7 83.33 10.22
2 6 8 13.3 3.09
2 6 8 9.33 3.5
-2 -6 -8 2.01 3.14
-2 -6 -8 11.34 5.02
2 6 9 6.51 3.28
2 6 9 2.61 3.67
-2 -6 -9 7.57 3.26
-2 -6 -9 1.99 5.16
2 6 10 1.43 3.49
2 6 10 6.4 4.11
-2 -6 -10 4.24 3.59
-2 -6 -10 -7.45 5.38
2 6 11 -5.75 4.12
2 6 11 -0.98 4.92
-2 -6 -11 14.58 4.22
-2 -6 -11 7.65 5.91
2 6 12 11.39 5.24
2 6 12 22.44 6.23
-2 -6 -12 5.19 5.5
-2 -6 -12 3.54 7.68
2 7 -6 6.11 4.95
2 7 -6 8.39 3.99
-2 -7 6 7.31 4.88
-2 -7 6 6.45 5.43
2 7 -5 3.2 4.08
2 7 -5 3.6 3.34
-2 -7 5 6.74 4.04
-2 -7 5 1.52 4.52
2 7 -4 88.65 8.08
2 7 -4 85.38 6.74
-2 -7 4 92.85 8.1
-2 -7 4 97.13 10.32
2 7 -3 108.41 7.67
2 7 -3 108.84 8.68
-2 -7 3 99.73 7.88
-2 -7 3 84.67 12.11
2 7 -2 21.15 3.49
2 7 -2 22.82 3.23
-2 -7 2 18.46 3.44
-2 -7 2 8.5 4.11
2 7 -1 3.6 2.41
2 7 -1 1.04 2.15
-2 -7 1 4.48 2.37
-2 -7 1 6.93 4.06
2 7 0 394.48 17.79
2 7 0 380.9 17.18
-2 -7 0 341.92 17.81
-2 -7 0 478.55 21.76
2 7 1 360.88 15.46
2 7 1 369.37 17.1
2 7 2 379.5 15.59
2 7 2 396.64 17.27
-2 -7 -2 376.33 17.21
2 7 3 152.63 5.96
2 7 3 158.5 6.14
2 7 4 4.42 1.61
-2 -7 -4 1.96 2.34
2 7 5 32.48 3.54
2 7 5 34.75 3.3
-2 -7 -5 14.25 3.91
-2 -7 -6 13.09 3.2
-2 -7 -6 21.07 4.54
2 7 7 0.7 2.27
2 7 7 1.84 2.63
-2 -7 -7 2.13 2.56
-2 -7 -7 2.43 3.72
2 7 8 0.39 2.74
2 7 8 5.64 3.06
-2 -7 -8 -0.12 2.94
-2 -7 -8 2.17 4.33
2 7 9 54.09 5.32
2 7 9 48.72 5.9
-2 -7 -9 30.68 5.74
-2 -7 -9 27.96 7.92
2 7 10 9.62 3.98
2 7 10 11.26 4.38
-2 -7 -10 3.32 5.46
-2 -7 -10 9.86 5.96
2 7 11 9.98 4.26
2 7 11 5.75 4.75
-2 -7 -11 3.84 4.49
-2 -7 -11 5.37 6.47
2 7 12 20.51 5.33
2 7 12 8.67 5.95
-2 -7 -12 9 5.71
-2 -7 -12 9.77 7.56
2 8 -5 6.84 4.42
2 8 -5 4.64 3.61
-2 -8 5 4.43 4.52
-2 -8 5 -3.25 4.95
2 8 -4 65.37 6.96
2 8 -4 60.18 6.06
-2 -8 4 61.44 9.19
-2 -8 4 40.45 8.8
2 8 -3 105.78 8.05
2 8 -3 107.68 7.4
-2 -8 3 109.48 8.3
-2 -8 3 60.11 9.99
2 8 -2 47.01 4.77
2 8 -2 38.21 4.01
-2 -8 2 46.06 4.84
-2 -8 2 20.29 5.33
2 8 -1 55.76 4.9
2 8 -1 59.88 6.08
-2 -8 1 59.94 5.03
2 8 0 8.01 3.39
-2 -8 0 2.54 2.85
2 8 1 9.69 2.23
2 8 1 8.96 2.19
-2 -8 -1 1.48 2.59
-2 -8 -1 -1.95 2.97
-2 -8 -2 38.49 6.44
-2 -8 -2 33.87 5.29
2 8 3 50.4 3.42
2 8 3 50.53 4.38
2 8 4 10.73 2.54
2 8 4 6.98 2.56
-2 -8 -4 -0.33 2.34
-2 -8 -4 4.58 3.56
2 8 5 2.52 1.88
-2 -8 -5 -2.47 2.69
2 8 6 3.96 2.21
2 8 6 1.68 2.61
-2 -8 -6 5.04 2.36
-2 -8 -6 3.05 4.52
2 8 7 32.67 3.54
2 8 7 34.38 4.35
-2 -8 -7 8.49 5.42
2 8 8 6.77 2.7
2 8 8 0.73 3.14
-2 -8 -8 -2.19 3.07
-2 -8 -8 -1.47 4.32
2 8 9 5.53 4.48
2 8 9 4.91 3.82
-2 -8 -9 5.5 5.03
-2 -8 -9 3.85 5.1
2 8 10 -0.07 3.3
2 8 10 -2.44 3.77
-2 -8 -10 4.73 5
-2 -8 -10 0.6 4.88
2 8 11 11.82 4.7
2 8 11 16.41 5.25
-2 -8 -11 11.13 5.19
-2 -8 -11 9.48 4.37
2 8 12 9.38 4.83
2 8 12 4.78 3.33
-2 -8 -12 6.52 5.24
-2 -8 -12 5.95 6.89
2 9 -4 48.93 6.59
2 9 -4 40.83 6.91
-2 -9 4 41.92 6.65
-2 -9 4 14.75 7.09
2 9 -3 83.12 7.54
2 9 -3 67.5 6.32
-2 -9 3 78.88 10.16
2 9 -2 110.07 8.28
2 9 -2 102.13 9.46
-2 -9 2 104.11 8.44
2 9 -1 28.99 3.58
-2 -9 1 -4.67 4.06
2 9 0 24.77 3.39
2 9 0 21.18 3.42
-2 -9 0 7.52 3.71
-2 -9 0 5.57 3.97
2 9 1 7.23 2.6
2 9 1 9.26 2.57
-2 -9 -1 4.39 3.73
-2 -9 -1 5.1 3.24
2 9 2 18.06 2.72
2 9 2 16.81 2.68
-2 -9 -2 8.37 3.07
-2 -9 -2 1.93 3.53
2 9 3 17.4 3.14
2 9 3 16.13 3.25
-2 -9 -3 2.88 2.7
-2 -9 -3 0.03 3.45
2 9 4 1.84 2.02
2 9 4 1.99 2.08
-2 -9 -4 0.23 2.38
-2 -9 -4 4.89 2.56
2 9 5 17.7 2.57
2 9 5 14.86 3.37
-2 -9 -5 4.64 3.24
-2 -9 -5 2.01 3.27
2 9 6 -1.31 2.15
2 9 6 1.41 2.85
-2 -9 -6 1.72 4.02
2 9 7 8.43 2.56
2 9 7 0.52 3.09
-2 -9 -7 4.27 3.93
-2 -9 -7 -3.29 3.84
2 9 8 8.52 3.7
-2 -9 -8 2.09 3.48
-2 -9 -8 3.39 4.65
2 9 9 -5.76 4.19
2 9 9 1.91 3.69
-2 -9 -9 8.42 4.84
-2 -9 -9 8.11 4.78
2 9 10 2.19 3.54
2 9 10 5.25 4.05
-2 -9 -10 1.19 5.48
-2 -9 -10 4.83 5.26
2 9 11 14.17 4.31
2 9 11 2.27 4.9
-2 -9 -11 8.07 4.9
-2 -9 -11 -0.42 6.51
2 10 -3 9.22 4.53
2 10 -3 10.81 3.78
-2 -10 3 11.05 4.7
-2 -10 3 -0.15 6.9
2 10 -2 45.92 5.25
-2 -10 2 8.58 5.73
2 10 -1 17.76 3.81
2 10 -1 21.91 4.24
-2 -10 1 3.7 3.89
-2 -10 1 1.84 3.24
2 10 0 12.88 3.02
2 10 0 5.09 3.24
-2 -10 0 1.7 3.29
-2 -10 0 1.53 2.54
2 10 1 2.22 3.39
2 10 1 1.22 2.52
-2 -10 -1 1.06 2.71
-2 -10 -1 -2.42 2.99
2 10 2 5.2 2.58
2 10 2 5.24 3.43
-2 -10 -2 0.38 3.59
-2 -10 -2 3.32 3.25
2 10 3 19.59 3.66
-2 -10 -3 2.54 2.86
-2 -10 -3 3.36 2.76
2 10 4 8.01 3.4
2 10 4 0.31 2.47
-2 -10 -4 6.82 3.55
-2 -10 -4 3.1 2.76
2 10 5 8.75 2.73
-2 -10 -5 6.53 3.12
-2 -10 -5 4.33 3.29
2 10 6 0.49 3.32
2 10 6 3.44 2.44
-2 -10 -6 -2.14 3.1
-2 -10 -6 4.31 3.25
2 10 7 1.58 2.54
2 10 7 6.39 3.45
-2 -10 -7 0.05 3.76
2 10 8 8.83 3.03
2 10 8 5.56 3.71
-2 -10 -8 4.52 3.67
-2 -10 -8 -1.51 4.58
2 10 9 -0.98 2.9
2 10 9 -0.34 3.61
-2 -10 -9 -0.27 4.65
-2 -10 -9 6.35 4.45
2 10 10 -1.05 3.38
2 10 10 7.25 3.89
-2 -10 -10 -0.07 3.95
-2 -10 -10 -4.13 4.77
2 10 11 -2.25 3.69
2 10 11 1.94 4.26
-2 -10 -11 5.92 5.82
-2 -10 -11 -4.37 5.56
2 11 -1 2.51 3.76
-2 -11 1 -1.91 3.64
-2 -11 1 4.39 2.77
2 11 0 -2.19 3.28
2 11 0 2.07 3.39
-2 -11 0 6.53 3.29
-2 -11 0 4.57 2.63
2 11 1 1.53 2.95
2 11 1 0.96 3.86
-2 -11 -1 -1.28 3.07
-2 -11 -1 0.45 3.14
2 11 2 19.95 4.1
2 11 2 5.66 3.16
-2 -11 -2 1.01 3.16
-2 -11 -2 3.46 3.6
2 11 3 2.22 2.78
2 11 3 0.98 2.74
-2 -11 -3 8.36 3.75
-2 -11 -3 4.01 2.69
2 11 4 4.41 2.53
2 11 4 2.87 2.64
-2 -11 -4 1.66 2.62
-2 -11 -4 -1.56 2.83
2 11 5 5.38 2.63
2 11 5 1.62 2.61
-2 -11 -5 4.5 3.01
-2 -11 -5 1.17 4.06
2 11 6 3.15 2.65
2 11 6 0.05 2.47
-2 -11 -6 -1.7 2.9
-2 -11 -6 3.05 3.16
2 11 7 3.49 3.69
-2 -11 -7 1.05 3.61
-2 -11 -7 -0.09 4.99
2 11 8 -2.13 2.79
-2 -11 -8 0.35 4.03
2 11 9 0.77 3.04
2 11 9 0.11 3.83
-2 -11 -9 2.18 3.82
-2 -11 -9 5.19 4.47
2 11 10 6.07 4.78
2 11 10 1.54 4.36
-2 -11 -10 1.12 4.45
-2 -11 -10 9.23 5.18
2 12 1 -0.11 3.45
2 12 1 3.16 3.45
-2 -12 -1 2.53 4.28
2 12 2 6.71 3.38
2 12 2 3.16 3.42
-2 -12 -2 5.89 4.41
-2 -12 -2 6.33 3.68
2 12 3 -0.35 2.97
2 12 3 -0.58 3
-2 -12 -3 7.62 2.83
-2 -12 -3 0.62 2.71
2 12 4 2.28 3.09
-2 -12 -4 3.42 3.14
-2 -12 -4 3.59 2.98
2 12 5 7 2.85
2 12 5 2.84 2.82
-2 -12 -5 -0.94 2.91
-2 -12 -5 0.74 3.17
2 12 6 1.9 2.87
2 12 6 3.93 3.64
-2 -12 -6 2.1 3.22
-2 -12 -6 -0.28 4.5
2 12 7 3.49 3.16
2 12 7 3.11 2.96
-2 -12 -7 2.1 3.38
-2 -12 -7 5.46 3.91
2 12 8 11.08 4.52
2 12 8 -0.52 3.05
-2 -12 -8 3.37 4.07
-2 -12 -8 -2.03 4.24
-3 11 6 8.47 5.33
-3 11 5 7.7 3.94
-3 11 5 9.84 5.22
-3 11 4 -2.32 4.58
-3 11 3 3.67 4.89
-3 11 2 13.83 6.48
-3 11 1 -2.6 5.08
-3 11 0 1.11 5.45
-3 11 0 6.8 5.57
-3 11 -1 12.32 6.03
-3 11 -1 8.26 6.43
3 -10 -8 -0.79 6.17
3 -10 -8 3.99 3.44
-3 10 8 -1.47 4.87
-3 10 8 2.42 3.13
3 -10 -7 -2.11 6.1
3 -10 -7 4.39 2.92
-3 10 7 -6.81 4.9
-3 10 7 8.63 3.34
3 -10 -6 17 9.49
-3 10 6 59.5 7.75
-3 10 5 12.01 5.07
-3 10 4 6.87 3.29
-3 10 4 7.19 4.53
-3 10 3 -4.59 4.63
-3 10 3 1.79 4.18
-3 10 2 1.1 4.65
-3 10 2 7.49 4.74
-3 10 1 17.71 6.09
-3 10 1 21.51 5.93
-3 10 0 11.28 5.8
-3 10 0 13.35 3.77
-3 10 -1 27.57 7.15
-3 10 -1 35.66 7.47
-3 10 -2 28.21 7.74
-3 10 -2 48.34 8.49
-3 10 -3 2.34 3.28
-3 10 -3 4.43 5.9
3 -9 -9 7.87 8.33
3 -9 -9 9.36 7.47
-3 9 9 20.17 6.88
-3 9 9 19.97 4.99
3 -9 -8 4.16 6.07
3 -9 -8 5.35 3.85
-3 9 8 1.27 4.91
-3 9 8 2.19 3.37
3 -9 -7 -2.28 3.52
3 -9 -7 8 3.16
-3 9 7 -0.19 4.57
-3 9 7 6.78 3.58
3 -9 -6 3.73 3.51
3 -9 -6 11.1 3.58
-3 9 6 2.67 4.67
-3 9 6 6.39 2.42
3 -9 -5 4.02 5.13
3 -9 -5 2.78 2.51
-3 9 5 5.28 4.06
-3 9 5 4.65 2.12
3 -9 -4 2.9 1.54
-3 9 4 2.95 3.9
-3 9 3 35.24 6.42
-3 9 3 29.36 5.7
-3 9 2 46.77 7
-3 9 2 39.23 6.85
-3 9 1 6.44 4.73
-3 9 1 13.71 4.83
-3 9 0 6.33 4.44
-3 9 0 7.87 4.8
-3 9 -1 44.25 7.4
-3 9 -1 47.71 7.63
-3 9 -2 30.81 4.19
-3 9 -2 33.02 7.18
-3 9 -3 6.98 5.02
-3 9 -3 3.15 5.49
-3 9 -4 2.47 4.9
-3 9 -4 -2.26 5.34
-3 9 -5 1.03 5.27
3 -8 -9 6.01 6.94
3 -8 -9 7.44 5.26
-3 8 9 12.41 5.76
-3 8 9 11.51 5.81
3 -8 -8 15.12 7.45
3 -8 -8 20.24 5.08
-3 8 8 21.59 6.21
-3 8 8 17.15 4.32
3 -8 -7 3.34 5.12
3 -8 -7 1.17 3.18
-3 8 7 -2.04 4.19
-3 8 7 2.92 2.87
3 -8 -6 3.31 5.28
3 -8 -6 6.55 3
-3 8 6 4.5 4.4
-3 8 6 8.27 2.61
3 -8 -5 15.36 6.97
3 -8 -5 22.96 4.3
-3 8 5 43.78 5.65
-3 8 5 44.32 3.84
3 -8 -4 44.21 8.37
-3 8 4 66.58 6.83
-3 8 4 59.56 3.58
-3 8 3 55.72 6.64
-3 8 2 125.05 10.78
-3 8 2 132.89 10.31
-3 8 1 2.5 3.97
-3 8 1 5.54 3.91
-3 8 0 17.12 4.62
-3 8 0 13.76 4.72
-3 8 -1 4.4 4.09
-3 8 -1 4.6 4.23
-3 8 -2 5.34 4.44
-3 8 -2 10.03 4.89
-3 8 -3 1.98 2.51
-3 8 -3 -1.6 4.48
-3 8 -4 1.91 4.39
3 -8 5 4.54 5.93
-3 8 -5 -6.42 3.17
3 -8 6 -5.72 3.76
-3 8 -6 1.34 5.65
3 -7 -10 8.72 6.75
3 -7 -10 5.13 5.57
-3 7 10 3.96 5.82
-3 7 10 -1.1 4.76
3 -7 -9 2.42 6.79
3 -7 -9 5.98 5.45
-3 7 9 6.16 5.69
-3 7 9 14.74 4.62
3 -7 -8 11.31 7.11
3 -7 -8 15.1 5.36
-3 7 8 23.34 6.17
-3 7 8 21.63 4.73
3 -7 -7 -0.88 5.86
3 -7 -7 14.32 4.01
-3 7 7 10.15 4.95
-3 7 7 15.56 3.67
3 -7 -6 61.35 9.3
3 -7 -6 56.6 5.67
-3 7 6 81.69 7.71
3 -7 -5 88.24 10.36
3 -7 -5 77.94 5.63
-3 7 5 108.21 8.95
-3 7 5 116.04 6.88
3 -7 -4 3.05 4.24
3 -7 -4 5.73 2.44
-3 7 4 10.3 3.66
-3 7 4 5.68 2.29
3 -7 -3 209.67 17.18
3 -7 -3 232.15 8.66
-3 7 3 237.97 14.43
-3 7 3 261.68 8.71
-3 7 2 121.49 9.83
-3 7 2 98.26 8.18
-3 7 1 -2.41 3.49
-3 7 1 -2.04 3.29
-3 7 0 8.15 3.5
-3 7 0 3.23 3.64
-3 7 -1 15.31 2.6
-3 7 -1 22.01 4.53
-3 7 -2 2.49 3.76
-3 7 -2 5.69 2.47
-3 7 -3 9.9 4.32
3 -7 4 92.88 11.65
3 -7 4 136.51 4.73
-3 7 -4 136.52 11.45
-3 7 -4 130.25 4.48
3 -7 5 42.56 7.6
3 -7 5 39.22 3.54
-3 7 -5 44.9 6.76
-3 7 -5 35.92 3.13
3 -7 6 30.37 4.78
3 -7 6 24.99 3.98
-3 7 -6 31.07 6.89
-3 7 -6 20.97 3.92
3 -7 7 27.93 7.99
-3 7 -7 23.04 7.56
3 -6 -10 16.26 6.46
3 -6 -10 6.82 5.76
-3 6 10 -1.03 5.8
-3 6 10 -2.34 5.07
3 -6 -9 11.75 7.36
3 -6 -9 21.2 8.39
-3 6 9 22.71 6.32
-3 6 9 16 5.47
3 -6 -8 4.91 3.96
3 -6 -8 15.49 5.22
-3 6 8 13 5.38
-3 6 8 18.05 4.69
3 -6 -7 12.33 6.72
3 -6 -7 22.71 4.96
-3 6 7 32.87 5.78
-3 6 7 24.23 4.72
3 -6 -6 112.16 11.26
3 -6 -6 90.47 7.55
-3 6 6 114.31 9.56
-3 6 6 129.39 9.78
3 -6 -5 1.59 4.13
3 -6 -5 2.5 2.54
-3 6 5 7.78 3.67
-3 6 5 2.66 2.41
3 -6 -4 73.94 7.57
3 -6 -4 64.17 5.36
-3 6 4 69.66 6.52
-3 6 4 83.26 5.37
3 -6 -3 2.73 3.31
3 -6 -3 1.71 1.76
-3 6 3 1.12 2.94
-3 6 3 3.55 1.66
3 -6 -2 33.12 5.12
3 -6 -2 30.57 1.4
-3 6 2 40.18 4.42
-3 6 2 37.18 1.39
-3 6 1 26.75 2.74
-3 6 1 30.05 2.62
-3 6 0 56.55 5.39
-3 6 0 58.75 3.67
-3 6 -1 -0.39 2.91
-3 6 -1 2.48 3.02
-3 6 -2 1.58 3.18
-3 6 -2 0.97 3.32
3 -6 3 63.06 7.09
-3 6 -3 47.21 5.9
3 -6 4 127.91 10.54
3 -6 4 126.28 5.02
-3 6 -4 105.4 9.53
-3 6 -4 110.3 4.54
3 -6 5 110.95 10.85
3 -6 5 110.48 6.18
-3 6 -5 105.73 9.71
-3 6 -5 96.61 4.6
3 -6 6 88.74 10.95
3 -6 6 95.14 5.6
-3 6 -6 88.29 10.06
-3 6 -6 80.23 6.34
3 -6 7 21.81 6.68
3 -6 7 16.47 3.47
-3 6 -7 22.17 6.15
-3 6 -7 13.88 3.15
3 -6 8 18.4 7.07
3 -6 8 13.03 4
-3 6 -8 21.64 6.74
-3 6 -8 11.27 3.61
3 -5 -10 25.37 7.33
3 -5 -10 13.18 7.14
-3 5 10 9.78 4.18
-3 5 10 8.59 6.53
3 -5 -9 41.53 9.29
3 -5 -9 53.56 8.78
-3 5 9 49.36 8.56
-3 5 9 53.05 8.41
3 -5 -8 -0.23 5.08
3 -5 -8 -0.46 4.96
-3 5 8 11.18 4.74
-3 5 8 7.2 4.46
3 -5 -7 32.72 6.94
3 -5 -7 34.96 5.93
-3 5 7 27.38 6.06
-3 5 7 38.35 5.62
3 -5 -6 74.87 9.02
3 -5 -6 70.36 6.98
-3 5 6 74.14 7.69
-3 5 6 74.14 6.84
3 -5 -5 10.4 2.71
3 -5 -5 9.4 3.33
-3 5 5 7.3 4.02
-3 5 5 14.98 4.46
3 -5 -4 2.78 3.35
3 -5 -4 -0.15 2.86
-3 5 4 3.73 2.95
-3 5 4 4.29 2.18
3 -5 -3 97.77 7.84
3 -5 -3 91.89 5.24
-3 5 3 103.45 6.65
-3 5 3 107.82 5.58
3 -5 -2 6.94 2.83
3 -5 -2 -0.52 1.43
-3 5 2 3.66 2.47
-3 5 2 1.85 1.28
-3 5 1 89.58 5.84
-3 5 0 504.02 25.6
-3 5 0 511.07 21.43
-3 5 -1 258.97 13.45
-3 5 -2 94.03 6.54
3 -5 3 236.78 10.08
3 -5 3 214.43 6.17
-3 5 -3 218.58 12.33
-3 5 -3 204.74 6.03
3 -5 4 216.28 13.77
3 -5 4 215.69 8.56
-3 5 -4 192.15 12.52
-3 5 -4 190.01 7.96
3 -5 5 144.93 11.69
3 -5 5 139.94 6.35
-3 5 -5 132.69 10.33
-3 5 -5 132.85 6.19
3 -5 6 112.23 7.16
3 -5 6 97.78 7.77
-3 5 -6 104.27 9.7
-3 5 -6 95.9 7.69
3 -5 7 12.17 5.3
3 -5 7 5.13 4.27
-3 5 -7 8.46 5.34
-3 5 -7 12.29 4.06
3 -5 8 8.26 5.29
3 -5 8 -1.2 4.31
-3 5 -8 4.05 4.89
-3 5 -8 1.81 3.16
3 -5 9 12.1 6.66
3 -5 9 11.51 4.11
-3 5 -9 5.84 6.38
-3 5 -9 2.75 4.11
3 -4 -10 71.34 13
3 -4 -10 82.1 8.38
-3 4 10 92.01 11.86
-3 4 10 105.04 12.74
3 -4 -9 32.72 7.82
3 -4 -9 25.82 7.59
-3 4 9 26.58 7.22
-3 4 9 30.84 7.55
3 -4 -8 0.17 5.15
3 -4 -8 11.69 4.94
-3 4 8 10.02 4.69
-3 4 8 0.42 4.94
3 -4 -7 8.34 4.9
3 -4 -7 9.59 4.72
-3 4 7 15.95 4.61
-3 4 7 9.87 4.81
3 -4 -6 48.8 6.75
3 -4 -6 49.56 6.35
-3 4 6 47.25 6.16
-3 4 6 54.64 6.54
3 -4 -5 36.33 5.32
3 -4 -5 32.46 5.81
-3 4 5 28.86 4.64
-3 4 5 33.12 6.16
3 -4 -4 83.03 6.85
3 -4 -4 70.19 5.08
-3 4 4 84.93 6.13
-3 4 4 81.65 5.6
3 -4 -3 122.92 8.24
3 -4 -3 124.54 5.4
-3 4 3 124.34 7.27
-3 4 3 138.42 6.11
3 -4 -2 5.28 2.35
3 -4 -2 -0.22 1.37
-3 4 2 0.23 2.06
-3 4 2 -2.49 1.69
3 -4 -1 586.36 29.63
3 -4 -1 557.56 19
-3 4 1 580.28 27.14
-3 4 1 606.35 21.22
-3 4 0 1168.12 69.04
-3 4 0 1190.15 69.29
-3 4 -1 392.03 18.31
-3 4 -1 428.09 19.49
-3 4 -2 472.58 18.76
-3 4 -2 338.96 8.95
3 -4 3 157.16 8.47
3 -4 3 139.8 4.31
-3 4 -3 140.95 7.93
-3 4 -3 129.54 4.64
3 -4 4 29.14 4.18
3 -4 4 22.31 2.01
-3 4 -4 21.1 3.9
-3 4 -4 18.91 2.52
3 -4 5 104.05 8.07
3 -4 5 85.31 4.9
-3 4 -5 98.02 7.43
-3 4 -5 81.48 5.95
3 -4 6 121.7 6.86
3 -4 6 85.11 7.77
-3 4 -6 118.05 9.12
-3 4 -6 95.23 6.1
3 -4 7 9.92 4.54
3 -4 7 1.4 2.81
-3 4 -7 -0.65 4.26
-3 4 -7 5.67 2.77
3 -4 8 0.82 4.97
3 -4 8 7.27 3.42
-3 4 -8 4.83 4.98
-3 4 -8 6.98 3.3
3 -4 9 10.34 3.67
3 -4 9 8.94 5.41
-3 4 -9 6.37 5.83
-3 4 -9 1.73 3.99
3 -4 10 3.34 4.36
3 -4 10 11.55 4.91
-3 4 -10 10.69 6.81
-3 4 -10 15.95 4.81
3 -3 -10 15.01 7.97
3 -3 -10 22.36 7.74
-3 3 10 30.07 7.26
-3 3 10 11.44 8.25
3 -3 -9 17.27 7.38
3 -3 -9 22.81 7.46
-3 3 9 22.34 6.7
-3 3 9 36.07 7.53
3 -3 -8 -0.18 4.47
3 -3 -8 -4.19 4.62
-3 3 8 1.19 4.32
-3 3 8 -0.96 4.65
3 -3 -7 4.86 2.7
3 -3 -7 1.9 4.34
-3 3 7 7.93 4.2
-3 3 7 5.75 4.54
3 -3 -6 24.63 5.15
3 -3 -6 29.51 5.19
-3 3 6 28.76 3.17
-3 3 6 23.22 5.56
3 -3 -5 225.01 13.54
3 -3 -5 206.13 12.66
-3 3 5 219.56 13.19
-3 3 5 225.08 13.85
3 -3 -4 579.53 32.46
3 -3 -4 539.53 27.56
-3 3 4 561.95 29.72
-3 3 4 620.52 32.03
3 -3 -3 143.57 8.31
3 -3 -3 132.24 6.3
-3 3 3 142.04 7.51
-3 3 3 145.99 6.97
3 -3 -2 156.67 8
3 -3 -2 137.45 5.05
-3 3 2 159.11 7.26
-3 3 2 147.63 7.38
3 -3 -1 877.47 46.87
3 -3 -1 860.91 37.1
-3 3 1 873.54 43.77
-3 3 1 861.24 38.29
-3 3 0 745.47 31.93
-3 3 0 739.43 27.93
-3 3 -1 584.59 26.67
-3 3 -1 628.99 28.25
3 -3 2 478.16 20.54
3 -3 2 379.23 11.37
-3 3 -2 386.72 16.6
-3 3 -2 407.08 12.88
3 -3 3 57.45 4.29
3 -3 3 49.27 2.34
-3 3 -3 42.9 3.97
-3 3 -3 43.17 2.97
3 -3 4 18.15 3.2
3 -3 4 12.86 2.42
-3 3 -4 15.03 1.89
-3 3 -4 8.04 2.67
3 -3 5 59.74 5.53
3 -3 5 46.75 3.67
-3 3 -5 54.23 3.38
-3 3 -5 46.57 5.55
3 -3 6 112.6 8.47
3 -3 6 87.48 8.16
-3 3 -6 112.6 8.38
-3 3 -6 93.85 6.91
3 -3 7 26.75 5.66
3 -3 7 24.82 4.02
-3 3 -7 24.97 5.43
-3 3 -7 26.99 4.17
3 -3 8 39.08 4.5
3 -3 8 32.8 5.1
-3 3 -8 44.27 6.55
-3 3 -8 28.55 5.19
3 -3 9 9.47 5.03
3 -3 9 -5.54 4.9
-3 3 -9 -4.47 4.77
-3 3 -9 -4.78 4.78
3 -3 10 18.6 6.84
3 -3 10 9.15 5.05
-3 3 -10 16.54 6.53
-3 3 -10 10.57 5.06
3 -2 -10 22.45 8.15
3 -2 -10 29.21 5.19
-3 2 10 17.15 7.55
-3 2 10 15.92 8.86
3 -2 -9 2.26 5.74
3 -2 -9 9.87 5.96
-3 2 9 6.79 5.3
-3 2 9 3.31 6.21
3 -2 -8 39.64 7.3
3 -2 -8 34.5 7.37
-3 2 8 34.13 6.81
-3 2 8 44.4 8.08
3 -2 -7 112.02 10.47
3 -2 -7 121.03 10.74
-3 2 7 116.38 10.21
-3 2 7 119.56 11.86
3 -2 -6 7.77 3.77
3 -2 -6 4.24 3.95
-3 2 6 4.11 3.73
-3 2 6 6 4.76
3 -2 -5 407.93 23.18
3 -2 -5 412.44 22.7
-3 2 5 427.85 22.95
-3 2 5 422.12 19.18
3 -2 -4 752.19 43.56
3 -2 -4 769.77 42.45
-3 2 4 777.3 43.22
-3 2 4 828.43 46.22
3 -2 -3 225.61 10.79
3 -2 -3 228.56 10.19
-3 2 3 214.94 10.28
-3 2 3 236.88 10.97
3 -2 -2 20.99 2.93
3 -2 -2 17.96 2.07
-3 2 2 17.57 2.65
-3 2 2 19.07 2.66
3 -2 -1 457.28 19.03
3 -2 -1 390.69 13.38
-3 2 1 411.72 16.53
-3 2 1 433.62 16.58
3 -2 0 321.79 12.76
3 -2 0 302.69 8.7
-3 2 0 313.41 11.87
-3 2 0 327.61 10.12
-3 2 -1 241.75 7.47
-3 2 -1 259.21 9.68
-3 2 -1 248.01 6.84
-3 2 -1 260.57 7.18
3 -2 2 644.28 28.72
3 -2 2 636.91 23.74
-3 2 -2 592.38 26.23
-3 2 -2 673.83 25.98
3 -2 3 26.24 2.91
3 -2 3 23.27 1.54
-3 2 -3 24.23 2.76
-3 2 -3 22.08 2.61
3 -2 4 92.98 5.49
3 -2 4 96.09 4.16
-3 2 -4 85.82 5.13
-3 2 -4 71.33 4.29
3 -2 5 63.55 4.63
3 -2 5 48.34 4.97
-3 2 -5 52.97 4.67
-3 2 -5 41.08 5.43
3 -2 6 40.39 4.89
3 -2 6 28.94 3.92
-3 2 -6 43.65 4.71
-3 2 -6 26.96 4.28
3 -2 7 51.5 6
3 -2 7 40.86 6.68
-3 2 -7 46.15 5.92
-3 2 -7 33.11 5.3
3 -2 8 40.18 6.29
3 -2 8 33.53 5.3
-3 2 -8 42.15 6.25
-3 2 -8 31.3 5.93
3 -2 9 31.65 6.85
3 -2 9 30.82 5.57
-3 2 -9 37.03 6.59
-3 2 -9 28.87 5.91
3 -2 10 -3.56 5.42
3 -2 10 12.66 4.3
-3 2 -10 -1.26 5.26
-3 2 -10 3.25 4.52
3 -2 11 20.67 7.41
3 -2 11 12.03 6.12
-3 2 -11 25.33 7.29
-3 2 -11 15.13 6.13
3 -1 -10 19.38 7.57
-3 1 10 18.3 7.16
-3 1 10 22.35 9
3 -1 -9 53.18 8.78
3 -1 -9 46.16 9.25
-3 1 9 46.55 8.23
-3 1 9 52.67 10.19
3 -1 -8 86.29 10.19
3 -1 -8 86.12 6.99
-3 1 8 88.39 9.67
-3 1 8 84.8 11.92
3 -1 -7 16.03 5.44
3 -1 -7 26.05 5.69
-3 1 7 21.61 5.19
-3 1 7 16.78 4.08
3 -1 -6 62.99 6.76
3 -1 -6 52.35 7.3
-3 1 6 59.54 6.49
-3 1 6 63.29 5.23
3 -1 -5 439.05 24.67
3 -1 -5 418.4 24.44
-3 1 5 418.32 23.4
-3 1 5 462.8 28.71
3 -1 -4 675.74 36.3
3 -1 -4 670.8 35.74
-3 1 4 653.62 34.5
-3 1 4 710.21 39.73
3 -1 -3 387.75 17.36
3 -1 -3 393.87 17.35
-3 1 3 379.17 17.22
-3 1 3 414.91 19.56
3 -1 -2 862.12 42.99
3 -1 -2 819.82 39.57
-3 1 2 865.43 41.61
-3 1 2 863.75 42.35
3 -1 -1 187.6 7.58
3 -1 -1 181.44 7.69
-3 1 1 182.02 6.97
-3 1 1 183.26 6.88
3 -1 0 18.96 2.14
3 -1 0 19.04 1.58
-3 1 0 19.92 2.1
-3 1 0 19.38 1.61
-3 1 -1 202.62 7.04
-3 1 -1 209.54 7.27
-3 1 -1 228.13 6.42
-3 1 -1 220.78 7.24
3 -1 2 244.18 8.57
3 -1 2 246.83 7.29
-3 1 -2 220.2 8.11
-3 1 -2 262.9 8.66
3 -1 3 190.17 7.99
3 -1 3 199.53 6.5
-3 1 -3 206.38 8.7
3 -1 4 906.85 47.02
3 -1 4 972.35 47.62
-3 1 -4 908.64 46.9
-3 1 -4 886.24 46.98
3 -1 5 121.63 6.25
3 -1 5 106.61 5.97
-3 1 -5 89.58 6.22
3 -1 6 51.04 4.64
3 -1 6 46.77 4.69
-3 1 -6 53.93 4.71
-3 1 -6 37.81 5.11
3 -1 7 112.89 8.17
3 -1 7 99.94 7.93
-3 1 -7 110.52 8.06
-3 1 -7 95.55 8.61
3 -1 8 167.62 12.39
3 -1 8 163.6 11.71
-3 1 -8 179.37 12.17
-3 1 -8 148.46 12.06
3 -1 9 6.15 4.58
3 -1 9 7.36 4.27
-3 1 -9 10.06 4.6
-3 1 -9 8.35 5
3 -1 10 31.56 6.59
3 -1 10 27.36 5.87
-3 1 -10 25.55 6.48
-3 1 -10 15.98 6.27
3 -1 11 24.44 6.92
3 -1 11 17.84 6.19
-3 1 -11 25.44 6.8
-3 1 -11 11.89 6.62
3 0 -10 4.97 5.92
3 0 -10 5.57 5.89
-3 0 10 -1.58 3.45
-3 0 10 4.15 6.84
3 0 -9 42 8.52
3 0 -9 43.97 5.65
-3 0 9 46.82 8.11
-3 0 9 44.7 10.12
3 0 -8 166.82 10.15
3 0 -8 156.99 15.12
-3 0 8 146.34 13.94
-3 0 8 180.17 17.68
3 0 -7 110.52 9.77
3 0 -7 97.34 10.21
-3 0 7 102.16 9.46
-3 0 7 113.72 11.75
3 0 -6 3.39 3.51
3 0 -6 -1.66 3.85
-3 0 6 2.03 3.46
-3 0 6 -0.3 4.92
3 0 -5 185.77 11.09
3 0 -5 184.93 11.76
-3 0 5 175 10.97
-3 0 5 191.66 14.08
3 0 -4 148.37 8.28
3 0 -4 137.32 8.67
-3 0 4 134.97 8.22
-3 0 4 178.51 11.54
3 0 -3 431.03 18.82
3 0 -3 395.37 18.31
-3 0 3 413.83 18.18
-3 0 3 426.95 16.92
3 0 -2 535.22 22.96
3 0 -2 518.06 22.79
-3 0 2 526.5 22.51
-3 0 2 589.4 26.09
3 0 -1 79.65 3.71
3 0 -1 74.08 3.87
-3 0 1 77.95 3.48
-3 0 1 82.84 4.37
3 0 0 11.35 1.57
3 0 0 7.98 1.71
-3 0 0 7.33 1.5
-3 0 0 10.56 1.85
-3 0 -1 11.07 1.28
-3 0 -1 9.31 1.68
-3 0 -2 448.98 15.89
-3 0 -2 426.11 15.3
3 0 3 508.58 19.15
3 0 3 507.4 19.5
-3 0 -3 484.53 18.16
-3 0 -3 498.39 19.8
3 0 4 800.57 37.33
3 0 4 799.41 37.24
-3 0 -4 776.98 35.89
-3 0 -4 783.64 39.62
3 0 5 178.95 8.02
3 0 5 184.27 8.67
-3 0 -5 167.09 9.51
-3 0 -5 172.66 9.38
3 0 6 1.23 2.27
3 0 6 2.6 2.51
-3 0 -6 1.47 2.34
-3 0 -6 -2.05 2.88
3 0 7 147.54 9.1
3 0 7 148.76 9.34
-3 0 -7 157.34 9.08
-3 0 -7 132.7 10.88
3 0 8 142.19 10.09
3 0 8 138.16 10.78
-3 0 -8 152.27 10.13
-3 0 -8 115.71 11.36
3 0 9 30.43 5.38
3 0 9 22.33 5.56
-3 0 -9 33.9 5.31
-3 0 -9 21.26 6.03
3 0 10 4.5 4.12
3 0 10 1.06 4.09
-3 0 -10 -2.17 2.5
-3 0 -10 -1.09 4.34
3 0 11 -4.05 5.52
3 0 11 13.59 5.25
-3 0 -11 13.85 5.32
-3 0 -11 7.05 6.17
3 0 12 -0.09 6.24
3 0 12 8.81 5.84
-3 0 -12 16.36 6.01
-3 0 -12 6.99 6.59
3 1 -9 36.94 7.75
3 1 -9 33.06 8.01
-3 -1 9 33.74 6.13
3 1 -8 89.5 7.02
3 1 -8 83.34 10.65
-3 -1 8 101.76 10.24
-3 -1 8 101.14 8.52
3 1 -7 69.66 7.91
3 1 -7 57.83 8.19
-3 -1 7 65.29 7.63
-3 -1 7 67.92 9.89
3 1 -6 67.25 6.95
3 1 -6 55.67 6.95
-3 -1 6 55.68 6.53
-3 -1 6 58.34 9.14
3 1 -5 48.16 5.16
3 1 -5 37.94 5.57
-3 -1 5 41.3 5.1
-3 -1 5 47.7 7.77
3 1 -4 1.79 2.69
3 1 -4 0.71 2.78
-3 -1 4 3.07 2.6
-3 -1 4 2.15 2.3
3 1 -3 128.2 6.33
3 1 -3 118.52 6.9
-3 -1 3 124.91 6.52
-3 -1 3 133.16 8.08
3 1 -2 483.39 19.77
3 1 -2 483.03 21.37
-3 -1 2 496.56 20.54
-3 -1 2 505.56 23.31
3 1 -1 31.05 2.95
3 1 -1 33.57 2.97
-3 -1 1 33.16 2.27
-3 -1 1 30.24 3.16
3 1 0 125.96 3.86
3 1 0 120.53 5.25
-3 -1 0 128.98 3.93
-3 -1 0 133.61 5.57
3 1 1 203.63 5.46
3 1 1 213.87 7.93
-3 -1 -1 226.56 6.05
-3 -1 -1 212.89 7.91
-3 -1 -2 14.54 1.23
-3 -1 -2 14.35 1.22
-3 -1 -2 18.46 2.08
3 1 3 25.61 1.55
3 1 3 28.73 2.52
-3 -1 -3 24.36 1.97
-3 -1 -3 23.99 2.52
3 1 4 684.24 28.41
3 1 4 734.27 32.89
-3 -1 -4 671.96 28.09
-3 -1 -4 698.61 33.5
3 1 5 62.08 3.49
3 1 5 66.74 4.2
-3 -1 -5 60.41 3.53
-3 -1 -5 56.65 5.01
3 1 6 46.07 3.87
3 1 6 56.68 4.55
-3 -1 -6 48.58 3.72
-3 -1 -6 42.21 5.36
3 1 7 54.05 4.95
3 1 7 61.33 5.67
-3 -1 -7 57.69 4.77
-3 -1 -7 48.08 6.61
3 1 8 6.29 3.54
3 1 8 14.46 3.81
-3 -1 -8 2.88 3.41
-3 -1 -8 6.43 4.83
3 1 9 8.74 3.81
3 1 9 7.02 4.01
-3 -1 -9 4.52 3.65
-3 -1 -9 1.94 2.87
3 1 10 3.02 3.92
3 1 10 1.36 4.04
-3 -1 -10 -4.84 3.81
-3 -1 -10 -0.77 4.66
3 1 11 13.73 5.65
3 1 11 21.86 5.83
-3 -1 -11 11.31 5.46
-3 -1 -11 13.13 6.45
3 1 12 6.04 5.89
3 1 12 11.28 6.05
-3 -1 -12 13.45 5.63
-3 -1 -12 1.8 7.11
3 2 -9 20.13 6.92
3 2 -9 18.65 6.88
-3 -2 9 15.85 6.73
-3 -2 9 26.77 8.64
3 2 -8 25.71 6.86
3 2 -8 14.15 6.52
-3 -2 8 26.98 6.34
-3 -2 8 39.17 8.37
3 2 -7 128.64 11.13
3 2 -7 108.21 10.75
-3 -2 7 117.14 10.53
-3 -2 7 120.83 13.16
3 2 -6 269.67 17.1
3 2 -6 241.66 17.12
-3 -2 6 269.49 16.71
-3 -2 6 283.57 21.08
3 2 -5 62.76 6.24
3 2 -5 60.69 6.46
-3 -2 5 59.77 6.13
-3 -2 5 78.67 9.57
3 2 -4 14.85 3.27
3 2 -4 11.53 3.45
-3 -2 4 12.37 3.17
-3 -2 4 8.16 4.78
3 2 -3 41.47 3.72
3 2 -3 41.03 4.14
-3 -2 3 38.81 3.59
-3 -2 3 49.63 4.95
3 2 -2 83.37 4.28
3 2 -2 80.43 3.38
-3 -2 2 83.9 5.33
-3 -2 2 90.46 5.89
3 2 -1 420.16 16.89
3 2 -1 387.78 16.33
-3 -2 1 411.42 14.64
-3 -2 1 417.85 15.09
3 2 0 1610.9 91.79
3 2 0 1577.6 99.08
-3 -2 0 1602.75 91.84
-3 -2 0 1679.77 104.98
3 2 1 196.91 4.45
3 2 1 171.65 5.48
-3 -2 -1 187.14 4.06
-3 -2 -1 175.66 5.52
-3 -2 -2 10.15 2.21
-3 -2 -2 8.69 1.99
3 2 3 407.91 11.89
3 2 3 438.24 17.22
-3 -2 -3 429.36 12.63
-3 -2 -3 427.44 17.64
3 2 4 814.58 33.64
3 2 4 811.3 38.85
-3 -2 -4 800.72 34.74
-3 -2 -4 801.35 41.3
3 2 5 3.38 1.51
3 2 5 2.88 1.33
-3 -2 -5 2.48 1.57
-3 -2 -5 2.83 2.66
3 2 6 11.71 2.19
3 2 6 12.51 2.86
-3 -2 -6 10.78 2.19
-3 -2 -6 3.68 3.53
3 2 7 4.38 2.43
3 2 7 3.78 3.11
-3 -2 -7 3.71 2.42
-3 -2 -7 3.84 3.83
3 2 8 6.65 3.04
3 2 8 5.11 3.69
-3 -2 -8 4.2 2.97
-3 -2 -8 7.77 4.7
3 2 9 26.35 4.77
3 2 9 36.82 5.78
-3 -2 -9 28.04 4.53
-3 -2 -9 19.74 6.88
3 2 10 12.56 4.33
3 2 10 4.52 5.18
-3 -2 -10 12.48 4.2
-3 -2 -10 11.21 5.7
3 2 11 22.87 5.67
3 2 11 15.79 6.49
-3 -2 -11 21.65 3.42
-3 -2 -11 20.2 7.32
3 2 12 7.89 3.46
3 2 12 1.99 5.77
-3 -2 -12 7.67 5.35
-3 -2 -12 -0.51 6.54
3 3 -9 5.14 6.02
3 3 -9 6.33 5.47
-3 -3 9 5.12 5.85
-3 -3 9 -2.15 7.16
3 3 -8 0.16 4.82
3 3 -8 5.69 4.81
-3 -3 8 -0.67 5.05
-3 -3 8 4.06 6.22
3 3 -7 33.52 5.88
3 3 -7 27.44 5.99
-3 -3 7 18.57 5.85
-3 -3 7 31.49 7.73
3 3 -6 32.84 5.39
3 3 -6 26.76 5.5
-3 -3 6 24.95 5.34
-3 -3 6 33.75 7.08
3 3 -5 4.96 3.69
3 3 -5 10.59 3.83
-3 -3 5 2.17 3.53
-3 -3 5 19.68 5.47
3 3 -4 14.41 3.48
3 3 -4 14.74 3.53
-3 -3 4 9.18 3.28
-3 -3 4 10.56 5.11
3 3 -3 16.15 2.98
3 3 -3 14.75 3.25
-3 -3 3 14.23 2.8
-3 -3 3 16.75 4.11
3 3 -2 140.03 6.19
3 3 -2 142.37 5.31
-3 -3 2 128.54 5.82
-3 -3 2 154.16 8.71
3 3 -1 108.26 4.35
3 3 -1 101.19 5.34
-3 -3 1 101.06 3.94
-3 -3 1 106.82 4.22
3 3 0 513.5 19
3 3 0 516.49 22.09
-3 -3 0 499.91 16.98
-3 -3 0 506.77 19.59
3 3 1 70.55 1.99
3 3 1 73.33 3.91
-3 -3 -1 69.48 2.02
-3 -3 -1 70.41 4.05
-3 -3 -2 2.51 1.77
-3 -3 -2 -0.59 1.71
3 3 3 81.24 1.84
3 3 3 94.77 4.73
-3 -3 -3 87.28 1.98
-3 -3 -3 85.96 4.64
3 3 4 74.58 3.32
3 3 4 82.44 4.57
-3 -3 -4 74.22 2.75
-3 -3 -4 71.38 4.77
3 3 5 193.44 6.53
3 3 5 196.49 9.09
-3 -3 -5 203.7 7.95
-3 -3 -5 188.72 10.29
3 3 6 1.4 1.67
3 3 6 -1.12 2.38
-3 -3 -6 1.91 1.58
-3 -3 -6 -3.37 2.96
3 3 7 41 3.67
3 3 7 43.57 4.66
-3 -3 -7 43.11 3.53
-3 -3 -7 30.63 6.21
3 3 8 22.62 3.64
3 3 8 23.3 2.94
-3 -3 -8 22.63 3.46
-3 -3 -8 9.05 6.09
3 3 9 48.8 5.21
3 3 9 41.66 6.54
-3 -3 -9 45.24 5.22
-3 -3 -9 33.03 7.84
3 3 10 3.4 3.75
3 3 10 4.84 4.68
-3 -3 -10 4.9 3.72
-3 -3 -10 4.56 5.59
3 3 11 2.13 4.29
3 3 11 10.85 5
-3 -3 -11 3.24 4.33
-3 -3 -11 0.57 6
3 3 12 6.17 4.8
3 3 12 5.38 5.76
-3 -3 -12 3.19 4.58
-3 -3 -12 0.93 6.52
3 4 -8 5.67 5.39
3 4 -8 5.62 5.19
-3 -4 8 7.9 5.36
-3 -4 8 2.13 6.96
3 4 -7 2.14 4.4
3 4 -7 -0.15 4.3
-3 -4 7 1 4.35
-3 -4 7 7.46 5.73
3 4 -6 61.15 7.29
3 4 -6 55.81 7.19
-3 -4 6 66.32 7.06
-3 -4 6 63.29 9.24
3 4 -5 21.6 4.47
3 4 -5 13.35 4.62
-3 -4 5 21.87 4.24
-3 -4 5 18.8 6.43
3 4 -4 45.07 5.09
3 4 -4 42.1 5.33
-3 -4 4 43.56 4.74
-3 -4 4 48.91 7.22
3 4 -3 36.48 3.88
3 4 -3 31.4 4.3
-3 -4 3 32.75 3.58
-3 -4 3 38.26 5.51
3 4 -2 2.3 2.04
3 4 -2 3.65 2.24
-3 -4 2 0.03 1.84
3 4 -1 276.27 10.39
3 4 -1 274 12.29
-3 -4 1 271.77 9.86
-3 -4 1 294.61 13.71
3 4 0 573.25 23.16
3 4 0 557.81 24.83
-3 -4 0 546.9 20.46
-3 -4 0 607.39 28.36
3 4 1 2.31 1.11
3 4 1 3.95 2.01
-3 -4 -1 4.05 0.98
-3 -4 -1 7.01 2.03
3 4 2 86.36 2.06
3 4 2 89.67 2.27
-3 -4 -2 77.63 3.26
-3 -4 -2 76.51 4.5
3 4 3 4.95 0.7
-3 -4 -3 0.23 2.07
3 4 4 1.01 1.1
3 4 4 2.78 1.25
-3 -4 -4 2.1 1.08
-3 -4 -4 -0.98 2.12
3 4 5 39.51 2.75
3 4 5 41.01 3.79
-3 -4 -5 37.59 2.06
-3 -4 -5 36.03 4.36
3 4 6 102.72 4.65
3 4 6 107.29 4.55
-3 -4 -6 105.01 4.67
-3 -4 -6 88.93 7.97
3 4 7 188.59 8.78
3 4 7 198.87 11.04
-3 -4 -7 187.34 8.53
-3 -4 -7 166.27 13.58
3 4 8 54.17 6.25
3 4 8 55.81 3.88
-3 -4 -8 52.33 4.61
-3 -4 -8 49.6 8.36
3 4 9 33.64 4.34
3 4 9 30.66 5.78
-3 -4 -9 29.69 4.21
-3 -4 -9 20.36 7.28
3 4 10 4.67 3.93
3 4 10 8.31 4.88
-3 -4 -10 13.22 3.78
-3 -4 -10 11.2 6.12
3 4 11 -1.69 3.76
3 4 11 -2.71 4.74
-3 -4 -11 2.67 3.59
-3 -4 -11 4.37 5.59
3 4 12 0.64 4.57
3 4 12 -0.05 5.71
-3 -4 -12 7.1 4.43
-3 -4 -12 8.12 6.51
3 4 13 8.12 5.17
3 4 13 -4.15 3.92
-3 -4 -13 7.47 5.02
-3 -4 -13 13.87 7.36
3 5 -7 0.08 4.43
3 5 -7 2.69 4.3
-3 -5 7 -3.94 5.73
3 5 -6 16.62 4.71
3 5 -6 13.42 4.62
-3 -5 6 8 4.67
-3 -5 6 7.99 6.1
3 5 -5 103.58 8.67
3 5 -5 102.5 9.07
-3 -5 5 102.19 8.51
-3 -5 5 116.48 12.41
3 5 -4 94.55 7.45
3 5 -4 100.37 7.78
-3 -5 4 91.32 7.21
-3 -5 4 115.88 10.34
3 5 -3 5.79 3.04
3 5 -3 9.29 3.09
-3 -5 3 9.9 2.85
-3 -5 3 11.23 4.22
3 5 -2 5.74 2.39
3 5 -2 5.41 2.66
-3 -5 2 7.52 2.21
-3 -5 2 8.25 3.47
3 5 -1 47.18 4.01
3 5 -1 44.85 3.94
-3 -5 1 45.77 3.01
-3 -5 1 42.98 4.63
3 5 0 55.53 2.73
3 5 0 52.14 3.73
-3 -5 0 55.45 3.33
-3 -5 0 57.34 4.44
3 5 1 6.5 1.54
3 5 1 7.13 1.99
-3 -5 -1 7.38 1.34
-3 -5 -1 9.48 2.28
3 5 2 4.94 1.05
3 5 2 4.64 1.03
-3 -5 -2 5.11 2.22
-3 -5 -2 5.27 1.98
3 5 3 64.23 1.99
-3 -5 -3 63.06 4.47
-3 -5 -3 49.76 4.33
3 5 4 258.72 7.97
3 5 4 293.82 11.96
-3 -5 -4 232.51 7.57
-3 -5 -4 240.04 12.22
3 5 5 0.12 1.16
3 5 5 -1.74 2.27
-3 -5 -5 3.17 1.55
-3 -5 -5 2.75 2.51
3 5 6 60.93 3.25
3 5 6 66.11 4.85
-3 -5 -6 60.02 3.43
-3 -5 -6 47.26 3.88
3 5 7 17.89 3.34
3 5 7 16.17 2.25
-3 -5 -7 10.99 2.45
-3 -5 -7 14.58 3
3 5 8 5.56 2.62
3 5 8 5.06 2.12
-3 -5 -8 3.67 2.57
-3 -5 -8 3.56 4.88
3 5 9 17.54 3.57
3 5 9 16.82 4.58
-3 -5 -9 15.5 3.59
-3 -5 -9 9.22 6.25
3 5 10 27.8 4.11
3 5 10 13.62 5.14
-3 -5 -10 11.33 4.21
-3 -5 -10 9.42 6.81
3 5 11 3.79 3.62
3 5 11 0.82 4.51
-3 -5 -11 0.13 3.71
-3 -5 -11 0.85 5.86
3 5 12 6.42 4.21
3 5 12 1 5.15
-3 -5 -12 -0.23 4.26
-3 -5 -12 2.83 3.92
3 5 13 19.35 5.95
3 5 13 15.24 7.14
-3 -5 -13 18.28 6.09
-3 -5 -13 2.11 9.01
3 6 -7 4.21 5.04
3 6 -7 -0.63 4.92
-3 -6 7 3.55 5.18
-3 -6 7 11.38 6.43
3 6 -6 13.35 4.9
3 6 -6 11.42 4.67
-3 -6 6 13.21 5.07
-3 -6 6 13.62 6.47
3 6 -5 49.51 6.4
3 6 -5 43.42 6.11
-3 -6 5 53.46 6.42
-3 -6 5 56.12 9.06
3 6 -4 101.66 8.04
3 6 -4 100.5 8.05
-3 -6 4 105.31 8.06
-3 -6 4 113.78 11.32
3 6 -3 13.9 3.42
3 6 -3 13.16 3.58
-3 -6 3 11.57 3.47
-3 -6 3 20.89 4.56
3 6 -2 7.93 2.55
3 6 -2 5.14 2.83
-3 -6 2 5.16 2.38
-3 -6 2 4.43 3.8
3 6 -1 11.26 2.22
3 6 -1 6.34 2.69
-3 -6 1 12.01 2.91
-3 -6 1 3.36 3.44
3 6 0 47.64 3.83
3 6 0 44.56 3.78
-3 -6 0 50.23 3.63
-3 -6 0 52.04 4.72
3 6 1 22.94 2.43
-3 -6 -1 23.36 3.41
3 6 2 89.44 3.67
3 6 2 87.68 2.94
-3 -6 -2 84.42 5.67
3 6 3 77.61 2.97
3 6 3 83.04 3.31
-3 -6 -3 66 5.07
3 6 4 86.58 3.59
-3 -6 -4 47.8 5.27
3 6 5 1.87 1.29
3 6 5 2.71 2.41
-3 -6 -5 2.49 1.68
-3 -6 -5 2.98 2.73
3 6 6 24.64 3
3 6 6 31.89 3.76
-3 -6 -6 19.76 4.46
3 6 7 1.65 2.72
3 6 7 2.92 2.94
-3 -6 -7 4.73 2.69
-3 -6 -7 1.32 3.96
3 6 8 2.4 2.4
3 6 8 5.05 3.29
-3 -6 -8 1.71 2.41
-3 -6 -8 6.65 4.68
3 6 9 2.12 2.64
3 6 9 1.04 3.39
-3 -6 -9 0.67 2.67
-3 -6 -9 -2.01 4.76
3 6 10 5.17 3.38
3 6 10 11.76 4.3
-3 -6 -10 7.15 3.49
-3 -6 -10 3.3 3.56
3 6 11 26.34 4.59
3 6 11 21.5 5.75
-3 -6 -11 15.03 4.73
-3 -6 -11 9.35 7.48
3 6 12 1.88 4.4
3 6 12 14.04 5.38
-3 -6 -12 5.17 4.35
-3 -6 -12 4.54 7.25
3 7 -6 0.93 4.8
3 7 -6 10.04 4.5
-3 -7 6 10.8 5.21
-3 -7 6 4.61 6.46
3 7 -5 6.84 4.17
3 7 -5 8.63 3.96
-3 -7 5 7.15 4.18
-3 -7 5 2.21 6.04
3 7 -4 1.82 3.35
3 7 -4 -1.34 3.3
-3 -7 4 1.62 3.29
-3 -7 4 5.59 4.55
3 7 -3 9.63 3.11
3 7 -3 4.68 3.31
-3 -7 3 4.47 3.13
-3 -7 3 0.7 4.39
3 7 -2 1.2 2.64
3 7 -2 6.25 2.98
-3 -7 2 6.68 2.67
-3 -7 2 -2.23 3.82
3 7 -1 40.03 3.53
3 7 -1 39.84 3.98
-3 -7 1 38.84 3.53
-3 -7 1 27.63 5.46
3 7 0 199.65 8.78
3 7 0 227.76 11.01
-3 -7 0 212.33 9.02
-3 -7 0 189.8 13.26
3 7 1 108.41 4.6
3 7 1 114.75 4.61
-3 -7 -1 83.74 7.53
-3 -7 -2 12.99 3
-3 -7 -2 8.5 2.88
3 7 3 67.9 3.52
3 7 3 65.68 2.92
-3 -7 -3 47.41 5.01
3 7 4 5.4 1.67
3 7 4 5.41 1.35
-3 -7 -4 4.53 2.74
-3 -7 -4 6.06 2.62
3 7 5 3.11 1.92
-3 -7 -5 1.71 2.9
3 7 6 3.98 2.41
3 7 6 10.8 2.81
-3 -7 -6 1.29 1.8
-3 -7 -6 5.67 3.36
3 7 7 5.92 2.02
3 7 7 9.7 3.12
-3 -7 -7 0.31 2.89
-3 -7 -7 0.63 2.49
3 7 8 2.45 3.01
3 7 8 -0.82 3.09
-3 -7 -8 -0.39 2.33
-3 -7 -8 4.63 4.18
-3 -7 -9 55.85 6.64
-3 -7 -9 51.7 10.08
3 7 10 22.6 4.09
3 7 10 19.84 5.24
-3 -7 -10 9.52 4.29
-3 -7 -10 21.82 6.96
3 7 11 -1.27 3.49
3 7 11 3.31 4.3
-3 -7 -11 2.37 3.61
-3 -7 -11 3.29 5.83
3 7 12 7.67 4.33
3 7 12 2.27 5.41
-3 -7 -12 7.79 6.04
-3 -7 -12 4.34 4.47
3 8 -5 25.57 5.8
3 8 -5 28.38 5.32
-3 -8 5 24.55 6.03
-3 -8 5 14.5 7.3
3 8 -4 17.5 4.73
3 8 -4 22.8 4.73
-3 -8 4 19.33 4.94
-3 -8 4 16 6.48
3 8 -3 -0.01 3.11
3 8 -3 -2.5 3.12
-3 -8 3 5.22 4.22
-3 -8 3 5.5 4.24
3 8 -2 8.18 2.9
3 8 -2 3.96 3
-3 -8 2 1.17 4.01
-3 -8 2 1.8 4.15
3 8 -1 44.7 5.27
3 8 -1 41.21 4.68
-3 -8 1 51.76 4.2
-3 -8 1 20.76 6.33
-3 -8 0 32.92 5.42
3 8 1 3.97 1.84
3 8 1 5.12 2.43
-3 -8 -1 4.77 2.89
-3 -8 -1 0.68 3.4
3 8 2 2.51 1.61
3 8 2 2.98 2.03
-3 -8 -2 1.57 2.55
-3 -8 -2 2.39 3.35
3 8 3 5.23 1.56
3 8 3 4.82 2.08
-3 -8 -3 2.68 3.62
-3 -8 -3 2.27 2.6
3 8 4 13.75 1.71
3 8 4 9.49 1.75
-3 -8 -4 8.38 3.09
-3 -8 -4 5.18 3.05
3 8 5 9.69 1.9
-3 -8 -5 7.54 3.32
-3 -8 -5 0.94 3.47
-3 -8 -6 5.21 2.28
-3 -8 -6 12.42 4.02
3 8 7 9.65 2.19
3 8 7 11.81 3.27
-3 -8 -7 1.74 2.39
-3 -8 -7 3.79 4.11
3 8 8 3.29 2.34
3 8 8 5.58 3.38
-3 -8 -8 -0.24 2.59
-3 -8 -8 3.13 4.27
-3 -8 -9 14.45 4.18
-3 -8 -9 20.09 6.41
-3 -8 -10 26.71 5.38
-3 -8 -10 22.2 8.15
3 8 11 30.26 4.83
3 8 11 29.12 6.19
-3 -8 -11 15.76 5.32
-3 -8 -11 14.78 8.13
3 8 12 12.43 4.42
3 8 12 2.14 5.58
-3 -8 -12 11.67 4.7
-3 -8 -12 -14.17 7.53
3 9 -4 39.67 5.96
3 9 -4 30.3 5.75
-3 -9 4 36.86 6.28
-3 -9 4 24.06 11.44
3 9 -3 12.43 4.31
3 9 -3 14.03 4.15
-3 -9 3 19.02 4.43
-3 -9 3 13.24 5.8
3 9 -2 -2.82 2.93
3 9 -2 0.85 3.12
-3 -9 2 3.86 3.07
-3 -9 2 0.39 3.83
3 9 -1 0.86 3.49
3 9 -1 1.46 2.8
-3 -9 1 3.68 3.13
-3 -9 1 -3.1 4.97
-3 -9 0 -5.8 4.85
-3 -9 0 -2.77 3.12
3 9 1 1.31 2.75
3 9 1 2.23 2.68
-3 -9 -1 1.24 4.01
-3 -9 -1 2.28 2.66
-3 -9 -2 6.53 3.19
-3 -9 -2 3.73 2.88
3 9 3 1.59 1.64
3 9 3 2.36 2.19
-3 -9 -3 -2.83 2.57
-3 -9 -3 -2.67 2.46
3 9 4 3.21 2.25
3 9 4 6.43 2.32
-3 -9 -4 2.66 3.02
-3 -9 -4 4.41 2.82
-3 -9 -5 13.55 5.72
-3 -9 -5 12.5 4.81
-3 -9 -6 6.5 3.86
-3 -9 -6 12.69 4.23
3 9 7 4.64 2.06
3 9 7 -2.82 3.34
-3 -9 -7 1.67 2.18
-3 -9 -7 5.31 3.83
3 9 8 12.35 2.6
3 9 8 10.4 3.79
-3 -9 -8 1.77 2.95
-3 -9 -8 -3.69 4.86
3 9 9 22.12 3.58
3 9 9 17.49 4.85
-3 -9 -9 6.82 3.93
-3 -9 -9 7.76 6.16
3 9 10 21.85 4.12
3 9 10 27.04 5.4
-3 -9 -10 6.68 4.56
-3 -9 -10 5.42 7.14
3 9 11 37.14 6.43
3 9 11 33.45 6.5
-3 -9 -11 6.01 5.66
-3 -9 -11 13.17 8.2
3 10 -2 -1.44 3.29
-3 -10 2 3.11 3.85
-3 -10 2 3.6 4.36
3 10 -1 2.59 3.82
-3 -10 1 0.75 3.73
-3 -10 1 -0.98 3.31
3 10 0 -1.19 2.65
3 10 0 4.44 2.57
-3 -10 0 4.34 4.93
-3 -10 0 -0.48 3.03
3 10 1 4.74 3.13
-3 -10 -1 -2.56 4.41
-3 -10 -1 -0.21 2.85
-3 -10 -2 19.55 5.68
-3 -10 -2 11.5 3.88
3 10 3 2.44 1.99
3 10 3 -0.56 2.72
-3 -10 -3 3.41 2.98
-3 -10 -3 1.02 2.72
3 10 4 1.98 1.9
-3 -10 -4 0.63 2.9
-3 -10 -4 -2.55 2.74
3 10 5 36.66 4.94
-3 -10 -5 16.6 5.82
-3 -10 -5 10.88 5.85
-3 -10 -6 16.23 5.27
-3 -10 -6 13.67 5.16
3 10 7 18.71 3.04
-3 -10 -7 4.12 5.12
3 10 8 19.88 3.18
3 10 8 16.19 5.25
-3 -10 -8 2.82 3.29
-3 -10 -8 6.99 5.41
3 10 9 4.16 2.96
3 10 9 2.33 4.11
-3 -10 -9 5.36 3.16
-3 -10 -9 11.29 5.16
3 10 10 2.37 3.22
3 10 10 8.8 4.44
-3 -10 -10 3.9 3.61
-3 -10 -10 0.13 5.63
3 10 11 4.81 3.88
3 10 11 2.56 5.11
-3 -10 -11 6.22 4.37
-3 -10 -11 6.66 6.48
3 11 0 -0.73 3.9
3 11 0 1.88 2.91
-3 -11 0 0.54 5.03
-3 -11 0 1.09 3.05
3 11 1 9.19 3.39
-3 -11 -1 10.51 4.45
-3 -11 -1 7.69 4.72
3 11 2 8.27 2.97
-3 -11 -2 2.97 3.76
-3 -11 -2 1.74 3.26
3 11 3 10.71 3.24
-3 -11 -3 11.41 5.44
-3 -11 -3 10.34 3.62
3 11 4 7.61 2.82
-3 -11 -4 11.36 4.83
-3 -11 -4 4.71 3.6
3 11 5 3.45 2.5
-3 -11 -5 8.27 4.75
-3 -11 -5 0.51 3.79
3 11 6 2.56 3.61
-3 -11 -6 5.49 4.16
-3 -11 -6 10.96 4.19
3 11 7 4.61 3.49
-3 -11 -7 5.56 4.6
-3 -11 -7 4.93 4.44
3 11 8 25.19 3.57
3 11 8 6.76 3.27
3 11 9 4.15 4.57
-3 -11 -9 -1.2 3
-3 -11 -9 14.14 5.03
3 11 10 9.04 4.49
3 11 10 5.44 4.82
-3 -11 -10 5 3.75
-3 -11 -10 7.55 6.04
3 12 2 3.81 4.35
-3 -12 -2 8.74 4.17
-3 -12 -2 2.42 3.56
3 12 3 5.28 2.76
-3 -12 -3 0.36 3.42
-3 -12 -3 -3.64 3.13
3 12 4 5.59 2.81
-3 -12 -4 5.25 3.83
-3 -12 -4 6.94 3.74
3 12 5 3.15 2.43
-3 -12 -5 -0.56 3.28
-3 -12 -5 -2.83 3.35
3 12 6 -2.03 2.36
3 12 6 4.93 2.41
-3 -12 -6 4.13 3.53
-3 -12 -6 3.34 3.69
3 12 7 1.85 2.62
-3 -12 -7 2.45 5.38
-3 -12 -7 6.27 4.3
3 12 8 8.95 2.81
3 12 8 0.57 2.71
-3 -12 -8 8.71 4.41
-3 -12 -8 -1.57 4.78
-4 11 4 4.75 3.9
-4 11 4 -1.86 5.34
-4 11 3 9.85 5.95
-4 11 1 1.25 5.31
-4 11 1 -3.58 5.55
4 -10 -6 14.58 7.69
-4 10 6 12.81 6.13
-4 10 5 11.84 5.59
-4 10 4 0.85 5.46
-4 10 4 -3.41 4.61
-4 10 3 15.45 5.93
-4 10 1 9.3 5.89
-4 10 0 2.68 5.07
-4 10 0 1.54 5.27
-4 10 -1 34.1 7.62
-4 10 -1 18.95 8.01
-4 10 -2 22.94 4.6
-4 10 -2 17.16 7.82
4 -9 -7 -1.1 6.18
4 -9 -7 2.48 3.02
-4 9 7 1.86 4.86
-4 9 7 3.63 3
4 -9 -6 11.61 6.92
4 -9 -6 10.26 3.96
-4 9 6 18.39 5.64
-4 9 6 12.08 2.7
4 -9 -5 2.61 5.2
-4 9 5 0.49 2.57
-4 9 4 3.82 4.33
-4 9 3 44.22 4.77
-4 9 3 20.64 6.4
-4 9 2 38.77 7.52
-4 9 2 34.99 7
-4 9 1 12.31 5.34
-4 9 1 6.26 5.37
-4 9 0 18.69 6.11
-4 9 0 20.02 5.99
-4 9 -1 14.28 5.95
-4 9 -1 14.88 5.93
-4 9 -2 31.49 6.77
-4 9 -2 21.38 7.37
-4 9 -3 72.09 10.05
-4 9 -3 71.08 11.12
-4 9 -4 22.88 7.2
-4 9 -4 25.12 8.08
4 -8 -8 4.8 6.97
4 -8 -8 6.79 4.59
-4 8 8 8.57 5.9
-4 8 8 10.01 4.01
4 -8 -7 8.08 4.45
4 -8 -7 12.73 5.46
-4 8 7 15.97 5.71
-4 8 7 22.69 4.86
4 -8 -6 25.75 8.68
4 -8 -6 37.13 4.51
-4 8 6 41.58 7.22
-4 8 6 48.23 4.33
4 -8 -5 1.24 2.99
4 -8 -5 0.7 1.97
-4 8 5 -0.19 3.92
-4 8 5 2.83 2.65
4 -8 -4 6.25 4.74
4 -8 -4 0.69 1.71
-4 8 4 -3.71 3.88
-4 8 4 0.91 1.59
-4 8 3 190.89 14.15
-4 8 2 159.22 13.66
-4 8 2 146.76 12.92
-4 8 1 153.52 12.5
-4 8 1 126.08 12.08
-4 8 0 97.42 9.68
-4 8 0 96.24 10.13
-4 8 -1 27.6 5.79
-4 8 -1 28.54 6.26
-4 8 -2 38.13 6.78
-4 8 -2 41.33 7.37
-4 8 -3 80.69 9.7
-4 8 -3 92.28 11.05
-4 8 -4 24.96 6.26
-4 8 -4 17.63 7.3
-4 8 -5 4.58 5.56
4 -8 6 5.51 4.52
-4 8 -6 7.78 5.96
4 -7 -9 -9.16 6.56
4 -7 -9 9.12 4.97
-4 7 9 -1.96 3.32
-4 7 9 5.79 4.36
4 -7 -8 -1.87 4
4 -7 -8 11.95 4.51
-4 7 8 9.67 5.22
-4 7 8 6.37 4.09
4 -7 -7 21.08 7.66
4 -7 -7 19.89 4.95
-4 7 7 24.41 6.22
-4 7 7 31.16 4.66
4 -7 -6 47.8 9.72
4 -7 -6 62.88 7.48
-4 7 6 64.46 8.12
-4 7 6 77.52 7.37
4 -7 -5 11.07 5.45
4 -7 -5 12.25 2.6
-4 7 5 9.64 2.87
-4 7 5 9.65 2.53
4 -7 -4 35.74 7.79
4 -7 -4 43.83 3.92
-4 7 4 47.68 6.34
-4 7 4 53.01 3.9
4 -7 -3 -1.16 4.47
4 -7 -3 5.75 1.42
-4 7 3 5.68 3.75
-4 7 3 3.7 1.45
-4 7 2 45.29 6.86
-4 7 2 29.53 5.76
-4 7 1 345.13 23.03
-4 7 1 338.31 21.81
-4 7 0 109.14 9.76
-4 7 0 123.15 10.31
-4 7 -1 -0.67 3.85
-4 7 -1 7.43 3.97
-4 7 -2 18.14 4.93
-4 7 -2 16.04 5.13
-4 7 -3 55.02 7.32
-4 7 -3 64.73 5.5
-4 7 -4 4.46 4.36
-4 7 -4 4.3 3.13
4 -7 5 -3.42 5.52
-4 7 -5 4.87 4.5
4 -7 6 4.96 5.49
-4 7 -6 0.19 5
4 -7 7 0.35 5.96
-4 7 -7 3.1 5.51
4 -6 -9 0.63 6.42
4 -6 -9 -0.71 5.34
-4 6 9 6.89 5.42
4 -6 -8 -1.94 5.47
4 -6 -8 0.72 4.32
-4 6 8 2.51 4.68
-4 6 8 1.31 3.91
4 -6 -7 71.5 11.74
4 -6 -7 71.35 8.1
-4 6 7 89.84 6.67
-4 6 7 111.39 10.66
4 -6 -6 74.28 10.38
4 -6 -6 68.03 8.68
-4 6 6 74.41 8.8
-4 6 6 95.43 7.09
4 -6 -5 21.57 6.53
4 -6 -5 28.02 3.69
-4 6 5 28.88 5.55
-4 6 5 34.13 5.05
4 -6 -4 48.82 7.25
4 -6 -4 51.56 3.48
-4 6 4 48.18 3.99
-4 6 4 56.03 3.84
4 -6 -3 25.67 6.31
4 -6 -3 42.92 3.04
-4 6 3 43.86 5.35
-4 6 3 46.89 2.72
4 -6 -2 19.45 5.6
4 -6 -2 31.79 1.58
-4 6 2 28.98 4.81
-4 6 1 316.64 18.63
-4 6 1 301.87 17.89
-4 6 0 120.24 10.07
-4 6 0 163 10.24
-4 6 -1 -1.36 3.29
-4 6 -1 3.95 3.33
-4 6 -2 -0.35 3.03
-4 6 -2 0.31 3.4
-4 6 -3 17.87 4.37
-4 6 -3 13.66 4.82
4 -6 4 30.04 4.06
-4 6 -4 23.33 3.3
4 -6 5 6.71 3.11
4 -6 5 6.39 1.54
-4 6 -5 5.8 4.65
-4 6 -5 5.71 1.72
4 -6 6 9.24 5.63
-4 6 -6 10.39 5.02
4 -6 7 2.77 5.54
4 -6 7 1.79 2.18
-4 6 -7 3.89 4.95
-4 6 -7 2.52 2.89
4 -6 8 13.12 7.12
-4 6 -8 10.28 6.44
4 -5 -9 5.06 3.95
4 -5 -9 -0.7 5.46
-4 5 9 1.59 5.34
-4 5 9 3.4 5.07
4 -5 -8 21.01 7.92
4 -5 -8 30.37 6.7
-4 5 8 26.44 6.83
-4 5 8 31.51 6.57
4 -5 -7 61.41 9.59
4 -5 -7 54.63 7.66
-4 5 7 64.56 5.35
-4 5 7 71.84 7.55
4 -5 -6 55.41 8.61
4 -5 -6 59.47 8.18
-4 5 6 56.85 7.17
-4 5 6 64.72 8.46
4 -5 -5 187.02 15.32
4 -5 -5 170.57 10.46
-4 5 5 180.51 12.8
-4 5 5 210.08 11.73
4 -5 -4 253.44 18.53
4 -5 -4 243.5 14.06
-4 5 4 257.24 16.35
-4 5 4 292.45 13.71
4 -5 -3 19.13 4.34
4 -5 -3 15.85 1.95
-4 5 3 17.01 3.72
-4 5 3 15.89 2.54
4 -5 -2 47.48 6.48
4 -5 -2 61.44 2.95
-4 5 2 64.44 5.35
-4 5 2 65.05 3.81
4 -5 -1 255.82 7.16
-4 5 1 285.94 14.7
-4 5 1 289.81 8.64
-4 5 0 -4.43 2.8
-4 5 0 4.1 2.68
-4 5 -1 24.04 3.62
-4 5 -1 14.95 3.74
-4 5 -2 28.06 4.05
-4 5 -2 31.29 4.54
-4 5 -3 6 2.1
4 -5 4 29.13 4.88
4 -5 4 18.84 1.56
-4 5 -4 25.03 4.44
-4 5 -4 18.03 1.84
4 -5 5 104.5 8.95
4 -5 5 77.91 4.33
-4 5 -5 96.23 8.58
4 -5 6 12.44 4.81
4 -5 6 3.47 2.58
-4 5 -6 14.4 4.31
-4 5 -6 1.88 2.72
4 -5 7 -0.22 5.17
4 -5 7 6.03 3.49
-4 5 -7 2.54 4.78
-4 5 -7 6.6 3.3
4 -5 8 18.38 5.72
4 -5 8 4.35 3.19
-4 5 -8 5.48 3.3
-4 5 -8 2.43 3.19
4 -5 9 14.84 6.61
4 -5 9 8.49 3.91
-4 5 -9 5.27 6.19
-4 5 -9 2.62 5.15
4 -4 -10 9.75 7.65
4 -4 -10 15.82 7.35
-4 4 10 13.84 4.41
-4 4 10 6.36 4.57
4 -4 -9 -3.79 6.82
4 -4 -9 10.33 6.32
-4 4 9 14.16 6.02
-4 4 9 13.27 6.23
4 -4 -8 50.88 6.3
4 -4 -8 57.92 8.76
-4 4 8 54.65 8.48
-4 4 8 58.86 8.85
4 -4 -7 15.27 6.02
4 -4 -7 18.78 5.22
-4 4 7 20.7 5.31
-4 4 7 12.14 5.21
4 -4 -6 6.82 5.35
4 -4 -6 18.6 4.32
-4 4 6 10.1 4.68
-4 4 6 20.59 4.41
4 -4 -5 191.11 14.25
4 -4 -5 176.42 10.63
-4 4 5 171.14 8.94
-4 4 5 184.07 12.03
4 -4 -4 162.92 11.68
4 -4 -4 142.84 8.03
-4 4 4 155.18 10.15
-4 4 4 166.55 9.45
4 -4 -3 -2.3 3.2
4 -4 -3 2.2 1.68
-4 4 3 4.09 2.76
-4 4 3 2.05 2.27
4 -4 -2 2.88 2.87
4 -4 -2 3.15 1.26
-4 4 2 2.76 2.54
-4 4 2 -0.33 2.28
4 -4 -1 14.7 3.43
4 -4 -1 16.17 1.52
-4 4 1 20.68 3.14
-4 4 1 18.22 2.02
-4 4 0 14.86 3.71
-4 4 0 30.21 3.4
-4 4 0 21.58 1.3
-4 4 0 24.35 1.23
-4 4 -1 71.96 3.54
-4 4 -1 72.58 5.26
-4 4 -2 3.52 2.51
-4 4 -2 0.09 2.61
-4 4 -3 11.18 3.02
-4 4 -3 6.8 1.75
4 -4 4 52.23 5.33
4 -4 4 41.13 2.48
-4 4 -4 46.45 4.91
4 -4 5 56.58 6.85
4 -4 5 61.08 4.24
-4 4 -5 76.62 6.68
4 -4 6 18.89 4.85
4 -4 6 14.96 2.6
-4 4 -6 20.63 4.55
-4 4 -6 7.24 3.56
4 -4 7 13.23 5.09
4 -4 7 11.64 3.09
-4 4 -7 14.97 4.81
-4 4 -7 8.82 2.95
4 -4 8 5.72 5.26
4 -4 8 5.66 3.26
-4 4 -8 9.24 4.9
-4 4 -8 4.32 3.1
4 -4 9 -1.54 5.48
4 -4 9 3.72 3.58
-4 4 -9 2.82 5.11
-4 4 -9 3.09 3.47
4 -4 10 3.83 4.22
4 -4 10 10.18 4.48
-4 4 -10 8.23 6.18
4 -3 -10 21.54 9.23
4 -3 -10 36.48 9.06
-4 3 10 24.84 8.38
-4 3 10 32.99 9.58
4 -3 -9 9.83 7.14
4 -3 -9 15 6.83
-4 3 9 12.13 4.03
-4 3 9 20.92 7.07
4 -3 -8 38.21 8.01
4 -3 -8 34.88 7.7
-4 3 8 31.5 7.26
-4 3 8 44.36 8
4 -3 -7 24.83 6.23
4 -3 -7 23.07 5.99
-4 3 7 24 5.75
-4 3 7 28.79 3.82
4 -3 -6 12.71 4.6
4 -3 -6 12.26 4.24
-4 3 6 9.08 2.7
-4 3 6 11.32 4.8
4 -3 -5 107.15 9.48
4 -3 -5 107.74 8.15
-4 3 5 116.69 8.94
-4 3 5 121.22 9.42
4 -3 -4 34.01 5.08
4 -3 -4 33.38 3.84
-4 3 4 37.72 4.44
-4 3 4 37.22 4.82
4 -3 -3 19.5 2.43
4 -3 -3 17.22 2.51
-4 3 3 16.51 3.28
4 -3 -2 5.2 2.75
4 -3 -2 3.05 1.45
-4 3 2 2.01 2.46
-4 3 2 3.8 2.19
4 -3 -1 109.73 6.75
4 -3 -1 99.2 3.39
-4 3 1 116.62 5.87
-4 3 1 110.29 4.15
4 -3 0 38.06 3.85
4 -3 0 40.14 2.05
-4 3 0 43.81 3.52
-4 3 0 38.93 2.21
-4 3 -1 310.1 13.85
-4 3 -1 324.82 14.1
-4 3 -1 314.07 9.36
-4 3 -1 314.41 9.52
-4 3 -2 63.31 4.23
-4 3 -2 65.16 4.51
-4 3 -2 62.46 2.51
-4 3 -2 59.66 2.99
4 -3 3 4.56 2.61
4 -3 3 0.98 1.11
-4 3 -3 3 2.28
-4 3 -3 -0.59 1.54
4 -3 4 4.02 2.99
4 -3 4 5.25 1.66
-4 3 -4 11.39 2.83
-4 3 -4 7.49 2.42
4 -3 5 27.8 4.39
4 -3 5 27.16 3.14
-4 3 -5 36.1 4.28
-4 3 -5 17.49 4.08
4 -3 6 16.65 4.09
4 -3 6 12.04 2.57
-4 3 -6 6.66 3.81
-4 3 -6 4.49 3.8
4 -3 7 11.53 4.42
4 -3 7 7.16 2.97
-4 3 -7 8.46 4.2
-4 3 -7 5.83 4.58
4 -3 8 -0.84 4.44
4 -3 8 2.74 3.25
-4 3 -8 6.83 4.3
-4 3 -8 8.6 4.54
4 -3 9 18.23 5.45
4 -3 9 10.27 4.13
-4 3 -9 14.49 5.48
-4 3 -9 2.22 4.29
4 -3 10 0.03 3.35
4 -3 10 1.16 4.07
-4 3 -10 4.63 3.29
-4 3 -10 3.69 4.08
4 -2 -9 37.92 9.03
4 -2 -9 47.25 8.87
-4 2 9 41.23 8.41
-4 2 9 44.77 9.85
4 -2 -8 68.79 10.59
4 -2 -8 73.56 6.78
-4 2 8 73.58 9.73
-4 2 8 90.98 7.38
4 -2 -7 24.87 5.98
4 -2 -7 20.76 5.81
-4 2 7 24.76 5.45
-4 2 7 15.74 6.64
4 -2 -6 7.64 4.17
4 -2 -6 4.03 4.07
-4 2 6 4.23 4.01
-4 2 6 7.36 4.62
4 -2 -5 -2.02 3.26
4 -2 -5 2.49 3.02
-4 2 5 -3.51 3.23
-4 2 5 6.89 3.98
4 -2 -4 4.84 3.18
4 -2 -4 6.75 2.8
-4 2 4 6.34 3.2
-4 2 4 4.04 3.66
4 -2 -3 53.95 4.97
4 -2 -3 50.2 3.96
-4 2 3 45.15 4.6
-4 2 3 64.66 5.51
4 -2 -2 38.49 4.15
4 -2 -2 41.34 2.87
-4 2 2 39.24 3.7
-4 2 2 46.47 4.8
4 -2 -1 63.79 4.61
4 -2 -1 63.8 3.7
-4 2 1 66 4.02
-4 2 1 71.56 4.53
4 -2 0 -0.13 2.02
4 -2 0 4.31 1.47
-4 2 0 0.91 1.91
-4 2 0 2.94 1.66
-4 2 -1 560.06 24.09
-4 2 -1 563.38 24.38
-4 2 -1 554.29 20.14
-4 2 -1 550.88 21.29
-4 2 -2 42.96 3.18
-4 2 -2 49.84 3.33
-4 2 -2 49.86 2.45
-4 2 -2 47.67 2.54
4 -2 3 -1.44 1.95
4 -2 3 2.14 1.38
-4 2 -3 -0.05 1.89
-4 2 -3 -0.12 1.64
4 -2 4 1.91 2.42
4 -2 4 4.25 1.32
-4 2 -4 2.42 2.27
-4 2 -4 2.12 1.84
4 -2 5 21.16 3.43
4 -2 5 19.45 2.96
-4 2 -5 21.52 3.42
-4 2 -5 14.97 2.89
4 -2 6 18 3.78
4 -2 6 15.51 2.72
-4 2 -6 14.5 3.67
-4 2 -6 10.77 3.48
4 -2 7 14.82 4.02
4 -2 7 11.7 3.3
-4 2 -7 11.18 3.99
-4 2 -7 8.94 3.68
4 -2 8 32.63 5.77
4 -2 8 26.78 4.56
-4 2 -8 29.98 5.41
-4 2 -8 17.88 6.44
4 -2 9 68.28 8.56
4 -2 9 50.44 6.71
-4 2 -9 68.24 8.01
-4 2 -9 51.21 10.36
4 -2 10 10.53 3.53
4 -2 10 2.64 4.3
-4 2 -10 1.96 5.29
-4 2 -10 6.16 4.65
4 -2 11 0.92 3.61
4 -2 11 -0.53 4.42
-4 2 -11 5.77 5.41
-4 2 -11 -2.34 6.39
4 -1 -9 10.04 6.5
4 -1 -9 8.55 6.3
-4 1 9 3.34 5.9
-4 1 9 19.14 7.25
4 -1 -8 6.95 5.62
4 -1 -8 11.59 5.5
-4 1 8 4.53 5.1
-4 1 8 8.74 6.66
4 -1 -7 8.26 4.92
4 -1 -7 9.95 4.91
-4 1 7 2.49 4.61
-4 1 7 9.42 5.75
4 -1 -6 28.89 5.44
4 -1 -6 31.7 5.4
-4 1 6 21.66 5.34
-4 1 6 28.76 6.73
4 -1 -5 70.51 6.46
4 -1 -5 61.41 6.45
-4 1 5 59.22 6.47
-4 1 5 73.38 8.33
4 -1 -4 3.78 3.17
4 -1 -4 4.18 3.03
-4 1 4 7.66 3.06
-4 1 4 13.3 4.36
4 -1 -3 356.23 14.42
4 -1 -3 340.78 15.98
-4 1 3 326.71 16.09
-4 1 3 378.79 19.21
4 -1 -2 220.8 9.98
4 -1 -2 212.23 8.84
-4 1 2 200.56 9.1
-4 1 2 217.91 9.94
4 -1 -1 9.83 2.27
4 -1 -1 8.14 1.77
-4 1 1 5.96 2.06
-4 1 1 12.54 2.25
4 -1 0 118.01 5.42
4 -1 0 116.6 4.58
-4 1 0 127.64 6.19
-4 1 0 130.33 5.81
-4 1 -1 44.28 2.63
-4 1 -1 45.39 2.83
-4 1 -2 40.27 2.55
-4 1 -2 47.86 2.7
-4 1 -2 42.79 2.09
-4 1 -2 42.89 2.78
4 -1 3 137.98 5.75
4 -1 3 140.08 4.99
-4 1 -3 133.4 5.67
-4 1 -3 143.17 5.53
4 -1 4 14.16 2.36
4 -1 4 12 2.43
-4 1 -4 12.45 2.23
-4 1 -4 7.71 2.28
4 -1 5 29.42 3.27
4 -1 5 21.88 2.67
-4 1 -5 25.29 3.18
-4 1 -5 19.62 4.46
4 -1 6 0.06 2.46
4 -1 6 0.05 2.62
-4 1 -6 1.52 2.52
-4 1 -6 4.3 3.74
4 -1 7 -4.58 3.12
4 -1 7 1.54 2.82
-4 1 -7 2.5 2.96
-4 1 -7 6.11 3.35
4 -1 8 16.24 4.46
4 -1 8 14.98 4.19
-4 1 -8 18.57 4.34
-4 1 -8 10.15 4.42
4 -1 9 19.18 3.33
4 -1 9 24.01 4.75
-4 1 -9 15.92 4.98
-4 1 -9 8.82 5.17
4 -1 10 11.56 5.32
4 -1 10 6.45 4.76
-4 1 -10 11.92 5.03
-4 1 -10 8.78 4.99
4 -1 11 11.94 3.93
4 -1 11 8.29 5.43
-4 1 -11 16.06 5.87
-4 1 -11 8.03 5.96
4 0 -9 1.71 5.49
4 0 -9 0 5.34
-4 0 9 0.85 5.07
-4 0 9 2.71 6.67
4 0 -8 4.14 5.08
4 0 -8 4.52 5.12
-4 0 8 0.98 2.91
-4 0 8 10.42 6.42
4 0 -7 8.57 4.77
4 0 -7 3.11 4.86
-4 0 7 4.79 4.55
-4 0 7 4.4 5.89
4 0 -6 11.86 4.98
4 0 -6 24.04 5.01
-4 0 6 17.27 4.76
-4 0 6 18.7 6.47
4 0 -5 113.25 8.41
4 0 -5 89.73 8.33
-4 0 5 96.09 8.03
-4 0 5 127.62 12.03
4 0 -4 102.64 7.26
4 0 -4 94.87 7.2
-4 0 4 97.83 6.93
-4 0 4 107.82 6.24
4 0 -3 359.87 16.54
4 0 -3 330.87 16.45
-4 0 3 347.89 16.47
-4 0 3 365.66 19.05
4 0 -2 84.72 4.66
4 0 -2 77.46 4.84
-4 0 2 80.92 4.59
-4 0 2 97.98 5.81
4 0 -1 2.16 1.68
4 0 -1 1.16 1.72
-4 0 1 0.84 1.58
-4 0 1 1.81 2.15
4 0 0 129.29 4.86
4 0 0 116.47 5.02
-4 0 0 122.71 4.45
-4 0 0 118.21 5.15
4 0 1 2.67 1.59
4 0 1 1.39 1.57
-4 0 -1 2.42 1.2
-4 0 -1 3.48 1.51
-4 0 -2 9.11 1.65
-4 0 -2 7.66 1.74
-4 0 -2 8.69 1.6
-4 0 -2 5.66 1.64
4 0 3 7.54 2.01
4 0 3 9.12 1.94
-4 0 -3 7.5 1.51
-4 0 -3 7.42 1.76
4 0 4 627.48 27.04
4 0 4 642.8 28.84
-4 0 -4 619.4 26.57
-4 0 -4 608.66 28.79
4 0 5 1220.05 70.85
4 0 5 1221.16 73.1
-4 0 -5 1198.03 69.31
-4 0 -5 1199.61 76.87
4 0 6 83 5.28
4 0 6 80.1 5.61
-4 0 -6 85.68 5.18
-4 0 -6 71.41 8.93
4 0 7 -0.82 2.62
4 0 7 0.72 2.62
-4 0 -7 3.01 2.58
-4 0 -7 -3.51 3.33
4 0 8 10.24 3.54
4 0 8 8.8 3.93
-4 0 -8 10.26 3.54
-4 0 -8 4.24 4.48
-4 0 -8 3.8 4.39
4 0 9 4.23 3.8
4 0 9 4.66 3.97
-4 0 -9 7 3.72
-4 0 -9 -1.95 4.28
4 0 10 25.85 5.68
4 0 10 19.87 5.87
-4 0 -10 33.71 5.51
-4 0 -10 11.82 6.33
4 0 11 14.14 5.8
4 0 11 13.6 5.62
-4 0 -11 15.1 5.49
-4 0 -11 8.09 5.95
4 0 12 6.95 6.07
4 0 12 4.28 6.01
-4 0 -12 17.62 5.9
-4 0 -12 1.53 6.97
4 1 -9 8.02 6.26
4 1 -9 6.66 3.9
-4 -1 9 18.65 5.9
-4 -1 9 -3.65 8.21
4 1 -8 -2.97 4.54
4 1 -8 6.69 4.81
-4 -1 8 -4.28 4.43
-4 -1 8 3.09 5.86
4 1 -7 48.16 7.13
4 1 -7 38.97 7.61
-4 -1 7 42.64 6.85
-4 -1 7 47.19 9.63
4 1 -6 29.33 5.85
4 1 -6 38.82 6.14
-4 -1 6 33.77 5.63
-4 -1 6 42.24 7.72
4 1 -5 5.8 3.52
4 1 -5 5.77 3.82
-4 -1 5 5.25 3.49
-4 -1 5 6.27 5.61
4 1 -4 61.31 5.21
4 1 -4 54.37 5.78
-4 -1 4 55.82 5.28
-4 -1 4 69 7.83
4 1 -3 42.83 3.88
4 1 -3 38.37 4.18
-4 -1 3 34.48 3.82
-4 -1 3 47 5.2
4 1 -2 1.69 1.94
4 1 -2 4.28 2.39
-4 -1 2 3.87 1.95
-4 -1 2 3.16 2.82
4 1 -1 2.97 1.51
4 1 -1 2.34 1.99
-4 -1 1 2.4 1.59
-4 -1 1 4.47 2.34
4 1 0 111.76 4.78
4 1 0 107.04 5.17
-4 -1 0 109.61 4.71
-4 -1 0 112.86 5.43
4 1 1 697.14 27.34
4 1 1 650.08 29.54
-4 -1 -1 710.09 27.57
-4 -1 -1 701.23 31.21
-4 -1 -2 0.24 0.96
-4 -1 -2 0.06 1.04
-4 -1 -2 -0.37 1.69
-4 -1 -2 2.42 1.56
4 1 3 5.55 1.18
-4 -1 -3 9.4 1.4
-4 -1 -3 9.83 2.01
4 1 4 545.52 22.11
4 1 4 561.73 24.74
-4 -1 -4 537.95 22.02
-4 -1 -4 529.49 25.19
4 1 5 233.5 8.43
4 1 5 219.09 9.87
-4 -1 -5 227.27 8.32
-4 -1 -5 216.16 11.24
4 1 6 42.51 4.2
4 1 6 39.98 3.89
-4 -1 -6 40.25 4.27
-4 -1 -6 30.75 4.86
4 1 7 60.2 4.63
4 1 7 55.54 5.3
-4 -1 -7 63.02 4.63
-4 -1 -7 55.41 6.96
4 1 8 9.47 3.16
4 1 8 9.39 3.62
-4 -1 -8 10.1 3.19
-4 -1 -8 2.19 2.88
4 1 9 4.41 3.3
4 1 9 6.39 3.72
-4 -1 -9 -2.24 3.26
-4 -1 -9 2.23 4.48
-4 -1 -9 0.88 4.36
4 1 10 8.62 4.33
4 1 10 10.51 4.92
-4 -1 -10 8.65 4.13
-4 -1 -10 4.47 5.27
4 1 11 18.27 5.22
4 1 11 10.18 5.76
-4 -1 -11 10.85 4.95
-4 -1 -11 10.78 6.29
4 1 12 10.49 5.39
4 1 12 4.91 5.67
-4 -1 -12 5.12 5.06
-4 -1 -12 3.23 6.15
4 2 -8 4.31 5.3
4 2 -8 -2.43 5.69
-4 -2 8 14.12 5.19
-4 -2 8 9.69 7.07
4 2 -7 48.24 7.33
4 2 -7 46.88 7.79
-4 -2 7 47.76 7.3
-4 -2 7 54.18 10.12
4 2 -6 42.6 5.73
4 2 -6 32.65 6.3
-4 -2 6 27.84 5.72
-4 -2 6 33.32 7.95
4 2 -5 3.92 3.22
4 2 -5 -1.95 2.2
-4 -2 5 1.67 3.17
-4 -2 5 4.72 5.2
4 2 -4 55.61 5.25
4 2 -4 40.93 5.84
-4 -2 4 55.46 5.11
-4 -2 4 61.04 4.95
4 2 -3 46.7 4.02
4 2 -3 39.34 4.62
-4 -2 3 37.48 3.86
-4 -2 3 48.92 5.86
4 2 -2 147.19 6.45
4 2 -2 151.84 8.27
-4 -2 2 147.07 6.64
-4 -2 2 164.22 9.75
4 2 -1 0.55 1.4
4 2 -1 0.06 2.08
-4 -2 1 0.33 1.91
-4 -2 1 0.74 2.41
4 2 0 529.24 19.84
4 2 0 475.55 18.89
-4 -2 0 521.91 19.69
-4 -2 0 534.38 23.84
4 2 1 887.63 35.77
4 2 1 832.51 41.75
-4 -2 -1 871.72 35.21
-4 -2 -1 856.1 43.27
-4 -2 -2 277.71 6.41
-4 -2 -2 299.28 7.06
-4 -2 -2 318.89 12.55
-4 -2 -2 289.24 9.95
-4 -2 -3 41.75 1.51
-4 -2 -3 39.57 1.3
-4 -2 -3 41.72 2.11
-4 -2 -3 42.39 3.24
4 2 4 28.8 1.69
4 2 4 32.7 3.09
-4 -2 -4 29.29 1.84
-4 -2 -4 31.47 3.12
4 2 5 16.87 2.04
4 2 5 13.91 1.77
-4 -2 -5 14.5 1.65
-4 -2 -5 17.67 3.2
4 2 6 51.69 3.1
4 2 6 56.2 4.5
-4 -2 -6 55.09 3.24
-4 -2 -6 49.19 5.36
4 2 7 67.39 4.36
4 2 7 64.59 3.82
-4 -2 -7 74.98 4.46
-4 -2 -7 61.12 7.11
4 2 8 3.13 2.64
4 2 8 3.52 3.33
-4 -2 -8 3.91 2.67
-4 -2 -8 2.29 4.5
4 2 9 2.41 3.05
4 2 9 3.05 3.7
-4 -2 -9 1.33 2.92
-4 -2 -9 -1.32 4.58
4 2 10 12.13 3.97
4 2 10 13.88 4.96
-4 -2 -10 5.15 3.8
-4 -2 -10 7.05 5.78
4 2 11 6.34 4.52
4 2 11 12.01 5.35
-4 -2 -11 6.59 4.23
-4 -2 -11 4.69 3.6
4 2 12 21.45 6.14
4 2 12 20.4 6.94
-4 -2 -12 20.78 5.75
-4 -2 -12 12.6 7.85
4 3 -8 0.82 4.61
4 3 -8 3.6 4.84
-4 -3 8 -5.64 4.56
-4 -3 8 3.06 6.32
4 3 -7 -2.81 4.34
4 3 -7 4.76 4.39
-4 -3 7 -0.49 4.15
-4 -3 7 0.98 3.57
4 3 -6 4.66 4.11
-4 -3 6 3.09 3.93
-4 -3 6 2.88 5.48
4 3 -5 18.81 4.39
4 3 -5 12.43 4.86
-4 -3 5 16.57 4.13
-4 -3 5 20.6 6.38
4 3 -4 90.7 6.65
4 3 -4 79.67 7.61
-4 -3 4 91.08 6.53
-4 -3 4 101.87 9.95
4 3 -3 329.79 15.84
4 3 -3 329.77 14.24
-4 -3 3 315.41 15.45
-4 -3 3 352.64 21.46
4 3 -2 196.97 8.41
4 3 -2 185.86 7.21
-4 -3 2 188.39 8.17
-4 -3 2 208.24 12.75
4 3 -1 19.54 2.1
4 3 -1 18.84 2.96
-4 -3 1 18.87 2.6
-4 -3 1 25.83 3.52
4 3 0 397.54 13.81
4 3 0 390.71 17.44
-4 -3 0 371.9 12
-4 -3 0 396.03 18.19
4 3 1 839.22 31.67
4 3 1 782.52 39.75
-4 -3 -1 799.96 30.2
-4 -3 -1 814.13 41.64
-4 -3 -2 152.38 7.19
-4 -3 -2 126.2 6.5
-4 -3 -3 59.22 4.05
-4 -3 -3 41.9 3.66
4 3 4 0.7 0.63
4 3 4 -5.27 2.12
-4 -3 -4 0.18 0.65
-4 -3 -4 2.3 2.07
4 3 5 40.08 2.16
4 3 5 39.3 2.5
-4 -3 -5 44.12 2.28
-4 -3 -5 37.23 4.29
4 3 6 10.73 1.65
4 3 6 12.46 2.87
-4 -3 -6 7.92 2.23
-4 -3 -6 7.56 3.44
4 3 7 104.66 6.34
4 3 7 110.58 7.46
-4 -3 -7 105.45 5.08
-4 -3 -7 86.11 9.08
4 3 8 29.73 4.72
4 3 8 31.97 3.11
-4 -3 -8 31.97 3.52
-4 -3 -8 27.41 6.56
4 3 9 84.65 6.33
4 3 9 85.05 8.3
-4 -3 -9 86.89 6.23
-4 -3 -9 68.67 10.38
4 3 10 31.94 4.84
4 3 10 25.88 6.18
-4 -3 -10 34.82 4.59
-4 -3 -10 22.61 7.33
4 3 11 10.93 3.99
4 3 11 5.36 4.72
-4 -3 -11 0.4 3.84
-4 -3 -11 -2.49 3.59
4 3 12 28.57 5.99
4 3 12 20.67 6.83
-4 -3 -12 18.3 5.76
-4 -3 -12 13.11 8.16
4 4 -7 26.9 6.4
4 4 -7 21.5 6.66
-4 -4 7 21.91 6.01
-4 -4 7 28.29 8.73
4 4 -6 39.65 5.87
4 4 -6 37.63 6.72
-4 -4 6 40.48 6.37
-4 -4 6 33.69 8.78
4 4 -5 2.57 3.14
4 4 -5 1.73 3.77
-4 -4 5 -2.86 3.31
-4 -4 5 -2.88 4.86
4 4 -4 38.62 4.67
4 4 -4 38.82 5.62
-4 -4 4 40.47 4.77
-4 -4 4 33.03 7.16
4 4 -3 326.56 16.15
4 4 -3 307.31 17.76
-4 -4 3 327.74 16.12
-4 -4 3 340.72 22.67
4 4 -2 214.93 9.57
4 4 -2 202.94 11.09
-4 -4 2 207.74 11.1
-4 -4 2 224.26 14.54
4 4 -1 31.28 2.54
4 4 -1 29.24 3.69
-4 -4 1 29.22 2.26
-4 -4 1 37.86 4.41
4 4 0 56.59 2.45
4 4 0 49.9 4.08
-4 -4 0 48.56 2.65
-4 -4 0 56.46 4.63
4 4 1 28.93 1.78
4 4 1 23.37 3.17
-4 -4 -1 26.02 1.23
-4 -4 -1 24.25 3.31
-4 -4 -2 85.78 5.37
-4 -4 -2 75.49 4.97
-4 -4 -3 305.54 13.8
-4 -4 -3 281.35 13.39
-4 -4 -4 2.99 2.36
4 4 5 0.93 0.99
4 4 5 1.64 1.46
-4 -4 -5 1.58 1
-4 -4 -5 -0.63 2.45
4 4 6 306.16 11.82
4 4 6 317.83 15.97
-4 -4 -6 325.67 12.46
-4 -4 -6 284.06 17.04
4 4 7 323.06 12.99
4 4 7 337.88 18.19
-4 -4 -7 322.05 13.2
-4 -4 -7 293.66 20.48
4 4 8 99.07 5.58
4 4 8 94.47 8.13
-4 -4 -8 96.07 6.95
-4 -4 -8 74.92 10.33
4 4 9 184.82 10.01
4 4 9 172.8 13.05
-4 -4 -9 181.2 11.92
-4 -4 -9 145.85 16.32
4 4 10 43.43 5.08
4 4 10 37.25 6.68
-4 -4 -10 45.63 6.32
-4 -4 -10 29.41 8.44
4 4 11 22.04 4.79
4 4 11 21.8 6.09
-4 -4 -11 25.35 4.55
-4 -4 -11 12.68 7.87
4 4 12 43.16 6.7
4 4 12 35.53 8.23
-4 -4 -12 49.82 6.51
-4 -4 -12 33.97 10.49
4 4 13 37.74 7.37
4 4 13 26.28 8.52
-4 -4 -13 36.8 6.94
-4 -4 -13 28.61 10.8
4 5 -7 64.32 8.44
4 5 -7 57.92 9.56
-4 -5 7 62.01 8.85
-4 -5 7 52.74 12.58
4 5 -6 65.17 7.94
4 5 -6 69.1 9.25
-4 -5 6 80.03 8.17
-4 -5 6 77.5 11.42
4 5 -5 5.87 3.76
4 5 -5 8.52 4.18
-4 -5 5 3.73 3.81
-4 -5 5 12.38 5.89
4 5 -4 17.65 4.06
4 5 -4 18.77 4.62
-4 -5 4 22.73 3.96
-4 -5 4 21.76 6.3
4 5 -3 39.61 4.25
4 5 -3 37.37 5.18
-4 -5 3 38.82 5.38
-4 -5 3 45.42 6.76
4 5 -2 118.44 8.05
4 5 -2 118.14 7.88
4 5 -1 49.1 3.26
4 5 -1 51.37 3.16
-4 -5 1 47.26 2.97
-4 -5 1 46.31 5.79
4 5 0 0.73 1.73
4 5 0 -3.17 2.19
-4 -5 0 0.77 1.16
-4 -5 0 0.61 2.62
4 5 1 2.28 1.27
4 5 1 0.81 2.31
-4 -5 -1 0.91 0.99
-4 -5 -1 0.19 2.52
4 5 2 62.91 1.59
-4 -5 -2 61.4 4.92
-4 -5 -2 50.31 4.56
-4 -5 -3 328.13 16.01
-4 -5 -3 292.76 14.52
-4 -5 -4 79.19 5.45
-4 -5 -4 82.45 5.84
4 5 5 75.85 2.51
4 5 5 80.31 5.45
-4 -5 -5 68.42 2.47
-4 -5 -5 60.13 4
4 5 6 107.78 4.45
4 5 6 119.06 7.17
-4 -5 -6 93.83 4.48
-4 -5 -6 106.53 8.62
4 5 7 79.5 4.74
4 5 7 76.3 4.38
-4 -5 -7 73.34 3.85
-4 -5 -7 56.6 7.79
4 5 8 291.1 12.8
4 5 8 298.13 17.86
-4 -5 -8 280.78 13.58
-4 -5 -8 248.64 16.05
4 5 9 108.72 6.53
4 5 9 105.91 6.47
-4 -5 -9 77.24 11.79
4 5 10 21.87 5.23
4 5 10 27.15 5.38
-4 -5 -10 18.69 3.85
-4 -5 -10 14.56 7.38
4 5 11 6.96 3.01
-4 -5 -11 3.83 3.57
-4 -5 -11 3.95 6.48
4 5 12 7.64 4.42
4 5 12 7.4 5.8
-4 -5 -12 11.2 4.35
-4 -5 -12 14.03 7.46
4 5 13 3.46 4.53
4 5 13 3.12 5.87
-4 -5 -13 1.33 4.58
-4 -5 -13 6.59 4.63
4 6 -6 48.08 6.93
4 6 -6 46.36 7.46
-4 -6 6 40.42 7.26
-4 -6 6 51.17 10.15
4 6 -5 8.86 4.35
4 6 -5 17.68 4.81
-4 -6 5 16.95 4.4
-4 -6 5 7.36 7.34
4 6 -4 8.95 3.37
4 6 -4 4.28 3.93
-4 -6 4 1.22 3.49
-4 -6 4 12 5.48
4 6 -3 21.03 3.64
4 6 -3 16.8 4.54
-4 -6 3 20.28 4.76
-4 -6 3 17.41 5.68
4 6 -2 34.65 4.86
4 6 -2 35.43 4.96
-4 -6 2 42.66 3.7
-4 -6 2 29.89 6.32
4 6 -1 141.36 7.94
4 6 -1 142.18 8.55
-4 -6 1 137.94 7.4
-4 -6 1 153.89 11.28
4 6 0 14.67 2.62
4 6 0 15.93 3.18
-4 -6 0 16.45 2.37
-4 -6 0 16.32 3.84
4 6 1 19.45 2.05
4 6 1 17.63 1.87
-4 -6 -1 15.44 1.65
-4 -6 -1 15.83 3.59
4 6 2 347.67 11.23
4 6 2 330.32 10.47
-4 -6 -2 358.49 18.18
-4 -6 -2 314.32 16.56
4 6 3 617.16 21.83
4 6 3 607.43 22.23
-4 -6 -3 731.7 38.98
-4 -6 -3 602.04 32.97
4 6 4 250.86 7.04
-4 -6 -4 261.13 14.86
-4 -6 -4 230.71 13.55
4 6 5 311.69 10.42
-4 -6 -5 307.52 17.42
4 6 6 88.96 4.11
4 6 6 99.36 6.91
-4 -6 -6 76.83 7.87
4 6 7 44.27 3.49
4 6 7 41.77 4.98
-4 -6 -7 32.87 2.79
-4 -6 -7 31.57 5.88
4 6 8 69.71 5.32
4 6 8 77.69 6.84
-4 -6 -8 62.26 4.32
-4 -6 -8 38.18 8.6
4 6 9 200.01 11.41
4 6 9 193.23 9.63
-4 -6 -9 138.5 10.04
-4 -6 -9 139.44 16.3
4 6 10 2.49 2.71
4 6 10 -0.56 4.09
-4 -6 -10 0.39 2.7
-4 -6 -10 6.96 5.58
4 6 11 7.15 3.19
4 6 11 0.35 4.59
-4 -6 -11 0.9 3.17
-4 -6 -11 -6.71 5.91
4 6 12 6.04 3.97
4 6 12 -2.02 5.57
-4 -6 -12 6.56 3.91
-4 -6 -12 11.61 6.92
4 6 13 5.18 4.32
4 6 13 8.74 5.81
-4 -6 -13 0.76 4.42
-4 -6 -13 -0.73 7.8
4 7 -5 19.99 4.77
4 7 -5 15.98 5.36
-4 -7 5 14.51 5.2
-4 -7 5 16.55 8.07
4 7 -4 8.26 5.23
4 7 -4 16.57 4.53
-4 -7 4 9.45 4.16
-4 -7 4 13.8 6.24
4 7 -3 0.25 2.84
4 7 -3 3.27 3.51
-4 -7 3 2.94 2.81
-4 -7 3 -0.41 4.45
4 7 -2 84.21 5.59
4 7 -2 79.98 7.2
-4 -7 2 86.92 5.72
-4 -7 2 63.97 9.55
4 7 -1 159.72 7.5
4 7 -1 151.32 9.61
-4 -7 1 153.68 9.07
-4 -7 1 162.82 13.06
4 7 0 44.36 3.84
4 7 0 45.5 4.86
-4 -7 0 40.91 3.57
-4 -7 0 37.64 5.85
4 7 1 57.34 2.75
-4 -7 -1 36.19 5.94
4 7 2 235.67 8.61
4 7 2 232.2 7.53
-4 -7 -2 230.33 13.64
4 7 3 396.76 14.08
4 7 3 374.24 13.62
-4 -7 -3 427.46 23.09
4 7 4 450.83 15.5
4 7 4 407.84 15.37
-4 -7 -4 494.4 26.81
-4 -7 -4 438.57 24.95
4 7 5 200.91 6.27
4 7 5 181.26 6.82
-4 -7 -5 212.34 13.31
-4 -7 -5 184.11 12.2
-4 -7 -6 5.27 1.69
-4 -7 -6 7.37 3.88
4 7 7 10.92 2.41
4 7 7 7.42 3.55
-4 -7 -7 5.65 2.47
-4 -7 -7 8.14 4.25
4 7 8 90.03 4.82
4 7 8 85.18 5.59
-4 -7 -8 50.03 9.77
4 7 9 5.35 2.34
4 7 9 -0.02 2.41
-4 -7 -9 4.48 3.27
-4 -7 -9 11.29 5.03
4 7 10 13.78 3.12
4 7 10 8.18 4.78
-4 -7 -10 9.99 4.28
-4 -7 -10 -5.92 6.52
4 7 11 37.59 4.58
4 7 11 32.7 6.64
-4 -7 -11 13.11 4.86
-4 -7 -11 16.54 8.87
4 7 12 5.81 3.77
4 7 12 13.84 5.38
-4 -7 -12 0.11 3.92
-4 -7 -12 0.96 7.11
4 8 -4 1.87 3.79
4 8 -4 8.41 4.43
-4 -8 4 10.14 5.5
-4 -8 4 9.5 6.06
4 8 -3 -0.73 3.01
4 8 -3 2.76 3.51
-4 -8 3 -0.34 3.08
-4 -8 3 3.83 4.63
4 8 -2 29.47 3.89
4 8 -2 28.14 4.8
-4 -8 2 28.07 3.93
-4 -8 2 16.82 6.44
4 8 -1 177.29 8.71
4 8 -1 168.48 11.76
-4 -8 1 169.46 9.07
4 8 0 129.66 6.05
4 8 0 126.9 8.18
-4 -8 0 119.66 5.78
-4 -8 -1 21.88 5.01
-4 -8 -1 17.89 4.63
4 8 2 12.72 2.09
-4 -8 -2 8.95 5.08
-4 -8 -2 3.11 3.21
4 8 3 8.87 1.78
4 8 3 7.33 1.81
-4 -8 -3 8.94 3.26
-4 -8 -3 -0.2 3.24
-4 -8 -4 30.28 5.49
-4 -8 -4 35.61 5.18
4 8 5 196.24 6.79
4 8 5 154.34 6.71
-4 -8 -5 170.07 11.9
4 8 6 7.27 1.66
4 8 6 6.08 1.91
-4 -8 -6 2.97 2.05
-4 -8 -6 4.31 3.78
4 8 7 5.84 2.3
4 8 7 11.92 3.58
-4 -8 -7 3.4 1.58
-4 -8 -7 2.47 4.02
4 8 8 3.24 1.96
4 8 8 6.11 3.56
-4 -8 -8 3.09 2.56
-4 -8 -8 -0.7 4.37
4 8 9 1.77 2.91
4 8 9 -0.63 3.68
-4 -8 -9 -0.75 3.1
-4 -8 -9 5.7 4.79
4 8 10 2.3 2.66
4 8 10 -2.11 4.21
-4 -8 -10 2.29 2.9
-4 -8 -10 9.13 5.53
4 8 11 11.71 3.47
4 8 11 4.25 5.29
-4 -8 -11 6.52 3.79
-4 -8 -11 3.58 7
4 8 12 6.7 3.88
4 8 12 10.32 5.6
-4 -8 -12 4.49 4.21
-4 -8 -12 -2.51 7.52
4 9 -3 4.63 3.67
4 9 -3 5.49 4.08
-4 -9 3 7.05 3.82
-4 -9 3 4.99 7.82
4 9 -2 56.99 5.64
4 9 -2 53.81 7.04
-4 -9 2 63.54 7.64
4 9 -1 117.3 6.92
4 9 -1 99.1 8.21
-4 -9 1 99.23 6.53
4 9 0 136.39 7.84
-4 -9 0 36.06 10.77
-4 -9 -1 36.56 6.33
-4 -9 -1 20.06 5.51
-4 -9 -2 12.86 5.61
-4 -9 -2 8.86 3.76
4 9 3 4.12 2.08
4 9 3 5.37 1.54
-4 -9 -3 2.67 3.25
-4 -9 -3 3.7 3.2
-4 -9 -4 4.28 3.69
-4 -9 -4 2.95 3.56
4 9 5 12.38 2.35
-4 -9 -5 12.44 3.98
-4 -9 -5 3.05 3.95
4 9 6 8.35 1.92
4 9 6 4.47 2.12
-4 -9 -6 0.3 3.88
-4 -9 -6 0.11 3.89
4 9 7 21.91 2.44
-4 -9 -7 5.42 5.2
4 9 8 7.1 2.15
4 9 8 9.06 4.05
-4 -9 -8 3.77 2
-4 -9 -8 -5.68 4.74
4 9 9 1.14 2.97
4 9 9 6.2 3.82
-4 -9 -9 -0.91 2.21
-4 -9 -9 1.84 4.8
4 9 10 15.82 3.25
4 9 10 5.85 5.24
-4 -9 -10 4.46 4.69
-4 -9 -10 13.27 6.7
4 9 11 11.76 3.6
4 9 11 10.34 5.67
-4 -9 -11 3.78 3.97
-4 -9 -11 20.08 7.24
4 10 -1 8.27 3.13
-4 -10 1 2.25 5.07
4 10 0 24.64 4.29
-4 -10 0 14.69 5.85
-4 -10 0 4.67 4.51
4 10 1 18.11 3.18
-4 -10 -1 17.5 7
-4 -10 -1 8.93 4.43
4 10 2 1.43 1.9
4 10 2 0.05 2.68
-4 -10 -2 1.1 3.62
-4 -10 -2 3.78 3.25
4 10 3 2.38 1.78
4 10 3 3.18 1.75
-4 -10 -3 7.34 3.66
-4 -10 -3 -5.01 4.3
4 10 4 9.41 2.27
4 10 4 2.52 2.2
-4 -10 -4 3.48 3.6
-4 -10 -4 2.67 3.41
4 10 5 3.09 2
4 10 5 0.22 2
-4 -10 -5 2.84 3.58
-4 -10 -5 -1.36 3.31
4 10 6 10.99 2.33
4 10 6 2.29 2.36
-4 -10 -6 4.03 4.09
-4 -10 -6 0.25 4.1
4 10 7 15.86 3.36
-4 -10 -7 7.51 5.26
-4 -10 -7 12.55 5.35
4 10 8 3.38 2.89
-4 -10 -8 2.59 4.85
4 10 9 3.04 3.18
4 10 9 3.21 4.64
-4 -10 -9 5.74 3.07
-4 -10 -9 -1.29 5.2
4 10 10 7.94 3.05
4 10 10 11.54 5.03
-4 -10 -10 4.1 3.07
-4 -10 -10 6.44 6.21
4 10 11 2.27 3.16
4 10 11 7.29 4.94
-4 -10 -11 6.96 4.38
-4 -10 -11 -0.3 6.64
4 11 0 1.32 2.78
4 11 0 1 2.64
-4 -11 0 3.84 4.47
-4 -11 0 0.7 5
4 11 1 16.52 3.89
4 11 1 6.15 2.88
-4 -11 -1 9.34 6.55
-4 -11 -1 2.44 4.17
4 11 2 4.13 2.3
-4 -11 -2 1.53 4.14
-4 -11 -2 2.39 3.64
4 11 3 2.46 2.74
4 11 3 2.78 2.75
-4 -11 -3 10.44 3.88
-4 -11 -3 2.59 3.49
4 11 4 2.96 2.42
4 11 4 -1.35 2.32
-4 -11 -4 -1.27 3.47
-4 -11 -4 7.5 3.25
4 11 5 4.52 2.41
4 11 5 0.91 1.74
-4 -11 -5 -2.09 3.67
-4 -11 -5 1.42 3.66
4 11 6 6.64 1.98
4 11 6 0.63 2.55
-4 -11 -6 2.46 4.27
-4 -11 -6 3.42 4.23
4 11 7 1.08 2.1
-4 -11 -7 7.1 4.26
-4 -11 -7 7.76 4.4
4 11 8 8.36 2.75
4 11 8 3.1 2.18
-4 -11 -8 1.67 4.62
-4 -11 -8 0.05 4.98
4 11 9 0.21 3.28
-4 -11 -9 6.27 5.29
4 11 10 1.42 2.54
4 11 10 4.69 4.75
-4 -11 -10 -2.94 2.48
-4 -11 -10 1.57 5.44
4 12 3 7.3 3.08
-4 -12 -3 -1.01 4.05
-4 -12 -3 -4.08 3.56
-4 -12 -4 -2.39 4
-4 -12 -4 -3.39 3.63
-4 -12 -5 13.61 5.41
-4 -12 -5 0.04 4.13
-4 -12 -6 2.72 4.52
-4 -12 -6 6.84 4.44
-4 -12 -7 2.83 4.91
-4 -12 -7 11.31 6.33
-4 -12 -8 4.75 4.4
-4 -12 -8 -0.09 4.97
-5 10 4 63.35 10.56
-5 10 4 40.28 9.42
-5 10 3 35.23 8.14
-5 10 2 12.28 6.49
-5 10 -1 7.22 5.73
-5 10 -1 -5.88 5.67
5 -9 -6 7.52 7.1
-5 9 6 7.94 5.79
5 -9 -5 -5.75 5.87
-5 9 5 3.39 4.69
-5 9 4 24.65 6.63
-5 9 3 13.8 4.13
-5 9 3 13.03 5.71
-5 9 2 1.72 5.4
-5 9 2 3.03 4.75
-5 9 1 13.5 6.09
-5 9 0 2.86 3.25
-5 9 -1 4.46 5.38
-5 9 -1 6.62 5.8
-5 9 -2 3.56 4.95
-5 9 -2 -3.16 5.21
-5 9 -3 4.81 5.74
-5 9 -3 4.93 6.32
5 -8 -7 24.15 9.38
5 -8 -7 25.49 4.95
-5 8 7 33.89 7.53
-5 8 7 42.53 6.36
5 -8 -6 1.25 5.69
5 -8 -6 0.39 3.43
-5 8 6 4.77 4.65
-5 8 6 -0.38 2.49
5 -8 -5 3.59 5.5
-5 8 5 1.31 2.82
-5 8 5 0.76 2.09
5 -8 -4 13.26 6.37
-5 8 4 14.51 5.36
-5 8 3 4.89 4.61
-5 8 2 5.57 5.13
-5 8 2 4.13 4.66
-5 8 1 3 4.89
-5 8 1 0.79 4.6
-5 8 0 28.48 6.59
-5 8 0 23.41 6.42
-5 8 -1 -2.54 4.32
-5 8 -1 3.08 3.01
-5 8 -2 20.17 6.05
-5 8 -2 13.92 6.12
-5 8 -3 1.75 5.19
-5 8 -3 13.08 5.76
-5 8 -4 1.99 5.15
-5 8 -4 8.84 6.02
-5 8 -5 0.24 5.37
-5 8 -5 1.47 3.65
5 -7 -8 0.31 7.2
5 -7 -8 6.9 4.48
-5 7 8 2.3 5.8
-5 7 8 8.79 4.39
5 -7 -7 4.74 6.22
5 -7 -7 3.06 4.78
-5 7 7 2.79 5.07
-5 7 7 6.68 4.87
5 -7 -6 -1.93 5.62
5 -7 -6 3.17 2.87
-5 7 6 4.32 2.88
-5 7 6 6.32 4.08
5 -7 -5 -0.07 3.09
5 -7 -5 1.3 2.18
-5 7 5 -2.37 2.31
5 -7 -4 4.1 5.64
5 -7 -4 13.3 2.73
-5 7 4 6.19 2.88
-5 7 4 10.64 2.91
5 -7 -3 24.59 8.08
5 -7 -3 50.66 2.84
-5 7 3 53.5 6.91
-5 7 3 54.55 3.19
-5 7 2 11.4 5.42
-5 7 2 7.02 4.32
-5 7 1 46.56 6.59
-5 7 1 32.36 4.09
-5 7 0 18.68 5.48
-5 7 0 20.7 5.35
-5 7 -1 5.43 4.55
-5 7 -1 7.24 4.55
-5 7 -2 8.53 4.6
-5 7 -2 2.01 4.73
-5 7 -3 -3.58 4.3
-5 7 -3 -1.58 4.6
-5 7 -4 11.3 5.07
-5 7 -4 10.97 5.72
-5 7 -5 7.4 5.07
-5 7 -5 8.97 5.88
-5 7 -6 12.86 5.96
5 -6 -8 -12.21 6.16
5 -6 -8 3.55 4.21
-5 6 8 -1.19 5.06
-5 6 8 -0.05 4.33
5 -6 -7 0.77 3.77
5 -6 -7 7.71 3.97
-5 6 7 11.66 5.3
-5 6 7 7.4 4.09
5 -6 -6 -4.61 5.21
5 -6 -6 -1.22 2.96
-5 6 6 -2.31 4.24
-5 6 6 3.31 4.39
5 -6 -5 3.28 5.14
5 -6 -5 1.83 3.54
-5 6 5 12.98 4.39
-5 6 5 4.47 4.03
5 -6 -4 9.01 6.3
5 -6 -4 24.26 3.7
-5 6 4 21.35 5.45
-5 6 4 31.66 4.29
5 -6 -3 11.67 6.07
5 -6 -3 26.62 2.97
-5 6 3 27.44 4.92
-5 6 3 26.5 2.57
5 -6 -2 49.91 8.14
5 -6 -2 66.12 2.9
-5 6 2 67.17 6.7
-5 6 2 66.87 3.4
-5 6 1 73.78 7.9
-5 6 1 73.83 7.38
-5 6 0 -2.43 3.73
-5 6 0 4.75 3.54
-5 6 -1 11.65 3.98
-5 6 -1 3.44 4.15
-5 6 -2 8.33 3.81
-5 6 -2 3.83 4.13
-5 6 -3 2.83 3.9
-5 6 -3 10.05 4.42
-5 6 -4 4.94 4.22
-5 6 -4 9.05 4.81
-5 6 -5 0.01 2.35
5 -6 6 6.06 6.47
-5 6 -6 13.9 5.17
5 -6 7 30.33 8.19
-5 6 -7 31.69 7.41
5 -6 8 13.94 8.07
-5 6 -8 23.88 7.2
5 -5 -9 1.19 7
-5 5 9 2.29 6.04
-5 5 9 6.21 5.8
5 -5 -8 8.09 6.54
5 -5 -8 -5.35 4.96
-5 5 8 13.93 5.6
-5 5 8 10.29 5.16
5 -5 -7 2.73 7.63
5 -5 -7 22.61 5.26
-5 5 7 20.45 6.25
-5 5 7 32.66 5.74
5 -5 -6 2.04 4.86
5 -5 -6 -3.16 3.11
-5 5 6 -1.02 4.24
-5 5 6 0.88 3.56
5 -5 -5 -1.79 4.4
5 -5 -5 2.41 2.61
-5 5 5 6.3 3.71
-5 5 5 -3.27 3.02
5 -5 -4 5.86 5.44
5 -5 -4 16.94 2.86
-5 5 4 19.26 3.38
5 -5 -3 2.37 4.08
5 -5 -3 1.33 1.79
-5 5 3 4.83 3.32
-5 5 3 4.54 2.92
5 -5 -2 9.84 4.79
5 -5 -2 18.58 2.19
-5 5 2 19.88 4.04
-5 5 2 19.1 2.91
5 -5 -1 19.44 1.61
-5 5 1 18.22 4.05
-5 5 1 15.58 2.17
-5 5 0 46.25 5.78
-5 5 0 50.1 5.56
-5 5 -1 7.57 3.53
-5 5 -1 4.11 3.55
-5 5 -2 151.76 9.98
-5 5 -2 140.4 10.21
-5 5 -3 57.84 6.36
-5 5 -3 63.28 6.68
-5 5 -4 14.37 4.16
-5 5 -4 11.66 4.66
5 -5 5 31.04 6.21
-5 5 -5 16.45 4.91
5 -5 6 41.79 7.31
-5 5 -6 43.29 6.91
5 -5 7 28.33 6.92
-5 5 -7 22.58 6.17
5 -5 8 44.7 8.8
-5 5 -8 35.44 8.08
5 -4 -9 -0.27 6.56
5 -4 -9 5.03 5.58
-5 4 9 0.81 5.64
-5 4 9 0.46 5.95
5 -4 -8 14.96 7.62
5 -4 -8 15.34 6.29
-5 4 8 20.03 6.61
-5 4 8 27.66 6.57
5 -4 -7 51.13 10.35
5 -4 -7 62.56 7.98
-5 4 7 64.86 8.92
-5 4 7 74.8 8.78
5 -4 -6 8.51 5.43
5 -4 -6 6.81 3.92
-5 4 6 8.49 4.54
-5 4 6 12.94 4.41
5 -4 -5 5.47 3.24
5 -4 -5 12.29 3.4
-5 4 5 18.41 4.31
-5 4 5 13.47 4.06
5 -4 -4 2.26 2.47
5 -4 -4 1.21 2.42
-5 4 4 4.17 3.38
-5 4 4 2.58 2.95
5 -4 -3 -1.48 3.57
5 -4 -3 -0.12 2.51
-5 4 3 0.5 3.1
-5 4 3 -0.96 2.47
5 -4 -2 3.26 2.31
5 -4 -2 8.62 2.21
-5 4 2 9.77 3.17
-5 4 2 10.34 3.15
5 -4 -1 16.77 4.12
5 -4 -1 22.03 1.73
-5 4 1 21.61 3.62
-5 4 1 19.62 2.79
-5 4 0 11.11 3.43
-5 4 0 9.25 2.98
-5 4 0 5.49 1.57
-5 4 0 6.35 1.25
-5 4 -1 9.2 3.16
-5 4 -1 12.32 3.18
-5 4 -1 6.41 1.31
-5 4 -1 9.35 1.08
-5 4 -2 231.09 12.49
-5 4 -2 230.31 12.66
-5 4 -3 264.06 14.84
-5 4 -3 282.73 16.09
-5 4 -4 129.73 7.43
-5 4 -4 74.37 4.58
5 -4 5 38.73 5.37
5 -4 5 25.23 2.56
-5 4 -5 31.86 4.73
5 -4 6 -0.09 4.1
5 -4 6 3.35 1.64
5 -4 6 3.44 1.67
-5 4 -6 7.77 3.88
-5 4 -6 2.01 2.25
5 -4 7 20.49 5.53
5 -4 7 8.71 3.56
-5 4 -7 20.27 5.08
5 -4 8 29.02 6.19
5 -4 8 12.48 3.41
-5 4 -8 26.47 5.72
-5 4 -8 6.27 3.79
5 -4 9 1.61 5.55
5 -4 9 1.52 3.2
-5 4 -9 6.41 5.04
-5 4 -9 3.51 4.46
5 -3 -9 16.68 6.97
5 -3 -9 -0.86 6.48
-5 3 9 8.1 6.34
-5 3 9 11.33 6.95
5 -3 -8 0.76 5.77
5 -3 -8 5.3 5.02
-5 3 8 5.12 5.08
-5 3 8 -2.87 5.54
5 -3 -7 15.49 6.97
5 -3 -7 25.44 5.95
-5 3 7 22.48 6.2
-5 3 7 27.12 6.5
5 -3 -6 13.55 5.13
5 -3 -6 11.77 4.12
-5 3 6 8.47 4.61
-5 3 6 5.31 5.01
5 -3 -5 1.85 3.96
5 -3 -5 1.2 3.02
-5 3 5 0.75 3.5
-5 3 5 2.74 3.59
5 -3 -4 5.59 3.68
5 -3 -4 2.21 2.58
-5 3 4 -0.94 3.19
-5 3 4 2.98 3.39
5 -3 -3 14.59 4.14
5 -3 -3 17.2 2.73
-5 3 3 14.3 3.74
-5 3 3 18.55 3.55
5 -3 -2 247.7 15.11
5 -3 -2 258.08 10.65
-5 3 2 241.36 13.27
-5 3 2 274.63 12.46
5 -3 -1 245.62 13.88
5 -3 -1 257.65 10.9
-5 3 1 253.62 12.63
-5 3 1 265.97 10.72
5 -3 0 15.27 3.34
5 -3 0 22.12 2.16
-5 3 0 23.19 3.15
-5 3 0 18.69 1.82
-5 3 -1 252.06 11.7
-5 3 -1 234.38 11.4
-5 3 -1 239 8.7
-5 3 -1 234.38 8.53
-5 3 -2 376.83 17.04
-5 3 -2 384.73 17.85
-5 3 -2 340.9 12.59
-5 3 -2 330.92 12.48
-5 3 -3 65.3 4.94
-5 3 -3 72.24 5.22
-5 3 -3 58.73 2.95
5 -3 4 281.55 15.25
-5 3 -4 238.09 12.74
5 -3 5 42.06 3.54
-5 3 -5 22.81 3.87
5 -3 6 -1.9 3.41
5 -3 6 5.22 2.34
-5 3 -6 2.41 3.24
-5 3 -6 -0.22 2.25
5 -3 7 0.95 3.79
5 -3 7 1.4 2.26
-5 3 -7 4.21 3.51
-5 3 -7 -0.79 2.56
5 -3 8 35.1 6.25
5 -3 8 21.88 5.32
-5 3 -8 39.33 5.88
-5 3 -8 14.37 5.02
5 -3 9 8.46 3.94
-5 3 -9 21.86 5.45
-5 3 -9 9.02 4.38
5 -3 10 5.89 5.77
5 -3 10 7.18 3.89
-5 3 -10 2.43 5.41
-5 3 -10 1.28 4.35
5 -2 -9 -3.19 6.31
5 -2 -9 8.69 6.03
-5 2 9 3.37 5.75
-5 2 9 5.82 6.83
5 -2 -8 5.96 5.84
5 -2 -8 1.29 5.48
-5 2 8 7.8 5.21
-5 2 8 5.45 6.13
5 -2 -7 5.27 3.19
5 -2 -7 5.17 4.73
-5 2 7 5.13 4.77
-5 2 7 2.65 5.77
5 -2 -6 11.34 5.15
5 -2 -6 13.46 4.53
-5 2 6 14.07 4.64
-5 2 6 12.76 5.38
5 -2 -5 81.13 6.15
5 -2 -5 96.14 7.44
-5 2 5 90.4 8.04
-5 2 5 99.1 9.42
5 -2 -4 3.53 3.39
5 -2 -4 3.62 2.76
-5 2 4 -0.52 3.07
-5 2 4 0.69 4.11
5 -2 -3 82.19 7.23
5 -2 -3 85.01 5.55
-5 2 3 78.24 6.31
-5 2 3 104.55 7.19
5 -2 -2 435.72 23.76
5 -2 -2 434.62 19.74
-5 2 2 427.77 21.77
-5 2 2 466.77 22.7
5 -2 -1 203.68 11.01
5 -2 -1 205.66 8.16
-5 2 1 209.9 9.92
-5 2 1 223.85 9.34
5 -2 0 11.59 2.82
5 -2 0 16.13 1.75
-5 2 0 18.15 2.59
-5 2 0 20.72 2.65
-5 2 -1 92 4.85
-5 2 -1 89.6 4.85
-5 2 -1 91.86 4.41
-5 2 -1 92.73 4.45
-5 2 -2 51.34 3.68
-5 2 -2 63.62 3.98
-5 2 -2 60.88 3.34
-5 2 -2 55.93 2.65
-5 2 -3 108.99 5.39
-5 2 -3 114.02 5.84
-5 2 -3 109.38 5.06
5 -2 4 181.04 7.44
-5 2 -4 179.44 8.54
-5 2 -4 166.49 7.81
5 -2 5 6.39 2.73
5 -2 5 3.43 2.25
-5 2 -5 1.03 2.62
-5 2 -5 -0.57 2.35
5 -2 6 13.88 3.77
5 -2 6 11.7 3.23
-5 2 -6 17.21 3.6
-5 2 -6 10.51 3.37
5 -2 7 4.35 3.39
5 -2 7 6.48 2.45
-5 2 -7 -1.99 3.27
-5 2 -7 -0.39 3.07
5 -2 8 7.78 4.29
5 -2 8 7.94 4.25
-5 2 -8 7.45 3.98
-5 2 -8 6.67 3.71
5 -2 9 17.3 5.39
5 -2 9 9.35 4.15
-5 2 -9 25.39 5.11
-5 2 -9 9.53 4.53
5 -2 10 30.78 6.93
5 -2 10 13.54 5.38
-5 2 -10 46.06 6.68
-5 2 -10 21.03 8.73
5 -2 11 12.52 6.19
5 -2 11 5.87 4.71
-5 2 -11 5.3 6.03
-5 2 -11 9.05 5.5
5 -1 -9 8.79 6.35
5 -1 -9 4.22 6.25
-5 1 9 7.05 5.8
-5 1 9 -2.77 7.52
5 -1 -8 8.71 5.41
5 -1 -8 1.8 3.41
-5 1 8 5.48 5.01
-5 1 8 1.89 4.06
5 -1 -7 14.92 6.67
5 -1 -7 29.08 3.99
-5 1 7 21.73 6.22
-5 1 7 33.49 4.77
5 -1 -6 41.47 7.26
5 -1 -6 46.89 6.8
-5 1 6 54.07 6.95
-5 1 6 56.5 8.67
5 -1 -5 78.08 7.81
5 -1 -5 71.6 6.95
-5 1 5 71.69 7.19
-5 1 5 78.69 8.83
5 -1 -4 67.15 6.52
5 -1 -4 67 5.92
-5 1 4 67.72 6.11
-5 1 4 71.46 8.14
5 -1 -3 225.15 12.85
5 -1 -3 224.12 11.52
-5 1 3 226.13 12.02
-5 1 3 250.42 14.81
5 -1 -2 524.04 27.14
5 -1 -2 498.48 24.13
-5 1 2 477.77 23.65
-5 1 2 532.96 26.9
5 -1 -1 201.51 9.74
5 -1 -1 188.64 8.12
-5 1 1 198.3 8.92
-5 1 1 209.31 9.7
5 -1 0 417.24 20.86
5 -1 0 385.29 15.73
-5 1 0 418.68 17.14
-5 1 0 443.64 17.84
-5 1 -1 229.56 10.43
-5 1 -1 233.58 8.73
-5 1 -2 4.72 1.59
-5 1 -2 3.85 1.64
-5 1 -2 2.34 1.49
-5 1 -2 4.17 1.46
-5 1 -3 2.43 1.49
-5 1 -3 0.26 1.63
-5 1 -3 2.64 1.36
-5 1 -3 2.03 1.43
5 -1 4 139.86 6.34
5 -1 4 147.68 6.56
-5 1 -4 131.34 5.99
-5 1 -4 123.98 7.86
5 -1 5 105.92 6.08
5 -1 5 108.19 6.84
-5 1 -5 109.01 6.2
5 -1 6 168.32 8.99
5 -1 6 127.37 8
-5 1 -6 163.27 8.75
5 -1 7 48.2 6.24
-5 1 -7 33.85 7.65
5 -1 8 23.28 4.21
5 -1 8 12.06 3.93
-5 1 -8 20.99 4.15
-5 1 -8 14.5 4.64
5 -1 9 25.16 5.15
5 -1 9 17.59 4.63
-5 1 -9 30.38 5.09
-5 1 -9 11.04 5.25
5 -1 10 53.24 7.66
5 -1 10 24.96 6.46
-5 1 -10 56.5 6.97
-5 1 -10 29.95 7.38
5 -1 11 21.62 6.72
5 -1 11 13.78 5.34
-5 1 -11 22.6 6.15
-5 1 -11 5.11 6.83
5 0 -8 -3.38 5.2
5 0 -8 3.02 5.29
-5 0 8 7.43 4.93
-5 0 8 3.47 6.51
5 0 -7 7.67 5.54
5 0 -7 15.46 5.72
-5 0 7 16.85 5.32
-5 0 7 17.96 7.12
5 0 -6 163.05 13.21
5 0 -6 144.75 12.68
-5 0 6 146.67 11.96
-5 0 6 159.22 15.55
5 0 -5 250.43 15.73
5 0 -5 212.35 11.22
-5 0 5 231.59 14.78
-5 0 5 286.02 20.92
5 0 -4 3.47 3.23
-5 0 4 3.34 3.19
-5 0 4 7.97 4.64
5 0 -3 189.15 10.64
5 0 -3 182.29 10.41
-5 0 3 178.55 12.37
-5 0 3 201.38 12.82
5 0 -2 116.23 6.51
5 0 -2 109.77 6.27
-5 0 2 115.16 6.3
-5 0 2 130.05 8.24
5 0 -1 95.21 5.35
5 0 -1 97 5.17
-5 0 1 92.92 5.98
-5 0 1 106.56 6.22
5 0 0 392.02 15.84
5 0 0 361.43 15.49
-5 0 0 391.16 16.92
-5 0 0 400.56 16.94
5 0 1 317.62 13.01
5 0 1 318.97 12.93
-5 0 -1 310.78 11.16
-5 0 -1 369.63 16.63
-5 0 -2 2.47 1.62
-5 0 -2 3.39 1.26
-5 0 -2 0.88 1.7
-5 0 -2 3.06 1.61
-5 0 -3 0.56 1.63
-5 0 -3 -0.73 1.67
-5 0 -3 0.85 1.54
-5 0 -3 1.45 1.57
5 0 4 127.35 5.18
5 0 4 147.06 6.82
-5 0 -4 130.69 5.13
-5 0 -4 125.23 6.56
5 0 5 190.93 8.18
5 0 5 187.62 9.05
-5 0 -5 183.5 7.72
-5 0 -5 180.96 9.92
5 0 6 445.63 21.28
5 0 6 412.04 23.52
-5 0 -6 444.71 20.74
-5 0 -6 429.56 25.66
5 0 7 206.68 10.92
5 0 7 174.55 12.16
-5 0 -7 224.11 11.22
-5 0 -7 198.06 15.08
5 0 8 3.2 3.25
5 0 8 0.24 3.32
-5 0 -8 9.05 3.07
-5 0 -8 3.66 3.92
5 0 9 35.21 5.19
5 0 9 22.2 5.06
-5 0 -9 33.68 4.9
-5 0 -9 10.94 6.12
5 0 10 62.74 7.43
5 0 10 40.86 7.3
-5 0 -10 68.8 7.03
-5 0 -10 32.65 8.2
5 0 11 28.4 6.41
5 0 11 19.79 6.19
-5 0 -11 34.16 6.16
-5 0 -11 13.17 7.24
5 0 12 6.29 5.67
5 0 12 3.26 5.14
-5 0 -12 9.98 5.18
-5 0 -12 -3.66 5.86
5 1 -8 20.08 6.57
5 1 -8 14.5 6.72
-5 -1 8 13.89 6.13
-5 -1 8 18.19 8.44
5 1 -7 33.9 7.07
5 1 -7 34.43 7.39
-5 -1 7 36.43 6.5
-5 -1 7 33.77 9.34
5 1 -6 75.73 9.21
5 1 -6 78.79 9.15
-5 -1 6 83.85 8.31
-5 -1 6 90.13 11.33
5 1 -5 65.87 7.08
5 1 -5 54.85 7.36
-5 -1 5 62.63 6.57
-5 -1 5 69.2 10.1
5 1 -4 145.6 9.63
5 1 -4 139.68 7.14
-5 -1 4 142.44 9.16
-5 -1 4 152.65 13.21
5 1 -3 24.33 3.62
5 1 -3 22.76 4.21
-5 -1 3 23.34 3.72
-5 -1 3 21.35 5.22
5 1 -2 4.05 3.11
5 1 -2 6.66 2.72
-5 -1 2 7.78 3.14
-5 -1 2 7.81 3.57
5 1 -1 53.93 4.5
5 1 -1 55.63 4.26
-5 -1 1 58.83 3.44
-5 -1 1 68.24 5.06
5 1 0 392.69 15.98
5 1 0 362.75 16.23
-5 -1 0 372.46 15.37
-5 -1 0 377.17 17.12
5 1 1 101.13 3.54
5 1 1 95.16 5.33
-5 -1 -1 110.37 3.59
-5 -1 -1 115 5.81
-5 -1 -2 144.26 4.96
-5 -1 -2 163.91 7.08
-5 -1 -2 140.88 6.7
-5 -1 -3 254.23 8.44
-5 -1 -3 251.42 8.5
-5 -1 -3 276.07 11.18
-5 -1 -3 259.18 11.19
5 1 4 0.66 1.29
-5 -1 -4 4.51 1.58
-5 -1 -4 2.5 2.02
5 1 5 44.84 2.71
5 1 5 44.27 3.97
-5 -1 -5 51.25 2.79
-5 -1 -5 48.86 4.49
5 1 6 418.11 18.19
5 1 6 424.07 22.63
-5 -1 -6 436.82 18.59
-5 -1 -6 430.89 25.17
5 1 7 109.91 6.46
5 1 7 108.38 7.78
-5 -1 -7 112.17 7.99
-5 -1 -7 91.74 9.5
5 1 8 46.7 4.52
5 1 8 40.1 5.62
-5 -1 -8 50.1 4.52
-5 -1 -8 29.97 6.87
5 1 9 26.27 4.15
5 1 9 19.33 4.86
-5 -1 -9 23.61 4.11
-5 -1 -9 13.33 5.96
5 1 10 12.13 4.18
5 1 10 5.63 4.76
-5 -1 -10 11.25 4.08
-5 -1 -10 15.75 5.69
5 1 11 13.52 4.76
5 1 11 9.84 5.11
-5 -1 -11 9.89 4.5
-5 -1 -11 -2.24 5.84
5 1 12 5.79 5.26
5 1 12 6.47 5.37
-5 -1 -12 3.83 4.93
-5 -1 -12 8.97 6.44
5 2 -8 4.44 6.41
5 2 -8 24.38 6.91
-5 -2 8 18.29 6.14
-5 -2 8 2.43 8.64
5 2 -7 33.82 7.2
5 2 -7 34.77 7.8
-5 -2 7 37 6.81
-5 -2 7 40.73 9.71
5 2 -6 33.66 6.22
5 2 -6 28.52 6.89
-5 -2 6 37.86 5.8
-5 -2 6 28.88 8.67
5 2 -5 93.85 8.53
5 2 -5 90.89 9.14
-5 -2 5 92.3 7.92
-5 -2 5 107.94 12.06
5 2 -4 216.38 12.72
5 2 -4 203.11 14.17
-5 -2 4 207.38 11.82
-5 -2 4 224.23 17.31
5 2 -3 453.35 23.15
5 2 -3 428.78 25.12
-5 -2 3 425.83 21.59
-5 -2 3 460.73 29.2
5 2 -2 3.36 2.9
5 2 -2 4.89 2.78
-5 -2 2 1.54 2.16
5 2 -1 2.72 1.68
5 2 -1 5.06 2.56
-5 -2 1 3.73 2.29
-5 -2 1 6.71 2.96
5 2 0 247.78 9.35
5 2 0 223.05 10.6
-5 -2 0 243.31 9.14
-5 -2 0 239.03 11.68
5 2 1 342.39 11.36
5 2 1 336.9 15.12
-5 -2 -1 349.34 12.31
-5 -2 -1 375.11 17.27
-5 -2 -2 983.85 42.24
-5 -2 -2 999.98 45.46
-5 -2 -2 1013.52 53.24
-5 -2 -2 1092.22 62.52
-5 -2 -3 421.03 12.6
-5 -2 -3 404.95 13.11
-5 -2 -3 419.45 19.3
-5 -2 -3 424.43 19.52
-5 -2 -4 135.76 4.15
-5 -2 -4 137.53 7.27
5 2 5 68.28 3.19
5 2 5 68.29 5
-5 -2 -5 70.49 3.37
-5 -2 -5 63.12 5.41
5 2 6 252.75 10.01
5 2 6 299.5 15.47
-5 -2 -6 291.74 12.1
-5 -2 -6 276.66 16.03
5 2 7 123.56 6.04
5 2 7 137.98 8.96
-5 -2 -7 137.99 6.28
-5 -2 -7 115.85 10.59
5 2 8 4.39 3.22
5 2 8 3.55 3.47
-5 -2 -8 5.79 2.5
-5 -2 -8 -2.8 4.44
5 2 9 12.48 3.15
5 2 9 8.04 4.22
-5 -2 -9 6.4 4.15
-5 -2 -9 2.8 5.16
5 2 10 7.87 3.58
5 2 10 6.36 4.51
-5 -2 -10 9.97 3.53
-5 -2 -10 3.76 5.6
5 2 11 -0.74 5.23
-5 -2 -11 12.11 4.12
-5 -2 -11 14.98 6.26
5 2 12 14.79 5.22
5 2 12 10.5 5.94
-5 -2 -12 12.02 4.87
-5 -2 -12 1.03 6.91
5 3 -7 19.31 5.43
5 3 -7 18.2 6.4
-5 -3 7 10.88 5.38
-5 -3 7 7.83 8.28
5 3 -6 0.61 3.8
5 3 -6 -0.52 4.54
-5 -3 6 0.47 3.69
-5 -3 6 2.08 6.26
5 3 -5 20.75 4.5
5 3 -5 14.93 5.37
-5 -3 5 21.73 4.34
-5 -3 5 15.18 7.3
5 3 -4 128.28 8.71
5 3 -4 130.32 10.65
-5 -3 4 134.02 8.55
-5 -3 4 141.12 13.05
5 3 -3 46.94 4.32
5 3 -3 42.26 3.54
-5 -3 3 43.15 4.26
-5 -3 3 49.21 7.08
5 3 -2 22.67 3.67
5 3 -2 18.67 2.53
-5 -3 2 19.42 2.77
-5 -3 2 22.78 5.32
5 3 -1 109.26 5.83
5 3 -1 97.23 6.75
-5 -3 1 105.17 5.63
-5 -3 1 106.83 7.87
5 3 0 53.34 2.91
5 3 0 47.58 4.37
-5 -3 0 50.06 2.78
-5 -3 0 45.4 4.81
5 3 1 199.34 6.12
5 3 1 187.46 9.24
-5 -3 -1 182.47 5.67
-5 -3 -1 207.11 10.4
-5 -3 -2 784.24 43.47
-5 -3 -2 812.26 45.1
-5 -3 -3 424.26 19.4
-5 -3 -3 351.29 17.92
-5 -3 -4 4.58 2.36
-5 -3 -4 2.82 2.32
5 3 5 92.53 2.95
5 3 5 106.1 6.32
-5 -3 -5 98.32 3.15
-5 -3 -5 83.71 6.34
5 3 6 125.95 5.14
5 3 6 140.8 8.48
-5 -3 -6 149.08 5.73
-5 -3 -6 135.67 9.52
5 3 7 41.18 2.64
5 3 7 37.71 4.9
-5 -3 -7 43.81 3.72
-5 -3 -7 33.16 5.87
5 3 8 76.14 5.76
5 3 8 75.02 4.9
-5 -3 -8 86.24 4.79
-5 -3 -8 46.72 9.16
5 3 9 4.23 2.61
5 3 9 8.35 3.98
-5 -3 -9 7.17 3.5
-5 -3 -9 -2.3 4.92
5 3 10 6.87 3.21
5 3 10 3.67 4.56
-5 -3 -10 5.42 3.04
-5 -3 -10 7.35 5.66
5 3 11 23.16 4.75
5 3 11 17.81 6.08
-5 -3 -11 30.88 5.85
-5 -3 -11 12.16 7.42
5 3 12 14.67 5.05
5 3 12 12.05 6.23
-5 -3 -12 19.44 4.85
-5 -3 -12 1.89 7.75
5 4 -7 31.96 6.61
5 4 -7 27.72 8.14
-5 -4 7 40.29 7.18
-5 -4 7 30.28 10.62
5 4 -6 0.95 3.78
5 4 -6 2.12 4.69
-5 -4 6 0.32 3.98
-5 -4 6 -2.1 6.73
5 4 -5 7.02 3.76
5 4 -5 4.46 4.56
-5 -4 5 5.88 3.95
-5 -4 5 10.94 6.25
5 4 -4 74.93 6.53
5 4 -4 66.84 7.46
-5 -4 4 71.97 6.08
-5 -4 4 80.97 10.28
5 4 -3 88.84 5.98
5 4 -3 71.2 7.36
-5 -4 3 79.35 7.1
-5 -4 3 79.71 9.44
5 4 -2 144.54 7.36
5 4 -2 144.77 9.73
-5 -4 2 139.77 8.28
-5 -4 2 147.08 12.52
5 4 -1 126.96 6.55
5 4 -1 114.24 8.14
-5 -4 1 116.94 4.87
-5 -4 1 126.97 9.56
5 4 0 78.78 3.65
5 4 0 70.61 5.58
-5 -4 0 72.86 2.78
-5 -4 0 68.07 6.33
5 4 1 99.17 2.89
5 4 1 98.54 6.22
-5 -4 -1 90.43 2.56
-5 -4 -1 98.59 6.93
-5 -4 -2 573.17 29.95
-5 -4 -2 544.77 29.36
-5 -4 -3 155.43 8.87
-5 -4 -3 138.79 8.07
-5 -4 -4 135.62 8.26
-5 -4 -4 116.86 7.34
5 4 5 26.31 0.99
-5 -4 -5 25.25 3.9
5 4 6 2.47 1.13
5 4 6 1.35 2.87
-5 -4 -6 3.15 1.26
-5 -4 -6 1.83 3.24
5 4 7 20.29 2.34
5 4 7 23.35 4.29
-5 -4 -7 21.2 2.53
-5 -4 -7 13.51 4.87
5 4 8 68.54 3.76
5 4 8 72.77 7.14
-5 -4 -8 71.06 4.05
-5 -4 -8 51.26 8.9
5 4 9 2.02 2.3
5 4 9 7.11 3.92
-5 -4 -9 3.36 2.3
-5 -4 -9 -1.38 2.97
5 4 10 6.5 2.95
5 4 10 3.4 4.5
-5 -4 -10 3.17 2.78
-5 -4 -10 8.39 5.71
5 4 11 6.29 3.64
5 4 11 6.69 5.23
-5 -4 -11 7.98 3.38
-5 -4 -11 3.46 3.9
5 4 12 22.02 4.97
5 4 12 22.14 6.85
-5 -4 -12 19.06 4.68
-5 -4 -12 2.81 8.27
5 5 -6 1.46 3.93
5 5 -6 -2.46 4.59
-5 -5 6 0.07 4.02
-5 -5 6 4.88 7.03
5 5 -5 12.76 4.1
5 5 -5 14.5 4.94
-5 -5 5 -0.39 3.97
-5 -5 5 5.74 6.63
5 5 -4 25.22 4.06
5 5 -4 26.69 5.33
-5 -5 4 17.43 4.07
-5 -5 4 14.92 6.99
5 5 -3 115.32 7.17
5 5 -3 109.96 9.52
-5 -5 3 120.52 6.98
-5 -5 3 115.79 11.88
5 5 -2 243.06 13.03
5 5 -2 219.65 14.29
-5 -5 2 224.72 10.24
-5 -5 2 230.81 18.02
5 5 -1 184.1 9.11
5 5 -1 177.86 11.36
-5 -5 1 180.84 13.74
5 5 0 37.43 2.25
5 5 0 35.23 4.32
-5 -5 0 37.93 2.62
-5 -5 0 37.13 5.1
5 5 1 73.13 2.57
5 5 1 67.31 5.52
-5 -5 -1 61.21 2.12
-5 -5 -1 67 6.07
-5 -5 -2 147.66 9.13
-5 -5 -2 138.35 9.23
-5 -5 -3 60.6 5.55
-5 -5 -3 46.33 4.84
-5 -5 -4 35.72 2.9
-5 -5 -4 32.69 4.23
-5 -5 -5 21.48 2.38
-5 -5 -5 16.85 3.73
5 5 6 23.88 1.49
5 5 6 26.22 4.27
-5 -5 -6 26.51 1.49
-5 -5 -6 14.31 4.55
5 5 7 0.94 1.44
5 5 7 2.06 3.1
-5 -5 -7 -0.76 1.48
-5 -5 -7 -0.6 3.45
5 5 8 8.56 2.28
5 5 8 3.19 3.98
-5 -5 -8 8.35 2.5
-5 -5 -8 0.43 4.8
5 5 9 7.09 2.99
5 5 9 15.11 4.37
-5 -5 -9 5.18 2.34
-5 -5 -9 3.01 5.34
5 5 10 3.1 3.67
5 5 10 10.78 2.87
-5 -5 -10 2.05 3.76
-5 -5 -10 8.97 5.89
5 5 11 3.53 3.24
5 5 11 11.41 5.13
-5 -5 -11 7.4 3.28
-5 -5 -11 9.88 6.7
5 5 12 2.6 3.8
5 5 12 14.48 5.3
-5 -5 -12 -2.34 3.67
-5 -5 -12 10.27 6.63
5 6 -5 14.8 4.55
5 6 -5 19.61 5.87
-5 -6 5 17 4.85
-5 -6 5 18.94 8.27
5 6 -4 30.5 4.53
5 6 -4 25.52 6.07
-5 -6 4 33.46 4.71
-5 -6 4 20.47 8.08
5 6 -3 53.45 4.81
5 6 -3 56.53 6.8
-5 -6 3 54.59 4.98
-5 -6 3 38.86 8.83
5 6 -2 264.69 12.86
5 6 -2 274.84 17.96
-5 -6 2 266.93 15.16
-5 -6 2 292.97 21.86
5 6 -1 166.02 7.15
5 6 -1 145.7 10.64
-5 -6 1 163.57 8.54
-5 -6 1 147.21 13.39
5 6 0 26.46 2.8
5 6 0 22.08 4.12
-5 -6 0 23.86 2.59
-5 -6 0 23.19 5
5 6 1 16.85 2.2
5 6 1 15.77 3.31
-5 -6 -1 14.05 1.66
-5 -6 -1 9.28 4.14
5 6 2 2.77 0.75
5 6 2 1.29 0.61
-5 -6 -2 2.37 3
-5 -6 -2 1.01 2.76
-5 -6 -3 0.35 2.94
-5 -6 -3 1.37 2.68
-5 -6 -4 286.22 17.33
-5 -6 -5 25.9 3.03
-5 -6 -5 11.25 4.22
5 6 6 3.71 0.71
-5 -6 -6 -0.25 3.44
5 6 7 5.31 1.4
5 6 7 10.29 3.61
-5 -6 -7 2.84 1.58
-5 -6 -7 2.8 4.08
5 6 8 38.75 5.11
-5 -6 -8 19.19 3
-5 -6 -8 18.17 5.94
5 6 9 8.64 2.02
5 6 9 0.41 4.35
-5 -6 -9 4.36 2.18
-5 -6 -9 8.98 5.34
5 6 10 24.3 4
5 6 10 23.17 5.55
-5 -6 -10 9.92 3.15
-5 -6 -10 10.59 6.99
5 6 11 7.66 3.16
5 6 11 1.87 5.29
-5 -6 -11 11.17 4.26
-5 -6 -11 12.17 6.88
5 6 12 5.13 3.2
5 6 12 7.19 5.11
-5 -6 -12 -1.47 3.21
-5 -6 -12 -5.97 4.03
5 7 -4 7.45 3.55
5 7 -4 1.27 4.92
-5 -7 4 13.62 5.21
-5 -7 4 0.4 6.63
5 7 -3 10.29 3.1
5 7 -3 4.14 4.54
-5 -7 3 5.57 3.36
-5 -7 3 8.28 5.63
5 7 -2 19.8 4.08
5 7 -2 19.1 3
-5 -7 2 16.21 3.08
-5 -7 2 8.04 6.15
5 7 -1 9.6 2.31
5 7 -1 7.99 3.81
-5 -7 1 6.57 2.28
-5 -7 1 8.88 5.05
5 7 0 43.88 3.61
5 7 0 43.77 5.51
-5 -7 0 38.54 3.13
-5 -7 0 24.32 6.39
5 7 1 2.57 1.6
5 7 2 52.41 2.4
5 7 2 46.35 2.04
-5 -7 -2 35.05 6.24
-5 -7 -3 18.48 4.02
-5 -7 -3 8.99 3.73
-5 -7 -4 3.39 3.36
-5 -7 -4 -0.68 2.98
-5 -7 -5 -1.54 3.23
-5 -7 -5 4.34 3.37
5 7 6 0.84 0.87
-5 -7 -6 4.63 3.16
-5 -7 -6 -2.81 3.28
5 7 7 5.23 1.36
5 7 7 6.92 4.06
-5 -7 -7 1.85 1.24
-5 -7 -7 1.98 4.12
5 7 8 0.19 1.71
5 7 8 -1.11 3.55
-5 -7 -8 0.4 1.74
-5 -7 -8 -1.63 3.93
5 7 9 15.3 2.25
5 7 9 12.08 4.92
-5 -7 -9 10.24 3.21
-5 -7 -9 6.33 6.02
5 7 10 13.96 3.39
5 7 10 9.78 4.96
-5 -7 -10 4.17 2.64
-5 -7 -10 7.54 6.14
5 7 11 18.96 3.28
5 7 11 16.14 3.67
-5 -7 -11 6.92 3.45
-5 -7 -11 2.27 7.58
5 7 12 0.54 4.26
5 7 12 3.58 5.42
-5 -7 -12 5.7 4.48
-5 -7 -12 -1.22 6.96
5 8 -3 3.1 4.16
5 8 -3 2.42 4.2
-5 -8 3 1.14 3.24
-5 -8 3 3.64 5.47
5 8 -2 2.13 2.81
5 8 -2 11.71 4.01
-5 -8 2 5.88 3.78
-5 -8 2 1.25 5.35
5 8 -1 -1.89 2.11
5 8 -1 0.59 3.58
-5 -8 1 0.4 1.93
-5 -8 1 7.39 4.58
5 8 0 13.23 3.01
5 8 0 14.11 3.84
-5 -8 0 13.57 2.48
-5 -8 0 2.79 5.15
-5 -8 -1 9.96 4.54
-5 -8 -1 8.8 4.27
5 8 2 18.3 2.03
5 8 2 16.4 1.83
-5 -8 -2 17.63 4.65
-5 -8 -2 4.81 3.98
5 8 3 6 1.24
5 8 3 4.95 1.17
-5 -8 -3 6.93 3.68
-5 -8 -3 4.45 3.45
5 8 4 9.85 0.95
5 8 4 8.74 1.15
-5 -8 -4 12.22 4.12
-5 -8 -4 6.11 3.66
-5 -8 -5 19.34 4.17
-5 -8 -5 0.82 3.94
5 8 6 20.68 1.5
-5 -8 -6 35.26 5.58
-5 -8 -6 14.34 5.07
5 8 7 7.17 1.56
-5 -8 -7 -0.02 2.77
5 8 8 6.54 2.14
5 8 8 12.46 4.69
-5 -8 -8 6.6 4.84
5 8 9 4.89 2.37
5 8 9 3.29 4.15
-5 -8 -9 2.28 2.39
-5 -8 -9 4.03 5.24
5 8 10 4.91 2.25
5 8 10 9.12 4.62
-5 -8 -10 1.45 2.5
-5 -8 -10 5.15 5.7
5 8 11 6.69 2.73
5 8 11 1.88 5.23
-5 -8 -11 5.8 3.99
-5 -8 -11 1.56 6.59
5 8 12 18.56 3.76
5 8 12 21.16 6.42
-5 -8 -12 2.06 4.03
-5 -8 -12 8.39 8.49
5 9 -2 20.42 5.08
5 9 -2 22.06 5.47
-5 -9 2 18.89 3.51
-5 -9 2 5.97 7.04
5 9 -1 10.53 3.91
5 9 -1 6.02 4.18
-5 -9 1 12.43 3.36
-5 -9 1 6.85 5.81
5 9 0 22.14 2.9
-5 -9 0 -0.51 6.21
5 9 1 2.88 1.87
5 9 1 3.74 2.17
-5 -9 -1 3.06 4.25
-5 -9 -1 1.61 3.63
5 9 2 6.41 2.07
5 9 2 1.26 1.84
-5 -9 -2 9 4.18
-5 -9 -2 3.11 3.48
5 9 3 10.87 1.82
5 9 3 6.29 1.65
-5 -9 -3 9.23 4.29
-5 -9 -3 4.76 3.78
5 9 4 3.09 1.33
5 9 4 4.01 1.25
-5 -9 -4 9.5 3.75
-5 -9 -4 4.02 3.69
5 9 5 8.43 1.31
5 9 5 5 1.54
-5 -9 -5 11.28 4.47
-5 -9 -5 6.79 3.99
5 9 6 8.62 1.32
5 9 6 5.48 1.42
-5 -9 -6 8.77 4.24
-5 -9 -6 4.3 4.19
5 9 7 5.69 1.66
-5 -9 -7 1.44 4.38
-5 -9 -7 1.36 2.85
5 9 8 7.21 1.67
-5 -9 -8 2.45 4.98
5 9 9 -0.51 1.67
5 9 9 5.92 4.37
-5 -9 -9 0.06 2.04
-5 -9 -9 -3.06 3.02
5 9 10 0.14 2.03
5 9 10 4.24 4.31
-5 -9 -10 1.78 2.58
-5 -9 -10 -9.01 5.39
5 9 11 7.1 2.73
5 9 11 2.87 5.3
-5 -9 -11 3.8 2.86
-5 -9 -11 2.73 6.82
5 10 -1 6.18 3.78
-5 -10 1 -6.44 5.4
5 10 0 1.65 3.32
5 10 0 3.31 2.92
-5 -10 0 6.16 5.24
-5 -10 0 4.08 3.92
5 10 1 7.76 3
5 10 1 3.96 2.65
-5 -10 -1 8.54 4.91
-5 -10 -1 4.84 3.92
5 10 2 4.2 2.41
5 10 2 1.41 1.68
-5 -10 -2 3.43 4.3
-5 -10 -2 2.38 3.68
5 10 3 0.96 1.43
5 10 3 0.52 1.35
-5 -10 -3 1.28 3.91
-5 -10 -3 6.34 3.53
5 10 4 2.77 1.7
5 10 4 2.41 1.56
-5 -10 -4 -3.91 3.77
-5 -10 -4 -3.47 3.74
5 10 5 1.51 1.48
5 10 5 0.79 1.38
-5 -10 -5 5.1 3.86
-5 -10 -5 3 3.59
-5 -10 -6 -0.2 4.09
-5 -10 -6 -3.21 4.08
-5 -10 -7 0.77 4.39
-5 -10 -7 9.29 4.76
-5 -10 -8 12.07 5.75
-5 -10 -8 7.38 5.81
-5 -10 -9 5.05 3.5
5 10 10 7.12 5.68
-5 -10 -10 5.78 6.41
-5 -11 -1 -3.91 5.04
-5 -11 -1 -1.62 3.98
-5 -11 -2 7.32 4.56
-5 -11 -2 -1.58 3.93
-5 -11 -3 -2.34 4.09
-5 -11 -3 2.39 3.72
-5 -11 -4 8.86 4.98
-5 -11 -4 6.49 4.53
-5 -11 -5 6.51 4.76
-5 -11 -5 6.43 4.5
-5 -11 -6 5.41 4.64
-5 -11 -6 3.2 4.6
-5 -11 -7 10.39 4.81
-5 -11 -7 -0.04 5.06
-5 -11 -8 -0.06 4.57
-5 -11 -8 3.57 4.94
-5 -11 -9 7.67 5.51
-5 -11 -9 5.25 6.09
-5 -12 -5 11.97 5.09
-5 -12 -5 9.39 4.78
-5 -12 -6 3.32 4.93
-5 -12 -6 5.15 4.84
-6 9 4 7.97 4.5
-6 9 4 0.75 5.4
-6 9 3 1.72 6.73
-6 9 3 10.76 5.64
-6 9 2 16.23 7.68
-6 9 2 21.28 6.63
-6 9 1 21.23 7.13
-6 9 0 30.42 7.85
-6 9 0 17.38 7.83
-6 9 -1 15.43 6.39
-6 9 -1 8.06 6.85
-6 9 -2 6.87 5.64
-6 9 -2 -4.27 6
6 -8 -6 -2.37 6.51
-6 8 6 2.84 5.16
6 -8 -5 1.72 6
-6 8 5 1.91 5.12
6 -8 -4 16.51 7.68
-6 8 4 20.54 6.13
-6 8 3 10.86 5.9
-6 8 3 -4.11 4.6
-6 8 2 -3.7 5.47
-6 8 2 6.97 4.68
-6 8 1 42.68 9.22
-6 8 1 64.83 8.84
-6 8 0 106.29 8.44
-6 8 -1 93.13 11.72
-6 8 -2 45.62 8.54
-6 8 -2 34.66 8.71
-6 8 -3 1.59 5.36
-6 8 -3 5.77 5.84
-6 8 -4 -1.38 5.2
-6 8 -4 5.57 5.96
6 -7 -6 3.65 5.68
6 -7 -6 -0.98 4.06
-6 7 6 -4.4 4.69
-6 7 6 2.43 3.16
6 -7 -5 3.64 6.17
6 -7 -5 5.03 3.88
-6 7 5 9.52 5.01
-6 7 5 8.68 3
6 -7 -4 33.08 9.62
6 -7 -4 60.65 4.87
-6 7 4 41.73 8.21
-6 7 4 60.93 5.48
6 -7 -3 18.33 6.71
6 -7 -3 20.2 2.32
-6 7 3 27.06 5.58
-6 7 3 18.11 2.57
-6 7 2 14.81 6.28
-6 7 2 8.8 4.93
-6 7 1 19.04 5.83
-6 7 1 13.5 3.34
-6 7 0 23.79 6.35
-6 7 -1 105.32 11.19
-6 7 -2 113.94 10.93
-6 7 -2 107.43 12.17
-6 7 -3 12.42 5.28
-6 7 -3 7.09 5.65
-6 7 -4 2.39 4.62
-6 7 -4 2.04 5.14
-6 7 -5 12.8 5.54
-6 7 -5 6.01 6.4
-6 7 -6 12.81 6.23
-6 7 -6 8.96 7.03
6 -6 -7 -3 6.5
6 -6 -7 5.12 3.89
-6 6 7 8.84 5.16
-6 6 7 -1.02 4.31
6 -6 -6 -3.87 6.02
6 -6 -6 8.38 3.38
-6 6 6 2.79 4.85
-6 6 6 2.08 3.82
6 -6 -5 12.5 8.57
6 -6 -5 46.06 4.79
-6 6 5 41.04 6.88
-6 6 5 51.04 5.22
6 -6 -4 48.17 10.77
6 -6 -4 91.26 5.39
-6 6 4 67.63 9.31
-6 6 4 100.56 7.96
6 -6 -3 21.39 7.76
6 -6 -3 49.82 4.06
-6 6 3 40.66 6.51
-6 6 3 42.91 4.9
6 -6 -2 26.35 7.36
6 -6 -2 39.69 2.7
-6 6 2 42.03 4.02
-6 6 2 36.18 3.44
-6 6 1 41.8 6.44
-6 6 1 26.74 5.75
-6 6 0 8.09 4.26
-6 6 0 -0.53 4.16
-6 6 -1 126.04 7.49
-6 6 -1 107.64 10.73
-6 6 -2 104.47 9.8
-6 6 -2 118.83 11.09
-6 6 -3 2.7 4.27
-6 6 -3 7.1 4.6
-6 6 -4 8.78 4.21
-6 6 -4 2.35 4.89
-6 6 -5 6.72 4.41
-6 6 -5 4.06 3.14
-6 6 -6 8.92 5.08
-6 6 -6 3.66 5.76
-6 6 -7 18.7 6.25
6 -5 -7 -1.71 6.46
6 -5 -7 7.64 4.26
-6 5 7 -1.38 5.25
-6 5 7 11.33 4.72
6 -5 -6 11.72 6.63
6 -5 -6 15.76 4.2
-6 5 6 10.24 5.68
-6 5 6 15.02 4.8
6 -5 -5 37.71 8.97
6 -5 -5 52.05 5.44
-6 5 5 50.57 7.16
-6 5 5 59.51 6.01
6 -5 -4 35.03 8.43
6 -5 -4 66.52 6.57
-6 5 4 57.24 7.38
-6 5 4 65.06 5.58
6 -5 -3 99.58 12.33
6 -5 -3 134.85 6.63
-6 5 3 115.85 10.32
-6 5 3 133.49 7.77
6 -5 -2 180.07 16.4
6 -5 -2 215.35 10.51
-6 5 2 196.58 13.97
-6 5 2 211.97 11.83
-6 5 1 30.75 4.76
-6 5 1 23.59 2.96
-6 5 0 24.35 4.8
-6 5 0 20.34 2.85
-6 5 -1 128.24 9.76
-6 5 -1 112.74 9.53
-6 5 -2 14.41 2.6
-6 5 -2 7.23 4.39
-6 5 -3 18.41 4.73
-6 5 -3 21.23 4.94
-6 5 -4 28.44 5.08
-6 5 -4 29.42 5.74
-6 5 -5 10.43 4.48
-6 5 -5 18.36 5.25
-6 5 -6 6.13 4.48
-6 5 -6 4.93 1.98
6 -5 7 35.07 7.8
-6 5 -7 38.09 6.83
6 -5 8 14.28 7.03
-6 5 -8 18.31 6.22
6 -4 -8 20.96 9.29
6 -4 -8 24.38 6.93
-6 4 8 27.04 7.76
-6 4 8 27.12 7.86
6 -4 -7 19.47 7.47
6 -4 -7 16.07 5.38
-6 4 7 16.75 6.29
-6 4 7 20.66 6.06
6 -4 -6 30.01 9.24
6 -4 -6 53.39 6.2
-6 4 6 51.71 7.52
-6 4 6 48.03 7.43
6 -4 -5 37.83 8.7
6 -4 -5 62.97 6.05
-6 4 5 53.94 7.61
-6 4 5 65.27 7.11
6 -4 -4 -3.32 4.58
6 -4 -4 4.87 2.9
-6 4 4 5.95 3.84
-6 4 4 8.51 3.26
6 -4 -3 85.11 9.51
6 -4 -3 89.27 6.98
-6 4 3 85.48 8.16
-6 4 3 102.73 8.67
6 -4 -2 175.45 14.54
6 -4 -2 202.76 10.85
-6 4 2 171.8 12.54
-6 4 2 213.11 12.22
6 -4 -1 27.43 5.55
6 -4 -1 37.54 3.31
-6 4 1 41.06 4.85
-6 4 1 33.97 4.51
-6 4 0 0.7 3.43
-6 4 0 0.25 2.88
-6 4 0 1.36 1.85
-6 4 0 0.41 1.53
-6 4 -1 32.76 4.69
-6 4 -1 33.84 4.64
-6 4 -2 31.86 2.09
-6 4 -2 28.59 2.2
-6 4 -3 36.68 4.61
-6 4 -3 34.06 5.15
-6 4 -4 20.83 2.06
-6 4 -4 21.31 2.55
-6 4 -5 12.78 3.42
-6 4 -5 6.56 3.95
-6 4 -5 4.02 1.9
-6 4 -5 0.84 2.3
6 -4 6 16.3 4.93
6 -4 6 4.98 1.76
-6 4 -6 10.57 4.07
-6 4 -6 6.58 2.89
6 -4 7 34.15 6.75
-6 4 -7 34.97 5.88
6 -4 8 27.1 5.85
6 -4 8 6.1 2.8
-6 4 -8 14.5 5.16
-6 4 -8 5.39 3.4
6 -4 9 15.65 6.5
6 -4 9 6 3.44
-6 4 -9 21.15 5.94
-6 4 -9 5.91 5.16
6 -3 -8 12.84 5.27
6 -3 -8 25.76 7.11
-6 3 8 20.59 7.26
-6 3 8 30.02 7.75
6 -3 -7 14.96 7.82
6 -3 -7 31.86 6.33
-6 3 7 24.91 6.61
-6 3 7 27.65 7.32
6 -3 -6 78.88 11.14
6 -3 -6 76.64 8.39
-6 3 6 76.89 9.14
-6 3 6 85.96 9.88
6 -3 -5 24.24 7.04
6 -3 -5 33.35 5.25
-6 3 5 38.35 3.73
-6 3 5 40.11 6.32
6 -3 -4 12.67 4.79
6 -3 -4 14.55 3.49
-6 3 4 9.73 4.13
-6 3 4 18.64 4.2
6 -3 -3 102.55 9.61
6 -3 -3 98.75 6.29
-6 3 3 92.46 7.8
-6 3 3 126.09 8.62
6 -3 -2 81.09 7.85
6 -3 -2 85.92 5.04
-6 3 2 75.72 6.86
-6 3 2 92.75 8.24
6 -3 -1 54.9 6.01
6 -3 -1 59.72 3.64
-6 3 1 56.96 5.21
-6 3 1 57.38 4.33
6 -3 0 41.1 2.55
-6 3 0 36.15 4.21
-6 3 0 39.22 3.1
-6 3 -1 -0.19 2.62
-6 3 -1 1.02 2.58
-6 3 -1 3.84 1.87
-6 3 -1 1.13 1.7
-6 3 -2 39.63 4.14
-6 3 -2 38.59 4.27
-6 3 -3 210.13 11.12
-6 3 -3 223.82 12.23
-6 3 -4 28.68 3.71
-6 3 -4 28.5 4.24
-6 3 -5 9.23 3.02
-6 3 -5 1.12 2.14
6 -3 6 20.71 4.66
-6 3 -6 20.5 4.27
6 -3 7 17.29 5.18
-6 3 -7 22.44 4.64
6 -3 8 12.34 4.68
6 -3 8 5.14 3.7
-6 3 -8 7.43 2.65
-6 3 -8 -0.98 3.26
6 -3 9 12.08 5.45
6 -3 9 8.67 4.67
-6 3 -9 9.56 5.16
-6 3 -9 5.89 4.43
6 -3 10 9.29 6.15
6 -3 10 5.91 4.05
-6 3 -10 10.85 5.71
-6 3 -10 4.27 6.13
6 -2 -8 12.93 7.64
6 -2 -8 20.74 4.48
-6 2 8 23.51 6.93
-6 2 8 22.38 8.51
6 -2 -7 27.76 8.17
6 -2 -7 43.68 7.12
-6 2 7 35.73 7.24
-6 2 7 33.97 8.29
6 -2 -6 108.74 12.81
6 -2 -6 116.76 10.89
-6 2 6 117.93 11.2
-6 2 6 129.76 13.16
6 -2 -5 10.62 5.84
6 -2 -5 26.47 4.87
-6 2 5 25.88 5.05
-6 2 5 23.95 5.81
6 -2 -4 0.15 3.76
6 -2 -4 -0.11 2.99
-6 2 4 -0.03 3.22
-6 2 4 9.33 4.16
6 -2 -3 9.98 4.05
6 -2 -3 10.31 3.13
-6 2 3 9.09 3.48
-6 2 3 14.85 4.01
6 -2 -2 7.45 3.58
6 -2 -2 10.33 2.57
-6 2 2 10.83 3.27
-6 2 2 10.16 3.41
6 -2 -1 102.48 7.5
6 -2 -1 109.05 5.68
-6 2 1 93.5 6.61
-6 2 1 114.45 6.75
6 -2 0 130.5 8.25
6 -2 0 136.16 6.07
-6 2 0 134.35 7.49
-6 2 0 154.7 7.1
-6 2 -1 3.73 2.29
-6 2 -1 4.44 2.28
-6 2 -1 1.31 2.4
-6 2 -1 5.79 1.61
-6 2 -2 8.59 2.34
-6 2 -2 8.5 2.36
-6 2 -2 5.92 2.29
-6 2 -2 4.73 1.65
-6 2 -3 94.86 5.19
-6 2 -3 103.52 5.75
-6 2 -3 75.65 5.49
-6 2 -4 185.86 9.35
-6 2 -4 189.59 10.02
-6 2 -5 62.72 5.01
6 -2 6 3 3.06
6 -2 6 1.26 1.98
-6 2 -6 1.95 2.95
-6 2 -6 4.88 2.71
6 -2 7 1.01 3.35
6 -2 7 3.6 2.24
-6 2 -7 1.04 3.15
-6 2 -7 -1.36 2.84
6 -2 8 11.21 4.14
6 -2 8 5.03 3.09
-6 2 -8 8.36 3.93
-6 2 -8 2.88 3.75
6 -2 9 21.06 5.43
6 -2 9 5.7 4.25
-6 2 -9 26.94 5.1
6 -2 10 -4.63 4.87
6 -2 10 -3.9 3.79
-6 2 -10 1.82 4.62
-6 2 -10 0.13 6.12
6 -1 -8 -0.12 3.44
6 -1 -8 -5.75 5.33
-6 1 8 -4.9 5.02
-6 1 8 14.23 6.61
6 -1 -7 13.96 6.42
6 -1 -7 12.24 6.12
-6 1 7 15.42 5.77
-6 1 7 20.6 7.2
6 -1 -6 29.83 7.51
6 -1 -6 47.98 7.1
-6 1 6 50.13 6.97
-6 1 6 51.49 8.93
6 -1 -5 26.36 6.25
6 -1 -5 39.75 3.8
-6 1 5 32.23 5.77
-6 1 5 39.46 7.26
6 -1 -4 -2.31 3.82
6 -1 -4 2.7 3.49
-6 1 4 9.49 3.36
-6 1 4 2.45 4.43
6 -1 -3 5.07 3.33
6 -1 -3 4.72 2.88
-6 1 3 5.48 3
-6 1 3 0.97 3.86
6 -1 -2 1.55 3.14
6 -1 -2 6.56 2.68
-6 1 2 7.9 2.86
-6 1 2 12.85 3.59
6 -1 -1 292.15 15.28
6 -1 -1 282.91 13.38
-6 1 1 263.78 13.67
-6 1 1 323.14 15.92
6 -1 0 444.21 22.35
6 -1 0 444.93 20.31
-6 1 0 451.93 21.2
-6 1 0 502.77 23.35
-6 1 -1 98.1 4.89
-6 1 -1 107.86 6.93
-6 1 -2 56.35 3.17
-6 1 -2 50.81 3.4
-6 1 -2 47.98 3.34
-6 1 -2 45.73 3.38
-6 1 -3 142.17 6.05
-6 1 -3 161.76 8.33
-6 1 -3 155.26 7.03
-6 1 -3 154.85 8.08
-6 1 -4 40.37 3.1
-6 1 -4 41.83 3.14
-6 1 -4 30.85 2.95
6 -1 5 77.47 5.41
-6 1 -5 64.82 4.55
6 -1 6 94.72 6.47
-6 1 -6 94.28 6.35
6 -1 7 2.16 2.8
6 -1 7 -0.78 2.38
-6 1 -7 -1.83 2.72
-6 1 -7 0.5 3.02
6 -1 8 2.79 4.38
6 -1 8 2.76 2.97
-6 1 -8 -1.07 3.16
-6 1 -8 1.83 3.52
6 -1 9 6.89 4.22
6 -1 9 5.51 3.81
-6 1 -9 10.21 4.02
-6 1 -9 6.25 6.14
6 -1 10 7.73 4.35
6 -1 10 -1.15 3.85
-6 1 -10 2.15 4.08
-6 1 -10 -2.01 4.3
6 -1 11 -6.58 5.05
6 -1 11 4.35 5.85
-6 1 -11 0.48 4.64
-6 1 -11 -3.96 4.89
6 0 -7 5.97 5.03
6 0 -7 1.22 5.26
-6 0 7 1.08 4.66
-6 0 7 7.59 6.52
6 0 -6 2.74 4.95
6 0 -6 8.5 3.23
-6 0 6 13.21 4.49
-6 0 6 4.31 6.23
6 0 -5 32.46 6.21
6 0 -5 38.64 6.18
-6 0 5 31.86 5.77
-6 0 5 48.61 8.47
6 0 -4 91.42 8.39
6 0 -4 84.83 8.4
-6 0 4 87.24 7.59
-6 0 4 109.54 10.6
6 0 -3 3.01 3.21
6 0 -3 6.71 3.28
-6 0 3 12.78 3.15
-6 0 3 6.67 4.39
6 0 -2 78.4 6.06
6 0 -2 67.58 5.74
-6 0 2 77.08 5.34
-6 0 2 86.31 7.36
6 0 -1 186.13 9.47
6 0 -1 176.33 9.37
-6 0 1 166.35 8.42
-6 0 1 207.6 11.7
6 0 0 328.15 14.84
6 0 0 336.21 15.44
-6 0 0 332.32 16.21
-6 0 0 350.81 17.21
6 0 1 101.35 5.16
6 0 1 116.68 5.66
-6 0 -1 120.99 4.99
-6 0 -1 126.58 6.82
-6 0 -2 18.77 1.89
-6 0 -2 18.09 2.55
-6 0 -2 12.52 2.56
-6 0 -3 4 1.77
-6 0 -3 4.32 1.49
-6 0 -3 7.08 2.68
-6 0 -3 2.37 2.02
-6 0 -4 4.33 2.01
-6 0 -4 6.1 2.14
-6 0 -4 -1.22 2.1
-6 0 -4 6.47 2.08
6 0 5 41.37 3.24
-6 0 -5 38.02 3.09
-6 0 -5 21.26 4.04
6 0 6 12.61 2.47
6 0 6 7.26 2.74
-6 0 -6 10.48 2.53
-6 0 -6 1.71 3.45
6 0 7 39.36 5.18
-6 0 -7 30.42 6.05
6 0 8 11.82 3.33
6 0 8 7.44 3.63
-6 0 -8 10.23 3.27
-6 0 -8 5.86 4.41
6 0 9 5.12 3.4
6 0 9 1.48 3.65
-6 0 -9 2.53 3.39
-6 0 -9 3.66 4.32
6 0 10 -1.25 3.54
6 0 10 -5.63 3.86
-6 0 -10 -1.27 3.59
-6 0 -10 7.52 4.51
6 0 11 -0.26 4.24
6 0 11 1.29 4.43
-6 0 -11 0.75 4.22
-6 0 -11 4.05 4.96
6 1 -7 3.1 4.9
6 1 -7 4.72 5.5
-6 -1 7 4.64 4.67
-6 -1 7 -1.55 6.95
6 1 -6 4.04 4.32
6 1 -6 8.41 4.85
-6 -1 6 1.26 4.13
-6 -1 6 3.22 5.99
6 1 -5 71.78 8.75
6 1 -5 81.3 9.36
-6 -1 5 96.08 7.92
-6 -1 5 93.81 11.81
6 1 -4 110.28 11.94
6 1 -4 119.38 10.42
-6 -1 4 126.79 8.83
-6 -1 4 133.82 12.95
6 1 -3 99.06 7.54
6 1 -3 97.21 7.77
-6 -1 3 102.94 6.88
-6 -1 3 102.71 9.88
6 1 -2 92.92 7.8
6 1 -2 90.19 7.05
-6 -1 2 101.5 7.59
-6 -1 2 98.38 6
6 1 -1 97.32 7.23
6 1 -1 96.58 6.52
-6 -1 1 105.14 5.2
-6 -1 1 107.64 8.17
6 1 0 81.24 4.36
6 1 0 85.36 5.67
-6 -1 0 92.91 4.31
-6 -1 0 89.85 6.39
6 1 1 75.95 5
-6 -1 -1 66.35 3.06
-6 -1 -1 85.98 5.5
-6 -1 -2 37.28 2.31
-6 -1 -2 36.42 2.56
-6 -1 -2 34.31 3.64
-6 -1 -2 32.13 3.5
-6 -1 -3 49.4 2.04
-6 -1 -3 50.39 2.33
-6 -1 -3 62.72 5.64
-6 -1 -3 52.77 4.18
-6 -1 -4 0.47 1.48
-6 -1 -4 1.41 1.57
-6 -1 -4 4.07 2.14
-6 -1 -4 1.2 2.15
-6 -1 -5 34.24 2.87
-6 -1 -5 23.5 3.86
6 1 6 6.18 1.99
6 1 6 7.81 2.94
-6 -1 -6 7.97 2.02
-6 -1 -6 14.77 3.33
6 1 7 24.79 2.92
6 1 7 19.18 4.13
-6 -1 -7 29.45 4
-6 -1 -7 14.71 4.96
6 1 8 2.71 2.41
6 1 8 7.06 3.27
-6 -1 -8 -3.13 2.51
-6 -1 -8 2.47 3.93
6 1 9 4.78 2.76
6 1 9 -2.55 3.74
-6 -1 -9 0.77 2.88
-6 -1 -9 4.17 4.44
6 1 10 2.35 3.5
6 1 10 0.59 4.13
-6 -1 -10 4.46 3.4
-6 -1 -10 2.05 4.92
6 1 11 8.61 4.16
6 1 11 -5.87 4.74
-6 -1 -11 5.2 3.84
-6 -1 -11 -0.88 5.52
6 1 12 2.62 4.71
6 1 12 0.68 3.17
-6 -1 -12 3.26 4.3
-6 -1 -12 -1.18 5.71
6 2 -7 7.24 5.17
6 2 -7 6.8 5.9
-6 -2 7 2.03 4.89
-6 -2 7 -0.27 7.51
6 2 -6 5.36 4.51
6 2 -6 3.05 3.35
-6 -2 6 2.48 4.21
-6 -2 6 8.68 7.21
6 2 -5 53.61 6.93
6 2 -5 55.39 8.14
-6 -2 5 54.39 6.35
-6 -2 5 65.29 10.26
6 2 -4 197.03 12.77
6 2 -4 181.59 13.82
-6 -2 4 194.21 11.73
-6 -2 4 206.88 17.87
6 2 -3 66.97 5.67
6 2 -3 65.78 7.02
-6 -2 3 71.45 5.54
-6 -2 3 80.37 9.03
6 2 -2 3.58 2.44
6 2 -2 4.76 3.33
-6 -2 2 4.36 3.23
-6 -2 2 3.27 4.24
6 2 -1 22.74 3.44
6 2 -1 20.52 3.99
-6 -2 1 23.84 2.64
-6 -2 1 21.48 4.78
6 2 0 59.43 3.31
6 2 0 63.6 5.19
-6 -2 0 64.93 3.16
-6 -2 0 64.85 5.78
6 2 1 7.56 1.6
6 2 1 16.49 2.99
-6 -2 -1 10.34 1.75
-6 -2 -1 12.44 3.3
-6 -2 -2 2.17 0.97
-6 -2 -2 1.65 1.09
-6 -2 -2 -0.93 2.48
-6 -2 -2 1.72 2.57
-6 -2 -3 64.39 2.18
-6 -2 -3 61.86 2.4
-6 -2 -3 73.15 5.37
-6 -2 -3 62.55 4.92
-6 -2 -4 71.17 2.74
-6 -2 -4 76.5 5.43
-6 -2 -4 74.87 5.33
-6 -2 -5 2.73 1.41
-6 -2 -5 1.56 1.04
-6 -2 -5 1.99 2.57
6 2 6 1.79 1.36
6 2 6 -0.47 2.75
-6 -2 -6 1.51 1.93
-6 -2 -6 4.47 3.03
6 2 7 0.93 1.69
6 2 7 3.44 2.99
-6 -2 -7 2.67 1.8
-6 -2 -7 3.51 3.57
6 2 8 6.74 2.75
6 2 8 6.18 3.51
-6 -2 -8 -0.02 2.27
-6 -2 -8 3.53 2.53
6 2 9 7.34 3.74
6 2 9 5.36 4.2
-6 -2 -9 6.14 2.76
-6 -2 -9 2.5 4.89
6 2 10 4.06 3.12
6 2 10 2.54 4.4
-6 -2 -10 5.3 3.09
-6 -2 -10 -1.05 5.28
6 2 11 10 4.07
6 2 11 7.67 5.3
-6 -2 -11 7.87 5.25
-6 -2 -11 12.28 6.13
6 2 12 -0.16 4.09
6 2 12 2.53 5.1
-6 -2 -12 -0.14 3.87
-6 -2 -12 7.97 6.17
6 3 -6 1.29 4.63
6 3 -6 10.71 5.44
-6 -3 6 8.46 6
-6 -3 6 15.19 7.77
6 3 -5 -0.87 4.09
6 3 -5 9.49 4.74
-6 -3 5 10.75 3.91
-6 -3 5 7.57 4.03
6 3 -4 8.87 3.72
6 3 -4 6.2 4.62
-6 -3 4 11.62 3.42
-6 -3 4 5.14 6.15
6 3 -3 16.46 4.91
6 3 -3 18.03 3.09
-6 -3 3 23.14 3.42
-6 -3 3 26.8 6.28
6 3 -2 3.85 2.16
6 3 -2 1.68 3.5
-6 -3 2 -1.44 2.16
-6 -3 2 8.76 4.16
6 3 -1 197.96 10.16
6 3 -1 187.29 8.58
-6 -3 1 196.02 7.98
-6 -3 1 208.66 14.33
6 3 0 31.79 2.93
6 3 0 36.69 4.55
-6 -3 0 37.96 2.81
-6 -3 0 39.41 5.02
6 3 1 -0.75 1.32
6 3 1 2.59 2.69
-6 -3 -1 0.54 1.17
-6 -3 -1 3.01 2.81
-6 -3 -2 27.97 0.89
-6 -3 -2 25.42 1.04
-6 -3 -2 30.93 3.99
-6 -3 -2 27.66 4.19
-6 -3 -3 129.47 8.33
-6 -3 -3 114.14 7.51
-6 -3 -4 1.28 2.7
-6 -3 -5 7.79 1.01
-6 -3 -5 7.36 1.05
-6 -3 -5 7.53 3
-6 -3 -5 5.38 3.04
6 3 6 2.54 1.41
6 3 6 7.72 3.37
-6 -3 -6 6.53 1.54
-6 -3 -6 4.83 2.02
6 3 7 86.14 4.42
6 3 7 74.78 7.37
-6 -3 -7 91.77 3.89
-6 -3 -7 71.84 8.45
6 3 8 17.06 3.02
6 3 8 13 4.46
-6 -3 -8 21.28 3.17
-6 -3 -8 11.38 3.27
6 3 9 5.67 3.12
6 3 9 2.67 4.3
-6 -3 -9 7.98 2.44
-6 -3 -9 0.94 5.02
6 3 10 -0.2 2.63
6 3 10 2.03 4.29
-6 -3 -10 1.98 3.55
-6 -3 -10 10.16 5.32
6 3 11 12.37 3.91
6 3 11 11.08 5.85
-6 -3 -11 17.63 3.8
-6 -3 -11 10 6.86
6 3 12 5.48 3.91
6 3 12 -0.79 5.45
-6 -3 -12 3.39 3.71
-6 -3 -12 5.5 6.42
6 4 -6 4.56 4.6
6 4 -6 10.4 5.57
-6 -4 6 4.75 4.61
-6 -4 6 0.38 8.15
6 4 -5 2.24 3.62
6 4 -5 -1.46 4.6
-6 -4 5 -0.99 3.46
-6 -4 5 4.8 3.87
6 4 -4 29.74 4.76
6 4 -4 32.17 4.03
-6 -4 4 30.3 5.91
-6 -4 4 30.36 8.05
6 4 -3 -0.33 2.72
6 4 -3 3.81 3.9
-6 -4 3 1.18 2.53
-6 -4 3 7.48 4.92
6 4 -2 0.21 2.88
6 4 -2 -0.52 3.52
-6 -4 2 1.02 2
-6 -4 2 -2.03 4.21
6 4 -1 28.4 3.51
6 4 -1 29.96 4.96
-6 -4 1 26.12 2.43
-6 -4 1 27.59 5.82
6 4 0 261.51 10.29
6 4 0 235.53 13.72
-6 -4 0 243.9 9.24
-6 -4 0 240.24 12.3
6 4 1 5.79 1.15
6 4 1 8.94 3.33
-6 -4 -1 7.55 1.07
-6 -4 -1 7.25 2.28
-6 -4 -2 1.98 1.91
-6 -4 -2 2.76 3.14
-6 -4 -3 5.93 3.38
-6 -4 -3 9.06 1.99
-6 -4 -4 1.2 3.07
-6 -4 -4 3.57 2.87
-6 -4 -5 28.15 3.05
-6 -4 -5 25.44 4.28
6 4 6 0.85 0.79
-6 -4 -6 0.29 0.77
-6 -4 -6 5.01 3.07
6 4 7 1.16 1.24
6 4 7 -3.54 3.27
-6 -4 -7 0.89 1.38
-6 -4 -7 -3.4 3.62
6 4 8 4.27 2.07
6 4 8 2.82 3.84
-6 -4 -8 5.42 2.25
-6 -4 -8 3.77 4.4
6 4 9 28.72 2.75
6 4 9 24.79 5.78
-6 -4 -9 31.28 3.97
-6 -4 -9 10.5 6.55
6 4 10 42.31 3.83
6 4 10 29.56 4.41
-6 -4 -10 46.36 5.34
-6 -4 -10 20.9 8.34
6 4 11 25.16 4.06
6 4 11 18.85 6.64
-6 -4 -11 27.51 4.16
-6 -4 -11 8.52 8.04
6 4 12 17.17 4.21
6 4 12 8.4 4.06
-6 -4 -12 13.4 4.02
-6 -4 -12 3.55 7.82
6 5 -5 43.99 6.15
6 5 -5 41.31 8.15
-6 -5 5 46.68 6.13
-6 -5 5 43.95 11.2
6 5 -4 73.23 6.43
6 5 -4 58.04 9.01
-6 -5 4 70.48 8.16
-6 -5 4 62.96 11.81
6 5 -3 4.33 2.81
6 5 -3 4.51 4.35
-6 -5 3 1.33 3.56
-6 -5 3 4.05 5.39
6 5 -2 5.05 2.45
6 5 -2 9.3 4.35
-6 -5 2 4.7 2.27
-6 -5 2 8.24 5.14
6 5 -1 2.51 1.83
6 5 -1 3.55 2.38
-6 -5 1 3.43 2.33
-6 -5 1 4.89 4.47
6 5 0 2.84 1.38
6 5 0 2.87 3.36
-6 -5 0 2.97 1.64
-6 -5 0 2.39 3.94
6 5 1 21.19 1.52
6 5 1 22.46 3.82
-6 -5 -1 20.04 1.17
-6 -5 -1 17.94 4.84
-6 -5 -2 7.59 3.44
-6 -5 -2 3.23 3.57
-6 -5 -3 58.04 5.97
-6 -5 -3 44.56 3.51
-6 -5 -4 2.54 3.49
-6 -5 -4 5.21 3.15
-6 -5 -5 46.2 5.51
-6 -5 -5 39.69 5.3
-6 -5 -6 11.11 2.58
-6 -5 -6 16.2 4.03
6 5 7 0.94 1.08
6 5 7 -4.79 3.81
-6 -5 -7 0.15 1.13
-6 -5 -7 5.56 3.63
6 5 8 32.59 1.98
6 5 8 31.61 5.66
-6 -5 -8 34.41 2.72
-6 -5 -8 22.56 6.32
6 5 9 21.22 2.27
6 5 9 19.05 5.51
-6 -5 -9 23.48 2.46
-6 -5 -9 12.43 6.36
6 5 10 18.68 3.51
6 5 10 9.54 5.7
-6 -5 -10 16.79 3.79
-6 -5 -10 14.7 6.82
6 5 11 46.57 4.44
6 5 11 38.2 5.28
-6 -5 -11 42.54 4.75
-6 -5 -11 31.2 9.87
6 5 12 13.51 3.74
6 5 12 8.85 6.43
-6 -5 -12 10.37 3.87
-6 -5 -12 10.55 7.73
6 6 -4 64.04 8.15
6 6 -4 65.8 9.37
-6 -6 4 65.64 8.34
-6 -6 4 54.5 12.2
6 6 -3 6.19 3.14
6 6 -3 10.22 3.27
-6 -6 3 11.14 3.18
-6 -6 3 21.13 6.48
6 6 -2 4.55 2.27
6 6 -2 0.39 4.01
-6 -6 2 -0.48 2.23
-6 -6 2 -2.64 4.85
6 6 -1 2.99 2.51
6 6 -1 0.44 3.7
-6 -6 1 2.09 1.87
-6 -6 1 -3.77 4.7
6 6 0 3.48 1.46
6 6 0 3.2 3.77
-6 -6 0 2.62 1.55
-6 -6 0 -2.84 4.17
6 6 1 42.89 2.1
6 6 1 35.99 3.26
-6 -6 -1 32.09 1.53
-6 -6 -1 36.84 5.82
-6 -6 -2 6.88 4.21
-6 -6 -2 11.17 3.66
-6 -6 -3 10.45 3.82
-6 -6 -3 6.25 3.48
-6 -6 -4 11.97 4.43
-6 -6 -4 15.83 3.92
-6 -6 -5 166.57 11.64
-6 -6 -5 129.29 10.62
-6 -6 -6 96.4 8.64
-6 -6 -6 58.85 7.71
-6 -6 -7 106.37 10.75
6 6 8 38.16 2.21
6 6 8 44.05 6.45
-6 -6 -8 27.89 4.34
6 6 9 4.43 1.51
6 6 9 6.29 4.32
-6 -6 -9 2.74 2.13
-6 -6 -9 -3.43 5.02
6 6 10 16.34 3.16
6 6 10 11.04 5.59
-6 -6 -10 13.02 3.4
-6 -6 -10 13.34 6.79
6 6 11 43.09 4.85
6 6 11 32.6 7.64
-6 -6 -11 24.81 5.14
-6 -6 -11 14.35 9.25
6 6 12 4.41 3.96
6 6 12 -1.88 5.71
-6 -6 -12 4.31 3.14
-6 -6 -12 4.51 4.4
6 7 -3 16.4 4.96
6 7 -3 10.17 5.62
-6 -7 3 17.18 3.78
-6 -7 3 11.61 7.18
6 7 -2 9.98 2.85
6 7 -2 11.12 4.75
-6 -7 2 10.37 3.62
-6 -7 2 -1.69 6.11
6 7 -1 9.19 2.37
6 7 -1 8.32 4.42
-6 -7 1 9.12 2.76
-6 -7 1 15.4 5.73
6 7 0 7.97 2.38
6 7 0 9.48 4.36
-6 -7 0 6.93 1.89
-6 -7 0 6.81 4.95
6 7 1 61.95 3.01
-6 -7 -1 44.22 7.78
-6 -7 -2 28.65 5.42
-6 -7 -2 15.57 4.7
-6 -7 -3 10.96 4.25
-6 -7 -3 6.92 3.92
-6 -7 -4 95.53 5.88
-6 -7 -4 48.46 4.92
-6 -7 -5 183.63 13.31
-6 -7 -5 132.62 11.64
-6 -7 -6 149.67 11.89
-6 -7 -6 105.76 10.98
-6 -7 -7 77.35 7.98
-6 -7 -7 46.63 8.67
6 7 8 21.16 1.45
6 7 8 27.99 3.97
-6 -7 -8 8.57 5.84
6 7 9 3.75 1.38
6 7 9 5.72 2.73
-6 -7 -9 -0.6 1.78
-6 -7 -9 2.7 5
6 7 10 12.64 2.8
6 7 10 12.48 5.19
-6 -7 -10 5.85 2.12
-6 -7 -10 16.56 6.35
6 7 11 6.89 3.24
6 7 11 7.62 5.43
-6 -7 -11 3.64 3.26
-6 -7 -11 1.76 6.76
6 7 12 10.77 3.14
6 7 12 1.82 6.27
-6 -7 -12 4.88 4.24
-6 -7 -12 7.03 7.75
6 8 -2 11.85 4.06
6 8 -2 10.7 4.96
-6 -8 2 10.74 3.58
-6 -8 2 5.89 6.53
6 8 -1 4.36 2.89
6 8 -1 -2.39 4.43
-6 -8 1 3.5 2.46
-6 -8 1 -0.38 5.55
6 8 0 3.36 2.23
6 8 0 -0.16 3.63
-6 -8 0 -0.64 1.76
-6 -8 0 2.9 4.7
-6 -8 -1 55.49 8.18
-6 -8 -1 37.42 7.66
-6 -8 -2 36.1 6.83
-6 -8 -2 26.06 5.87
-6 -8 -3 19.62 5.01
-6 -8 -3 8.89 4.59
-6 -8 -4 25.39 5.57
-6 -8 -4 21.36 5.09
-6 -8 -5 0.91 4.32
-6 -8 -5 5.29 3.77
-6 -8 -6 5.29 4.6
-6 -8 -6 9.94 4.29
-6 -8 -7 49.43 7.48
-6 -8 -7 32.46 5.02
-6 -8 -8 1.61 4.55
6 8 9 9.11 5.22
-6 -8 -9 1.79 5.34
6 8 10 5.08 4.99
-6 -8 -10 3.98 5.9
6 8 11 2.6 4.85
-6 -8 -11 -1.88 6.05
-6 -8 -12 9.35 8.11
6 9 -1 14.22 4.92
-6 -9 1 8.23 6.86
-6 -9 0 14.12 6.81
-6 -9 -1 39.81 6.91
-6 -9 -1 8.2 5.66
-6 -9 -2 37.32 5.05
-6 -9 -2 24.99 6.16
-6 -9 -3 46.99 8.87
-6 -9 -3 45.27 7.5
-6 -9 -4 15.46 5.22
-6 -9 -4 11.61 4.76
-6 -9 -5 -2.71 4.3
-6 -9 -5 3.9 2.43
-6 -9 -6 15.17 4.95
-6 -9 -6 4.18 4.76
-6 -9 -7 4.27 4.49
-6 -9 -7 4.43 3.01
-6 -9 -8 9.72 5.36
-6 -9 -8 7.97 5.33
-6 -9 -9 7.78 3.71
6 9 10 9.96 5.97
-6 -9 -10 3.61 6.42
6 9 11 -1.76 5.33
-6 -9 -11 -3.93 6.63
-6 -10 -1 10.73 5.75
-6 -10 -1 3.08 4.5
-6 -10 -2 13.92 5.6
-6 -10 -2 5.05 4.72
-6 -10 -3 20.32 5.82
-6 -10 -3 6.76 5.03
-6 -10 -4 15.57 5.59
-6 -10 -4 7.59 3.06
-6 -10 -5 8.15 2.96
-6 -10 -5 0.82 4.43
-6 -10 -6 8.15 4.81
-6 -10 -6 0.21 4.43
-6 -10 -7 1.96 4.74
-6 -10 -7 4.59 4.9
-6 -10 -8 -1.71 4.55
-6 -10 -8 3.72 4.72
-6 -10 -9 10.58 6.33
-6 -10 -9 10.36 4.08
-6 -10 -10 4.34 6.64
-6 -11 -3 15.82 5.73
-6 -11 -3 1.41 5.07
-6 -11 -4 10.55 4.89
-6 -11 -4 -5.19 4.41
-6 -11 -5 8.67 5.3
-6 -11 -5 6.29 5.03
-6 -11 -6 2.54 4.78
-6 -11 -6 1.61 4.61
-6 -11 -7 8.05 5.56
-6 -11 -7 5.56 5.4
-6 -11 -8 5.83 5.14
-6 -11 -8 -3.05 5.1
-7 8 3 -0.89 7.25
-7 8 3 9.24 5.37
-7 8 2 4.98 5.38
-7 8 1 5.96 5.3
-7 8 0 13.47 6.71
-7 8 -1 8.07 6.33
-7 8 -2 2.74 5.84
-7 8 -2 -7.4 5.8
-7 8 -3 4.47 5.95
-7 8 -3 4.96 3.88
7 -7 -5 4.23 7.23
-7 7 5 12.07 5.68
7 -7 -4 -4.76 5.72
-7 7 4 4.99 4.73
-7 7 3 1.78 2.77
-7 7 2 7.27 5.69
-7 7 2 3.23 4.82
-7 7 1 13.79 6.38
-7 7 1 17.89 5.57
-7 7 0 2.37 5.49
-7 7 0 6.8 4.84
-7 7 -1 -2.21 4.9
-7 7 -1 4.86 4.76
-7 7 -2 3.71 4.98
-7 7 -2 4.45 3.28
-7 7 -3 -4.28 4.92
-7 7 -3 2.24 5.09
-7 7 -4 14.65 3.86
-7 7 -4 13.64 6.59
-7 7 -5 13.7 5.61
-7 7 -5 0.64 6.32
7 -6 -6 1.37 6.82
7 -6 -6 3.78 4.14
-7 6 6 8.12 5.62
-7 6 6 9 4.33
7 -6 -5 1.78 3.52
7 -6 -5 0.82 3
-7 6 5 2.43 4.65
-7 6 5 4.19 4.63
7 -6 -4 -3.61 3.34
7 -6 -4 2.82 2.57
-7 6 4 4.32 2.79
-7 6 4 3.18 2.91
7 -6 -3 -1.86 6.1
7 -6 -3 11.67 2.39
-7 6 3 14.23 5.01
-7 6 3 7.1 2.82
-7 6 2 1.63 2.52
-7 6 2 1.73 2.39
-7 6 1 7.12 4.91
-7 6 1 4.59 4.33
-7 6 0 38.3 6.51
-7 6 0 23.87 6.11
-7 6 -1 49.46 7.08
-7 6 -1 37.84 7.22
-7 6 -2 24.6 5.47
-7 6 -2 6.14 5.54
-7 6 -3 21.21 6.05
-7 6 -3 25.11 6.33
-7 6 -4 2.74 4.44
-7 6 -4 5.44 4.94
-7 6 -5 -2.68 4.51
-7 6 -5 11.47 5.12
-7 6 -6 8.3 5.7
-7 6 -6 16.61 6.32
7 -5 -6 5.96 5.66
7 -5 -6 2.82 4.95
-7 5 6 -7.67 4.54
-7 5 6 1.42 4.07
7 -5 -5 5.2 6.26
7 -5 -5 11.93 3.74
-7 5 5 12.09 5.09
-7 5 5 7.49 5.67
7 -5 -4 8.29 5.12
7 -5 -4 2.69 2.81
-7 5 4 1.99 4.16
-7 5 4 0.06 3.27
7 -5 -3 2.54 5.3
7 -5 -3 9.67 2.75
-7 5 3 5.95 4.6
-7 5 3 11.68 4.24
7 -5 -2 -0.78 4.68
7 -5 -2 2.85 1.93
-7 5 2 8.27 3.79
-7 5 2 2.7 3.03
-7 5 1 7.23 2.86
-7 5 1 -0.44 2.27
-7 5 1 0.64 2.39
-7 5 0 22.36 5.29
-7 5 0 19.68 4.87
-7 5 -1 9.59 3.98
-7 5 -1 4.52 3.86
-7 5 -1 1.79 1.17
-7 5 -1 2.86 1.11
-7 5 -2 33.24 5.58
-7 5 -2 29.26 5.71
-7 5 -3 41.45 6.05
-7 5 -3 32.49 6.44
-7 5 -4 8.79 4.16
-7 5 -4 4.87 4.49
-7 5 -5 12.13 4.54
-7 5 -5 12.44 5.25
-7 5 -6 1.27 3.94
-7 5 -6 1.32 4.62
-7 5 -7 12.26 5.01
-7 5 -7 6.6 5.82
7 -4 -6 9.03 5.91
7 -4 -6 5.38 4.37
-7 4 6 4.75 4.92
-7 4 6 1.29 4.99
7 -4 -5 5.96 7.61
7 -4 -5 36.25 5.29
-7 4 5 31.64 6.35
-7 4 5 26.9 6.09
7 -4 -4 3.19 5.1
7 -4 -4 5.73 3.14
-7 4 4 10.49 4.16
-7 4 4 4.32 3.79
7 -4 -3 16.15 6.82
7 -4 -3 43.23 4.25
-7 4 3 34.01 5.88
-7 4 3 35.09 4.84
7 -4 -2 8.82 5.01
7 -4 -2 16.41 2.84
-7 4 2 14.98 4.31
-7 4 2 13.1 3.16
7 -4 -1 17.46 5.08
7 -4 -1 22.9 3.54
-7 4 1 18.79 4.36
-7 4 1 12.36 3.25
-7 4 0 15.33 3.99
-7 4 0 10.67 3.49
-7 4 0 5.86 2.68
-7 4 0 4.45 2.37
-7 4 -1 -0.76 3.27
-7 4 -1 -4.28 3.23
-7 4 -1 -0.88 1.32
-7 4 -1 0.05 1.63
-7 4 -2 1.57 3.27
-7 4 -2 -0.66 3.3
-7 4 -2 5.24 1.81
-7 4 -2 1.85 1.72
-7 4 -3 16.64 4.09
-7 4 -3 20.92 4.51
-7 4 -4 16.01 3.53
-7 4 -4 6.85 3.83
-7 4 -4 2.55 1.72
-7 4 -4 2.42 2.08
-7 4 -5 37.42 5.28
-7 4 -5 36.11 6.11
-7 4 -6 25.22 4.94
-7 4 -6 22.38 5.69
-7 4 -7 11.02 4.22
-7 4 -7 4 3.39
7 -4 8 0.9 5.4
-7 4 -8 -2.64 4.21
7 -3 -7 26.17 8.49
7 -3 -7 24.06 6.8
-7 3 7 26.28 7.18
-7 3 7 15.19 8.12
7 -3 -6 -0.08 5.43
7 -3 -6 4.64 4.28
-7 3 6 1.46 4.53
-7 3 6 -2.89 4.84
7 -3 -5 2.32 5.19
7 -3 -5 5.7 4.03
-7 3 5 -1.17 4.39
-7 3 5 10.56 4.72
7 -3 -4 9.86 5.35
7 -3 -4 12.31 4.9
-7 3 4 11.9 4.65
-7 3 4 11.4 4.56
7 -3 -3 8.77 4.52
7 -3 -3 8.62 3.2
-7 3 3 10.52 3.89
-7 3 3 6.12 4.22
7 -3 -2 10.53 5.1
7 -3 -2 21.97 3.51
-7 3 2 24.05 4.42
-7 3 2 30.53 5.46
7 -3 -1 3.6 4.4
7 -3 -1 20.41 2.75
-7 3 1 18.86 3.71
-7 3 1 16.66 3.17
-7 3 0 13.94 3.36
-7 3 0 6.51 3.3
-7 3 -1 33.96 4.07
-7 3 -1 13.49 2.74
-7 3 -2 -1.34 2.85
-7 3 -2 8.8 2.88
-7 3 -2 1 1.62
-7 3 -2 3.26 2.01
-7 3 -3 7.95 2.4
-7 3 -3 4.94 2.55
-7 3 -4 7.57 2.52
-7 3 -4 3.53 2.96
-7 3 -5 2.13 2.94
-7 3 -5 1.3 3.28
-7 3 -5 2.41 2.27
-7 3 -5 1.42 2.98
-7 3 -6 6.75 3.09
-7 3 -6 7.36 3.66
7 -3 7 44.06 6.74
-7 3 -7 34.48 5.41
7 -3 8 -5.15 4.25
7 -3 8 2.22 2.41
-7 3 -8 5.28 3.04
7 -3 9 4.45 4.78
7 -3 9 1.96 2.77
-7 3 -9 0.63 4.22
-7 3 -9 -0.49 4.79
7 -2 -7 4.67 7.71
7 -2 -7 25.34 6.91
-7 2 7 17.87 6.67
-7 2 7 30.22 7.88
7 -2 -6 8.53 6.94
7 -2 -6 27.93 6.02
-7 2 6 18.28 5.84
-7 2 6 14.45 7.15
7 -2 -5 3.65 4.75
7 -2 -5 3.99 4.02
-7 2 5 -1.02 4.08
-7 2 5 3.08 4.77
7 -2 -4 -6.43 4.15
7 -2 -4 0.77 3.26
-7 2 4 3.26 3.55
-7 2 4 6.97 4.58
7 -2 -3 0.09 4.26
7 -2 -3 13.31 3.31
-7 2 3 8.34 3.81
-7 2 3 11.04 4.24
7 -2 -2 0.54 3.59
7 -2 -2 4.78 2.83
-7 2 2 5.6 3.1
-7 2 2 12.34 3.51
7 -2 -1 0.52 3.04
7 -2 -1 6.63 3.19
-7 2 1 0.74 2.8
-7 2 1 2.17 3.82
7 -2 0 22.06 4.69
7 -2 0 41.57 3.86
-7 2 0 38.95 4.16
-7 2 0 40.05 4.29
-7 2 -1 47.57 5.61
-7 2 -1 41.81 4.1
-7 2 -2 18.24 2.81
-7 2 -2 14.76 2.85
-7 2 -2 4.39 2.98
-7 2 -2 1.5 2.93
-7 2 -3 0.27 2.16
-7 2 -3 3.55 2.38
-7 2 -3 0.64 1.71
-7 2 -3 -0.53 2.18
-7 2 -4 9.41 2.45
-7 2 -4 5.87 2.58
-7 2 -4 0.41 1.96
-7 2 -4 0.19 2.07
-7 2 -5 12.92 2.81
-7 2 -5 10.45 3.12
-7 2 -5 3.53 2.14
-7 2 -5 5.22 3.51
-7 2 -6 6.75 2.96
-7 2 -6 6.71 3.12
-7 2 -6 1.44 2.05
-7 2 -6 4.5 2.98
7 -2 7 11.17 3.57
7 -2 7 3.38 2.74
-7 2 -7 9.26 3.27
-7 2 -7 1.1 3.37
7 -2 8 2.56 3.79
7 -2 8 2.9 2.65
-7 2 -8 3.82 3.55
-7 2 -8 3.58 3.48
7 -2 9 10.64 4.45
7 -2 9 5.65 3.32
-7 2 -9 2.96 4.05
-7 2 -9 3.35 3.95
7 -2 10 11.28 4.87
7 -2 10 -1.04 3.85
-7 2 -10 5.78 4.46
-7 2 -10 0.42 4.46
7 -1 -6 1.41 5.11
7 -1 -6 4.07 3.06
-7 1 6 4.89 4.51
-7 1 6 -0.24 6
7 -1 -5 -1.89 4.35
7 -1 -5 1.53 4.19
-7 1 5 5.99 3.89
-7 1 5 -2.99 5.01
7 -1 -4 0.52 4.25
7 -1 -4 7.83 3.73
-7 1 4 9.38 5.05
-7 1 4 4.45 4.99
7 -1 -3 39.87 6.11
7 -1 -3 47.67 5.19
-7 1 3 40.58 5.16
-7 1 3 43.34 6.93
7 -1 -2 7.41 4.04
7 -1 -2 19.11 3.63
-7 1 2 21.25 3.67
-7 1 2 20.05 4.39
7 -1 -1 75.14 5.64
-7 1 1 67.23 6.94
-7 1 1 81.45 6.75
7 -1 0 157.93 8.65
-7 1 0 161.87 8.86
-7 1 0 160.26 10.28
-7 1 -1 39.9 3.5
-7 1 -1 23.37 3.17
-7 1 -1 25.48 3.76
-7 1 -2 39.9 3.1
-7 1 -2 37.15 4.24
-7 1 -2 31.61 3.64
-7 1 -3 103.72 5.01
-7 1 -3 94.92 5.27
-7 1 -3 84.6 5.6
-7 1 -4 3.08 2.01
-7 1 -4 7.32 2.11
-7 1 -4 2.43 2.93
-7 1 -4 1.55 2.86
-7 1 -5 7.81 3.23
-7 1 -5 8.85 2.87
-7 1 -6 30.02 3.36
-7 1 -6 5.34 4
7 -1 7 -2.34 2.71
-7 1 -7 12.99 3.74
-7 1 -7 2.33 3.58
7 -1 8 19.51 4.99
7 -1 8 2.45 3.34
-7 1 -8 16.73 3.55
-7 1 -8 2.32 4.29
7 -1 9 21.6 4.57
7 -1 9 12.81 4.23
-7 1 -9 21.23 4.25
-7 1 -9 -2.18 4.93
7 -1 10 8.97 4.38
7 -1 10 -1.35 4.09
-7 1 -10 6.6 4.26
-7 1 -10 1.44 4.84
7 0 -6 3.97 4.78
7 0 -6 6.69 5.15
-7 0 6 -2.1 4.44
-7 0 6 8.21 6.14
7 0 -5 -0.14 4
7 0 -5 5.94 4.11
-7 0 5 5.18 4.97
-7 0 5 -2.94 3.69
7 0 -4 14.64 5.08
7 0 -4 23.09 5
-7 0 4 24.71 4.55
-7 0 4 18.41 6.6
7 0 -3 92.96 5.51
-7 0 3 99.92 7.48
-7 0 3 112.58 10.32
7 0 -2 14.7 4.02
7 0 -2 22.46 4.11
-7 0 2 25.35 4.69
-7 0 2 20.9 5.08
7 0 -1 15.79 5.09
7 0 -1 37.52 4.29
-7 0 1 33.53 3.71
-7 0 1 34.11 5.4
7 0 0 35.07 3.99
-7 0 0 32.08 4.37
-7 0 0 36.51 4.84
-7 0 -1 5.12 1.91
-7 0 -1 1.07 2.81
-7 0 -2 51.25 2.87
-7 0 -2 40.72 3.77
-7 0 -2 39.07 4.5
-7 0 -2 37.51 4.19
-7 0 -3 94.18 4.08
-7 0 -3 88.64 5.47
-7 0 -3 98.97 7.59
-7 0 -4 6.5 1.65
-7 0 -4 2.56 2.42
-7 0 -4 3.56 2.5
-7 0 -4 3.34 2.38
-7 0 -5 1.98 2.2
-7 0 -5 -0.5 1.75
-7 0 -5 -0.73 2.16
-7 0 -5 3.68 2.56
-7 0 -6 0.17 2.65
-7 0 -6 3.47 2.87
7 0 7 6.53 3.35
-7 0 -7 7.93 4.03
7 0 8 124.02 8.35
-7 0 -8 132.67 8.6
7 0 9 14.7 5
-7 0 -9 13.08 5.83
7 0 10 5.54 5.23
7 0 10 3.62 4.43
-7 0 -10 8.59 3.94
-7 0 -10 7.78 5.02
7 0 11 7.97 4.27
7 0 11 6.14 6.3
-7 0 -11 0.33 4.22
-7 0 -11 -2.29 5.43
7 1 -6 21.19 5.98
7 1 -6 19.1 6.42
-7 -1 6 16.92 5.4
-7 -1 6 17.68 8.28
7 1 -5 -1.05 4.38
7 1 -5 6.67 4.78
-7 -1 5 9.16 4.04
-7 -1 5 9.9 6.79
7 1 -4 24.9 5.47
7 1 -4 32.21 6.12
-7 -1 4 33.66 5.08
-7 -1 4 43.65 7.96
7 1 -3 12.63 3.98
7 1 -3 16.73 4.66
-7 -1 3 19.69 3.77
-7 -1 3 12.23 5.8
7 1 -2 9.13 3.55
7 1 -2 16.34 4.31
-7 -1 2 18.95 3.33
-7 -1 2 28.61 5.3
7 1 -1 22.2 4.27
-7 -1 1 21.77 3
-7 -1 1 19.49 5.18
7 1 0 1.15 2.42
7 1 0 -0.45 2.66
-7 -1 0 1.54 2.44
-7 -1 0 2.46 3.19
7 1 1 -1.35 1.95
7 1 1 0.29 2.5
-7 -1 -1 4.46 1.51
-7 -1 -1 1.72 1.86
-7 -1 -2 66.92 3.48
-7 -1 -2 53.77 3.83
-7 -1 -2 66.04 5.78
-7 -1 -2 51.21 5.18
-7 -1 -3 59.88 3.03
-7 -1 -3 49.49 3.32
-7 -1 -3 53.95 5.03
-7 -1 -3 58.01 5.08
-7 -1 -4 37.78 2.06
-7 -1 -4 30.01 2.23
-7 -1 -4 35.37 4.33
-7 -1 -4 23.18 4.03
-7 -1 -5 19.21 3.53
-7 -1 -5 14.14 3.63
-7 -1 -6 14.74 2.1
-7 -1 -6 8.44 2.04
-7 -1 -6 8.61 3.65
7 1 7 1.22 2.08
7 1 7 3.9 3.34
-7 -1 -7 5.62 2.13
-7 -1 -7 3.15 3.6
7 1 8 23.07 5.05
-7 -1 -8 19.67 6.02
7 1 9 96.85 7.13
-7 -1 -9 110.95 9.5
7 1 10 -2.18 4.5
-7 -1 -10 -3.38 5.21
7 1 11 2.04 5.43
7 1 11 8.51 5.09
-7 -1 -11 8.55 3.96
-7 -1 -11 2.94 5.8
7 2 -6 9.82 7.92
7 2 -6 24.1 6.81
-7 -2 6 22.61 5.5
-7 -2 6 17.24 9.06
7 2 -5 26.92 6.28
7 2 -5 36.52 7.31
-7 -2 5 39.02 5.78
-7 -2 5 55.25 9.51
7 2 -4 12.34 4.49
7 2 -4 25.22 5.52
-7 -2 4 16.7 4.2
-7 -2 4 19.42 4.5
7 2 -3 10.84 3.63
7 2 -3 10.08 4.78
-7 -2 3 10.46 4.5
-7 -2 3 13.36 5.7
7 2 -2 37.52 4.58
7 2 -2 50.53 6.06
-7 -2 2 53.38 5.46
-7 -2 2 43.7 7.64
7 2 -1 268.13 16.89
-7 -2 1 288.06 14.89
-7 -2 1 317.11 20.72
7 2 0 27.4 4.42
-7 -2 0 30.38 2.64
-7 -2 0 36.06 5.3
7 2 1 0.04 1.68
7 2 1 9.96 3.05
-7 -2 -1 6.24 1.88
-7 -2 -1 -1.2 3.35
-7 -2 -2 34.35 2
-7 -2 -2 28.33 2.31
-7 -2 -2 31.65 4.71
-7 -2 -2 27.31 4.65
-7 -2 -3 92.25 3.29
-7 -2 -3 107.11 7.32
-7 -2 -3 80.22 6.92
-7 -2 -4 267.18 9.1
-7 -2 -4 265.79 15.38
-7 -2 -5 290.9 10.66
-7 -2 -5 230.81 9.28
-7 -2 -5 303.29 16.26
-7 -2 -5 240.76 15.2
-7 -2 -6 55.55 3.35
-7 -2 -6 43.39 3.25
-7 -2 -6 41.52 5.24
-7 -2 -6 40.53 5.85
7 2 7 12.47 2.02
7 2 7 9.03 4.29
-7 -2 -7 14.59 2.09
-7 -2 -7 4.24 4.21
7 2 8 61.58 4.92
7 2 8 33.76 6.72
7 2 9 33.73 3.57
7 2 9 19.63 5.85
-7 -2 -9 14.8 6.76
7 2 10 11.67 3.25
7 2 10 3.1 5.17
-7 -2 -10 14.55 3.36
-7 -2 -10 3.71 6.02
7 2 11 3.32 3.47
7 2 11 8.65 5.31
-7 -2 -11 11.3 3.58
-7 -2 -11 -1.59 6.06
7 2 12 10.16 5.11
7 2 12 2.85 5.57
-7 -2 -12 0.31 3.92
-7 -2 -12 3.01 6.37
7 3 -5 15.99 4.62
7 3 -5 11.08 3.74
-7 -3 5 12.56 8.16
7 3 -4 6.49 3.4
7 3 -4 -1.66 4.64
-7 -3 4 0.12 3.22
-7 -3 4 2.97 5.93
7 3 -3 2.57 3.8
7 3 -3 -1.8 2.56
-7 -3 3 4.03 2.6
-7 -3 3 1.34 5.16
7 3 -2 48.89 6.42
7 3 -2 65.24 7.6
-7 -3 2 71.01 4.6
-7 -3 2 65.09 8.84
7 3 -1 23.72 3
7 3 -1 34.63 5.1
-7 -3 1 29.95 3.6
-7 -3 1 27.26 6.17
7 3 0 47.57 3.62
-7 -3 0 51.77 2.89
-7 -3 0 51.19 6.82
7 3 1 88.3 7.19
-7 -3 -1 78.68 3.65
-7 -3 -1 85.51 8
-7 -3 -2 15.05 1.03
-7 -3 -2 14.62 1.53
-7 -3 -2 22.29 4.38
-7 -3 -2 20.32 4.13
-7 -3 -3 54.06 5.69
-7 -3 -3 46.34 5.41
-7 -3 -4 281.3 14.1
-7 -3 -4 269.35 16.75
-7 -3 -5 287.79 18.3
-7 -3 -5 286.52 17.82
-7 -3 -6 16.23 1.68
-7 -3 -6 13.31 1.45
-7 -3 -6 15.4 4.33
-7 -3 -6 10.79 4.12
7 3 7 25.48 2.37
-7 -3 -7 25.4 2.51
-7 -3 -7 12.14 5.18
7 3 8 33.03 2.59
7 3 8 23.67 3.73
-7 -3 -8 37.93 2.75
7 3 9 21.41 2.65
7 3 9 8.59 3.36
-7 -3 -9 25 3.66
-7 -3 -9 14.73 5.96
7 3 10 9.89 5.42
-7 -3 -10 11.73 6.35
7 3 11 10.21 3.28
7 3 11 10.09 5.77
-7 -3 -11 11 3.35
-7 -3 -11 1.21 6.66
7 3 12 -1.36 3.4
7 3 12 -6.98 5.19
-7 -3 -12 4.42 3.23
-7 -3 -12 -3.48 6.1
7 4 -5 52.51 7.28
7 4 -5 51 9.64
-7 -4 5 60.09 6.74
-7 -4 5 60.8 12.84
7 4 -4 8.88 3.69
7 4 -4 10.76 5.42
-7 -4 4 6.36 4.7
-7 -4 4 2.18 6.97
7 4 -3 2.94 3.88
7 4 -3 3.14 4.82
-7 -4 3 3.88 2.75
-7 -4 3 9.22 5.81
7 4 -2 24.51 3.41
7 4 -2 35.35 6.12
-7 -4 2 29.87 3.23
-7 -4 2 29.8 7.12
7 4 -1 75.89 6.2
7 4 -1 87.33 8.61
-7 -4 1 94.82 4.55
-7 -4 1 89.53 10.33
7 4 0 64.38 7.07
-7 -4 0 72.13 3.07
-7 -4 0 72.17 8.56
7 4 1 96.6 8
-7 -4 -1 109.86 3.75
-7 -4 -1 116.41 10.39
-7 -4 -2 174.65 13.11
-7 -4 -2 160.23 12
-7 -4 -3 8.66 3.84
-7 -4 -3 5.07 3.58
-7 -4 -4 169.87 12.14
-7 -4 -4 139.65 10.91
-7 -4 -5 141.38 11.12
-7 -4 -5 122.35 10.2
-7 -4 -6 95.84 8.28
-7 -4 -6 53.56 7.19
-7 -4 -7 19.78 1.47
-7 -4 -7 2.55 4.93
7 4 8 6.09 1.8
7 4 8 1.23 4.19
-7 -4 -8 5.94 1.91
-7 -4 -8 2.68 4.48
7 4 9 15.33 2.69
7 4 9 9.78 4.92
-7 -4 -9 10.68 2.9
-7 -4 -9 8.27 5.66
7 4 10 24.17 2.88
7 4 10 5.48 6.4
-7 -4 -10 27.56 4.11
7 4 11 20.89 4.37
7 4 11 8.94 3.84
-7 -4 -11 16.95 3.35
-7 -4 -11 1.76 4.44
7 4 12 4.94 3.3
7 4 12 4.02 5.77
-7 -4 -12 0.95 3.2
-7 -4 -12 0.87 6.87
7 5 -4 26.98 4.66
7 5 -4 12.31 7.28
-7 -5 4 21.28 5.83
-7 -5 4 18.35 8.97
7 5 -3 12.67 5.08
7 5 -3 13.85 6.31
-7 -5 3 21.86 4.67
-7 -5 3 24.58 7.6
7 5 -2 16.8 3.34
7 5 -2 22.06 5.75
-7 -5 2 25.92 3.98
-7 -5 2 23.33 4.49
7 5 -1 30.28 2.85
7 5 -1 26.64 5.93
-7 -5 1 34.7 2.72
-7 -5 1 28.74 7.24
7 5 0 153.57 7.51
7 5 0 181.74 13.15
-7 -5 0 179.66 14.82
7 5 1 207.28 6.16
7 5 1 228.97 14.45
-7 -5 -1 229.36 6.68
-7 -5 -1 247.69 17.7
-7 -5 -2 21.53 5.47
-7 -5 -2 19.08 5.07
-7 -5 -3 96.4 8.44
-7 -5 -3 70.48 7.49
-7 -5 -4 69.56 7.41
-7 -5 -4 51.07 6.57
-7 -5 -5 19.86 5.16
-7 -5 -5 20 4.63
-7 -5 -6 26.01 5.28
-7 -5 -6 20.73 5.01
-7 -5 -7 54.55 6.68
-7 -5 -7 42.4 7.02
7 5 8 1.9 1.18
-7 -5 -8 0.93 1.08
-7 -5 -8 7.03 4.13
7 5 9 2.53 1.78
7 5 9 3.62 2.72
-7 -5 -9 0.83 1.9
-7 -5 -9 2.19 4.81
7 5 10 17.63 3.14
7 5 10 10.38 5.86
-7 -5 -10 16.33 3.2
-7 -5 -10 -1.99 6.56
7 5 11 4.43 2.62
7 5 11 9.61 5.59
-7 -5 -11 8.27 2.66
-7 -5 -11 0.03 6.75
7 5 12 9.27 4.17
7 5 12 -0.35 3.89
-7 -5 -12 8.2 3.15
-7 -5 -12 2.8 7.4
7 6 -3 43.01 4.91
7 6 -3 43.77 8.15
-7 -6 3 43.18 6.22
-7 -6 3 48.95 10.13
7 6 -2 59.86 5.01
7 6 -2 67.55 8.69
-7 -6 2 66.28 4.72
-7 -6 2 48.86 10.86
7 6 -1 38.97 4.24
7 6 -1 38.69 6.75
-7 -6 1 40.39 3.6
-7 -6 1 37.38 8.44
7 6 0 157.28 6
7 6 0 171.4 13.24
-7 -6 0 145.63 5.67
-7 -6 0 159.32 15
7 6 1 173.58 4.86
-7 -6 -1 176.61 15.62
-7 -6 -2 155.07 12.32
-7 -6 -2 105.57 10.7
-7 -6 -3 4.53 3.99
-7 -6 -3 0.59 2.24
-7 -6 -4 9.48 4.25
-7 -6 -4 1.11 3.79
-7 -6 -5 -0.92 4.44
-7 -6 -5 5.67 3.8
-7 -6 -6 99.7 9.75
-7 -6 -6 80.19 8.49
-7 -6 -7 96.06 10.13
-7 -6 -7 62.87 9.32
-7 -6 -8 9.15 5.28
7 6 9 7.18 1.47
7 6 9 9.43 5.53
-7 -6 -9 6.81 1.4
-7 -6 -9 2.69 5.39
7 6 10 -3.48 4.92
-7 -6 -10 3.76 2
-7 -6 -10 -1.92 5.67
7 6 11 11.68 3.41
7 6 11 11.79 6.37
-7 -6 -11 14.73 2.45
-7 -6 -11 10.8 7.52
7 6 12 5.23 6.42
-7 -6 -12 10.04 7.98
7 7 -2 23.88 3.5
7 7 -2 26.89 4.16
-7 -7 2 19.82 3.84
-7 -7 2 16.89 8.29
7 7 -1 20.59 3.57
7 7 -1 24.82 6.14
-7 -7 1 16.66 2.81
-7 -7 1 11.6 7.61
7 7 0 28.14 2.91
7 7 0 31.92 5.89
-7 -7 0 30.87 7.44
-7 -7 -1 22.62 4.08
-7 -7 -2 21.9 6.12
-7 -7 -2 17.38 5.35
-7 -7 -3 41.41 6.86
-7 -7 -3 21.58 5.75
-7 -7 -4 2.74 2.64
-7 -7 -4 2.53 3.85
-7 -7 -5 10.69 4.91
-7 -7 -5 1.42 4.17
-7 -7 -6 5.23 2.93
-7 -7 -6 4.3 4.25
-7 -7 -7 20.09 5.61
-7 -7 -7 16.75 5.51
-7 -7 -8 7.5 4.8
-7 -7 -8 6.44 5.33
-7 -7 -9 12.76 5.91
7 7 10 12.17 5.37
-7 -7 -10 -1.05 6.21
7 7 11 4.89 5.32
-7 -7 -11 -3.44 6.27
7 8 -1 5.31 5.27
-7 -8 0 7.08 3.7
-7 -8 -1 2.85 4.84
-7 -8 -1 -3.58 4.53
-7 -8 -2 15.29 6.06
-7 -8 -2 13.99 5.37
-7 -8 -3 53.81 8.02
-7 -8 -3 29.04 6.89
-7 -8 -4 5.04 4.61
-7 -8 -4 3.96 4.24
-7 -8 -5 4.9 4.41
-7 -8 -5 -1.56 3.9
-7 -8 -6 4.21 4.94
-7 -8 -6 4.4 4.29
-7 -8 -7 10.85 4.77
-7 -8 -7 -0.28 4.87
-7 -8 -8 39.17 7.56
-7 -8 -8 24.97 7.38
-7 -8 -9 17.1 6.11
-7 -8 -9 18.43 6.77
-7 -8 -10 8.69 6.59
7 8 11 1.13 5.42
-7 -8 -11 2.65 3.97
-7 -9 0 6.03 6.61
-7 -9 -1 8.13 6.03
-7 -9 -1 5.55 4.96
-7 -9 -2 16.75 6.35
-7 -9 -2 10.75 5.39
-7 -9 -3 10.89 3.97
-7 -9 -3 11.3 3.33
-7 -9 -4 14.69 5.77
-7 -9 -4 7.56 5.23
-7 -9 -5 10.65 3.51
-7 -9 -5 9.3 5.05
-7 -9 -6 8.56 5.26
-7 -9 -6 4.99 4.73
-7 -9 -7 3.18 5.47
-7 -9 -7 10.2 5.05
-7 -9 -8 11.31 3.57
-7 -9 -8 6.97 5.91
-7 -9 -9 3.02 5.72
-7 -9 -9 12.47 6.03
-7 -9 -10 2.36 3.03
-7 -9 -10 -2.21 5.93
-7 -10 -2 -1.7 5.68
-7 -10 -2 6.66 4.62
-7 -10 -3 12.31 6.63
-7 -10 -3 15.93 5.6
-7 -10 -4 2.08 5.83
-7 -10 -4 8.72 4.91
-7 -10 -5 11.21 5.47
-7 -10 -5 1.94 5.01
-7 -10 -6 4.18 4.94
-7 -10 -6 -1.25 4.48
-7 -10 -7 -0.97 5.02
-7 -10 -7 2.84 4.5
-7 -10 -8 0.12 5.02
-7 -10 -8 0.04 5.16
-7 -10 -9 -2.61 4.94
-7 -10 -9 2.99 5.41
-8 7 2 22.64 4.6
-8 7 2 10.77 6.22
-8 7 1 13.02 5.85
-8 7 0 11.61 5.7
-8 7 -1 14.11 6.54
-8 7 -2 -1.05 5.1
-8 7 -3 19.07 6.66
-8 7 -3 7.96 6.68
8 -6 -4 9.05 6.57
-8 6 4 7.97 5.32
8 -6 -3 1.11 5.71
-8 6 3 4.39 4.77
-8 6 2 28.31 7.37
-8 6 2 10.72 3.44
-8 6 1 42.1 7.01
-8 6 1 7.24 6.08
-8 6 0 30.56 7.1
-8 6 0 23.63 6.3
-8 6 -1 6.67 4.92
-8 6 -1 3.14 4.75
-8 6 -2 4.26 4.69
-8 6 -2 1.59 4.69
-8 6 -3 4.47 3.37
-8 6 -3 7.96 3.34
-8 6 -4 26.71 6.28
-8 6 -4 13.81 6.84
-8 6 -5 14.57 5.7
-8 6 -5 8.47 6.11
8 -5 -4 4.38 5.61
8 -5 -4 5.97 3.41
-8 5 4 4.91 4.57
-8 5 4 -2.79 3.8
8 -5 -3 4.76 6.34
8 -5 -3 14.7 4.56
-8 5 3 14.07 5.29
-8 5 3 15.66 3.89
8 -5 -2 9.34 6.05
8 -5 -2 14.09 3.95
-8 5 2 17.89 5.08
-8 5 2 7.81 4.24
-8 5 1 35.01 6.33
-8 5 1 16.97 5.04
-8 5 1 9.97 3.01
-8 5 1 10.95 3.12
-8 5 0 39.22 5.99
-8 5 0 18.05 3.59
-8 5 -1 46.08 6.73
-8 5 -1 30.19 6.5
-8 5 -2 2.13 4.48
-8 5 -2 9.04 4.34
-8 5 -3 16.08 4.73
-8 5 -3 3.97 4.81
-8 5 -4 16.16 4.99
-8 5 -4 11.87 5.39
-8 5 -5 3.64 4.2
-8 5 -5 4.06 4.7
-8 5 -6 10.29 5.01
-8 5 -6 14.15 5.66
8 -4 -5 13.88 6.99
8 -4 -5 15.43 6.4
-8 4 5 24.2 5.74
-8 4 5 8.51 5.89
8 -4 -4 2.1 6.99
8 -4 -4 33.59 6.41
-8 4 4 27 6.03
-8 4 4 23.31 5.44
8 -4 -3 19.58 6.89
8 -4 -3 32.44 4.76
-8 4 3 25.31 5.8
-8 4 3 24.95 5.15
8 -4 -2 1.91 4.17
8 -4 -2 -0.79 3.21
-8 4 2 0.14 2.74
-8 4 1 7.41 3.83
-8 4 1 3.51 3.11
-8 4 0 45 6.19
-8 4 0 36.24 4.47
-8 4 -1 19.42 4.1
-8 4 -1 6.44 3.06
-8 4 -1 8.67 2.58
-8 4 -2 5.09 3.62
-8 4 -2 8.45 3.66
-8 4 -2 3.53 2.23
-8 4 -2 -0.16 2.07
-8 4 -3 11.46 3.69
-8 4 -3 9.32 4
-8 4 -3 4.89 2.27
-8 4 -4 11.93 3.63
-8 4 -4 5.7 4.01
-8 4 -4 1.29 1.78
-8 4 -4 5.18 2.34
-8 4 -5 12.32 4.33
-8 4 -5 18.18 4.8
-8 4 -6 29.2 5.25
-8 4 -6 21.4 5.84
-8 4 -7 8.7 4.41
-8 4 -7 7.04 4.85
8 -3 -5 -0.79 6.12
8 -3 -5 9.34 4.58
-8 3 5 7.93 5.08
-8 3 5 12.72 5.65
8 -3 -4 9.46 7.56
8 -3 -4 41.78 5.82
-8 3 4 40.22 6.29
-8 3 4 32.66 6.75
8 -3 -3 13.72 7.09
8 -3 -3 45.4 5.57
-8 3 3 35.63 6.02
-8 3 3 42.13 6.95
8 -3 -2 4.13 4.12
8 -3 -2 4.77 3.92
-8 3 2 1.87 3.38
-8 3 2 2.07 3.5
8 -3 -1 4 4.42
8 -3 -1 15.05 3.2
-8 3 1 10.35 3.8
-8 3 1 3.86 3.46
-8 3 0 20.58 4.17
-8 3 0 16.01 3.86
-8 3 -1 25.32 4.1
-8 3 -1 13.12 3.18
-8 3 -1 12.05 3.62
-8 3 -2 20.81 3.8
-8 3 -2 9.68 3.21
-8 3 -2 3.83 3
-8 3 -3 3.09 2.98
-8 3 -3 7.39 3.25
-8 3 -3 4.34 2.49
-8 3 -3 4.86 2.58
-8 3 -4 6.7 3.02
-8 3 -4 2.75 4.33
-8 3 -4 1.26 1.91
-8 3 -4 2.19 2.62
-8 3 -5 13.63 3.75
-8 3 -5 3.17 2.77
-8 3 -5 2.95 2.48
-8 3 -6 8.64 3.4
-8 3 -6 3.79 4.09
-8 3 -7 17.9 4.12
-8 3 -7 17.56 4.55
-8 3 -7 5.79 3.32
-8 3 -7 3.54 4.44
-8 3 -8 2.96 4.17
-8 3 -8 11.88 4.46
-8 3 -8 5.28 3.37
8 -2 -5 5.41 6.27
8 -2 -5 20.08 5.19
-8 2 5 10.39 5.23
-8 2 5 20.21 6.44
8 -2 -4 67.99 7.59
-8 2 4 60.01 7.92
-8 2 4 87.18 10.44
8 -2 -3 44.03 8.06
8 -2 -3 67.89 6.73
-8 2 3 51.44 6.72
-8 2 3 65.12 8.28
8 -2 -2 0.67 3.59
8 -2 -2 2.29 2.93
-8 2 2 4.75 4.13
-8 2 2 -4.01 3.56
8 -2 -1 1.49 3.77
8 -2 -1 3.52 4.05
-8 2 1 10.67 3.29
-8 2 1 15.15 3.66
-8 2 0 5.02 2.97
-8 2 0 5.34 4.39
-8 2 -1 19.93 3.34
-8 2 -1 12.97 3.36
-8 2 -1 4.52 3.02
-8 2 -2 58.22 6.16
-8 2 -2 88.32 5.73
-8 2 -3 12.8 3.11
-8 2 -3 4.53 3.33
-8 2 -3 5.78 2.36
-8 2 -4 1.48 2.46
-8 2 -4 3.25 2.64
-8 2 -4 1.42 2.68
-8 2 -4 1.64 2.16
-8 2 -5 9.16 2.95
-8 2 -5 4.15 3.12
-8 2 -5 -1.75 3.35
-8 2 -6 4.73 3.96
-8 2 -6 9.72 3.62
-8 2 -7 4.84 2.92
-8 2 -7 3.7 3.66
-8 2 -8 2.91 3.69
8 -2 9 9.18 4.74
8 -2 9 3.43 3.45
-8 2 -9 4.97 3.85
-8 2 -9 1.35 5.73
8 -1 -5 9.39 5.92
8 -1 -5 13.18 5.32
-8 1 5 15.55 5.13
-8 1 5 13.82 6.77
8 -1 -4 14.19 6.75
8 -1 -4 39.36 6.06
-8 1 4 37.53 5.89
-8 1 4 42.9 8.65
8 -1 -3 13.49 5.48
8 -1 -3 24.46 5.12
-8 1 3 30.07 4.84
-8 1 3 33.29 6.58
8 -1 -2 38.77 4.96
-8 1 2 23.8 4.37
-8 1 2 19.7 5.7
8 -1 -1 4.89 3.34
8 -1 -1 9.93 3.22
-8 1 1 9.22 2.98
-8 1 1 3.3 3.97
8 -1 0 -2.22 2.77
8 -1 0 6.83 3.04
-8 1 0 4.9 3.37
-8 1 0 9.41 4.73
-8 1 -1 48.57 5.79
-8 1 -1 72.47 6.07
-8 1 -1 36.27 5.83
-8 1 -2 123.54 8.09
-8 1 -2 83.18 8.91
-8 1 -3 74.54 5.33
-8 1 -3 53.51 6.05
-8 1 -4 15.04 2.72
-8 1 -4 8.44 2.9
-8 1 -4 2.21 2.79
-8 1 -5 24.87 3.76
-8 1 -5 6.75 4.98
-8 1 -6 13.85 2.76
-8 1 -6 9.15 2.76
-8 1 -6 1.84 2.67
-8 1 -6 -0.54 3.25
-8 1 -7 26.65 3.66
-8 1 -7 20.51 3.83
-8 1 -8 63.1 6.4
-8 1 -8 10.66 6.27
8 -1 9 10.86 4.05
8 -1 9 1.73 3.75
-8 1 -9 16.88 3.73
-8 1 -9 5.94 6.48
8 -1 10 7 4.1
8 -1 10 1.17 3.92
-8 1 -10 4.15 3.78
-8 1 -10 -1.11 4.91
8 0 -5 3.12 4.87
8 0 -5 7.91 4.77
-8 0 5 3.72 4.28
-8 0 5 -1.66 6.88
8 0 -4 3.01 4.55
8 0 -4 10.04 4.6
-8 0 4 7.59 4.06
-8 0 4 9.83 6
8 0 -3 53.19 6.94
-8 0 3 48.97 7.82
-8 0 3 57.22 8.97
8 0 -2 63.21 6.91
-8 0 2 55.24 5.76
-8 0 2 61.05 8.49
8 0 -1 2.85 3.18
8 0 -1 19.19 3.78
-8 0 1 10.1 4
-8 0 1 12.45 4.65
8 0 0 3.04 2.75
8 0 0 15.45 3.63
-8 0 0 8.93 3.5
-8 0 0 17.04 4.31
-8 0 -1 7.75 3.11
-8 0 -1 10.49 3.78
-8 0 -2 186.94 8.31
-8 0 -2 208.31 12.77
-8 0 -2 192.87 11.72
-8 0 -3 139.57 6.1
-8 0 -3 143.07 9.92
-8 0 -4 25.17 3.01
-8 0 -4 23.95 4.14
-8 0 -4 17.36 4.09
-8 0 -5 7.72 1.84
-8 0 -5 3.99 2.8
-8 0 -5 2.45 2.9
-8 0 -5 2.14 2.84
-8 0 -6 9.37 2.09
-8 0 -6 3.9 2.27
-8 0 -6 2.56 2.78
-8 0 -6 -0.44 3.17
-8 0 -7 10.49 3.44
-8 0 -7 8.14 3.18
-8 0 -7 1.17 3.85
8 0 8 2.5 2.97
-8 0 -8 2.55 3.34
-8 0 -8 -4.15 3.82
8 0 9 -0.39 3.08
8 0 9 6.16 3.52
-8 0 -9 1.65 2.83
-8 0 -9 -2.78 4.38
8 0 10 6.82 4.75
8 0 10 0.92 4.14
-8 0 -10 2.05 3.34
-8 0 -10 -1.67 6.62
8 1 -5 5.41 4.98
8 1 -5 9.44 5.64
-8 -1 5 7.71 4.52
-8 -1 5 14.36 8.06
8 1 -4 -0.3 3.96
8 1 -4 2.99 4.58
-8 -1 4 5.82 4.79
-8 -1 4 4.35 5.79
8 1 -3 13.72 5.01
8 1 -3 33.28 5.79
-8 -1 3 33.62 5.9
-8 -1 3 26.46 7.26
8 1 -2 193.85 13.89
-8 -1 2 167.53 10.9
-8 -1 2 190.81 16.6
8 1 -1 110.86 9.86
-8 -1 1 127.12 7.68
-8 -1 1 157.19 12.84
8 1 0 65.61 6.41
-8 -1 0 50.02 4.15
-8 -1 0 68.54 7.6
-8 -1 -1 112.89 5.89
-8 -1 -1 111.71 9.81
-8 -1 -2 52.61 3.32
-8 -1 -2 58.99 6.52
-8 -1 -2 46.82 5.88
-8 -1 -3 53.76 3.15
-8 -1 -3 37.4 2.71
-8 -1 -3 56 5.58
-8 -1 -3 32.14 5.38
-8 -1 -4 72.7 4.12
-8 -1 -4 77.66 6.93
-8 -1 -5 9.4 1.66
-8 -1 -5 6.5 1.76
-8 -1 -5 14.07 3.52
-8 -1 -5 -0.95 3.3
-8 -1 -6 0.59 2
-8 -1 -6 -2.7 1.65
-8 -1 -6 3.08 2.8
-8 -1 -6 0.34 3.11
-8 -1 -7 14.79 2.23
-8 -1 -7 8.21 2.32
-8 -1 -7 5.92 3.83
-8 -1 -7 8.29 4.1
8 1 8 21.72 3.32
-8 -1 -8 16.94 2.8
-8 -1 -8 1.1 5.2
8 1 9 1.49 2.86
8 1 9 10.48 4.08
-8 -1 -9 6.07 2.73
-8 -1 -9 6.19 6.51
8 1 10 1.28 3.06
8 1 10 0.13 4.27
-8 -1 -10 1.52 2.9
-8 -1 -10 3.75 4.99
8 1 11 3.47 5.19
8 1 11 6.18 5.08
-8 -1 -11 10.18 3.63
-8 -1 -11 -2.35 6.14
8 2 -4 -1.14 3.47
8 2 -4 0.22 2.89
-8 -2 4 -2.05 4.32
-8 -2 4 4.05 6.03
8 2 -3 13.91 4.62
8 2 -3 31.81 6.29
-8 -2 3 26.32 4.21
-8 -2 3 30.81 7.43
8 2 -2 141.05 12.34
-8 -2 2 139.3 8.55
-8 -2 2 140.12 14.9
8 2 -1 171.74 12.64
-8 -2 1 154.88 10.68
-8 -2 1 186.44 16.07
8 2 0 82.52 7.5
-8 -2 0 63.8 5.43
-8 -2 0 70.99 8.87
8 2 1 41.71 3.28
-8 -2 -1 29.54 3.36
-8 -2 -1 39.41 6
-8 -2 -2 1.16 1.08
-8 -2 -2 1.02 1.58
-8 -2 -2 1.24 2.16
-8 -2 -2 -0.44 3.09
-8 -2 -3 5.96 1.41
-8 -2 -3 3.79 1.55
-8 -2 -3 8.96 3.59
-8 -2 -3 9.25 3.38
-8 -2 -4 28.6 1.95
-8 -2 -4 28.93 5.03
-8 -2 -4 22.92 4.79
-8 -2 -5 2.49 1.36
-8 -2 -5 1.36 1.43
-8 -2 -5 4.09 3.45
-8 -2 -5 2.1 3.21
-8 -2 -6 -1.27 1.55
-8 -2 -6 1.23 1.64
-8 -2 -6 4.18 3.11
-8 -2 -6 2.84 3.13
-8 -2 -7 6.77 2.3
-8 -2 -7 4.47 2.13
-8 -2 -7 1.32 3.74
-8 -2 -7 0.52 3.98
-8 -2 -8 3.83 2.72
-8 -2 -8 3.34 4.21
8 2 9 9.77 2.62
8 2 9 4.57 5.02
-8 -2 -9 5.63 5.27
8 2 10 11.61 3.15
8 2 10 6.12 5.17
-8 -2 -10 8.36 3.2
-8 -2 -10 5.27 6
8 2 11 2.88 3.02
8 2 11 -8.52 4.7
-8 -2 -11 1.84 2.82
-8 -2 -11 -4 5.44
8 3 -4 9.3 4.26
8 3 -4 6.38 6.2
-8 -3 4 15.04 5.27
-8 -3 4 10.86 7.95
8 3 -3 8.08 3.47
8 3 -3 7.35 3.39
-8 -3 3 9.6 3.22
-8 -3 3 1.33 6.32
8 3 -2 33.46 6.39
-8 -3 2 36.74 3.73
-8 -3 2 22.47 8.1
8 3 -1 46.43 6.46
-8 -3 1 49.99 4.67
-8 -3 1 35.03 8.51
8 3 0 56.87 7.28
-8 -3 0 56.8 3.38
-8 -3 0 67.38 8.5
8 3 1 0.27 1.44
8 3 1 6.96 3.36
-8 -3 -1 3.37 1.67
-8 -3 -1 4.48 4.1
-8 -3 -2 6.63 1.06
-8 -3 -2 4.5 1.24
-8 -3 -2 2.19 2.69
-8 -3 -2 5 4.08
-8 -3 -3 2.96 3.62
-8 -3 -3 1.35 3.34
-8 -3 -4 3.03 3.69
-8 -3 -4 3.15 3.48
-8 -3 -5 3.38 3.93
-8 -3 -5 5.19 3.57
-8 -3 -6 2.02 1.07
-8 -3 -6 2.14 0.95
-8 -3 -6 5.63 3.59
-8 -3 -6 -3.03 3.58
-8 -3 -7 3.82 1.55
-8 -3 -7 -0 1.38
-8 -3 -7 1.25 2.38
-8 -3 -7 -3.03 3.91
-8 -3 -8 1.15 2.03
-8 -3 -8 1.87 1.4
-8 -3 -8 0.36 4.07
8 3 9 9.89 2.28
8 3 9 10.8 5.53
-8 -3 -9 14.1 2.34
-8 -3 -9 1.76 5.51
8 3 10 33.29 4.61
8 3 10 7.31 6.83
-8 -3 -10 32.76 3.57
-8 -3 -10 13.79 7.49
8 3 11 5.35 3.06
8 3 11 8.69 5.4
-8 -3 -11 4.32 3.97
-8 -3 -11 2.02 6.49
8 4 -3 10.44 3.72
8 4 -3 16.59 6.28
-8 -4 3 15.73 3.42
-8 -4 3 17.28 7.44
8 4 -2 -0.05 3.66
8 4 -2 9.21 3.13
-8 -4 2 8.37 2.54
-8 -4 2 5.61 6.28
8 4 -1 0.24 2.02
8 4 -1 1.58 4.03
-8 -4 1 2.94 2.46
-8 -4 1 -0.21 5.13
8 4 0 30.57 5.96
-8 -4 0 24.54 2.82
-8 -4 0 37.43 6.74
8 4 1 12.89 2.65
-8 -4 -1 9.85 1.43
-8 -4 -1 15.86 5.12
-8 -4 -2 58.03 7.44
-8 -4 -2 43.13 7.1
-8 -4 -3 -2.09 3.75
-8 -4 -3 1.3 2.11
-8 -4 -4 5.05 4.36
-8 -4 -4 11.92 4.14
-8 -4 -5 18.81 4.88
-8 -4 -5 8.11 4.43
-8 -4 -6 24.67 5.56
-8 -4 -6 17.45 3.2
-8 -4 -7 8.47 4.43
-8 -4 -7 1.77 4.31
-8 -4 -8 1.04 1.17
-8 -4 -8 -0.78 1.11
-8 -4 -8 -5.2 3.77
-8 -4 -8 -5.46 4.06
8 4 9 2.4 2.03
-8 -4 -9 3.35 2.07
-8 -4 -9 8.25 4.89
8 4 10 1.55 2.54
8 4 10 2.94 4.58
-8 -4 -10 -1.88 2.53
-8 -4 -10 -6.34 5.1
8 4 11 1.61 3.23
8 4 11 6.75 5.26
-8 -4 -11 0.35 2.37
-8 -4 -11 -1 6.03
8 5 -3 2.51 3.18
8 5 -3 5.76 5.65
-8 -5 3 6.6 3.88
-8 -5 3 2.54 6.86
8 5 -2 11.67 4.33
8 5 -2 19.14 6.33
-8 -5 2 19.81 3.9
-8 -5 2 19.85 7.92
8 5 -1 0.32 1.98
8 5 -1 10.66 4.66
-8 -5 1 5.37 1.83
-8 -5 1 0.94 3.69
8 5 0 25.85 5.99
-8 -5 0 19.77 2.09
-8 -5 0 16.67 6.67
-8 -5 -1 4.43 0.74
-8 -5 -1 5.08 3.08
-8 -5 -2 35.73 6.76
-8 -5 -2 25.7 5.98
-8 -5 -3 4.11 4.15
-8 -5 -3 -0.95 2.2
-8 -5 -4 -2.92 4.03
-8 -5 -4 1.04 3.79
-8 -5 -5 46.83 6.82
-8 -5 -5 30.69 3.85
-8 -5 -6 48.89 6.88
-8 -5 -6 27.46 6.17
-8 -5 -7 -3.68 4.29
-8 -5 -7 -3.27 4.27
-8 -5 -8 1.16 4.45
-8 -5 -8 0.02 2.67
-8 -5 -9 7.92 5.32
8 5 10 0.36 5.33
-8 -5 -10 1.67 5.4
8 5 11 5.97 3.73
-8 -5 -11 8.37 6.7
8 6 -2 35.25 5.08
-8 -6 2 35.3 9.98
8 6 -1 0.38 4.87
-8 -6 1 -0.12 6
8 6 0 14.57 4.92
-8 -6 0 4.04 6.33
-8 -6 -1 32.92 7.75
-8 -6 -2 6.15 5.4
-8 -6 -2 5.58 4.62
-8 -6 -3 4.6 5.23
-8 -6 -3 6.01 2.75
-8 -6 -4 2.93 4.42
-8 -6 -4 2.05 4.14
-8 -6 -5 6.67 4.26
-8 -6 -5 -4.13 3.86
-8 -6 -6 11.93 5.27
-8 -6 -6 6.85 4.84
-8 -6 -7 1.74 4.36
-8 -6 -7 -2.39 2.64
-8 -6 -8 3.29 5.38
-8 -6 -8 8.47 5.17
-8 -6 -9 5 5.33
-8 -6 -9 9.32 5.65
-8 -6 -10 8.13 6.24
8 6 11 2.12 5.99
-8 -6 -11 0.06 3.68
8 7 -1 9.54 5.79
-8 -7 1 -0.08 7.16
8 7 0 -4.2 2.93
-8 -7 0 -0.31 6.15
-8 -7 -1 15.68 5.78
-8 -7 -1 2.39 3.46
-8 -7 -2 13.28 6.27
-8 -7 -2 11.96 5.43
-8 -7 -3 -1.23 5.32
-8 -7 -3 7.91 4.49
-8 -7 -4 13.66 5.32
-8 -7 -4 5.13 4.82
-8 -7 -5 5.05 4.62
-8 -7 -5 -2.3 4.12
-8 -7 -6 19.78 6.84
-8 -7 -6 22.05 5.94
-8 -7 -7 21.64 4.43
-8 -7 -7 20.23 6.26
-8 -7 -8 4.1 5.38
-8 -7 -8 5.56 5.46
-8 -7 -9 11.25 6.25
-8 -7 -9 7.3 5.94
-8 -7 -10 17.54 7.16
-8 -7 -11 -7.34 7.07
-8 -8 -1 9.25 6.15
-8 -8 -1 3.87 5.78
-8 -8 -2 4.76 5.6
-8 -8 -2 1.83 4.83
-8 -8 -3 3.92 5.55
-8 -8 -3 3.01 4.67
-8 -8 -4 -1.2 5.57
-8 -8 -4 7.01 4.75
-8 -8 -5 9.59 5.67
-8 -8 -5 6.31 3.19
-8 -8 -6 7.98 5.45
-8 -8 -6 4.37 4.86
-8 -8 -7 6.53 5.62
-8 -8 -7 6.06 5.04
-8 -8 -8 4.08 4.88
-8 -8 -8 -5.28 5.04
-8 -8 -9 8.12 5.56
-8 -8 -9 -4.02 5.44
-8 -8 -10 11.24 5.84
-8 -8 -10 5.35 3.9
-8 -9 -2 14.16 6.45
-8 -9 -2 1.48 5.3
-8 -9 -3 15.22 6.45
-8 -9 -3 6.81 3.54
-8 -9 -4 13.41 6.85
-8 -9 -4 9.73 5.79
-8 -9 -5 24.57 6.89
-8 -9 -5 8.82 6.21
-8 -9 -6 25.29 6.83
-8 -9 -6 10.69 6.34
-8 -9 -7 1.87 5.86
-8 -9 -7 6.73 5.15
-8 -9 -8 -0.23 5.63
-8 -9 -8 6.59 5.54
-8 -9 -9 6.57 5.53
-8 -9 -9 1.28 6.07
-8 -10 -5 4.29 5.77
-8 -10 -5 -3.62 4.88
-8 -10 -6 3.41 5.97
-8 -10 -6 5.44 5.42
-8 -10 -7 11.12 5.64
-8 -10 -7 -1.65 3.04
-9 6 0 8.64 5.41
-9 6 -1 7.31 5.06
-9 6 -2 19.56 6.19
-9 5 2 3.02 4.48
-9 5 1 18.36 3.58
-9 5 1 -6.65 4.74
-9 5 0 23.52 5.78
-9 5 0 5.18 5.09
-9 5 -1 2.63 4.54
-9 5 -1 2.33 4.19
-9 5 -2 19.81 5.9
-9 5 -3 7.83 5.12
-9 5 -4 4.41 5.01
-9 5 -4 16.46 5.2
9 -4 -3 4.31 5.32
9 -4 -3 5.93 3.4
-9 4 3 -0.39 4.17
-9 4 3 -3.13 5.88
9 -4 -2 -10.65 4.66
9 -4 -2 1.48 4.02
-9 4 2 1.85 3.67
-9 4 2 5.99 4.45
-9 4 1 29.18 5.86
-9 4 1 8.28 4.66
-9 4 1 2.5 5.56
-9 4 0 19.03 4.78
-9 4 0 10.18 4.26
-9 4 0 10.04 4.13
-9 4 0 4.01 2.62
-9 4 -1 10.73 4.7
-9 4 -1 11.29 3.64
-9 4 -1 8.04 3.16
-9 4 -2 20.72 5.08
-9 4 -2 15.43 5.04
-9 4 -3 3.53 3.67
-9 4 -3 3.46 3.91
-9 4 -4 7.94 3.91
-9 4 -4 3.06 4.14
-9 4 -5 14.62 4.47
-9 4 -5 7.53 4.76
-9 4 -6 -0.71 3.66
-9 4 -6 1.57 5.25
9 -3 -3 3.18 5.25
9 -3 -3 7.8 5.4
-9 3 3 2.72 4.4
-9 3 3 10.09 4.92
9 -3 -2 6.8 4.87
9 -3 -2 4.13 3.65
-9 3 2 4.13 3.97
-9 3 2 10.87 4.86
-9 3 1 12.54 5.83
-9 3 1 15.55 4.61
-9 3 0 4.48 3.54
-9 3 0 3.46 4.29
-9 3 0 5.08 3.75
-9 3 -1 12.3 3.75
-9 3 -1 5.07 3.1
-9 3 -1 3.6 2.89
-9 3 -2 20.99 3.76
-9 3 -2 8.96 3.72
-9 3 -2 6.47 3.64
-9 3 -2 4.94 2.53
-9 3 -3 3.68 3.02
-9 3 -3 1.16 3.22
-9 3 -3 3.75 2.09
-9 3 -3 0.39 2.03
-9 3 -4 6.8 3.12
-9 3 -4 2.71 3.23
-9 3 -4 -0.41 2.02
-9 3 -4 0.69 2.79
-9 3 -5 -4.74 3.01
-9 3 -5 2.4 3.24
-9 3 -5 0.33 2.08
-9 3 -5 4.25 2.96
-9 3 -6 3.33 3.41
-9 3 -6 5.53 4.88
-9 3 -6 3.94 2.17
-9 3 -6 4.19 3.51
-9 3 -7 1.41 3.63
-9 3 -7 1.58 3.68
9 -2 -3 3.95 5.75
9 -2 -3 21.6 5.02
-9 2 3 13.27 4.75
-9 2 3 23.12 7.14
9 -2 -2 8.74 4.9
9 -2 -2 21.9 4.29
-9 2 2 4.3 4.28
-9 2 2 10.79 5.56
9 -2 -1 -0.6 3.53
9 -2 -1 1.28 3.3
-9 2 1 0.78 3.01
-9 2 1 6.58 4.98
-9 2 0 0.76 3.43
-9 2 0 4.12 2.96
-9 2 0 5.37 3.43
-9 2 -1 4.43 3.01
-9 2 -1 4.71 3.45
-9 2 -1 5.75 3.72
-9 2 -2 4 2.64
-9 2 -2 3.57 2.67
-9 2 -2 -0.86 2.63
-9 2 -2 0.51 3.33
-9 2 -3 3.42 2.54
-9 2 -3 6.99 2.76
-9 2 -3 3.78 3.27
-9 2 -3 1.71 2.42
-9 2 -4 3.03 2.56
-9 2 -4 1.81 2.7
-9 2 -4 2.72 3.19
-9 2 -4 -1.64 3.14
-9 2 -5 2.39 2.59
-9 2 -5 1.27 2.81
-9 2 -5 5.84 3.06
-9 2 -5 -1.76 2.48
-9 2 -6 -1.09 2.75
-9 2 -6 1.42 3.03
-9 2 -6 2.45 2.48
-9 2 -6 4.15 2.8
-9 2 -7 3.68 2.99
-9 2 -7 1.39 3.18
-9 2 -7 0.29 2.67
-9 2 -7 3.48 3.23
-9 2 -8 5.62 3.33
-9 2 -8 0.93 3.57
-9 2 -8 0.06 2.73
-9 2 -8 6.34 3.7
9 -1 -4 -0.02 5.12
9 -1 -4 8.75 5.05
-9 1 4 7.7 4.38
9 -1 -3 -0.61 4.82
9 -1 -3 12.73 5
-9 1 3 9.53 4.32
-9 1 3 18.63 6.1
9 -1 -2 8.57 5.9
9 -1 -2 18.4 4.6
-9 1 2 8.47 3.89
-9 1 2 18.72 5.71
9 -1 -1 -0.05 3.2
9 -1 -1 1.88 3.55
-9 1 1 0.33 2.86
-9 1 1 3.91 4.11
-9 1 0 -0.07 2.55
-9 1 0 2.8 3.62
-9 1 -1 -0.14 2.42
-9 1 -1 -0.28 3.3
-9 1 -1 3.53 3.77
-9 1 -2 2.05 2.46
-9 1 -2 4.54 3.29
-9 1 -2 5.42 2.95
-9 1 -3 2 2.19
-9 1 -3 1.14 2.19
-9 1 -3 2.51 2.7
-9 1 -3 2.53 3.44
-9 1 -4 0.96 2.07
-9 1 -4 0.71 2.27
-9 1 -4 6.58 3.64
-9 1 -4 -0.52 2.49
-9 1 -5 6.72 2.34
-9 1 -5 2.04 2.59
-9 1 -5 6.9 2.83
-9 1 -5 2.8 2.98
-9 1 -6 0.79 2.46
-9 1 -6 3.03 2.6
-9 1 -6 4.78 2.73
-9 1 -6 1.34 3.03
-9 1 -7 12.19 2.89
-9 1 -7 6.71 4.13
-9 1 -7 4.37 4.14
-9 1 -7 0.41 3.81
-9 1 -8 5.09 2.89
-9 1 -8 -1.65 3.05
-9 1 -8 5.01 2.85
-9 1 -8 -0.42 3.95
-9 1 -9 3.04 3.26
-9 1 -9 1.4 3.5
-9 1 -9 7.33 4.45
9 0 -3 -0.84 4.03
9 0 -3 6.73 4.52
-9 0 3 5.03 3.59
-9 0 3 2.19 5.83
9 0 -2 3.32 4.62
9 0 -2 5.86 4.02
-9 0 2 1.67 3.17
-9 0 2 0.75 5.15
9 0 -1 5.19 3.11
9 0 -1 2.79 3.81
-9 0 1 4.96 2.92
-9 0 1 8.19 4.95
9 0 0 -0.47 2.68
9 0 0 7.81 3.48
-9 0 0 3.04 2.64
-9 0 0 10.67 4.6
-9 0 -1 4.18 2.9
-9 0 -1 1.12 2.14
-9 0 -1 4.45 3.7
-9 0 -1 3.41 3.49
-9 0 -2 12.14 2.83
-9 0 -2 2.27 2.13
-9 0 -2 2.54 3.63
-9 0 -2 6.19 4.31
-9 0 -3 5.79 1.84
-9 0 -3 4.96 2.63
-9 0 -3 1.41 3.46
-9 0 -3 -1.43 4.23
-9 0 -4 6.63 2.45
-9 0 -4 2.33 1.94
-9 0 -4 0.15 3.1
-9 0 -4 6.31 4.12
-9 0 -5 3.25 1.86
-9 0 -5 2.43 2.11
-9 0 -5 1.04 2.99
-9 0 -5 3.98 4.04
-9 0 -6 1.94 1.96
-9 0 -6 0.64 2.16
-9 0 -6 -3.22 2.98
-9 0 -6 3.01 3.17
-9 0 -7 2.2 2.81
-9 0 -7 1.17 2.3
-9 0 -7 -1.53 2.91
-9 0 -7 0.77 3.42
-9 0 -8 10.04 2.77
-9 0 -8 6.4 2.91
-9 0 -8 4.86 3.67
-9 0 -8 5.69 5.96
-9 0 -9 0.12 3.47
-9 0 -9 -2.32 2.78
-9 0 -9 2.12 2.96
-9 0 -9 0.4 4.24
9 1 -3 3.96 4.76
9 1 -3 2.42 4.54
-9 -1 3 -5.03 3.22
-9 -1 3 2.7 5.81
9 1 -2 8.13 4.64
9 1 -2 2.84 4.52
-9 -1 2 6.21 3.2
-9 -1 2 4.23 6.14
9 1 -1 1.83 2.52
9 1 -1 -5.31 3.63
-9 -1 1 0.47 3.25
-9 -1 1 2.14 4.74
9 1 0 1.57 2.32
9 1 0 15.67 4.17
-9 -1 0 2.57 2.47
-9 -1 0 10.81 4.9
-9 -1 -1 1.33 1.99
-9 -1 -1 2.79 2.51
-9 -1 -1 4.18 4.07
-9 -1 -2 -1.13 2.07
-9 -1 -2 -1.12 2.1
-9 -1 -2 -1.15 3.65
-9 -1 -2 0.83 3.32
-9 -1 -3 19.91 2.58
-9 -1 -3 15.24 4.83
-9 -1 -3 18.64 4.46
-9 -1 -4 0.35 1.82
-9 -1 -4 2.82 1.98
-9 -1 -4 2.96 3.35
-9 -1 -4 -1.24 4.31
-9 -1 -5 2.41 1.41
-9 -1 -5 1.94 2.08
-9 -1 -5 -2.86 3.37
-9 -1 -5 4.51 3.22
-9 -1 -6 1.54 1.49
-9 -1 -6 -1.07 1.71
-9 -1 -6 1.04 4.44
-9 -1 -6 1.08 3.35
-9 -1 -7 0.47 1.76
-9 -1 -7 2.38 2.52
-9 -1 -7 0.66 3.25
-9 -1 -7 2.05 3.58
-9 -1 -8 3.51 2.8
-9 -1 -8 2.12 2.24
-9 -1 -8 3.07 3.68
-9 -1 -8 3.28 4.25
-9 -1 -9 2.84 2.43
-9 -1 -9 2.63 2.63
-9 -1 -9 4.95 3.52
-9 -1 -9 1.75 4.73
-9 -1 -10 3.38 2.83
-9 -1 -10 1.57 5.2
9 2 -3 4.55 5.66
9 2 -3 11.66 5.86
-9 -2 3 13.64 3.8
-9 -2 3 16.28 7.34
9 2 -2 0.84 2.99
9 2 -2 0.91 4.49
-9 -2 2 2.55 2.77
-9 -2 2 3.53 3.52
9 2 -1 2.73 3.29
9 2 -1 0.99 4.21
-9 -2 1 4.05 2.46
-9 -2 1 8.8 5.47
9 2 0 0.2 2.5
9 2 0 1.79 4.02
-9 -2 0 1.18 1.99
-9 -2 0 10.24 4.86
-9 -2 -1 8.15 2.72
-9 -2 -1 15.72 5.11
-9 -2 -2 15.79 2.05
-9 -2 -2 6.6 1.8
-9 -2 -2 11.74 4.98
-9 -2 -2 15.42 4.44
-9 -2 -3 1.7 1.4
-9 -2 -3 0.72 1.55
-9 -2 -3 -3.16 3.79
-9 -2 -3 -4.05 3.51
-9 -2 -4 1.2 1.29
-9 -2 -4 0.56 1.41
-9 -2 -4 1.6 3.65
-9 -2 -4 7.44 3.54
-9 -2 -5 2.31 1.04
-9 -2 -5 2.65 1.51
-9 -2 -5 5.2 3.75
-9 -2 -5 -1.53 3.65
-9 -2 -6 8.84 2.02
-9 -2 -6 15.89 4.76
-9 -2 -6 5.43 4.35
-9 -2 -7 13.7 2.86
-9 -2 -7 32.14 5.37
-9 -2 -7 5.9 5.62
-9 -2 -8 6.69 2.52
-9 -2 -8 5.64 2.57
-9 -2 -8 7.02 4.28
-9 -2 -8 -2.23 4.61
-9 -2 -9 2.9 2.75
-9 -2 -9 5.84 2.83
-9 -2 -9 -2.56 3.92
-9 -2 -9 4.1 4.93
-9 -2 -10 5.51 3.29
-9 -2 -10 -0.7 5.62
9 3 -2 2.61 2.95
9 3 -2 1.64 4.8
-9 -3 2 5.26 3.53
-9 -3 2 4.68 6.18
9 3 -1 6.36 3.26
9 3 -1 3.78 4.7
-9 -3 1 6.12 2.33
9 3 0 2.16 2.17
9 3 0 -5.05 4.23
-9 -3 0 0.62 2.26
-9 -3 0 11.58 5.17
-9 -3 -1 3.04 1.93
-9 -3 -1 4.54 5.02
-9 -3 -2 6.1 1.22
-9 -3 -2 4.69 1.38
-9 -3 -2 12.36 4.78
-9 -3 -2 5.45 4.26
-9 -3 -3 9.15 4.82
-9 -3 -3 5.97 4.28
-9 -3 -4 8.81 4.35
-9 -3 -4 4.15 4.27
-9 -3 -5 -5.62 3.85
-9 -3 -5 4.35 3.52
-9 -3 -6 12.2 5.22
-9 -3 -6 16.34 4.89
-9 -3 -7 49.06 7.16
-9 -3 -7 26.4 7.1
-9 -3 -8 18.79 5.14
-9 -3 -8 9.58 5.44
-9 -3 -9 4.09 3.98
-9 -3 -9 -6.85 4.61
-9 -3 -10 -4.64 5.75
9 4 -2 7.73 5.55
-9 -4 2 5.24 7.14
9 4 -1 -0.24 5.01
-9 -4 1 -4.59 6.2
9 4 0 7.57 4.99
-9 -4 0 2.54 5.95
-9 -4 -1 15.92 6.19
-9 -4 -2 10.92 5.58
-9 -4 -2 7.61 4.89
-9 -4 -3 28.87 6.56
-9 -4 -3 18.31 5.8
-9 -4 -4 36.68 6.68
-9 -4 -4 26.75 6.13
-9 -4 -5 9.86 4.71
-9 -4 -5 4.35 4.42
-9 -4 -6 11.77 4.87
-9 -4 -6 0.68 4.5
-9 -4 -7 16.9 5.85
-9 -4 -7 16.34 5.51
-9 -4 -8 18.93 5.12
-9 -4 -8 3.76 3.42
-9 -4 -9 4.91 5.41
-9 -4 -9 4.72 5.22
-9 -4 -10 5.82 6.05
9 5 -1 18.84 6.6
-9 -5 1 6.32 7.72
9 5 0 5.62 5.19
-9 -5 0 14.28 6.91
-9 -5 -1 -3.01 5.6
-9 -5 -2 16.52 6.4
-9 -5 -2 11.44 5.5
-9 -5 -3 74.67 9.55
-9 -5 -3 42.86 8.39
-9 -5 -4 12.79 5.66
-9 -5 -4 8.65 5.29
-9 -5 -5 17.25 5.87
-9 -5 -5 13.57 5.26
-9 -5 -6 12.03 5.62
-9 -5 -6 14.12 5.22
-9 -5 -7 0.98 4.68
-9 -5 -7 2.01 4.36
-9 -5 -8 -1.37 4.99
-9 -5 -8 -6.76 5.18
-9 -5 -9 3.29 5.65
-9 -5 -9 4.7 3.4
-9 -5 -10 2.89 5.26
-9 -5 -10 5.46 5.98
-9 -6 0 46.21 10.87
-9 -6 -1 2.95 4.14
-9 -6 -1 8.03 3.74
-9 -6 -2 16.41 7.43
-9 -6 -2 20.81 6.51
-9 -6 -3 60.28 9.51
-9 -6 -3 33.46 8.38
-9 -6 -4 79.34 10.87
-9 -6 -4 60.72 9.59
-9 -6 -5 3.55 5.4
-9 -6 -5 5.35 4.84
-9 -6 -6 2.81 3.23
-9 -6 -6 3.9 4.71
-9 -6 -7 1 5.36
-9 -6 -7 3.86 4.71
-9 -6 -8 11.44 6.43
-9 -6 -8 15.02 6.44
-9 -6 -9 18.59 7.07
-9 -6 -9 15.42 7.1
-9 -6 -10 13.08 6.75
-9 -6 -10 6.01 4.13
-9 -7 -1 18.46 8.29
-9 -7 -1 19.64 7.52
-9 -7 -2 8.27 6.93
-9 -7 -2 15.25 6.03
-9 -7 -3 15.18 5.99
-9 -7 -3 -1.74 5.21
-9 -7 -4 7.99 6
-9 -7 -4 -0.17 5.07
-9 -7 -5 50.94 9.07
-9 -7 -5 38.26 7.99
-9 -7 -6 1.97 5.24
-9 -7 -6 -1.11 4.64
-9 -7 -7 2.84 5.8
-9 -7 -7 4.12 5.1
-9 -7 -8 -1.52 5.62
-9 -7 -8 7.44 5.47
-9 -7 -9 6.5 6.62
-9 -7 -9 18.95 6.75
-9 -8 -3 7.66 3.83
-9 -8 -3 -5.77 5.26
-9 -8 -4 12.87 6.86
-9 -8 -4 7.23 5.85
-9 -8 -5 17.44 7.36
-9 -8 -5 17.52 6.5
-9 -8 -6 15.26 4.59
-9 -8 -6 12.46 6.47
-9 -8 -7 -1.14 5.85
-9 -8 -7 6.98 5.21
-9 -8 -8 6.45 5.82
-9 -8 -8 -7.26 5.41
-10 4 -1 -2.79 3.95
-10 4 -2 3.72 4.05
-10 4 -3 0.84 3.84
-10 3 0 0.49 3.75
-10 3 0 -0.82 3.41
-10 3 0 1.44 3.38
-10 3 0 1.86 2.84
-10 3 -1 -0.71 3.55
-10 3 -1 1.23 3.25
-10 3 -1 2.19 2.88
-10 3 -1 2.43 2.71
-10 3 -2 5.49 3.54
-10 3 -2 4.01 3.42
-10 3 -2 -0.07 3.68
-10 3 -2 3.17 3.37
-10 3 -3 4.9 3.29
-10 3 -3 2.54 3.4
-10 3 -3 0.99 2.31
-10 3 -4 6.56 3.52
-10 3 -4 3.63 3.57
-10 3 -5 3.56 3.44
-10 3 -5 4.05 3.7
-10 2 1 5.45 3.7
-10 2 1 6.02 4.92
-10 2 0 7.04 4.39
-10 2 0 -3.6 3.02
-10 2 0 3.22 3.79
-10 2 0 2.46 3.25
-10 2 -1 0.69 3.16
-10 2 -1 5.76 3.06
-10 2 -1 5.95 3.46
-10 2 -1 1.38 3.1
-10 2 -2 0.25 2.85
-10 2 -2 8.8 3.16
-10 2 -2 -0.66 2.88
-10 2 -3 1.18 2.78
-10 2 -3 1.7 2.63
-10 2 -4 5.18 3.25
-10 2 -4 6.18 3.07
-10 2 -4 2.02 3.03
-10 2 -5 5.43 3.16
-10 2 -5 0.44 3.86
-10 2 -5 0.56 3.79
-10 2 -6 -0.22 2.82
-10 2 -6 -0.08 3.08
-10 2 -6 4.07 2.63
-10 2 -6 -3.6 3.93
10 -1 -1 4.96 4.12
10 -1 -1 11.73 4.46
-10 1 1 8.12 4.67
-10 1 1 10.37 5.33
-10 1 0 7.04 3.45
-10 1 0 1.26 2.91
-10 1 0 4.66 4.47
-10 1 0 5.68 4.1
-10 1 -1 6.02 2.86
-10 1 -1 2.13 2.68
-10 1 -1 6.82 4.29
-10 1 -1 6.57 3.48
-10 1 -2 1.87 3.19
-10 1 -2 -1.52 3.17
-10 1 -2 1.9 3.4
-10 1 -2 3.01 3.15
-10 1 -3 -0.82 2.45
-10 1 -3 3.56 3.25
-10 1 -3 6.85 3.09
-10 1 -4 7.52 2.96
-10 1 -4 11.31 3.79
-10 1 -4 5.89 3.6
-10 1 -5 11.86 3.11
-10 1 -5 3.7 5.08
-10 1 -5 3.13 3.79
-10 1 -6 12.33 2.86
-10 1 -6 2.87 3.07
-10 1 -6 -0.61 3.36
-10 1 -6 8.11 3.55
-10 1 -7 7.63 2.77
-10 1 -7 1.66 3.09
-10 1 -7 1.72 3.33
-10 1 -7 0.96 3.75
10 0 -1 2.71 3.25
10 0 -1 9.71 4.62
-10 0 1 -0.27 3.05
-10 0 1 10.88 5.56
-10 0 0 3.35 2.84
-10 0 0 4.59 5.18
-10 0 -1 0.55 2.47
-10 0 -1 4.96 4.5
-10 0 -1 3.82 3.78
-10 0 -2 2 2.77
-10 0 -2 1.15 2.73
-10 0 -2 3.05 5.21
-10 0 -2 2.39 3.49
-10 0 -3 1.69 2.57
-10 0 -3 6.81 3.65
-10 0 -3 0.15 3.46
-10 0 -4 13.9 5.68
-10 0 -4 2.86 5.23
-10 0 -5 18.47 2.63
-10 0 -5 4.34 3.52
-10 0 -5 12.19 4.36
-10 0 -5 12.62 4.23
-10 0 -6 7.55 2.54
-10 0 -6 8.12 3.57
-10 0 -6 8.21 5.23
-10 0 -6 12.11 4.21
-10 0 -7 2.66 3.14
-10 0 -7 5.08 3.51
-10 0 -7 5.1 3.59
-10 0 -7 7.58 3.98
-10 0 -8 1.19 2.29
-10 0 -8 0.66 2.53
-10 0 -8 1.2 3.26
-10 0 -8 -5.14 3.99
10 1 -1 -4.45 3.7
10 1 -1 6.96 4.52
-10 -1 1 0.92 3.5
-10 -1 1 5.25 5.54
-10 -1 0 8.54 3.31
-10 -1 0 41.96 7.24
-10 -1 -1 44.08 3.58
-10 -1 -1 39.81 10.88
-10 -1 -1 39.98 7.04
-10 -1 -2 2.53 2.05
-10 -1 -2 13.17 4.7
-10 -1 -2 -1.13 4.08
-10 -1 -3 14.56 2.09
-10 -1 -3 7.69 2.01
-10 -1 -3 13.63 5.11
-10 -1 -3 6.44 4.76
-10 -1 -4 8.37 2.39
-10 -1 -4 7.58 2.49
-10 -1 -4 12.38 4.72
-10 -1 -4 7.99 4.37
-10 -1 -5 5.86 1.73
-10 -1 -5 5.54 2.37
-10 -1 -5 8.45 4.15
-10 -1 -5 5.26 4.04
-10 -1 -6 6.09 1.91
-10 -1 -6 6.32 2.04
-10 -1 -6 11.88 4.24
-10 -1 -6 5.17 4.49
-10 -1 -7 3.28 1.95
-10 -1 -7 5.02 2.78
-10 -1 -7 10.27 4.17
-10 -1 -7 3.28 4.42
-10 -1 -8 1.52 2.7
-10 -1 -8 8.05 2.96
-10 -1 -8 4.34 3.88
-10 -1 -8 4.6 4.52
10 2 -1 7.8 5.38
-10 -2 1 4.58 6.81
-10 -2 0 14.93 7.33
-10 -2 -1 88.76 10.77
-10 -2 -1 48.82 9.86
-10 -2 -2 60.33 8.59
-10 -2 -2 32.92 7.3
-10 -2 -3 17.92 5.57
-10 -2 -3 4.8 4.98
-10 -2 -4 3.33 4.69
-10 -2 -5 -1.09 4.03
-10 -2 -5 4.19 3.96
-10 -2 -6 6.4 4.19
-10 -2 -6 -0.43 4.16
-10 -2 -7 6.66 4.77
-10 -2 -7 8.2 5.01
-10 -2 -8 4.83 4.33
-10 -2 -8 2.7 4.8
-10 -2 -9 8.82 4.6
-10 -2 -9 6.13 5.53
-10 -3 0 26.09 8.76
-10 -3 -1 -0.36 6.69
-10 -3 -1 19.36 5.9
-10 -3 -2 30.41 7.14
-10 -3 -2 15.53 6.22
-10 -3 -3 23.69 6.41
-10 -3 -3 15.01 5.82
-10 -3 -4 -1.77 4.81
-10 -3 -4 -1.59 4.31
-10 -3 -5 6.82 4.76
-10 -3 -5 5.96 4.58
-10 -3 -6 4.09 4.52
-10 -3 -6 0.95 4.36
-10 -3 -7 0.81 4.51
-10 -3 -7 1.68 4.6
-10 -3 -8 3.51 4.52
-10 -3 -8 -0.54 4.89
-10 -3 -9 -3.18 4.49
-10 -3 -9 2.02 5.01
-10 -4 0 6.85 7.18
-10 -4 -1 3.42 5.69
-10 -4 -1 -1.04 5.26
-10 -4 -2 19.25 6.38
-10 -4 -2 1.52 5.6
-10 -4 -3 11.55 5.91
-10 -4 -3 6.48 5.16
-10 -4 -4 3.02 5.65
-10 -4 -4 8.56 4.84
-10 -4 -5 0.85 2.99
-10 -4 -5 7.37 4.52
-10 -4 -6 0.82 4.73
-10 -4 -6 2.03 4.48
-10 -4 -7 4.91 5.84
-10 -4 -7 13.59 5.41
-10 -4 -8 8.38 5.49
-10 -4 -8 4.06 5.86
-10 -4 -9 0.76 5.26
-10 -4 -9 6.55 5.66
-10 -5 -1 2.16 6.74
-10 -5 -1 5.9 5.95
-10 -5 -2 8.02 6.56
-10 -5 -2 5.9 5.66
-10 -5 -3 21.14 7.54
-10 -5 -3 16.86 6.22
-10 -5 -4 12.54 6.72
-10 -5 -4 7.64 5.7
-10 -5 -5 15.56 6.23
-10 -5 -5 7.44 5.58
-10 -5 -6 10.08 5.15
-10 -5 -6 -5.15 4.91
-10 -5 -7 -8.98 5.26
-10 -5 -7 5.12 4.97
-10 -5 -8 11.48 6.38
-10 -5 -8 3.24 6.29
-10 -5 -9 8.03 6.41
-10 -5 -9 9.67 6.38
-10 -6 -2 8.39 7.13
-10 -6 -3 24.19 7.85
-10 -6 -3 14.33 7.03
-10 -6 -4 22.76 7.97
-10 -6 -4 13.89 6.71
-10 -6 -5 19.07 6.97
-10 -6 -5 11.45 6.32
-10 -6 -6 4 6.07
-10 -6 -6 8.17 5.52
-10 -6 -7 5.1 6.28
-10 -6 -7 9.25 5.62
-10 -6 -8 3.93 3.88
-10 -6 -8 4.63 5.92
-10 -7 -4 16.86 8.26
-10 -7 -5 9.76 6.78
-10 -7 -5 2.56 5.83
-10 -7 -6 1.99 5.67
-10 -7 -6 -2.21 3.33
-10 -7 -7 4.43 5.85
-10 -7 -7 -2.1 5.2
-11 0 -3 3.67 4.36
-11 0 -3 5.29 3.9
-11 0 -4 -1.62 4.01
-11 0 -4 5.3 3.7
-11 0 -5 4.57 4.08
-11 0 -5 1.9 5.12
-11 -1 -2 2.19 5.47
-11 -1 -2 6.59 4.66
-11 -1 -3 3.21 4.86
-11 -1 -3 2.84 4.37
-11 -1 -4 1.85 5.96
-11 -1 -4 2.22 4.11
-11 -1 -5 3.57 4.76
-11 -1 -5 7.2 5.76
-11 -1 -6 3.49 3.94
-11 -1 -6 -3.47 4.23
-11 -2 -3 -2.3 5.11
-11 -2 -3 5.47 4.59
-11 -2 -4 4.31 4.9
-11 -2 -4 1.17 4.45
-11 -2 -5 7.95 4.99
-11 -2 -5 -0.84 4.53
-11 -2 -6 2.97 4.69
-11 -2 -6 3.6 4.55
-11 -3 -3 9.35 5.81
-11 -3 -3 0.82 5.18
-11 -3 -4 4.86 5.72
-11 -3 -4 8.55 5.24
-11 -3 -5 3.19 5.05
-11 -3 -5 -3.46 4.58
-11 -3 -6 -1.98 5.15
-11 -3 -6 -6.49 4.93
-11 -4 -5 6.51 6.17
-11 -4 -5 3.95 5.4
